data_PCOD8216260
_publ_section_title
;
Structure prediction by ZEFSAII (Michael W. Deem and Ramdas Pophale) SiO2 
 PCOD8216260
Probable space group: P N N A
;
_chemical_formula_sum "Si O2"
_cell_formula_units_Z 56
_cell_length_a 14.694602
_cell_length_b 13.486266
_cell_length_c 13.065285
_cell_angle_alpha 90.000000
_cell_angle_beta 90.000000
_cell_angle_gamma 90.000000
_cell_volume 2589.216923
_symmetry_space_group_name_H-M "P N N A"
_symmetry_group_IT_number 52
_symmetry_cell_setting 'orthorhombic'
loop_
_space_group_symop_operation_xyz
x,y,z
1/2-x,-y,z
x,1/2-y,1/2-z
1/2-x,1/2+y,1/2-z
-x,-y,-z
1/2+x,y,-z
-x,1/2+y,1/2+z
1/2+x,1/2-y,1/2+z
loop_
_atom_site_type_symbol
_atom_site_label
_atom_site_fract_x
_atom_site_fract_y
_atom_site_fract_z
Si Si1 0.722223 0.218297 0.507589
Si Si2 0.574951 0.798438 0.535932
Si Si3 0.560454 0.313875 0.851634
Si Si4 0.822622 0.573641 0.157130
Si Si5 0.478623 0.030766 0.307283
Si Si6 0.496850 0.414086 0.415334
Si Si7 0.205674 0.102554 0.880988
O O1 0.818758 0.169715 0.534758
O O2 0.654728 0.231953 0.604153
O O3 0.660435 0.157991 0.426437
O O4 0.754946 0.319182 0.453504
O O5 0.525514 0.811231 0.427380
O O6 0.538644 0.873264 0.622592
O O7 0.562441 0.682730 0.560601
O O8 0.536673 0.250000 0.750000
O O9 0.576755 0.431396 0.834784
O O10 0.750000 0.500000 0.106793
O O11 0.778233 0.620264 0.260171
O O12 0.913127 0.512025 0.183917
O O13 0.452698 0.047598 0.189538
O O14 0.500000 0.500000 0.500000
O O15 0.599857 0.381992 0.401441
O O16 0.250000 0.000000 0.916139
#
# Coordination Sequence:
#
# PCOD8216260 Si02
#       7
#     8   8   8   8   8   8   8
#     4  12  25  41  69  97 139 181 237 284 357 420
#     4  12  25  44  70  99 137 189 241 286 351 431
#     4  12  27  46  67 101 145 184 236 297 364 426
#     4  10  21  39  69 101 132 169 226 290 358 417
#     4  11  24  43  69  99 137 181 231 289 353 432
#     4  11  22  42  71 100 136 181 226 288 354 420
#     4  10  21  40  65 102 133 168 225 290 352 420
#
# _framework density 21.628160000000001
#
# number of rings (size 3 to 8) (size 9 to 14) (size 15 to 20)
#    0.000    0.857    2.857    3.857    2.000    6.857 
#    0.000    0.000    0.000    0.000    0.000    0.000 
#    0.000    0.000    0.000    0.000    0.000    0.000 
#
# Total GULP energy -694107.035785 kJ/mol
# GULP energy per Si atom -12394.768496 kJ/mol
# Density = 2.157893 g / cm^3
# Si number density = 21.628160 Si / 1000 Ang^3
#
#
#
# Elastic Constant Matrix: (Units=GPa)
#
#
# Indices 1 2 3 4 5 6 
#
# 1 77.1785 8.0049 26.1090 0.0000 0.0000 0.0000
# 2 8.0049 119.9715 55.7844 0.0000 0.0000 0.0000
# 3 26.1090 55.7844 140.6390 0.0000 0.0000 0.0000
# 4 0.0000 0.0000 0.0000 34.3504 0.0000 0.0000
# 5 0.0000 0.0000 0.0000 0.0000 24.6362 0.0000
# 6 0.0000 0.0000 0.0000 0.0000 0.0000 30.8472
#
#
#
# Elastic Compliance Matrix: (Units=1/GPa)
#
#
# Indices 1 2 3 4 5 6 
#
# 1 0.013836 0.000332 -0.002700 0.000000 0.000000 0.000000
# 2 0.000332 0.010228 -0.004119 0.000000 0.000000 0.000000
# 3 -0.002700 -0.004119 0.009245 0.000000 0.000000 0.000000
# 4 0.000000 0.000000 0.000000 0.029112 0.000000 0.000000
# 5 0.000000 0.000000 0.000000 0.000000 0.040591 0.000000
# 6 0.000000 0.000000 0.000000 0.000000 0.000000 0.032418
#
#
# Mechanical properties :
#
#
# Convention : Reuss Voigt Hill
#
# Bulk Modulus (GPa) = 49.17332 57.50954 53.34143
# Shear Modulus (GPa) = 32.22015 34.49279 33.35647
#
# Velocity S-wave (km/s) = 3.86389 3.99784 3.93144
# Velocity P-wave (km/s) = 6.53386 6.92518 6.73237
#
# Compressibility (1/GPa) = 0.02033623
#
# Stress axis : x y z
#
# Youngs Moduli (GPa) = 72.27496 97.76818 108.16140
#
# Poissons Ratio (x) = -0.03251 0.29209
# Poissons Ratio (y) = -0.02403 0.44549
# Poissons Ratio (z) = 0.19518 0.40268
#
# Static dielectric constant tensor:
#      x y z
#    x 3.741060 0.000000 0.000000 
#    y 0.000000 4.006760 0.000000 
#    z 0.000000 0.000000 4.130510 
# 
# 
# High freq. dielectric constant tensor:
#      x y z
#    x 1.844890 0.000000 0.000000 
#    y 0.000000 1.855170 0.000000 
#    z 0.000000 0.000000 1.855500 
# 
# From -- ./inp_files/19646.got.cif
#   From: 2010.06.25/outbox.cif.g09.slc.cpg/sg52_10_cif.got.tgz:19646.got - 2010.06.26 19:32:48.
