data_PCOD8216060
_publ_section_title
;
Structure prediction by ZEFSAII (Michael W. Deem and Ramdas Pophale) SiO2 
 PCOD8216060
Probable space group: P N N A
;
_chemical_formula_sum "Si O2"
_cell_formula_units_Z 64
_cell_length_a 9.725377
_cell_length_b 20.943245
_cell_length_c 17.538704
_cell_angle_alpha 90.000000
_cell_angle_beta 90.000000
_cell_angle_gamma 90.000000
_cell_volume 3572.299949
_symmetry_space_group_name_H-M "P N N A"
_symmetry_group_IT_number 52
_symmetry_cell_setting 'orthorhombic'
loop_
_space_group_symop_operation_xyz
x,y,z
1/2-x,-y,z
x,1/2-y,1/2-z
1/2-x,1/2+y,1/2-z
-x,-y,-z
1/2+x,y,-z
-x,1/2+y,1/2+z
1/2+x,1/2-y,1/2+z
loop_
_atom_site_type_symbol
_atom_site_label
_atom_site_fract_x
_atom_site_fract_y
_atom_site_fract_z
Si Si1 0.677124 0.644311 0.870241
Si Si2 0.595318 0.521311 0.933281
Si Si3 0.048801 0.947471 0.853902
Si Si4 0.979857 0.317435 0.724151
Si Si5 0.869741 0.548916 0.791501
Si Si6 0.947803 0.852460 0.982534
Si Si7 0.640695 0.415340 0.366355
Si Si8 0.184574 0.785155 0.077440
O O1 0.595380 0.597889 0.927679
O O2 0.583106 0.651515 0.797518
O O3 0.815471 0.611640 0.836777
O O4 0.699451 0.708690 0.918333
O O5 0.750000 0.500000 0.949945
O O6 0.541003 0.490406 0.853792
O O7 0.500000 0.500000 0.000000
O O8 0.207338 0.932627 0.840708
O O9 0.960744 0.928367 0.779676
O O10 0.997654 0.908449 0.926856
O O11 0.037438 0.023842 0.866619
O O12 0.045009 0.250000 0.750000
O O13 0.862114 0.310604 0.659812
O O14 0.099281 0.362770 0.695126
O O15 0.750000 0.500000 0.763171
O O16 0.838279 0.808717 0.938907
O O17 0.864057 0.885889 0.049878
O O18 0.074812 0.809195 0.013535
#
# Coordination Sequence:
#
# PCOD8216060 Si02
#       8
#     8   8   8   8   8   8   8   8
#     4   9  18  36  59  81 105 149 192 233 287 349
#     4   9  19  36  56  81 113 137 182 239 292 351
#     4  11  21  36  58  83 119 151 195 239 292 349
#     4   9  18  36  57  80 107 146 191 232 283 338
#     4   9  19  36  58  84 112 142 189 243 293 346
#     4  11  21  38  52  84 118 158 192 237 282 338
#     4  10  21  36  54  84 119 153 187 239 290 355
#     4  10  21  34  59  78 115 153 198 233 281 346
#
# _framework density 17.915628999999999
#
# number of rings (size 3 to 8) (size 9 to 14) (size 15 to 20)
#    0.000    2.500    1.250    2.625    0.000    3.000 
#    6.750    1.250    0.000    0.000    0.000    0.000 
#    0.000    0.000    0.000    0.000    0.000    0.000 
#
# Total GULP energy -793185.814812 kJ/mol
# GULP energy per Si atom -12393.528356 kJ/mol
# Density = 1.787485 g / cm^3
# Si number density = 17.915629 Si / 1000 Ang^3
#
#
#
# Elastic Constant Matrix: (Units=GPa)
#
#
# Indices 1 2 3 4 5 6 
#
# 1 70.6580 47.4862 42.7653 0.0000 0.0000 0.0000
# 2 47.4862 138.1504 60.5951 0.0000 0.0000 0.0000
# 3 42.7653 60.5951 97.3462 0.0000 0.0000 0.0000
# 4 0.0000 0.0000 0.0000 410.3755 0.0000 0.0000
# 5 0.0000 0.0000 0.0000 0.0000 -7.0052 0.0000
# 6 0.0000 0.0000 0.0000 0.0000 0.0000 -1.8800
#
#
#
# Elastic Compliance Matrix: (Units=1/GPa)
#
#
# Indices 1 2 3 4 5 6 
#
# 1 0.021037 -0.004371 -0.006521 0.000000 0.000000 0.000000
# 2 -0.004371 0.010865 -0.004843 0.000000 0.000000 0.000000
# 3 -0.006521 -0.004843 0.016152 0.000000 0.000000 0.000000
# 4 0.000000 0.000000 0.000000 0.002437 0.000000 0.000000
# 5 0.000000 0.000000 0.000000 0.000000 -0.142752 0.000000
# 6 0.000000 0.000000 0.000000 0.000000 0.000000 -0.531918
#
#
# Mechanical properties :
#
#
# Convention : Reuss Voigt Hill
#
# Bulk Modulus (GPa) = 60.29813 67.53863 63.91838
# Shear Modulus (GPa) = -8.51526 90.65193 41.06834
#
# Velocity S-wave (km/s) = -2.18250 7.12104 4.79301
# Velocity P-wave (km/s) = 5.23247 10.26607 8.14773
#
# Compressibility (1/GPa) = 0.01658426
#
# Stress axis : x y z
#
# Youngs Moduli (GPa) = 47.53549 92.03797 61.91144
#
# Poissons Ratio (x) = 0.40227 0.40373
# Poissons Ratio (y) = 0.20776 0.29984
# Poissons Ratio (z) = 0.30998 0.44575
#
# Static dielectric constant tensor:
#      x y z
#    x 3.076950 0.000000 0.000000 
#    y 0.000000 0.583200 0.000000 
#    z 0.000000 0.000000 3.522690 
# 
# 
# High freq. dielectric constant tensor:
#      x y z
#    x 1.673980 0.000000 0.000000 
#    y 0.000000 1.707560 0.000000 
#    z 0.000000 0.000000 1.696600 
# 
# From -- ./inp_files/31594.got.cif
#   From: 2010.06.25/outbox.cif.g09.slc.cpg/sg52_16_cif.got.tgz:31594.got - 2010.06.26 19:32:48.
