data_PCOD8216792
_publ_section_title
;
Structure prediction by ZEFSAII (Michael W. Deem and Ramdas Pophale) SiO2 
 PCOD8216792
Probable space group: P N N A
;
_chemical_formula_sum "Si O2"
_cell_formula_units_Z 40
_cell_length_a 10.088274
_cell_length_b 26.886374
_cell_length_c 6.601551
_cell_angle_alpha 90.000000
_cell_angle_beta 90.000000
_cell_angle_gamma 90.000000
_cell_volume 1790.585600
_symmetry_space_group_name_H-M "P N N A"
_symmetry_group_IT_number 52
_symmetry_cell_setting 'orthorhombic'
loop_
_space_group_symop_operation_xyz
x,y,z
1/2-x,-y,z
x,1/2-y,1/2-z
1/2-x,1/2+y,1/2-z
-x,-y,-z
1/2+x,y,-z
-x,1/2+y,1/2+z
1/2+x,1/2-y,1/2+z
loop_
_atom_site_type_symbol
_atom_site_label
_atom_site_fract_x
_atom_site_fract_y
_atom_site_fract_z
Si Si1 0.067438 0.804383 0.178424
Si Si2 0.632542 0.195659 0.828059
Si Si3 0.611118 0.939744 0.148728
Si Si4 0.906468 0.947013 0.188016
Si Si5 0.984835 0.624145 0.978674
O O1 0.023882 0.750000 0.250000
O O2 0.216778 0.803953 0.089421
O O3 0.064909 0.841134 0.368051
O O4 0.964861 0.821902 0.006957
O O5 0.589819 0.250000 0.750000
O O6 0.621566 0.156746 0.644258
O O7 0.764598 0.937508 0.080709
O O8 0.590215 0.900570 0.327664
O O9 0.571572 0.994546 0.227852
O O10 0.521960 0.925357 0.955310
O O11 0.907513 0.919311 0.402901
#
# Coordination Sequence:
#
# PCOD8216792 Si02
#       5
#     8   8   8   8   8
#     4  11  25  44  65  93 127 169 217 267 318 376
#     4  11  25  44  65  93 127 169 217 267 318 376
#     4  10  23  43  67  97 132 169 213 265 321 383
#     4  10  23  43  67  97 132 169 213 265 321 383
#     4  12  23  40  68  98 128 172 215 266 316 384
#
# _framework density 22.33906
#
# number of rings (size 3 to 8) (size 9 to 14) (size 15 to 20)
#    0.000    1.200    2.000    3.000    0.000   10.400 
#    0.000    4.000    0.000    0.000    0.000    0.000 
#    0.000    0.000    0.000    0.000    0.000    0.000 
#
# Total GULP energy -496238.322353 kJ/mol
# GULP energy per Si atom -12405.958059 kJ/mol
# Density = 2.228822 g / cm^3
# Si number density = 22.339060 Si / 1000 Ang^3
#
#
#
# Elastic Constant Matrix: (Units=GPa)
#
#
# Indices 1 2 3 4 5 6 
#
# 1 109.5760 2.6454 33.0297 0.0000 0.0000 0.0000
# 2 2.6454 71.7889 28.4453 0.0000 0.0000 0.0000
# 3 33.0297 28.4453 96.0144 0.0000 0.0000 0.0000
# 4 0.0000 0.0000 0.0000 47.2799 0.0000 0.0000
# 5 0.0000 0.0000 0.0000 0.0000 33.1102 0.0000
# 6 0.0000 0.0000 0.0000 0.0000 0.0000 -8.4059
#
#
#
# Elastic Compliance Matrix: (Units=1/GPa)
#
#
# Indices 1 2 3 4 5 6 
#
# 1 0.010266 0.001157 -0.003874 0.000000 0.000000 0.000000
# 2 0.001157 0.015913 -0.005112 0.000000 0.000000 0.000000
# 3 -0.003874 -0.005112 0.013262 0.000000 0.000000 0.000000
# 4 0.000000 0.000000 0.000000 0.021151 0.000000 0.000000
# 5 0.000000 0.000000 0.000000 0.000000 0.030202 0.000000
# 6 0.000000 0.000000 0.000000 0.000000 0.000000 -0.118964
#
#
# Mechanical properties :
#
#
# Convention : Reuss Voigt Hill
#
# Bulk Modulus (GPa) = 42.04911 45.06891 43.55901
# Shear Modulus (GPa) = -1090.86631 28.61412 -531.12610
#
# Velocity S-wave (km/s) = -22.12199 3.58285 -15.43609
# Velocity P-wave (km/s) = 25.17233 6.11020 17.26719
#
# Compressibility (1/GPa) = 0.02378171
#
# Stress axis : x y z
#
# Youngs Moduli (GPa) = 97.40887 62.84261 75.40073
#
# Poissons Ratio (x) = -0.07270 0.29213
# Poissons Ratio (y) = -0.11269 0.38547
# Poissons Ratio (z) = 0.37739 0.32127
#
# Static dielectric constant tensor:
#      x y z
#    x 3.817820 0.000000 0.000000 
#    y 0.000000 4.245680 0.000000 
#    z 0.000000 0.000000 3.847190 
# 
# 
# High freq. dielectric constant tensor:
#      x y z
#    x 1.875660 0.000000 0.000000 
#    y 0.000000 1.906530 0.000000 
#    z 0.000000 0.000000 1.867250 
# 
# From -- ./inp_files/1354.got.cif
#   From: 2010.06.25/outbox.cif.g09.slc.cpg/sg52_1_cif.got.tgz:1354.got - 2010.06.26 19:32:48.
