data_PCOD8216927
_publ_section_title
;
Structure prediction by ZEFSAII (Michael W. Deem and Ramdas Pophale) SiO2 
 PCOD8216927
Probable space group: P N N A
;
_chemical_formula_sum "Si O2"
_cell_formula_units_Z 28
_cell_length_a 12.915356
_cell_length_b 15.794187
_cell_length_c 4.948400
_cell_angle_alpha 90.000000
_cell_angle_beta 90.000000
_cell_angle_gamma 90.000000
_cell_volume 1009.411982
_symmetry_space_group_name_H-M "P N N A"
_symmetry_group_IT_number 52
_symmetry_cell_setting 'orthorhombic'
loop_
_space_group_symop_operation_xyz
x,y,z
1/2-x,-y,z
x,1/2-y,1/2-z
1/2-x,1/2+y,1/2-z
-x,-y,-z
1/2+x,y,-z
-x,1/2+y,1/2+z
1/2+x,1/2-y,1/2+z
loop_
_atom_site_type_symbol
_atom_site_label
_atom_site_fract_x
_atom_site_fract_y
_atom_site_fract_z
Si Si1 0.540434 0.750000 0.750000
Si Si2 0.579669 0.373684 0.901069
Si Si3 0.891703 0.473932 0.261399
Si Si4 0.697091 0.891472 0.761588
O O1 0.469771 0.784777 0.503076
O O2 0.617511 0.820707 0.868534
O O3 0.504279 0.428932 0.705756
O O4 0.685418 0.356496 0.737040
O O5 0.596494 0.428650 0.174339
O O6 0.825143 0.470136 0.536916
O O7 0.826308 0.422555 0.038685
#
# Coordination Sequence:
#
# PCOD8216927 Si02
#       4
#     4   8   8   8
#     4  10  26  46  72 112 150 194 244 296 384 456
#     4  10  24  47  76 107 153 194 242 316 368 437
#     4  10  25  46  73 108 141 193 255 297 364 441
#     4  11  25  46  73 107 145 191 248 304 365 441
#
# _framework density 27.738924999999998
#
# number of rings (size 3 to 8) (size 9 to 14) (size 15 to 20)
#    0.000    1.714    0.000    0.857    0.000   28.571 
#    0.000    5.714    0.000    0.000    0.000    0.000 
#    0.000    0.000    0.000    0.000    0.000    0.000 
#
# Total GULP energy -347254.024705 kJ/mol
# GULP energy per Si atom -12401.929454 kJ/mol
# Density = 2.767579 g / cm^3
# Si number density = 27.738925 Si / 1000 Ang^3
#
#
#
# Elastic Constant Matrix: (Units=GPa)
#
#
# Indices 1 2 3 4 5 6 
#
# 1 233.4841 47.0064 65.6520 0.0000 0.0000 0.0000
# 2 47.0064 83.3626 -11.7625 0.0000 0.0000 0.0000
# 3 65.6520 -11.7625 82.2674 0.0000 0.0000 0.0000
# 4 0.0000 0.0000 0.0000 24.0945 0.0000 0.0000
# 5 0.0000 0.0000 0.0000 0.0000 -32.2487 0.0000
# 6 0.0000 0.0000 0.0000 0.0000 0.0000 48.0160
#
#
#
# Elastic Compliance Matrix: (Units=1/GPa)
#
#
# Indices 1 2 3 4 5 6 
#
# 1 0.007034 -0.004857 -0.006308 0.000000 0.000000 0.000000
# 2 -0.004857 0.015596 0.006106 0.000000 0.000000 0.000000
# 3 -0.006308 0.006106 0.018063 0.000000 0.000000 0.000000
# 4 0.000000 0.000000 0.000000 0.041503 0.000000 0.000000
# 5 0.000000 0.000000 0.000000 0.000000 -0.031009 0.000000
# 6 0.000000 0.000000 0.000000 0.000000 0.000000 0.020826
#
#
# Mechanical properties :
#
#
# Convention : Reuss Voigt Hill
#
# Bulk Modulus (GPa) = 32.70685 66.76732 49.73709
# Shear Modulus (GPa) = 54.15744 27.85357 41.00550
#
# Velocity S-wave (km/s) = 4.42339 3.17224 3.84899
# Velocity P-wave (km/s) = 6.15671 6.12696 6.14185
#
# Compressibility (1/GPa) = 0.03057463
#
# Stress axis : x y z
#
# Youngs Moduli (GPa) = 142.15717 64.11948 55.36316
#
# Poissons Ratio (x) = 0.31141 0.34924
# Poissons Ratio (y) = 0.69041 -0.33803
# Poissons Ratio (z) = 0.89675 -0.39149
#
# Static dielectric constant tensor:
#      x y z
#    x 5.763210 0.000000 0.000000 
#    y 0.000000 5.431200 0.000000 
#    z 0.000000 0.000000 4.477990 
# 
# 
# High freq. dielectric constant tensor:
#      x y z
#    x 2.153990 0.000000 0.000000 
#    y 0.000000 2.112670 0.000000 
#    z 0.000000 0.000000 2.102580 
# 
# From -- ./inp_files/1866.got.cif
#   From: 2010.06.25/outbox.cif.g09.slc.cpg/sg52_1_cif.got.tgz:1866.got - 2010.06.26 19:32:48.
