data_PCOD8216451
_publ_section_title
;
Structure prediction by ZEFSAII (Michael W. Deem and Ramdas Pophale) SiO2 
 PCOD8216451
Probable space group: P N N A
;
_chemical_formula_sum "Si O2"
_cell_formula_units_Z 40
_cell_length_a 20.861586
_cell_length_b 10.234091
_cell_length_c 9.341156
_cell_angle_alpha 90.000000
_cell_angle_beta 90.000000
_cell_angle_gamma 90.000000
_cell_volume 1994.330917
_symmetry_space_group_name_H-M "P N N A"
_symmetry_group_IT_number 52
_symmetry_cell_setting 'orthorhombic'
loop_
_space_group_symop_operation_xyz
x,y,z
1/2-x,-y,z
x,1/2-y,1/2-z
1/2-x,1/2+y,1/2-z
-x,-y,-z
1/2+x,y,-z
-x,1/2+y,1/2+z
1/2+x,1/2-y,1/2+z
loop_
_atom_site_type_symbol
_atom_site_label
_atom_site_fract_x
_atom_site_fract_y
_atom_site_fract_z
Si Si1 0.323486 0.862111 0.922512
Si Si2 0.893810 0.049026 0.292773
Si Si3 0.996731 0.250000 0.250000
Si Si4 0.595514 0.135420 0.541636
Si Si5 0.790185 0.250000 0.250000
Si Si6 0.698276 0.400076 0.736038
O O1 0.357378 0.723859 0.947316
O O2 0.253100 0.833443 0.858961
O O3 0.368157 0.943685 0.818307
O O4 0.315187 0.938170 0.071610
O O5 0.835789 0.147684 0.334807
O O6 0.952197 0.124985 0.216636
O O7 0.923389 0.982988 0.436332
O O8 0.037077 0.220422 0.394517
O O9 0.632598 0.078064 0.678696
O O10 0.750000 0.500000 0.800717
O O11 0.722443 0.250000 0.750000
#
# Coordination Sequence:
#
# PCOD8216451 Si02
#       6
#     8   8   4   8   4   8
#     4  11  21  39  62  91 127 158 202 261 320 371
#     4  11  24  38  68  89 121 168 210 261 311 377
#     4  11  24  46  60  88 126 167 222 254 304 381
#     4  11  22  42  62  90 122 169 204 261 311 376
#     4  11  22  36  64 100 124 149 212 262 322 383
#     4  10  22  37  62  91 130 164 200 257 328 385
#
# _framework density 20.056851000000002
#
# number of rings (size 3 to 8) (size 9 to 14) (size 15 to 20)
#    0.000    1.200    5.000    2.400    5.600    0.800 
#    0.000    0.000    0.000    0.000    0.000    0.000 
#    0.000    0.000    0.000    0.000    0.000    0.000 
#
# Total GULP energy -495942.266202 kJ/mol
# GULP energy per Si atom -12398.556655 kJ/mol
# Density = 2.001120 g / cm^3
# Si number density = 20.056851 Si / 1000 Ang^3
#
#
#
# Elastic Constant Matrix: (Units=GPa)
#
#
# Indices 1 2 3 4 5 6 
#
# 1 116.1945 44.0475 55.7901 0.0000 0.0000 0.0000
# 2 44.0475 67.1729 56.9434 0.0000 0.0000 0.0000
# 3 55.7901 56.9434 120.7122 0.0000 0.0000 0.0000
# 4 0.0000 0.0000 0.0000 29.5149 0.0000 0.0000
# 5 0.0000 0.0000 0.0000 0.0000 21.7038 0.0000
# 6 0.0000 0.0000 0.0000 0.0000 0.0000 31.1993
#
#
#
# Elastic Compliance Matrix: (Units=1/GPa)
#
#
# Indices 1 2 3 4 5 6 
#
# 1 0.012105 -0.005324 -0.003083 0.000000 0.000000 0.000000
# 2 -0.005324 0.027149 -0.010346 0.000000 0.000000 0.000000
# 3 -0.003083 -0.010346 0.014590 0.000000 0.000000 0.000000
# 4 0.000000 0.000000 0.000000 0.033881 0.000000 0.000000
# 5 0.000000 0.000000 0.000000 0.000000 0.046075 0.000000
# 6 0.000000 0.000000 0.000000 0.000000 0.000000 0.032052
#
#
# Mechanical properties :
#
#
# Convention : Reuss Voigt Hill
#
# Bulk Modulus (GPa) = 61.21188 68.62683 64.91935
# Shear Modulus (GPa) = 23.94596 26.30349 25.12473
#
# Velocity S-wave (km/s) = 3.45904 3.62532 3.54316
# Velocity P-wave (km/s) = 6.82193 7.19822 7.01260
#
# Compressibility (1/GPa) = 0.01633670
#
# Stress axis : x y z
#
# Youngs Moduli (GPa) = 82.61181 36.83416 68.54155
#
# Poissons Ratio (x) = 0.19610 0.21132
# Poissons Ratio (y) = 0.43982 0.70915
# Poissons Ratio (z) = 0.25470 0.38109
#
# Static dielectric constant tensor:
#      x y z
#    x 3.689860 0.000000 0.000000 
#    y 0.000000 3.748510 0.000000 
#    z 0.000000 0.000000 3.687980 
# 
# 
# High freq. dielectric constant tensor:
#      x y z
#    x 1.780640 0.000000 0.000000 
#    y 0.000000 1.785710 0.000000 
#    z 0.000000 0.000000 1.779260 
# 
# From -- ./inp_files/11689.got.cif
#   From: 2010.06.25/outbox.cif.g09.slc.cpg/sg52_6_cif.got.tgz:11689.got - 2010.06.26 19:32:48.
