data_PCOD8216413
_publ_section_title
;
Structure prediction by ZEFSAII (Michael W. Deem and Ramdas Pophale) SiO2 
 PCOD8216413
Probable space group: P N N A
;
_chemical_formula_sum "Si O2"
_cell_formula_units_Z 48
_cell_length_a 5.467643
_cell_length_b 21.983547
_cell_length_c 17.137564
_cell_angle_alpha 90.000000
_cell_angle_beta 90.000000
_cell_angle_gamma 90.000000
_cell_volume 2059.904120
_symmetry_space_group_name_H-M "P N N A"
_symmetry_group_IT_number 52
_symmetry_cell_setting 'orthorhombic'
loop_
_space_group_symop_operation_xyz
x,y,z
1/2-x,-y,z
x,1/2-y,1/2-z
1/2-x,1/2+y,1/2-z
-x,-y,-z
1/2+x,y,-z
-x,1/2+y,1/2+z
1/2+x,1/2-y,1/2+z
loop_
_atom_site_type_symbol
_atom_site_label
_atom_site_fract_x
_atom_site_fract_y
_atom_site_fract_z
Si Si1 0.767371 0.697689 0.808220
Si Si2 0.988020 0.867127 0.032215
Si Si3 0.750000 0.500000 0.765164
Si Si4 0.543757 0.727776 0.966180
Si Si5 0.250000 0.000000 0.548779
Si Si6 0.586184 0.594142 0.164266
Si Si7 0.462926 0.604341 0.708320
O O1 0.869202 0.750000 0.750000
O O2 0.577947 0.723519 0.872372
O O3 0.641294 0.649089 0.753334
O O4 0.983153 0.661977 0.855743
O O5 0.018975 0.797332 0.005938
O O6 0.921717 0.871964 0.122207
O O7 0.253596 0.897596 0.012595
O O8 0.628384 0.454363 0.826326
O O9 0.567847 0.535900 0.707973
O O10 0.283014 0.697240 0.991200
O O11 0.236466 0.063203 0.599648
O O12 0.500000 0.000000 0.500000
O O13 0.705291 0.602288 0.248897
#
# Coordination Sequence:
#
# PCOD8216413 Si02
#       7
#     8   8   4   8   4   8   8
#     4  11  25  42  68 108 141 191 252 298 369 450
#     4  10  23  42  67  99 139 182 225 280 364 424
#     4  10  21  44  70  97 132 174 238 286 365 402
#     4  10  23  43  63  92 145 188 226 288 355 427
#     4  12  27  48  76 109 152 196 256 318 381 442
#     4  11  25  44  73 102 143 193 244 310 366 438
#     4  11  23  42  73  97 136 182 238 300 352 440
#
# _framework density 23.302056
#
# number of rings (size 3 to 8) (size 9 to 14) (size 15 to 20)
#    0.000    1.333    3.333    0.500    9.333    3.333 
#    0.000    0.833    0.000    0.000    0.000    0.000 
#    0.000    0.000    0.000    0.000    0.000    0.000 
#
# Total GULP energy -594829.800961 kJ/mol
# GULP energy per Si atom -12392.287520 kJ/mol
# Density = 2.324902 g / cm^3
# Si number density = 23.302056 Si / 1000 Ang^3
#
#
#
# Elastic Constant Matrix: (Units=GPa)
#
#
# Indices 1 2 3 4 5 6 
#
# 1 155.4692 27.6998 54.6993 0.0000 0.0000 0.0000
# 2 27.6998 78.2311 15.9654 0.0000 0.0000 0.0000
# 3 54.6993 15.9654 123.0403 0.0000 0.0000 0.0000
# 4 0.0000 0.0000 0.0000 2.3393 0.0000 0.0000
# 5 0.0000 0.0000 0.0000 0.0000 35.1483 0.0000
# 6 0.0000 0.0000 0.0000 0.0000 0.0000 -6.9248
#
#
#
# Elastic Compliance Matrix: (Units=1/GPa)
#
#
# Indices 1 2 3 4 5 6 
#
# 1 0.007963 -0.002154 -0.003261 0.000000 0.000000 0.000000
# 2 -0.002154 0.013713 -0.000822 0.000000 0.000000 0.000000
# 3 -0.003261 -0.000822 0.009684 0.000000 0.000000 0.000000
# 4 0.000000 0.000000 0.000000 0.427480 0.000000 0.000000
# 5 0.000000 0.000000 0.000000 0.000000 0.028451 0.000000
# 6 0.000000 0.000000 0.000000 0.000000 0.000000 -0.144408
#
#
# Mechanical properties :
#
#
# Convention : Reuss Voigt Hill
#
# Bulk Modulus (GPa) = 52.94686 61.49664 57.22175
# Shear Modulus (GPa) = 13.82547 23.33763 18.58155
#
# Velocity S-wave (km/s) = 2.43845 3.16812 2.82693
# Velocity P-wave (km/s) = 5.54070 6.31118 5.93845
#
# Compressibility (1/GPa) = 0.01888686
#
# Stress axis : x y z
#
# Youngs Moduli (GPa) = 125.57873 72.92312 103.26744
#
# Poissons Ratio (x) = 0.15709 0.33671
# Poissons Ratio (y) = 0.27051 0.08486
# Poissons Ratio (z) = 0.40946 0.05992
#
# Static dielectric constant tensor:
#      x y z
#    x 4.599520 0.000000 0.000000 
#    y 0.000000 4.057760 0.000000 
#    z 0.000000 0.000000 4.046710 
# 
# 
# High freq. dielectric constant tensor:
#      x y z
#    x 1.932620 0.000000 0.000000 
#    y 0.000000 1.904550 0.000000 
#    z 0.000000 0.000000 1.913370 
# 
# From -- ./inp_files/23723.got.cif
#   From: 2010.06.25/outbox.cif.g09.slc.cpg/sg52_12_cif.got.tgz:23723.got - 2010.06.26 19:32:48.
