data_PCOD8216701
_publ_section_title
;
Structure prediction by ZEFSAII (Michael W. Deem and Ramdas Pophale) SiO2 
 PCOD8216701
Probable space group: P N N A
;
_chemical_formula_sum "Si O2"
_cell_formula_units_Z 40
_cell_length_a 14.683461
_cell_length_b 4.995294
_cell_length_c 23.590952
_cell_angle_alpha 90.000000
_cell_angle_beta 90.000000
_cell_angle_gamma 90.000000
_cell_volume 1730.353975
_symmetry_space_group_name_H-M "P N N A"
_symmetry_group_IT_number 52
_symmetry_cell_setting 'orthorhombic'
loop_
_space_group_symop_operation_xyz
x,y,z
1/2-x,-y,z
x,1/2-y,1/2-z
1/2-x,1/2+y,1/2-z
-x,-y,-z
1/2+x,y,-z
-x,1/2+y,1/2+z
1/2+x,1/2-y,1/2+z
loop_
_atom_site_type_symbol
_atom_site_label
_atom_site_fract_x
_atom_site_fract_y
_atom_site_fract_z
Si Si1 0.250000 0.000000 0.213389
Si Si2 0.944354 0.078890 0.806746
Si Si3 0.410495 0.225652 0.540441
Si Si4 0.093418 0.750000 0.750000
Si Si5 0.750000 0.000000 0.319256
Si Si6 0.989275 0.269441 0.574084
Si Si7 0.250000 0.000000 0.896150
O O1 0.221368 0.750000 0.250000
O O2 0.154502 0.065285 0.181128
O O3 0.945093 0.250000 0.750000
O O4 0.957777 0.266622 0.861357
O O5 0.028205 0.871623 0.799339
O O6 0.491417 0.418226 0.562018
O O7 0.411800 0.189209 0.471942
O O8 0.320612 0.368939 0.561093
O O9 0.423698 0.928683 0.566503
O O10 0.160086 0.959030 0.718946
O O11 0.719075 0.258423 0.355513
#
# Coordination Sequence:
#
# PCOD8216701 Si02
#       7
#     4   8   8   4   4   8   4
#     4  10  22  45  64 101 131 170 231 288 340 438
#     4  11  26  42  74 100 143 186 232 288 372 422
#     4  10  23  42  67  94 134 178 234 289 354 407
#     4  12  28  46  64 104 150 202 230 292 360 428
#     4  12  29  42  66 103 145 189 256 286 338 446
#     4  10  23  43  65  99 132 177 231 288 348 436
#     4  12  25  43  70  98 138 185 235 306 352 408
#
# _framework density 23.116658999999999
#
# number of rings (size 3 to 8) (size 9 to 14) (size 15 to 20)
#    0.000    1.200    1.000    3.000   12.600    0.800 
#    0.000    0.000    0.000    4.800    0.000    0.000 
#    0.000    0.000    0.000    0.000    0.000    0.000 
#
# Total GULP energy -495542.668010 kJ/mol
# GULP energy per Si atom -12388.566700 kJ/mol
# Density = 2.306404 g / cm^3
# Si number density = 23.116659 Si / 1000 Ang^3
#
#
#
# Elastic Constant Matrix: (Units=GPa)
#
#
# Indices 1 2 3 4 5 6 
#
# 1 173.4420 37.0780 70.6212 0.0000 0.0000 0.0000
# 2 37.0780 114.7043 48.7839 0.0000 0.0000 0.0000
# 3 70.6212 48.7839 185.8587 0.0000 0.0000 0.0000
# 4 0.0000 0.0000 0.0000 33.8920 0.0000 0.0000
# 5 0.0000 0.0000 0.0000 0.0000 -3.7946 0.0000
# 6 0.0000 0.0000 0.0000 0.0000 0.0000 35.7971
#
#
#
# Elastic Compliance Matrix: (Units=1/GPa)
#
#
# Indices 1 2 3 4 5 6 
#
# 1 0.006982 -0.001270 -0.002319 0.000000 0.000000 0.000000
# 2 -0.001270 0.010045 -0.002154 0.000000 0.000000 0.000000
# 3 -0.002319 -0.002154 0.006827 0.000000 0.000000 0.000000
# 4 0.000000 0.000000 0.000000 0.029505 0.000000 0.000000
# 5 0.000000 0.000000 0.000000 0.000000 -0.263531 0.000000
# 6 0.000000 0.000000 0.000000 0.000000 0.000000 0.027935
#
#
# Mechanical properties :
#
#
# Convention : Reuss Voigt Hill
#
# Bulk Modulus (GPa) = 80.86511 87.44126 84.15318
# Shear Modulus (GPa) = -30.00703 34.34702 2.17000
#
# Velocity S-wave (km/s) = -3.60678 3.85881 0.96992
# Velocity P-wave (km/s) = 4.20857 7.60013 6.14305
#
# Compressibility (1/GPa) = 0.01236627
#
# Stress axis : x y z
#
# Youngs Moduli (GPa) = 143.23412 99.55467 146.47598
#
# Poissons Ratio (x) = 0.12647 0.33973
# Poissons Ratio (y) = 0.18196 0.31548
# Poissons Ratio (z) = 0.33221 0.21442
#
# Static dielectric constant tensor:
#      x y z
#    x 4.385060 0.000000 0.000000 
#    y 0.000000 4.584670 0.000000 
#    z 0.000000 0.000000 4.254870 
# 
# 
# High freq. dielectric constant tensor:
#      x y z
#    x 1.906420 0.000000 0.000000 
#    y 0.000000 1.922880 0.000000 
#    z 0.000000 0.000000 1.911210 
# 
# From -- ./inp_files/40551.got.cif
#   From: 2010.06.25/outbox.cif.g09.slc.cpg/sg52_21_cif.got.tgz:40551.got - 2010.06.26 19:32:48.
