data_PCOD8216821
_publ_section_title
;
Structure prediction by ZEFSAII (Michael W. Deem and Ramdas Pophale) SiO2 
 PCOD8216821
Probable space group: P N N A
;
_chemical_formula_sum "Si O2"
_cell_formula_units_Z 36
_cell_length_a 14.533297
_cell_length_b 9.953662
_cell_length_c 11.168618
_cell_angle_alpha 90.000000
_cell_angle_beta 90.000000
_cell_angle_gamma 90.000000
_cell_volume 1615.646987
_symmetry_space_group_name_H-M "P N N A"
_symmetry_group_IT_number 52
_symmetry_cell_setting 'orthorhombic'
loop_
_space_group_symop_operation_xyz
x,y,z
1/2-x,-y,z
x,1/2-y,1/2-z
1/2-x,1/2+y,1/2-z
-x,-y,-z
1/2+x,y,-z
-x,1/2+y,1/2+z
1/2+x,1/2-y,1/2+z
loop_
_atom_site_type_symbol
_atom_site_label
_atom_site_fract_x
_atom_site_fract_y
_atom_site_fract_z
Si Si1 0.554614 0.202525 0.473277
Si Si2 0.604595 0.851801 0.856450
Si Si3 0.244782 0.352655 0.544905
Si Si4 0.355471 0.250000 0.750000
Si Si5 0.494799 0.468419 0.805900
O O1 0.465619 0.296562 0.457193
O O2 0.642287 0.299455 0.476871
O O3 0.549359 0.118826 0.595893
O O4 0.555891 0.098598 0.362161
O O5 0.621080 0.750000 0.750000
O O6 0.566403 0.989555 0.798164
O O7 0.702576 0.871184 0.918990
O O8 0.250000 0.500000 0.606909
O O9 0.292912 0.244762 0.631511
O O10 0.416673 0.382714 0.742467
#
# Coordination Sequence:
#
# PCOD8216821 Si02
#       5
#     8   8   8   4   8
#     4  10  23  47  68  99 138 186 229 293 351 424
#     4  10  23  47  69 102 136 181 236 282 358 427
#     4  12  28  41  67 103 140 179 237 298 346 425
#     4  12  26  42  68 104 128 186 230 286 356 422
#     4  10  23  44  75  94 141 189 227 289 360 427
#
# _framework density 22.282094000000001
#
# number of rings (size 3 to 8) (size 9 to 14) (size 15 to 20)
#    0.000    1.333    2.222    1.333   10.889    3.556 
#    0.000    0.000    0.000    0.000    0.000    0.000 
#    0.000    0.000    0.000    0.000    0.000    0.000 
#
# Total GULP energy -446491.089872 kJ/mol
# GULP energy per Si atom -12402.530274 kJ/mol
# Density = 2.223138 g / cm^3
# Si number density = 22.282094 Si / 1000 Ang^3
#
#
#
# Elastic Constant Matrix: (Units=GPa)
#
#
# Indices 1 2 3 4 5 6 
#
# 1 111.8602 37.0401 30.9221 0.0000 0.0000 0.0000
# 2 37.0401 92.7224 18.1502 0.0000 0.0000 0.0000
# 3 30.9221 18.1502 82.9337 0.0000 0.0000 0.0000
# 4 0.0000 0.0000 0.0000 37.5285 0.0000 0.0000
# 5 0.0000 0.0000 0.0000 0.0000 29.7730 0.0000
# 6 0.0000 0.0000 0.0000 0.0000 0.0000 41.9531
#
#
#
# Elastic Compliance Matrix: (Units=1/GPa)
#
#
# Indices 1 2 3 4 5 6 
#
# 1 0.011111 -0.003790 -0.003313 0.000000 0.000000 0.000000
# 2 -0.003790 0.012560 -0.001336 0.000000 0.000000 0.000000
# 3 -0.003313 -0.001336 0.013586 0.000000 0.000000 0.000000
# 4 0.000000 0.000000 0.000000 0.026646 0.000000 0.000000
# 5 0.000000 0.000000 0.000000 0.000000 0.033587 0.000000
# 6 0.000000 0.000000 0.000000 0.000000 0.000000 0.023836
#
#
# Mechanical properties :
#
#
# Convention : Reuss Voigt Hill
#
# Bulk Modulus (GPa) = 49.07080 51.08235 50.07657
# Shear Modulus (GPa) = 34.48351 35.27785 34.88068
#
# Velocity S-wave (km/s) = 3.93821 3.98331 3.96082
# Velocity P-wave (km/s) = 6.53832 6.64310 6.59092
#
# Compressibility (1/GPa) = 0.02037872
#
# Stress axis : x y z
#
# Youngs Moduli (GPa) = 90.00477 79.61599 73.60786
#
# Poissons Ratio (x) = 0.30173 0.24388
# Poissons Ratio (y) = 0.34110 0.09833
# Poissons Ratio (z) = 0.29820 0.10635
#
# Static dielectric constant tensor:
#      x y z
#    x 3.846030 0.000000 0.000000 
#    y 0.000000 4.163090 0.000000 
#    z 0.000000 0.000000 3.977410 
# 
# 
# High freq. dielectric constant tensor:
#      x y z
#    x 1.870610 0.000000 0.000000 
#    y 0.000000 1.886760 0.000000 
#    z 0.000000 0.000000 1.884060 
# 
# From -- ./inp_files/17790.got.cif
#   From: 2010.06.25/outbox.cif.g09.slc.cpg/sg52_9_cif.got.tgz:17790.got - 2010.06.26 19:32:48.
