data_PCOD8216167
_publ_section_title
;
Structure prediction by ZEFSAII (Michael W. Deem and Ramdas Pophale) SiO2 
 PCOD8216167
Probable space group: P N N A
;
_chemical_formula_sum "Si O2"
_cell_formula_units_Z 64
_cell_length_a 9.148275
_cell_length_b 17.351335
_cell_length_c 19.334848
_cell_angle_alpha 90.000000
_cell_angle_beta 90.000000
_cell_angle_gamma 90.000000
_cell_volume 3069.112925
_symmetry_space_group_name_H-M "P N N A"
_symmetry_group_IT_number 52
_symmetry_cell_setting 'orthorhombic'
loop_
_space_group_symop_operation_xyz
x,y,z
1/2-x,-y,z
x,1/2-y,1/2-z
1/2-x,1/2+y,1/2-z
-x,-y,-z
1/2+x,y,-z
-x,1/2+y,1/2+z
1/2+x,1/2-y,1/2+z
loop_
_atom_site_type_symbol
_atom_site_label
_atom_site_fract_x
_atom_site_fract_y
_atom_site_fract_z
Si Si1 0.825320 0.080773 0.826303
Si Si2 0.320093 0.339882 0.556939
Si Si3 0.016888 0.420886 0.956799
Si Si4 0.825320 0.080773 0.673697
Si Si5 0.038207 0.159471 0.173071
Si Si6 0.483112 0.579114 0.543201
Si Si7 0.679907 0.839882 0.443061
Si Si8 0.961793 0.659471 0.826929
O O1 0.881130 0.108870 0.750000
O O2 0.698854 0.137414 0.855898
O O3 0.960177 0.072517 0.878361
O O4 0.750000 0.000000 0.817620
O O5 0.407629 0.370166 0.624443
O O6 0.184414 0.396401 0.547197
O O7 0.427185 0.351871 0.492214
O O8 0.274476 0.250000 0.561914
O O9 0.184414 0.396401 0.952803
O O10 0.960177 0.427483 0.878361
O O11 0.000000 0.500000 0.000000
O O12 0.927185 0.351871 0.992214
O O13 0.698854 0.137414 0.644102
O O14 0.750000 0.000000 0.682380
O O15 0.029654 0.250000 0.175184
O O16 0.017132 0.123864 0.250000
O O17 0.500000 0.500000 0.500000
O O18 0.592371 0.870167 0.375557
#
# Coordination Sequence:
#
# PCOD8216167 Si02
#       8
#     8   8   8   8   8   8   8   8
#     4  10  21  38  60  84 112 148 189 234 286 344
#     4  11  23  38  59  85 116 154 194 238 287 342
#     4  12  24  39  59  86 118 153 194 241 290 340
#     4  10  21  38  60  84 112 148 189 234 286 344
#     4   9  19  37  60  86 117 152 189 233 288 345
#     4  12  24  39  59  86 118 153 194 241 290 340
#     4  11  23  38  59  85 116 154 194 238 287 342
#     4   9  19  37  60  86 117 152 189 233 288 345
#
# _framework density 20.852929
#
# number of rings (size 3 to 8) (size 9 to 14) (size 15 to 20)
#    0.000    1.500    0.000    6.000    0.000    5.000 
#    0.000    0.000    0.000    7.500    0.000    0.000 
#    0.000    0.000    0.000    0.000    0.000    0.000 
#
# Total GULP energy -793433.643804 kJ/mol
# GULP energy per Si atom -12397.400684 kJ/mol
# Density = 2.080547 g / cm^3
# Si number density = 20.852929 Si / 1000 Ang^3
#
#
#
# Elastic Constant Matrix: (Units=GPa)
#
#
# Indices 1 2 3 4 5 6 
#
# 1 125.5448 30.2338 69.7432 0.0000 0.0000 0.0000
# 2 30.2338 47.7577 35.4318 0.0000 0.0000 0.0000
# 3 69.7432 35.4318 121.0933 0.0000 0.0000 0.0000
# 4 0.0000 0.0000 0.0000 71.7201 0.0000 0.0000
# 5 0.0000 0.0000 0.0000 0.0000 55.0235 0.0000
# 6 0.0000 0.0000 0.0000 0.0000 0.0000 38.7496
#
#
#
# Elastic Compliance Matrix: (Units=1/GPa)
#
#
# Indices 1 2 3 4 5 6 
#
# 1 0.012078 -0.003174 -0.006028 0.000000 0.000000 0.000000
# 2 -0.003174 0.027579 -0.006241 0.000000 0.000000 0.000000
# 3 -0.006028 -0.006241 0.013556 0.000000 0.000000 0.000000
# 4 0.000000 0.000000 0.000000 0.013943 0.000000 0.000000
# 5 0.000000 0.000000 0.000000 0.000000 0.018174 0.000000
# 6 0.000000 0.000000 0.000000 0.000000 0.000000 0.025807
#
#
# Mechanical properties :
#
#
# Convention : Reuss Voigt Hill
#
# Bulk Modulus (GPa) = 44.78970 62.80149 53.79560
# Shear Modulus (GPa) = 33.45245 43.69778 38.57512
#
# Velocity S-wave (km/s) = 4.00960 4.58265 4.30567
# Velocity P-wave (km/s) = 6.55449 7.62776 7.11140
#
# Compressibility (1/GPa) = 0.02232656
#
# Stress axis : x y z
#
# Youngs Moduli (GPa) = 82.79378 36.25929 73.76887
#
# Poissons Ratio (x) = 0.11510 0.44465
# Poissons Ratio (y) = 0.26282 0.46042
# Poissons Ratio (z) = 0.49904 0.22631
#
# Static dielectric constant tensor:
#      x y z
#    x 3.017950 0.000000 0.000000 
#    y 0.000000 3.629400 0.000000 
#    z 0.000000 0.000000 4.805860 
# 
# 
# High freq. dielectric constant tensor:
#      x y z
#    x 1.808170 0.000000 0.000000 
#    y 0.000000 1.815720 0.000000 
#    z 0.000000 0.000000 1.829520 
# 
# From -- ./inp_files/36172.got.cif
#   From: 2010.06.25/outbox.cif.g09.slc.cpg/sg52_19_cif.got.tgz:36172.got - 2010.06.26 19:32:48.
