data_PCOD8216674
_publ_section_title
;
Structure prediction by ZEFSAII (Michael W. Deem and Ramdas Pophale) SiO2 
 PCOD8216674
Probable space group: P N N A
;
_chemical_formula_sum "Si O2"
_cell_formula_units_Z 40
_cell_length_a 15.638269
_cell_length_b 12.785730
_cell_length_c 8.612912
_cell_angle_alpha 90.000000
_cell_angle_beta 90.000000
_cell_angle_gamma 90.000000
_cell_volume 1722.123203
_symmetry_space_group_name_H-M "P N N A"
_symmetry_group_IT_number 52
_symmetry_cell_setting 'orthorhombic'
loop_
_space_group_symop_operation_xyz
x,y,z
1/2-x,-y,z
x,1/2-y,1/2-z
1/2-x,1/2+y,1/2-z
-x,-y,-z
1/2+x,y,-z
-x,1/2+y,1/2+z
1/2+x,1/2-y,1/2+z
loop_
_atom_site_type_symbol
_atom_site_label
_atom_site_fract_x
_atom_site_fract_y
_atom_site_fract_z
Si Si1 0.137333 0.022397 0.227141
Si Si2 0.959630 0.033763 0.338453
Si Si3 0.687028 0.874474 0.494721
Si Si4 0.272357 0.355127 0.437484
Si Si5 0.828575 0.867903 0.249764
O O1 0.167136 0.967822 0.386834
O O2 0.149145 0.935905 0.090328
O O3 0.040307 0.065725 0.230484
O O4 0.199893 0.121232 0.194690
O O5 0.911854 0.939872 0.248633
O O6 0.891945 0.127564 0.369798
O O7 0.000000 0.000000 0.500000
O O8 0.692507 0.762298 0.579115
O O9 0.775411 0.895884 0.404676
O O10 0.233926 0.382566 0.604552
O O11 0.863093 0.750000 0.250000
#
# Coordination Sequence:
#
# PCOD8216674 Si02
#       5
#     8   8   8   8   8
#     4  10  23  41  68 100 140 174 230 291 351 403
#     4  10  23  39  70 102 133 179 229 289 344 409
#     4  10  22  43  72  95 136 191 233 272 350 432
#     4  10  23  42  68 102 136 181 228 286 349 416
#     4  10  23  43  69  95 135 183 234 279 346 421
#
# _framework density 23.227142000000001
#
# number of rings (size 3 to 8) (size 9 to 14) (size 15 to 20)
#    0.000    2.000    0.000    1.200   16.800    4.000 
#    0.000    0.000   26.400    0.000    0.000    0.000 
#    0.000    0.000    0.000    0.000    0.000    0.000 
#
# Total GULP energy -495723.671488 kJ/mol
# GULP energy per Si atom -12393.091787 kJ/mol
# Density = 2.317428 g / cm^3
# Si number density = 23.227142 Si / 1000 Ang^3
#
#
#
# Elastic Constant Matrix: (Units=GPa)
#
#
# Indices 1 2 3 4 5 6 
#
# 1 148.7138 72.0672 26.1422 0.0000 0.0000 0.0000
# 2 72.0672 121.5700 37.0819 0.0000 0.0000 0.0000
# 3 26.1422 37.0819 77.0888 0.0000 0.0000 0.0000
# 4 0.0000 0.0000 0.0000 41.2854 0.0000 0.0000
# 5 0.0000 0.0000 0.0000 0.0000 40.0284 0.0000
# 6 0.0000 0.0000 0.0000 0.0000 0.0000 24.9327
#
#
#
# Elastic Compliance Matrix: (Units=1/GPa)
#
#
# Indices 1 2 3 4 5 6 
#
# 1 0.009458 -0.005424 -0.000598 0.000000 0.000000 0.000000
# 2 -0.005424 0.012751 -0.004294 0.000000 0.000000 0.000000
# 3 -0.000598 -0.004294 0.015240 0.000000 0.000000 0.000000
# 4 0.000000 0.000000 0.000000 0.024222 0.000000 0.000000
# 5 0.000000 0.000000 0.000000 0.000000 0.024982 0.000000
# 6 0.000000 0.000000 0.000000 0.000000 0.000000 0.040108
#
#
# Mechanical properties :
#
#
# Convention : Reuss Voigt Hill
#
# Bulk Modulus (GPa) = 59.46570 68.66171 64.06370
# Shear Modulus (GPa) = 32.67962 35.38804 34.03383
#
# Velocity S-wave (km/s) = 3.75501 3.90752 3.83203
# Velocity P-wave (km/s) = 6.66765 7.06990 6.87172
#
# Compressibility (1/GPa) = 0.01681642
#
# Stress axis : x y z
#
# Youngs Moduli (GPa) = 105.72901 78.42442 65.61466
#
# Poissons Ratio (x) = 0.42540 0.03925
# Poissons Ratio (y) = 0.57351 0.28176
# Poissons Ratio (z) = 0.06324 0.33677
#
# Static dielectric constant tensor:
#      x y z
#    x 4.979820 0.000000 0.000000 
#    y 0.000000 4.197780 0.000000 
#    z 0.000000 0.000000 4.572200 
# 
# 
# High freq. dielectric constant tensor:
#      x y z
#    x 1.914470 0.000000 0.000000 
#    y 0.000000 1.904330 0.000000 
#    z 0.000000 0.000000 1.928280 
# 
# From -- ./inp_files/10041.got.cif
#   From: 2010.06.25/outbox.cif.g09.slc.cpg/sg52_6_cif.got.tgz:10041.got - 2010.06.26 19:32:48.
