data_PCOD8216858
_publ_section_title
;
Structure prediction by ZEFSAII (Michael W. Deem and Ramdas Pophale) SiO2 
 PCOD8216858
Probable space group: P N N A
;
_chemical_formula_sum "Si O2"
_cell_formula_units_Z 48
_cell_length_a 8.302538
_cell_length_b 14.490293
_cell_length_c 18.471036
_cell_angle_alpha 90.000000
_cell_angle_beta 90.000000
_cell_angle_gamma 90.000000
_cell_volume 2222.180304
_symmetry_space_group_name_H-M "P N N A"
_symmetry_group_IT_number 52
_symmetry_cell_setting 'orthorhombic'
loop_
_space_group_symop_operation_xyz
x,y,z
1/2-x,-y,z
x,1/2-y,1/2-z
1/2-x,1/2+y,1/2-z
-x,-y,-z
1/2+x,y,-z
-x,1/2+y,1/2+z
1/2+x,1/2-y,1/2+z
loop_
_atom_site_type_symbol
_atom_site_label
_atom_site_fract_x
_atom_site_fract_y
_atom_site_fract_z
Si Si1 0.350016 0.300744 0.041929
Si Si2 0.750000 0.500000 0.497395
Si Si3 0.633586 0.083621 0.232178
Si Si4 0.131813 0.750000 0.750000
Si Si5 0.499794 0.323579 0.897321
Si Si6 0.994570 0.613205 0.416383
Si Si7 0.073111 0.527502 0.134159
O O1 0.167903 0.287826 0.069166
O O2 0.463584 0.219997 0.072122
O O3 0.416396 0.400196 0.068178
O O4 0.358698 0.297360 0.954196
O O5 0.820528 0.584441 0.449322
O O6 0.619778 0.543780 0.549262
O O7 0.752765 0.168055 0.230691
O O8 0.503551 0.094414 0.168951
O O9 0.532458 0.076613 0.305150
O O10 0.750000 0.000000 0.217472
O O11 0.021540 0.725676 0.819676
O O12 0.486911 0.433876 0.890445
O O13 0.250000 0.500000 0.164012
#
# Coordination Sequence:
#
# PCOD8216858 Si02
#       7
#     8   4   8   4   8   8   8
#     4  11  25  43  75 105 139 185 241 302 361 435
#     4  10  24  42  64  96 140 184 242 302 356 426
#     4  12  25  43  71  98 139 188 235 291 357 427
#     4  12  28  46  72 102 144 188 238 292 356 434
#     4  11  26  46  73 103 147 185 240 298 362 429
#     4  11  24  43  66 101 136 185 239 293 361 428
#     4  10  24  47  69 107 141 186 234 299 366 426
#
# _framework density 21.600408000000002
#
# number of rings (size 3 to 8) (size 9 to 14) (size 15 to 20)
#    0.000    1.000    2.500    2.500    8.167    4.000 
#    0.000    0.000    0.000    0.000    0.000    0.000 
#    0.000    0.000    0.000    0.000    0.000    0.000 
#
# Total GULP energy -595243.122087 kJ/mol
# GULP energy per Si atom -12400.898377 kJ/mol
# Density = 2.155124 g / cm^3
# Si number density = 21.600408 Si / 1000 Ang^3
#
#
#
# Elastic Constant Matrix: (Units=GPa)
#
#
# Indices 1 2 3 4 5 6 
#
# 1 73.3643 29.2762 46.2526 0.0000 0.0000 0.0000
# 2 29.2762 122.6381 29.6284 0.0000 0.0000 0.0000
# 3 46.2526 29.6284 149.4927 0.0000 0.0000 0.0000
# 4 0.0000 0.0000 0.0000 29.6276 0.0000 0.0000
# 5 0.0000 0.0000 0.0000 0.0000 43.5468 0.0000
# 6 0.0000 0.0000 0.0000 0.0000 0.0000 37.0862
#
#
#
# Elastic Compliance Matrix: (Units=1/GPa)
#
#
# Indices 1 2 3 4 5 6 
#
# 1 0.017989 -0.003098 -0.004952 0.000000 0.000000 0.000000
# 2 -0.003098 0.009098 -0.000845 0.000000 0.000000 0.000000
# 3 -0.004952 -0.000845 0.008389 0.000000 0.000000 0.000000
# 4 0.000000 0.000000 0.000000 0.033752 0.000000 0.000000
# 5 0.000000 0.000000 0.000000 0.000000 0.022964 0.000000
# 6 0.000000 0.000000 0.000000 0.000000 0.000000 0.026964
#
#
# Mechanical properties :
#
#
# Convention : Reuss Voigt Hill
#
# Bulk Modulus (GPa) = 56.53997 61.75661 59.14829
# Shear Modulus (GPa) = 35.00438 38.07463 36.53951
#
# Velocity S-wave (km/s) = 4.02996 4.20298 4.11738
# Velocity P-wave (km/s) = 6.92000 7.22537 7.07433
#
# Compressibility (1/GPa) = 0.01768660
#
# Stress axis : x y z
#
# Youngs Moduli (GPa) = 55.59072 109.91827 119.20796
#
# Poissons Ratio (x) = 0.34052 0.59027
# Poissons Ratio (y) = 0.17222 0.10068
# Poissons Ratio (z) = 0.27526 0.09284
#
# Static dielectric constant tensor:
#      x y z
#    x 3.954880 0.000000 0.000000 
#    y 0.000000 4.045500 0.000000 
#    z 0.000000 0.000000 4.113530 
# 
# 
# High freq. dielectric constant tensor:
#      x y z
#    x 1.850700 0.000000 0.000000 
#    y 0.000000 1.866150 0.000000 
#    z 0.000000 0.000000 1.854500 
# 
# From -- ./inp_files/31273.got.cif
#   From: 2010.06.25/outbox.cif.g09.slc.cpg/sg52_16_cif.got.tgz:31273.got - 2010.06.26 19:32:48.
