data_PCOD8216207
_publ_section_title
;
Structure prediction by ZEFSAII (Michael W. Deem and Ramdas Pophale) SiO2 
 PCOD8216207
Probable space group: P N N A
;
_chemical_formula_sum "Si O2"
_cell_formula_units_Z 40
_cell_length_a 8.735523
_cell_length_b 14.242866
_cell_length_c 13.413024
_cell_angle_alpha 90.000000
_cell_angle_beta 90.000000
_cell_angle_gamma 90.000000
_cell_volume 1668.833471
_symmetry_space_group_name_H-M "P N N A"
_symmetry_group_IT_number 52
_symmetry_cell_setting 'orthorhombic'
loop_
_space_group_symop_operation_xyz
x,y,z
1/2-x,-y,z
x,1/2-y,1/2-z
1/2-x,1/2+y,1/2-z
-x,-y,-z
1/2+x,y,-z
-x,1/2+y,1/2+z
1/2+x,1/2-y,1/2+z
loop_
_atom_site_type_symbol
_atom_site_label
_atom_site_fract_x
_atom_site_fract_y
_atom_site_fract_z
Si Si1 0.278716 0.391486 0.909758
Si Si2 0.750000 0.000000 0.047419
Si Si3 0.008029 0.708448 0.047105
Si Si4 0.750000 0.500000 0.775731
Si Si5 0.926891 0.822282 0.663301
Si Si6 0.541925 0.908352 0.885635
O O1 0.250000 0.500000 0.917341
O O2 0.399320 0.362664 0.822865
O O3 0.114560 0.346427 0.885196
O O4 0.347687 0.357268 0.017716
O O5 0.860523 0.933482 0.113334
O O6 0.633282 0.938128 0.984001
O O7 0.060447 0.795968 0.113748
O O8 0.921352 0.734733 0.941934
O O9 0.816392 0.586449 0.839935
O O10 0.613780 0.543333 0.710215
O O11 0.881842 0.750000 0.750000
#
# Coordination Sequence:
#
# PCOD8216207 Si02
#       6
#     8   4   8   4   8   8
#     4  10  23  44  70  93 132 178 238 275 340 417
#     4   9  20  34  62 102 133 166 230 273 322 408
#     4  10  23  40  73  95 133 177 238 270 338 417
#     4  11  26  48  66 102 143 190 224 299 364 412
#     4  10  27  44  68  97 148 173 225 295 361 396
#     4  10  21  38  70 100 135 179 233 275 345 420
#
# _framework density 23.968838999999999
#
# number of rings (size 3 to 8) (size 9 to 14) (size 15 to 20)
#    1.200    0.800    0.000    1.800   12.600    0.000 
#    5.400    0.000    0.000    0.000    0.000    0.000 
#    0.000    0.000    0.000    0.000    0.000    0.000 
#
# Total GULP energy -495589.840048 kJ/mol
# GULP energy per Si atom -12389.746001 kJ/mol
# Density = 2.391428 g / cm^3
# Si number density = 23.968839 Si / 1000 Ang^3
#
#
#
# Elastic Constant Matrix: (Units=GPa)
#
#
# Indices 1 2 3 4 5 6 
#
# 1 115.9363 35.2787 4.0439 0.0000 0.0000 0.0000
# 2 35.2787 144.7559 8.6041 0.0000 0.0000 0.0000
# 3 4.0439 8.6041 38.6943 0.0000 0.0000 0.0000
# 4 0.0000 0.0000 0.0000 20.5900 0.0000 0.0000
# 5 0.0000 0.0000 0.0000 0.0000 0.3103 0.0000
# 6 0.0000 0.0000 0.0000 0.0000 0.0000 46.3138
#
#
#
# Elastic Compliance Matrix: (Units=1/GPa)
#
#
# Indices 1 2 3 4 5 6 
#
# 1 0.009325 -0.002244 -0.000475 0.000000 0.000000 0.000000
# 2 -0.002244 0.007541 -0.001442 0.000000 0.000000 0.000000
# 3 -0.000475 -0.001442 0.026214 0.000000 0.000000 0.000000
# 4 0.000000 0.000000 0.000000 0.048567 0.000000 0.000000
# 5 0.000000 0.000000 0.000000 0.000000 3.222557 0.000000
# 6 0.000000 0.000000 0.000000 0.000000 0.000000 0.021592
#
#
# Mechanical properties :
#
#
# Convention : Reuss Voigt Hill
#
# Bulk Modulus (GPa) = 28.77230 43.91556 36.34393
# Shear Modulus (GPa) = 1.49000 30.20681 15.84841
#
# Velocity S-wave (km/s) = 0.78930 3.55386 2.57419
# Velocity P-wave (km/s) = 3.58619 5.93309 4.90216
#
# Compressibility (1/GPa) = 0.03475565
#
# Stress axis : x y z
#
# Youngs Moduli (GPa) = 107.23917 132.61056 38.14760
#
# Poissons Ratio (x) = 0.29762 0.01814
# Poissons Ratio (y) = 0.24068 0.05502
# Poissons Ratio (z) = 0.05099 0.19126
#
# Static dielectric constant tensor:
#      x y z
#    x 4.593490 0.000000 0.000000 
#    y 0.000000 4.202090 0.000000 
#    z 0.000000 0.000000 3.798940 
# 
# 
# High freq. dielectric constant tensor:
#      x y z
#    x 1.973750 0.000000 0.000000 
#    y 0.000000 1.947810 0.000000 
#    z 0.000000 0.000000 1.912490 
# 
# From -- ./inp_files/31111.got.cif
#   From: 2010.06.25/outbox.cif.g09.slc.cpg/sg52_16_cif.got.tgz:31111.got - 2010.06.26 19:32:48.
