data_PCOD8216354
_publ_section_title
;
Structure prediction by ZEFSAII (Michael W. Deem and Ramdas Pophale) SiO2 
 PCOD8216354
Probable space group: P N N A
;
_chemical_formula_sum "Si O2"
_cell_formula_units_Z 40
_cell_length_a 21.251263
_cell_length_b 14.589772
_cell_length_c 6.347622
_cell_angle_alpha 90.000000
_cell_angle_beta 90.000000
_cell_angle_gamma 90.000000
_cell_volume 1968.087068
_symmetry_space_group_name_H-M "P N N A"
_symmetry_group_IT_number 52
_symmetry_cell_setting 'orthorhombic'
loop_
_space_group_symop_operation_xyz
x,y,z
1/2-x,-y,z
x,1/2-y,1/2-z
1/2-x,1/2+y,1/2-z
-x,-y,-z
1/2+x,y,-z
-x,1/2+y,1/2+z
1/2+x,1/2-y,1/2+z
loop_
_atom_site_type_symbol
_atom_site_label
_atom_site_fract_x
_atom_site_fract_y
_atom_site_fract_z
Si Si1 0.711522 0.250000 0.750000
Si Si2 0.638429 0.421668 0.904751
Si Si3 0.466816 0.950890 0.691522
Si Si4 0.696568 0.672831 0.410539
Si Si5 0.750000 0.000000 0.334734
Si Si6 0.415819 0.062430 0.070539
O O1 0.666186 0.332131 0.804408
O O2 0.753974 0.274927 0.553495
O O3 0.608306 0.480117 0.716604
O O4 0.587585 0.389686 0.082833
O O5 0.691333 0.482451 0.015019
O O6 0.520008 0.895508 0.824649
O O7 0.500000 0.000000 0.500000
O O8 0.432382 0.025104 0.839741
O O9 0.671773 0.750000 0.250000
O O10 0.732659 0.586878 0.308628
O O11 0.636820 0.640440 0.547930
#
# Coordination Sequence:
#
# PCOD8216354 Si02
#       6
#     4   8   8   8   4   8
#     4  12  26  40  64 104 138 168 220 278 336 404
#     4  11  22  40  67  96 136 174 219 272 338 403
#     4   9  20  40  72  92 121 176 228 267 330 401
#     4  12  25  41  66  99 137 172 224 277 332 405
#     4  12  22  44  66  96 134 182 216 274 342 404
#     4  10  21  41  71  92 127 179 222 273 333 396
#
# _framework density 20.324304000000001
#
# number of rings (size 3 to 8) (size 9 to 14) (size 15 to 20)
#    0.000    1.200    4.000    2.400    0.000    0.000 
#    0.000    0.000   37.400    0.000    0.000    0.000 
#    0.000    0.000    0.000    0.000    0.000    0.000 
#
# Total GULP energy -495849.898105 kJ/mol
# GULP energy per Si atom -12396.247453 kJ/mol
# Density = 2.027804 g / cm^3
# Si number density = 20.324304 Si / 1000 Ang^3
#
#
#
# Elastic Constant Matrix: (Units=GPa)
#
#
# Indices 1 2 3 4 5 6 
#
# 1 128.2372 33.1586 47.6300 0.0000 0.0000 0.0000
# 2 33.1586 81.7850 28.8545 0.0000 0.0000 0.0000
# 3 47.6300 28.8545 103.1858 0.0000 0.0000 0.0000
# 4 0.0000 0.0000 0.0000 38.7472 0.0000 0.0000
# 5 0.0000 0.0000 0.0000 0.0000 35.5417 0.0000
# 6 0.0000 0.0000 0.0000 0.0000 0.0000 13.0205
#
#
#
# Elastic Compliance Matrix: (Units=1/GPa)
#
#
# Indices 1 2 3 4 5 6 
#
# 1 0.009910 -0.002667 -0.003828 0.000000 0.000000 0.000000
# 2 -0.002667 0.014283 -0.002763 0.000000 0.000000 0.000000
# 3 -0.003828 -0.002763 0.012231 0.000000 0.000000 0.000000
# 4 0.000000 0.000000 0.000000 0.025808 0.000000 0.000000
# 5 0.000000 0.000000 0.000000 0.000000 0.028136 0.000000
# 6 0.000000 0.000000 0.000000 0.000000 0.000000 0.076802
#
#
# Mechanical properties :
#
#
# Convention : Reuss Voigt Hill
#
# Bulk Modulus (GPa) = 55.84400 59.16602 57.50501
# Shear Modulus (GPa) = 26.08834 31.03286 28.56060
#
# Velocity S-wave (km/s) = 3.58663 3.91178 3.75272
# Velocity P-wave (km/s) = 6.68491 7.04108 6.86530
#
# Compressibility (1/GPa) = 0.01790703
#
# Stress axis : x y z
#
# Youngs Moduli (GPa) = 100.91202 70.01179 81.75881
#
# Poissons Ratio (x) = 0.18672 0.31301
# Poissons Ratio (y) = 0.26913 0.22590
# Poissons Ratio (z) = 0.38634 0.19345
#
# Static dielectric constant tensor:
#      x y z
#    x 4.350880 0.000000 0.000000 
#    y 0.000000 3.313590 0.000000 
#    z 0.000000 0.000000 4.096640 
# 
# 
# High freq. dielectric constant tensor:
#      x y z
#    x 1.822180 0.000000 0.000000 
#    y 0.000000 1.756940 0.000000 
#    z 0.000000 0.000000 1.820420 
# 
# From -- ./inp_files/5035.got.cif
#   From: 2010.06.25/outbox.cif.g09.slc.cpg/sg52_3_cif.got.tgz:5035.got - 2010.06.26 19:32:48.
