data_PCOD8216227
_publ_section_title
;
Structure prediction by ZEFSAII (Michael W. Deem and Ramdas Pophale) SiO2 
 PCOD8216227
Probable space group: P N N A
;
_chemical_formula_sum "Si O2"
_cell_formula_units_Z 64
_cell_length_a 23.874105
_cell_length_b 15.182522
_cell_length_c 8.870669
_cell_angle_alpha 90.000000
_cell_angle_beta 90.000000
_cell_angle_gamma 90.000000
_cell_volume 3215.343625
_symmetry_space_group_name_H-M "P N N A"
_symmetry_group_IT_number 52
_symmetry_cell_setting 'orthorhombic'
loop_
_space_group_symop_operation_xyz
x,y,z
1/2-x,-y,z
x,1/2-y,1/2-z
1/2-x,1/2+y,1/2-z
-x,-y,-z
1/2+x,y,-z
-x,1/2+y,1/2+z
1/2+x,1/2-y,1/2+z
loop_
_atom_site_type_symbol
_atom_site_label
_atom_site_fract_x
_atom_site_fract_y
_atom_site_fract_z
Si Si1 0.852893 0.411313 0.424544
Si Si2 0.245013 0.351072 0.077870
Si Si3 0.447087 0.750000 0.071347
Si Si4 0.352893 0.088687 0.575456
Si Si5 0.129240 0.108905 0.923647
Si Si6 0.754987 0.648928 0.577870
Si Si7 0.426972 0.250000 0.928829
Si Si8 0.129240 0.108905 0.576353
O O1 0.837946 0.394167 0.250000
O O2 0.882481 0.505402 0.447346
O O3 0.795343 0.411389 0.517808
O O4 0.895006 0.337025 0.487306
O O5 0.231599 0.376653 0.250000
O O6 0.264049 0.250000 0.063438
O O7 0.295343 0.411389 0.017808
O O8 0.190791 0.366505 0.978007
O O9 0.445922 0.750000 0.250000
O O10 0.510156 0.750000 0.006233
O O11 0.416882 0.838165 0.016240
O O12 0.416882 0.661835 0.016240
O O13 0.395006 0.162975 0.512694
O O14 0.382481 0.994598 0.552654
O O15 0.124441 0.136156 0.750000
O O16 0.190791 0.133495 0.978007
O O17 0.429474 0.250000 0.750000
#
# Coordination Sequence:
#
# PCOD8216227 Si02
#       8
#     8   8   8   8   8   8   8   8
#     4  10  21  39  63  88 116 154 196 237 288 348
#     4  11  22  36  58  89 122 155 190 235 292 346
#     4  11  23  40  61  84 113 156 198 239 294 345
#     4  10  21  39  63  88 116 154 196 237 288 348
#     4  11  23  38  60  89 118 153 195 240 289 344
#     4  11  22  36  58  89 122 155 190 235 292 346
#     4   9  20  40  63  84 113 152 196 241 288 345
#     4  11  23  38  60  89 118 153 195 240 289 344
#
# _framework density 19.904558999999999
#
# number of rings (size 3 to 8) (size 9 to 14) (size 15 to 20)
#    0.000    1.500    2.500    2.625    0.000    7.000 
#    0.000    2.500    0.000    0.000    0.000    0.000 
#    0.000    0.000    0.000    0.000    0.000    0.000 
#
# Total GULP energy -793930.223826 kJ/mol
# GULP energy per Si atom -12405.159747 kJ/mol
# Density = 1.985926 g / cm^3
# Si number density = 19.904559 Si / 1000 Ang^3
#
#
#
# Elastic Constant Matrix: (Units=GPa)
#
#
# Indices 1 2 3 4 5 6 
#
# 1 135.6476 42.9305 32.8547 0.0000 0.0000 0.0000
# 2 42.9305 108.5922 37.2788 0.0000 0.0000 0.0000
# 3 32.8547 37.2788 77.8154 0.0000 0.0000 0.0000
# 4 0.0000 0.0000 0.0000 28.8262 0.0000 0.0000
# 5 0.0000 0.0000 0.0000 0.0000 25.7605 0.0000
# 6 0.0000 0.0000 0.0000 0.0000 0.0000 6.7358
#
#
#
# Elastic Compliance Matrix: (Units=1/GPa)
#
#
# Indices 1 2 3 4 5 6 
#
# 1 0.008801 -0.002637 -0.002452 0.000000 0.000000 0.000000
# 2 -0.002637 0.011812 -0.004545 0.000000 0.000000 0.000000
# 3 -0.002452 -0.004545 0.016064 0.000000 0.000000 0.000000
# 4 0.000000 0.000000 0.000000 0.034691 0.000000 0.000000
# 5 0.000000 0.000000 0.000000 0.000000 0.038819 0.000000
# 6 0.000000 0.000000 0.000000 0.000000 0.000000 0.148460
#
#
# Mechanical properties :
#
#
# Convention : Reuss Voigt Hill
#
# Bulk Modulus (GPa) = 57.44935 60.90924 59.17929
# Shear Modulus (GPa) = 17.62318 26.19724 21.91021
#
# Velocity S-wave (km/s) = 2.97877 3.63180 3.32138
# Velocity P-wave (km/s) = 6.38403 6.94649 6.67119
#
# Compressibility (1/GPa) = 0.01740664
#
# Stress axis : x y z
#
# Youngs Moduli (GPa) = 113.62741 84.66174 62.25211
#
# Poissons Ratio (x) = 0.22329 0.15266
# Poissons Ratio (y) = 0.29968 0.28294
# Poissons Ratio (z) = 0.27865 0.38479
#
# Static dielectric constant tensor:
#      x y z
#    x 3.594280 0.000000 0.000000 
#    y 0.000000 3.844730 0.000000 
#    z 0.000000 0.000000 3.548560 
# 
# 
# High freq. dielectric constant tensor:
#      x y z
#    x 1.768330 0.000000 0.000000 
#    y 0.000000 1.792820 0.000000 
#    z 0.000000 0.000000 1.770040 
# 
# From -- ./inp_files/14484.got.cif
#   From: 2010.06.25/outbox.cif.g09.slc.cpg/sg52_8_cif.got.tgz:14484.got - 2010.06.26 19:32:48.
