data_PCOD8216891
_publ_section_title
;
Structure prediction by ZEFSAII (Michael W. Deem and Ramdas Pophale) SiO2 
 PCOD8216891
Probable space group: P N N A
;
_chemical_formula_sum "Si O2"
_cell_formula_units_Z 48
_cell_length_a 9.927840
_cell_length_b 14.775323
_cell_length_c 15.688534
_cell_angle_alpha 90.000000
_cell_angle_beta 90.000000
_cell_angle_gamma 90.000000
_cell_volume 2301.304657
_symmetry_space_group_name_H-M "P N N A"
_symmetry_group_IT_number 52
_symmetry_cell_setting 'orthorhombic'
loop_
_space_group_symop_operation_xyz
x,y,z
1/2-x,-y,z
x,1/2-y,1/2-z
1/2-x,1/2+y,1/2-z
-x,-y,-z
1/2+x,y,-z
-x,1/2+y,1/2+z
1/2+x,1/2-y,1/2+z
loop_
_atom_site_type_symbol
_atom_site_label
_atom_site_fract_x
_atom_site_fract_y
_atom_site_fract_z
Si Si1 0.521813 0.767022 0.515522
Si Si2 0.750000 0.500000 0.384698
Si Si3 0.343012 0.084590 0.587645
Si Si4 0.724217 0.352012 0.520860
Si Si5 0.616000 0.316782 0.178351
Si Si6 0.750000 0.000000 0.838081
Si Si7 0.470019 0.497845 0.749582
O O1 0.559625 0.869072 0.482703
O O2 0.640679 0.698763 0.497007
O O3 0.393720 0.722363 0.467090
O O4 0.498092 0.774896 0.616917
O O5 0.690132 0.419340 0.442675
O O6 0.628055 0.536414 0.326043
O O7 0.241160 0.161489 0.618017
O O8 0.440099 0.057806 0.665041
O O9 0.250000 0.000000 0.554052
O O10 0.751730 0.409370 0.605791
O O11 0.669041 0.250000 0.250000
O O12 0.558056 0.398732 0.231593
O O13 0.623536 0.011065 0.776487
#
# Coordination Sequence:
#
# PCOD8216891 Si02
#       7
#     8   4   8   8   8   4   8
#     4  12  24  42  66 100 131 173 224 280 332 405
#     4  11  20  42  68  91 130 176 226 265 330 432
#     4  10  24  44  66  97 129 182 228 269 332 399
#     4  11  24  39  65  97 132 172 214 279 350 404
#     4  11  22  41  67  94 129 170 224 274 321 397
#     4  11  24  42  60  99 140 162 210 287 354 400
#     4  11  23  41  66  93 125 178 221 267 335 399
#
# _framework density 20.857734000000001
#
# number of rings (size 3 to 8) (size 9 to 14) (size 15 to 20)
#    0.000    1.000    4.167    4.000    0.000    8.000 
#    1.500    1.667    0.000    0.000    0.000    0.000 
#    0.000    0.000    0.000    0.000    0.000    0.000 
#
# Total GULP energy -595159.067023 kJ/mol
# GULP energy per Si atom -12399.147230 kJ/mol
# Density = 2.081026 g / cm^3
# Si number density = 20.857734 Si / 1000 Ang^3
#
#
#
# Elastic Constant Matrix: (Units=GPa)
#
#
# Indices 1 2 3 4 5 6 
#
# 1 125.6059 26.4256 25.5007 0.0000 0.0000 0.0000
# 2 26.4256 93.4277 35.1174 0.0000 0.0000 0.0000
# 3 25.5007 35.1174 62.2427 0.0000 0.0000 0.0000
# 4 0.0000 0.0000 0.0000 17.9641 0.0000 0.0000
# 5 0.0000 0.0000 0.0000 0.0000 151.5407 0.0000
# 6 0.0000 0.0000 0.0000 0.0000 0.0000 27.0867
#
#
#
# Elastic Compliance Matrix: (Units=1/GPa)
#
#
# Indices 1 2 3 4 5 6 
#
# 1 0.008835 -0.001445 -0.002804 0.000000 0.000000 0.000000
# 2 -0.001445 0.013821 -0.007206 0.000000 0.000000 0.000000
# 3 -0.002804 -0.007206 0.021281 0.000000 0.000000 0.000000
# 4 0.000000 0.000000 0.000000 0.055667 0.000000 0.000000
# 5 0.000000 0.000000 0.000000 0.000000 0.006599 0.000000
# 6 0.000000 0.000000 0.000000 0.000000 0.000000 0.036919
#
#
# Mechanical properties :
#
#
# Convention : Reuss Voigt Hill
#
# Bulk Modulus (GPa) = 47.55982 50.59595 49.07789
# Shear Modulus (GPa) = 28.89536 52.26713 40.58125
#
# Velocity S-wave (km/s) = 3.72607 5.01131 4.41570
# Velocity P-wave (km/s) = 6.43141 7.60228 7.04122
#
# Compressibility (1/GPa) = 0.02102615
#
# Stress axis : x y z
#
# Youngs Moduli (GPa) = 113.18979 72.35599 46.99124
#
# Poissons Ratio (x) = 0.10454 0.13178
# Poissons Ratio (y) = 0.16353 0.33860
# Poissons Ratio (z) = 0.31743 0.52137
#
# Static dielectric constant tensor:
#      x y z
#    x 3.933860 0.000000 0.000000 
#    y 0.000000 2.778700 0.000000 
#    z 0.000000 0.000000 3.800050 
# 
# 
# High freq. dielectric constant tensor:
#      x y z
#    x 1.817120 0.000000 0.000000 
#    y 0.000000 1.826270 0.000000 
#    z 0.000000 0.000000 1.814540 
# 
# From -- ./inp_files/31267.got.cif
#   From: 2010.06.25/outbox.cif.g09.slc.cpg/sg52_16_cif.got.tgz:31267.got - 2010.06.26 19:32:48.
