data_PCOD8216394
_publ_section_title
;
Structure prediction by ZEFSAII (Michael W. Deem and Ramdas Pophale) SiO2 
 PCOD8216394
Probable space group: P N N A
;
_chemical_formula_sum "Si O2"
_cell_formula_units_Z 44
_cell_length_a 13.952491
_cell_length_b 24.669572
_cell_length_c 6.469365
_cell_angle_alpha 90.000000
_cell_angle_beta 90.000000
_cell_angle_gamma 90.000000
_cell_volume 2226.768251
_symmetry_space_group_name_H-M "P N N A"
_symmetry_group_IT_number 52
_symmetry_cell_setting 'orthorhombic'
loop_
_space_group_symop_operation_xyz
x,y,z
1/2-x,-y,z
x,1/2-y,1/2-z
1/2-x,1/2+y,1/2-z
-x,-y,-z
1/2+x,y,-z
-x,1/2+y,1/2+z
1/2+x,1/2-y,1/2+z
loop_
_atom_site_type_symbol
_atom_site_label
_atom_site_fract_x
_atom_site_fract_y
_atom_site_fract_z
Si Si1 0.228098 0.882157 0.999479
Si Si2 0.927609 0.534530 0.865352
Si Si3 0.504965 0.880253 0.042953
Si Si4 0.126348 0.125499 0.661952
Si Si5 0.250000 0.000000 0.145451
Si Si6 0.862042 0.687782 0.774124
O O1 0.273643 0.849463 0.192432
O O2 0.255121 0.945601 0.011400
O O3 0.276193 0.863642 0.786100
O O4 0.116745 0.870235 0.982222
O O5 0.983256 0.566543 0.682135
O O6 0.848162 0.493861 0.774817
O O7 0.867029 0.574894 0.007898
O O8 0.000000 0.500000 0.000000
O O9 0.457735 0.827111 0.145870
O O10 0.462883 0.886041 0.812928
O O11 0.115299 0.178130 0.516151
O O12 0.834285 0.750000 0.750000
#
# Coordination Sequence:
#
# PCOD8216394 Si02
#       6
#     8   8   8   8   4   8
#     4  11  24  40  64  98 127 169 218 263 332 400
#     4  11  24  37  60  94 129 177 217 262 324 393
#     4  10  23  43  61  98 124 167 224 266 329 400
#     4  10  21  43  63  88 131 166 208 273 327 377
#     4  12  22  40  60  94 138 166 224 270 326 402
#     4  10  23  48  65  93 130 164 221 275 332 399
#
# _framework density 19.759578000000001
#
# number of rings (size 3 to 8) (size 9 to 14) (size 15 to 20)
#    0.000    1.455    5.455    1.091    5.091    7.273 
#    6.545    0.000    0.000    0.000    0.000    0.000 
#    0.000    0.000    0.000    0.000    0.000    0.000 
#
# Total GULP energy -545529.865906 kJ/mol
# GULP energy per Si atom -12398.406043 kJ/mol
# Density = 1.971460 g / cm^3
# Si number density = 19.759578 Si / 1000 Ang^3
#
#
#
# Elastic Constant Matrix: (Units=GPa)
#
#
# Indices 1 2 3 4 5 6 
#
# 1 162.8018 23.3529 41.7145 0.0000 0.0000 0.0000
# 2 23.3529 108.2128 33.1780 0.0000 0.0000 0.0000
# 3 41.7145 33.1780 118.9137 0.0000 0.0000 0.0000
# 4 0.0000 0.0000 0.0000 21.8336 0.0000 0.0000
# 5 0.0000 0.0000 0.0000 0.0000 20.4405 0.0000
# 6 0.0000 0.0000 0.0000 0.0000 0.0000 16.3659
#
#
#
# Elastic Compliance Matrix: (Units=1/GPa)
#
#
# Indices 1 2 3 4 5 6 
#
# 1 0.006813 -0.000806 -0.002165 0.000000 0.000000 0.000000
# 2 -0.000806 0.010201 -0.002563 0.000000 0.000000 0.000000
# 3 -0.002165 -0.002563 0.009884 0.000000 0.000000 0.000000
# 4 0.000000 0.000000 0.000000 0.045801 0.000000 0.000000
# 5 0.000000 0.000000 0.000000 0.000000 0.048923 0.000000
# 6 0.000000 0.000000 0.000000 0.000000 0.000000 0.061103
#
#
# Mechanical properties :
#
#
# Convention : Reuss Voigt Hill
#
# Bulk Modulus (GPa) = 63.17677 65.15769 64.16723
# Shear Modulus (GPa) = 25.11683 31.17351 28.14517
#
# Velocity S-wave (km/s) = 3.56915 3.97626 3.77819
# Velocity P-wave (km/s) = 7.00194 7.35715 7.18174
#
# Compressibility (1/GPa) = 0.01582860
#
# Stress axis : x y z
#
# Youngs Moduli (GPa) = 146.78183 98.02969 101.17291
#
# Poissons Ratio (x) = 0.07906 0.21903
# Poissons Ratio (y) = 0.11838 0.25933
# Poissons Ratio (z) = 0.31777 0.25128
#
# Static dielectric constant tensor:
#      x y z
#    x 3.547710 0.000000 0.000000 
#    y 0.000000 3.609630 0.000000 
#    z 0.000000 0.000000 3.877420 
# 
# 
# High freq. dielectric constant tensor:
#      x y z
#    x 1.770740 0.000000 0.000000 
#    y 0.000000 1.753660 0.000000 
#    z 0.000000 0.000000 1.784990 
# 
# From -- ./inp_files/2385.got.cif
#   From: 2010.06.25/outbox.cif.g09.slc.cpg/sg52_2_cif.got.tgz:2385.got - 2010.06.26 19:32:48.
