data_PCOD8216252
_publ_section_title
;
Structure prediction by ZEFSAII (Michael W. Deem and Ramdas Pophale) SiO2 
 PCOD8216252
Probable space group: P N N A
;
_chemical_formula_sum "Si O2"
_cell_formula_units_Z 48
_cell_length_a 14.767336
_cell_length_b 9.394046
_cell_length_c 16.256372
_cell_angle_alpha 90.000000
_cell_angle_beta 90.000000
_cell_angle_gamma 90.000000
_cell_volume 2255.165753
_symmetry_space_group_name_H-M "P N N A"
_symmetry_group_IT_number 52
_symmetry_cell_setting 'orthorhombic'
loop_
_space_group_symop_operation_xyz
x,y,z
1/2-x,-y,z
x,1/2-y,1/2-z
1/2-x,1/2+y,1/2-z
-x,-y,-z
1/2+x,y,-z
-x,1/2+y,1/2+z
1/2+x,1/2-y,1/2+z
loop_
_atom_site_type_symbol
_atom_site_label
_atom_site_fract_x
_atom_site_fract_y
_atom_site_fract_z
Si Si1 0.633660 0.670405 0.881886
Si Si2 0.350205 0.042181 0.216182
Si Si3 0.964752 0.725737 0.464655
Si Si4 0.201380 0.850211 0.823553
Si Si5 0.734268 0.158611 0.468458
Si Si6 0.485231 0.436091 0.626510
O O1 0.631744 0.810256 0.827537
O O2 0.639711 0.542896 0.815508
O O3 0.539381 0.661873 0.931710
O O4 0.719482 0.667572 0.942178
O O5 0.250000 0.000000 0.189876
O O6 0.423389 0.932369 0.180244
O O7 0.872293 0.811956 0.476967
O O8 0.953604 0.593739 0.401994
O O9 0.000509 0.666970 0.550251
O O10 0.235682 0.750000 0.750000
O O11 0.094119 0.874274 0.816697
O O12 0.250000 0.000000 0.816404
O O13 0.222669 0.777543 0.910529
O O14 0.750000 0.000000 0.431988
#
# Coordination Sequence:
#
# PCOD8216252 Si02
#       6
#     8   8   8   8   8   8
#     4  10  22  40  63  97 137 172 229 281 341 415
#     4  10  21  39  65  98 132 176 224 283 346 407
#     4  10  21  41  72  98 128 182 234 281 345 415
#     4  12  26  47  69 100 134 178 237 285 343 414
#     4  12  25  43  67  98 140 184 223 287 356 418
#     4  10  21  43  71  99 130 177 234 286 340 418
#
# _framework density 21.284465999999998
#
# number of rings (size 3 to 8) (size 9 to 14) (size 15 to 20)
#    0.000    1.333    3.333    2.000    0.000    4.000 
#    9.000    0.000    0.000    0.000    0.000    0.000 
#    0.000    0.000    0.000    0.000    0.000    0.000 
#
# Total GULP energy -595248.349679 kJ/mol
# GULP energy per Si atom -12401.007285 kJ/mol
# Density = 2.123602 g / cm^3
# Si number density = 21.284466 Si / 1000 Ang^3
#
#
#
# Elastic Constant Matrix: (Units=GPa)
#
#
# Indices 1 2 3 4 5 6 
#
# 1 173.7446 35.2045 47.1743 0.0000 0.0000 0.0000
# 2 35.2045 80.6963 28.8734 0.0000 0.0000 0.0000
# 3 47.1743 28.8734 117.1994 0.0000 0.0000 0.0000
# 4 0.0000 0.0000 0.0000 13.6519 0.0000 0.0000
# 5 0.0000 0.0000 0.0000 0.0000 29.7508 0.0000
# 6 0.0000 0.0000 0.0000 0.0000 0.0000 28.1760
#
#
#
# Elastic Compliance Matrix: (Units=1/GPa)
#
#
# Indices 1 2 3 4 5 6 
#
# 1 0.006794 -0.002177 -0.002198 0.000000 0.000000 0.000000
# 2 -0.002177 0.014288 -0.002644 0.000000 0.000000 0.000000
# 3 -0.002198 -0.002644 0.010069 0.000000 0.000000 0.000000
# 4 0.000000 0.000000 0.000000 0.073250 0.000000 0.000000
# 5 0.000000 0.000000 0.000000 0.000000 0.033613 0.000000
# 6 0.000000 0.000000 0.000000 0.000000 0.000000 0.035491
#
#
# Mechanical properties :
#
#
# Convention : Reuss Voigt Hill
#
# Bulk Modulus (GPa) = 58.43849 66.01609 62.22729
# Shear Modulus (GPa) = 25.87384 31.67496 28.77440
#
# Velocity S-wave (km/s) = 3.49036 3.86187 3.68080
# Velocity P-wave (km/s) = 6.61506 7.13924 6.88214
#
# Compressibility (1/GPa) = 0.01711201
#
# Stress axis : x y z
#
# Youngs Moduli (GPa) = 147.19841 69.98935 99.31952
#
# Poissons Ratio (x) = 0.15238 0.21831
# Poissons Ratio (y) = 0.32049 0.26256
# Poissons Ratio (z) = 0.32356 0.18502
#
# Static dielectric constant tensor:
#      x y z
#    x 3.974960 0.000000 0.000000 
#    y 0.000000 3.928670 0.000000 
#    z 0.000000 0.000000 4.001100 
# 
# 
# High freq. dielectric constant tensor:
#      x y z
#    x 1.848670 0.000000 0.000000 
#    y 0.000000 1.823650 0.000000 
#    z 0.000000 0.000000 1.838380 
# 
# From -- ./inp_files/33067.got.cif
#   From: 2010.06.25/outbox.cif.g09.slc.cpg/sg52_17_cif.got.tgz:33067.got - 2010.06.26 19:32:48.
