data_PCOD8216569
_publ_section_title
;
Structure prediction by ZEFSAII (Michael W. Deem and Ramdas Pophale) SiO2 
 PCOD8216569
Probable space group: P N N A
;
_chemical_formula_sum "Si O2"
_cell_formula_units_Z 28
_cell_length_a 8.712563
_cell_length_b 14.365708
_cell_length_c 9.286002
_cell_angle_alpha 90.000000
_cell_angle_beta 90.000000
_cell_angle_gamma 90.000000
_cell_volume 1162.255845
_symmetry_space_group_name_H-M "P N N A"
_symmetry_group_IT_number 52
_symmetry_cell_setting 'orthorhombic'
loop_
_space_group_symop_operation_xyz
x,y,z
1/2-x,-y,z
x,1/2-y,1/2-z
1/2-x,1/2+y,1/2-z
-x,-y,-z
1/2+x,y,-z
-x,1/2+y,1/2+z
1/2+x,1/2-y,1/2+z
loop_
_atom_site_type_symbol
_atom_site_label
_atom_site_fract_x
_atom_site_fract_y
_atom_site_fract_z
Si Si1 0.984676 0.878116 0.120721
Si Si2 0.027718 0.211332 0.398784
Si Si3 0.715307 0.108615 0.386684
Si Si4 0.750000 0.500000 0.553009
O O1 0.914472 0.645491 0.224039
O O2 0.006021 0.789569 0.018096
O O3 0.866489 0.948428 0.050326
O O4 0.150894 0.926904 0.147233
O O5 0.099429 0.250000 0.250000
O O6 0.148899 0.135388 0.456719
O O7 0.870413 0.162600 0.353042
O O8 0.750000 0.000000 0.378961
#
# Coordination Sequence:
#
# PCOD8216569 Si02
#       4
#     8   8   8   4
#     4  11  23  47  77 110 149 196 250 306 370 448
#     4  12  27  47  73 109 151 194 249 308 376 446
#     4  12  27  52  74 110 149 197 249 313 371 446
#     4  10  22  40  76 116 142 192 248 306 370 438
#
# _framework density 24.091080999999999
#
# number of rings (size 3 to 8) (size 9 to 14) (size 15 to 20)
#    0.000    0.571    1.429    6.857    4.000    4.571 
#    5.143    0.000    0.000    0.000    0.000    0.000 
#    0.000    0.000    0.000    0.000    0.000    0.000 
#
# Total GULP energy -347272.125809 kJ/mol
# GULP energy per Si atom -12402.575922 kJ/mol
# Density = 2.403625 g / cm^3
# Si number density = 24.091081 Si / 1000 Ang^3
#
#
#
# Elastic Constant Matrix: (Units=GPa)
#
#
# Indices 1 2 3 4 5 6 
#
# 1 75.8211 26.9615 27.1752 0.0000 0.0000 0.0000
# 2 26.9615 141.7720 54.3805 0.0000 0.0000 0.0000
# 3 27.1752 54.3805 136.0680 0.0000 0.0000 0.0000
# 4 0.0000 0.0000 0.0000 35.8338 0.0000 0.0000
# 5 0.0000 0.0000 0.0000 0.0000 45.9659 0.0000
# 6 0.0000 0.0000 0.0000 0.0000 0.0000 40.7862
#
#
#
# Elastic Compliance Matrix: (Units=1/GPa)
#
#
# Indices 1 2 3 4 5 6 
#
# 1 0.014655 -0.001966 -0.002141 0.000000 0.000000 0.000000
# 2 -0.001966 0.008594 -0.003042 0.000000 0.000000 0.000000
# 3 -0.002141 -0.003042 0.008993 0.000000 0.000000 0.000000
# 4 0.000000 0.000000 0.000000 0.027907 0.000000 0.000000
# 5 0.000000 0.000000 0.000000 0.000000 0.021755 0.000000
# 6 0.000000 0.000000 0.000000 0.000000 0.000000 0.024518
#
#
# Mechanical properties :
#
#
# Convention : Reuss Voigt Hill
#
# Bulk Modulus (GPa) = 55.72894 63.41063 59.56978
# Shear Modulus (GPa) = 39.46258 40.86011 40.16135
#
# Velocity S-wave (km/s) = 4.05168 4.12280 4.08740
# Velocity P-wave (km/s) = 6.71349 7.00298 6.85976
#
# Compressibility (1/GPa) = 0.01794400
#
# Stress axis : x y z
#
# Youngs Moduli (GPa) = 68.23415 116.35588 111.20059
#
# Poissons Ratio (x) = 0.22872 0.23812
# Poissons Ratio (y) = 0.13413 0.33829
# Poissons Ratio (z) = 0.14611 0.35398
#
# Static dielectric constant tensor:
#      x y z
#    x 4.632460 0.000000 0.000000 
#    y 0.000000 5.226030 0.000000 
#    z 0.000000 0.000000 4.397230 
# 
# 
# High freq. dielectric constant tensor:
#      x y z
#    x 1.966320 0.000000 0.000000 
#    y 0.000000 1.971730 0.000000 
#    z 0.000000 0.000000 1.952250 
# 
# From -- ./inp_files/16309.got.cif
#   From: 2010.06.25/outbox.cif.g09.slc.cpg/sg52_9_cif.got.tgz:16309.got - 2010.06.26 19:32:48.
