data_PCOD8216533
_publ_section_title
;
Structure prediction by ZEFSAII (Michael W. Deem and Ramdas Pophale) SiO2 
 PCOD8216533
Probable space group: P N N A
;
_chemical_formula_sum "Si O2"
_cell_formula_units_Z 40
_cell_length_a 8.493417
_cell_length_b 8.776147
_cell_length_c 26.232279
_cell_angle_alpha 90.000000
_cell_angle_beta 90.000000
_cell_angle_gamma 90.000000
_cell_volume 1955.340334
_symmetry_space_group_name_H-M "P N N A"
_symmetry_group_IT_number 52
_symmetry_cell_setting 'orthorhombic'
loop_
_space_group_symop_operation_xyz
x,y,z
1/2-x,-y,z
x,1/2-y,1/2-z
1/2-x,1/2+y,1/2-z
-x,-y,-z
1/2+x,y,-z
-x,1/2+y,1/2+z
1/2+x,1/2-y,1/2+z
loop_
_atom_site_type_symbol
_atom_site_label
_atom_site_fract_x
_atom_site_fract_y
_atom_site_fract_z
Si Si1 0.026491 0.659793 0.027044
Si Si2 0.529553 0.750000 0.250000
Si Si3 0.989881 0.101719 0.638243
Si Si4 0.324361 0.660615 0.455914
Si Si5 0.250000 0.000000 0.709005
Si Si6 0.657397 0.224193 0.649976
O O1 0.947451 0.656809 0.083053
O O2 0.210253 0.693527 0.036010
O O3 0.000000 0.500000 0.000000
O O4 0.967026 0.803699 0.994048
O O5 0.637526 0.601930 0.243786
O O6 0.418762 0.713276 0.298212
O O7 0.845331 0.204678 0.659000
O O8 0.928324 0.930128 0.633484
O O9 0.140719 0.111868 0.675092
O O10 0.250000 0.500000 0.471281
O O11 0.375053 0.657407 0.396297
#
# Coordination Sequence:
#
# PCOD8216533 Si02
#       6
#     8   4   8   8   4   8
#     4  11  21  37  65  87 118 168 207 246 298 373
#     4  10  22  42  64  86 120 160 202 260 314 370
#     4   9  19  36  63  91 114 155 213 255 288 369
#     4  11  23  38  56  92 129 156 203 252 312 370
#     4  10  22  40  62  94 124 144 208 268 314 356
#     4   9  19  40  59  84 121 161 206 248 297 378
#
# _framework density 20.456797000000002
#
# number of rings (size 3 to 8) (size 9 to 14) (size 15 to 20)
#    0.000    2.000    2.000    1.200    2.800    0.800 
#   14.400    0.000    2.200    0.000    0.000    0.000 
#    0.000    0.000    0.000    0.000    0.000    0.000 
#
# Total GULP energy -495966.945985 kJ/mol
# GULP energy per Si atom -12399.173650 kJ/mol
# Density = 2.041024 g / cm^3
# Si number density = 20.456797 Si / 1000 Ang^3
#
#
#
# Elastic Constant Matrix: (Units=GPa)
#
#
# Indices 1 2 3 4 5 6 
#
# 1 92.1417 21.9276 73.6574 0.0000 0.0000 0.0000
# 2 21.9276 62.2855 43.2640 0.0000 0.0000 0.0000
# 3 73.6574 43.2640 165.6790 0.0000 0.0000 0.0000
# 4 0.0000 0.0000 0.0000 29.0685 0.0000 0.0000
# 5 0.0000 0.0000 0.0000 0.0000 34.9563 0.0000
# 6 0.0000 0.0000 0.0000 0.0000 0.0000 28.9544
#
#
#
# Elastic Compliance Matrix: (Units=1/GPa)
#
#
# Indices 1 2 3 4 5 6 
#
# 1 0.016877 -0.000892 -0.007270 0.000000 0.000000 0.000000
# 2 -0.000892 0.019660 -0.004737 0.000000 0.000000 0.000000
# 3 -0.007270 -0.004737 0.010505 0.000000 0.000000 0.000000
# 4 0.000000 0.000000 0.000000 0.034402 0.000000 0.000000
# 5 0.000000 0.000000 0.000000 0.000000 0.028607 0.000000
# 6 0.000000 0.000000 0.000000 0.000000 0.000000 0.034537
#
#
# Mechanical properties :
#
#
# Convention : Reuss Voigt Hill
#
# Bulk Modulus (GPa) = 47.07405 66.42267 56.74836
# Shear Modulus (GPa) = 28.17433 30.67965 29.42699
#
# Velocity S-wave (km/s) = 3.71517 3.87683 3.79686
# Velocity P-wave (km/s) = 6.43931 7.25121 6.85729
#
# Compressibility (1/GPa) = 0.02124313
#
# Stress axis : x y z
#
# Youngs Moduli (GPa) = 59.25291 50.86577 95.19224
#
# Poissons Ratio (x) = 0.04535 0.69207
# Poissons Ratio (y) = 0.05282 0.45096
# Poissons Ratio (z) = 0.43078 0.24097
#
# Static dielectric constant tensor:
#      x y z
#    x 3.835560 0.000000 0.000000 
#    y 0.000000 3.357730 0.000000 
#    z 0.000000 0.000000 3.868510 
# 
# 
# High freq. dielectric constant tensor:
#      x y z
#    x 1.800130 0.000000 0.000000 
#    y 0.000000 1.776700 0.000000 
#    z 0.000000 0.000000 1.806250 
# 
# From -- ./inp_files/39272.got.cif
#   From: 2010.06.25/outbox.cif.g09.slc.cpg/sg52_20_cif.got.tgz:39272.got - 2010.06.26 19:32:48.
