data_PCOD8216050
_publ_section_title
;
Structure prediction by ZEFSAII (Michael W. Deem and Ramdas Pophale) SiO2 
 PCOD8216050
Probable space group: P N N A
;
_chemical_formula_sum "Si O2"
_cell_formula_units_Z 36
_cell_length_a 24.754764
_cell_length_b 5.001251
_cell_length_c 16.487322
_cell_angle_alpha 90.000000
_cell_angle_beta 90.000000
_cell_angle_gamma 90.000000
_cell_volume 2041.209408
_symmetry_space_group_name_H-M "P N N A"
_symmetry_group_IT_number 52
_symmetry_cell_setting 'orthorhombic'
loop_
_space_group_symop_operation_xyz
x,y,z
1/2-x,-y,z
x,1/2-y,1/2-z
1/2-x,1/2+y,1/2-z
-x,-y,-z
1/2+x,y,-z
-x,1/2+y,1/2+z
1/2+x,1/2-y,1/2+z
loop_
_atom_site_type_symbol
_atom_site_label
_atom_site_fract_x
_atom_site_fract_y
_atom_site_fract_z
Si Si1 0.462513 0.750000 0.750000
Si Si2 0.215165 0.250000 0.250000
Si Si3 0.465093 0.750000 0.250000
Si Si4 0.568763 0.721210 0.972077
Si Si5 0.447923 0.731243 0.574407
Si Si6 0.876432 0.050841 0.826399
O O1 0.498520 0.496932 0.774904
O O2 0.427307 0.712266 0.668207
O O3 0.250000 0.500000 0.214710
O O4 0.178541 0.375366 0.322454
O O5 0.426392 0.660089 0.324617
O O6 0.512003 0.703123 0.924477
O O7 0.617689 0.781869 0.909289
O O8 0.583118 0.448789 0.019688
O O9 0.565049 0.942961 0.040551
O O10 0.878886 0.250000 0.750000
#
# Coordination Sequence:
#
# PCOD8216050 Si02
#       6
#     4   4   4   8   8   8
#     4  12  20  33  46  65  98 144 172 221 261 286
#     4  11  24  39  54  78 100 130 174 216 263 320
#     4  11  20  28  48  69  88 132 184 207 244 302
#     4  10  21  32  45  73  93 131 175 225 250 280
#     4  10  21  31  46  65 103 127 179 225 247 289
#     4  11  22  34  56  71  99 136 172 214 256 319
#
# _framework density 17.636603000000001
#
# number of rings (size 3 to 8) (size 9 to 14) (size 15 to 20)
#    0.000    1.333    4.444    1.333   12.444    0.000 
#    0.000    0.000    0.000    0.000    0.000    0.000 
#    0.000    0.000    0.000    6.000    7.111    0.222 
#
# Total GULP energy -446167.220274 kJ/mol
# GULP energy per Si atom -12393.533897 kJ/mol
# Density = 1.759646 g / cm^3
# Si number density = 17.636603 Si / 1000 Ang^3
#
#
#
# Elastic Constant Matrix: (Units=GPa)
#
#
# Indices 1 2 3 4 5 6 
#
# 1 45.0885 16.5765 20.9389 0.0000 0.0000 0.0000
# 2 16.5765 91.8702 21.3281 0.0000 0.0000 0.0000
# 3 20.9389 21.3281 121.6922 0.0000 0.0000 0.0000
# 4 0.0000 0.0000 0.0000 22.2673 0.0000 0.0000
# 5 0.0000 0.0000 0.0000 0.0000 6.0705 0.0000
# 6 0.0000 0.0000 0.0000 0.0000 0.0000 22.0349
#
#
#
# Elastic Compliance Matrix: (Units=1/GPa)
#
#
# Indices 1 2 3 4 5 6 
#
# 1 0.025255 -0.003699 -0.003697 0.000000 0.000000 0.000000
# 2 -0.003699 0.011888 -0.001447 0.000000 0.000000 0.000000
# 3 -0.003697 -0.001447 0.009107 0.000000 0.000000 0.000000
# 4 0.000000 0.000000 0.000000 0.044909 0.000000 0.000000
# 5 0.000000 0.000000 0.000000 0.000000 0.164730 0.000000
# 6 0.000000 0.000000 0.000000 0.000000 0.000000 0.045383
#
#
# Mechanical properties :
#
#
# Convention : Reuss Voigt Hill
#
# Bulk Modulus (GPa) = 35.00823 41.81535 38.41179
# Shear Modulus (GPa) = 15.22162 23.39505 19.30834
#
# Velocity S-wave (km/s) = 2.94099 3.64607 3.31235
# Velocity P-wave (km/s) = 5.60584 6.44096 6.03786
#
# Compressibility (1/GPa) = 0.02856472
#
# Stress axis : x y z
#
# Youngs Moduli (GPa) = 39.59554 84.11677 109.80239
#
# Poissons Ratio (x) = 0.31111 0.40598
# Poissons Ratio (y) = 0.14645 0.15890
# Poissons Ratio (z) = 0.14640 0.12173
#
# Static dielectric constant tensor:
#      x y z
#    x 2.872300 0.000000 0.000000 
#    y 0.000000 3.677740 0.000000 
#    z 0.000000 0.000000 3.183180 
# 
# 
# High freq. dielectric constant tensor:
#      x y z
#    x 1.598620 0.000000 0.000000 
#    y 0.000000 1.718680 0.000000 
#    z 0.000000 0.000000 1.670000 
# 
# From -- ./inp_files/34189.got.cif
#   From: 2010.06.25/outbox.cif.g09.slc.cpg/sg52_18_cif.got.tgz:34189.got - 2010.06.26 19:32:48.
