data_PCOD8216411
_publ_section_title
;
Structure prediction by ZEFSAII (Michael W. Deem and Ramdas Pophale) SiO2 
 PCOD8216411
Probable space group: P N N A
;
_chemical_formula_sum "Si O2"
_cell_formula_units_Z 60
_cell_length_a 28.291724
_cell_length_b 8.746476
_cell_length_c 11.789204
_cell_angle_alpha 90.000000
_cell_angle_beta 90.000000
_cell_angle_gamma 90.000000
_cell_volume 2917.272541
_symmetry_space_group_name_H-M "P N N A"
_symmetry_group_IT_number 52
_symmetry_cell_setting 'orthorhombic'
loop_
_space_group_symop_operation_xyz
x,y,z
1/2-x,-y,z
x,1/2-y,1/2-z
1/2-x,1/2+y,1/2-z
-x,-y,-z
1/2+x,y,-z
-x,1/2+y,1/2+z
1/2+x,1/2-y,1/2+z
loop_
_atom_site_type_symbol
_atom_site_label
_atom_site_fract_x
_atom_site_fract_y
_atom_site_fract_z
Si Si1 0.327864 0.750000 0.750000
Si Si2 0.114923 0.661596 0.600246
Si Si3 0.198741 0.440748 0.544730
Si Si4 0.428862 0.090221 0.242103
Si Si5 0.631940 0.326160 0.635733
Si Si6 0.444044 0.604688 0.035093
Si Si7 0.893367 0.015697 0.326603
Si Si8 0.021642 0.841223 0.033847
O O1 0.295919 0.664505 0.656816
O O2 0.359304 0.629324 0.819108
O O3 0.162382 0.577522 0.564323
O O4 0.133387 0.831603 0.630398
O O5 0.088632 0.565292 0.701356
O O6 0.075998 0.673534 0.503633
O O7 0.250000 0.500000 0.511569
O O8 0.179021 0.350270 0.436638
O O9 0.399033 0.250000 0.250000
O O10 0.475402 0.147157 0.170834
O O11 0.397509 0.975460 0.168764
O O12 0.446711 0.019164 0.362253
O O13 0.650339 0.250000 0.750000
O O14 0.598035 0.220028 0.561426
O O15 0.435265 0.522272 0.914582
O O16 0.492788 0.697788 0.018803
O O17 0.000000 0.000000 0.000000
#
# Coordination Sequence:
#
# PCOD8216411 Si02
#       8
#     4   8   8   8   8   8   8   8
#     4  10  22  40  66  98 128 172 210 266 334 392
#     4  10  23  41  61  96 134 169 209 283 327 385
#     4  11  22  42  73  98 130 171 218 271 340 401
#     4  11  24  40  63  92 129 174 218 274 331 384
#     4  10  21  44  67  91 127 169 222 271 326 387
#     4  11  23  42  67  92 127 181 226 271 323 404
#     4  10  22  41  65  89 131 173 216 264 332 388
#     4  12  24  40  63  92 132 169 226 272 329 384
#
# _framework density 20.567156000000001
#
# number of rings (size 3 to 8) (size 9 to 14) (size 15 to 20)
#    0.000    1.333    4.000    0.800    1.867    7.467 
#    0.000    0.667    0.000    0.000    0.000    0.000 
#    0.000    0.000    0.000    0.000    0.000    0.000 
#
# Total GULP energy -743428.416048 kJ/mol
# GULP energy per Si atom -12390.473601 kJ/mol
# Density = 2.052034 g / cm^3
# Si number density = 20.567156 Si / 1000 Ang^3
#
#
#
# Elastic Constant Matrix: (Units=GPa)
#
#
# Indices 1 2 3 4 5 6 
#
# 1 116.4051 51.0823 63.4863 0.0000 0.0000 0.0000
# 2 51.0823 130.1983 49.6411 0.0000 0.0000 0.0000
# 3 63.4863 49.6411 132.8524 0.0000 0.0000 0.0000
# 4 0.0000 0.0000 0.0000 32.9484 0.0000 0.0000
# 5 0.0000 0.0000 0.0000 0.0000 31.4747 0.0000
# 6 0.0000 0.0000 0.0000 0.0000 0.0000 21.9247
#
#
#
# Elastic Compliance Matrix: (Units=1/GPa)
#
#
# Indices 1 2 3 4 5 6 
#
# 1 0.012600 -0.003088 -0.004868 0.000000 0.000000 0.000000
# 2 -0.003088 0.009713 -0.002154 0.000000 0.000000 0.000000
# 3 -0.004868 -0.002154 0.010658 0.000000 0.000000 0.000000
# 4 0.000000 0.000000 0.000000 0.030351 0.000000 0.000000
# 5 0.000000 0.000000 0.000000 0.000000 0.031772 0.000000
# 6 0.000000 0.000000 0.000000 0.000000 0.000000 0.045611
#
#
# Mechanical properties :
#
#
# Convention : Reuss Voigt Hill
#
# Bulk Modulus (GPa) = 78.41148 78.65280 78.53214
# Shear Modulus (GPa) = 30.27108 31.61929 30.94519
#
# Velocity S-wave (km/s) = 3.84059 3.92518 3.88312
# Velocity P-wave (km/s) = 7.60751 7.67253 7.64009
#
# Compressibility (1/GPa) = 0.01275323
#
# Stress axis : x y z
#
# Youngs Moduli (GPa) = 79.36210 102.95185 93.82588
#
# Poissons Ratio (x) = 0.31790 0.45671
# Poissons Ratio (y) = 0.24505 0.20209
# Poissons Ratio (z) = 0.38630 0.22174
#
# Static dielectric constant tensor:
#      x y z
#    x 3.172630 0.000000 0.000000 
#    y 0.000000 4.291780 0.000000 
#    z 0.000000 0.000000 4.563040 
# 
# 
# High freq. dielectric constant tensor:
#      x y z
#    x 1.750420 0.000000 0.000000 
#    y 0.000000 1.836340 0.000000 
#    z 0.000000 0.000000 1.828360 
# 
# From -- ./inp_files/22885.got.cif
#   From: 2010.06.25/outbox.cif.g09.slc.cpg/sg52_12_cif.got.tgz:22885.got - 2010.06.26 19:32:48.
