data_PCOD8216756
_publ_section_title
;
Structure prediction by ZEFSAII (Michael W. Deem and Ramdas Pophale) SiO2 
 PCOD8216756
Probable space group: P N N A
;
_chemical_formula_sum "Si O2"
_cell_formula_units_Z 48
_cell_length_a 14.409179
_cell_length_b 26.707969
_cell_length_c 4.953917
_cell_angle_alpha 90.000000
_cell_angle_beta 90.000000
_cell_angle_gamma 90.000000
_cell_volume 1906.464953
_symmetry_space_group_name_H-M "P N N A"
_symmetry_group_IT_number 52
_symmetry_cell_setting 'orthorhombic'
loop_
_space_group_symop_operation_xyz
x,y,z
1/2-x,-y,z
x,1/2-y,1/2-z
1/2-x,1/2+y,1/2-z
-x,-y,-z
1/2+x,y,-z
-x,1/2+y,1/2+z
1/2+x,1/2-y,1/2+z
loop_
_atom_site_type_symbol
_atom_site_label
_atom_site_fract_x
_atom_site_fract_y
_atom_site_fract_z
Si Si1 0.362099 0.298211 0.065908
Si Si2 0.338113 0.782061 0.513882
Si Si3 0.714503 0.445313 0.221833
Si Si4 0.982208 0.848963 0.718563
Si Si5 0.815552 0.095096 0.795897
Si Si6 0.487379 0.588363 0.734230
O O1 0.385521 0.250000 0.250000
O O2 0.267341 0.292048 0.897594
O O3 0.348765 0.347767 0.250144
O O4 0.441787 0.305155 0.836638
O O5 0.342570 0.750000 0.250000
O O6 0.386675 0.833979 0.434968
O O7 0.388423 0.750000 0.750000
O O8 0.750000 0.500000 0.298349
O O9 0.757639 0.405204 0.428190
O O10 0.602498 0.447022 0.258029
O O11 0.748298 0.429335 0.926061
O O12 0.010851 0.897021 0.544274
O O13 0.969136 0.863733 0.031587
O O14 0.912688 0.063423 0.844041
#
# Coordination Sequence:
#
# PCOD8216756 Si02
#       6
#     8   8   8   8   8   8
#     4  10  23  41  65  96 134 181 232 282 339 404
#     4  11  23  36  56  87 124 171 227 280 325 385
#     4  12  26  46  74 104 138 181 230 290 358 421
#     4  11  23  41  64  92 135 180 221 274 335 402
#     4  11  25  45  69 101 140 180 229 287 344 414
#     4  11  24  43  69  99 134 177 221 278 343 408
#
# _framework density 25.177488
#
# number of rings (size 3 to 8) (size 9 to 14) (size 15 to 20)
#    0.000    1.000    0.000    7.000    0.000   12.667 
#    0.000    0.000    0.000    0.000    0.000    0.000 
#    0.000    0.000    0.000    0.000    0.000    0.000 
#
# Total GULP energy -594788.408509 kJ/mol
# GULP energy per Si atom -12391.425177 kJ/mol
# Density = 2.512018 g / cm^3
# Si number density = 25.177488 Si / 1000 Ang^3
#
#
#
# Elastic Constant Matrix: (Units=GPa)
#
#
# Indices 1 2 3 4 5 6 
#
# 1 125.9069 -6.2787 27.6797 0.0000 0.0000 0.0000
# 2 -6.2787 64.8971 10.8708 0.0000 0.0000 0.0000
# 3 27.6797 10.8708 94.1580 0.0000 0.0000 0.0000
# 4 0.0000 0.0000 0.0000 18.1262 0.0000 0.0000
# 5 0.0000 0.0000 0.0000 0.0000 37.5291 0.0000
# 6 0.0000 0.0000 0.0000 0.0000 0.0000 28.8225
#
#
#
# Elastic Compliance Matrix: (Units=1/GPa)
#
#
# Indices 1 2 3 4 5 6 
#
# 1 0.008594 0.001279 -0.002674 0.000000 0.000000 0.000000
# 2 0.001279 0.015903 -0.002212 0.000000 0.000000 0.000000
# 3 -0.002674 -0.002212 0.011662 0.000000 0.000000 0.000000
# 4 0.000000 0.000000 0.000000 0.055169 0.000000 0.000000
# 5 0.000000 0.000000 0.000000 0.000000 0.026646 0.000000
# 6 0.000000 0.000000 0.000000 0.000000 0.000000 0.034695
#
#
# Mechanical properties :
#
#
# Convention : Reuss Voigt Hill
#
# Bulk Modulus (GPa) = 34.54762 38.83396 36.69079
# Shear Modulus (GPa) = 29.49302 33.74156 31.61729
#
# Velocity S-wave (km/s) = 3.42629 3.66477 3.54754
# Velocity P-wave (km/s) = 5.42255 5.77624 5.60219
#
# Compressibility (1/GPa) = 0.02894556
#
# Stress axis : x y z
#
# Youngs Moduli (GPa) = 116.35938 62.87984 85.74883
#
# Poissons Ratio (x) = -0.08045 0.22930
# Poissons Ratio (y) = -0.14887 0.18969
# Poissons Ratio (z) = 0.31116 0.13910
#
# Static dielectric constant tensor:
#      x y z
#    x 5.606730 0.000000 0.000000 
#    y 0.000000 4.188380 0.000000 
#    z 0.000000 0.000000 4.354450 
# 
# 
# High freq. dielectric constant tensor:
#      x y z
#    x 2.030420 0.000000 0.000000 
#    y 0.000000 1.966630 0.000000 
#    z 0.000000 0.000000 2.008100 
# 
# From -- ./inp_files/2463.got.cif
#   From: 2010.06.25/outbox.cif.g09.slc.cpg/sg52_2_cif.got.tgz:2463.got - 2010.06.26 19:32:48.
