data_PCOD8216617
_publ_section_title
;
Structure prediction by ZEFSAII (Michael W. Deem and Ramdas Pophale) SiO2 
 PCOD8216617
Probable space group: P N N A
;
_chemical_formula_sum "Si O2"
_cell_formula_units_Z 64
_cell_length_a 13.548462
_cell_length_b 9.065009
_cell_length_c 23.661771
_cell_angle_alpha 90.000000
_cell_angle_beta 90.000000
_cell_angle_gamma 90.000000
_cell_volume 2906.066072
_symmetry_space_group_name_H-M "P N N A"
_symmetry_group_IT_number 52
_symmetry_cell_setting 'orthorhombic'
loop_
_space_group_symop_operation_xyz
x,y,z
1/2-x,-y,z
x,1/2-y,1/2-z
1/2-x,1/2+y,1/2-z
-x,-y,-z
1/2+x,y,-z
-x,1/2+y,1/2+z
1/2+x,1/2-y,1/2+z
loop_
_atom_site_type_symbol
_atom_site_label
_atom_site_fract_x
_atom_site_fract_y
_atom_site_fract_z
Si Si1 0.809511 0.750498 0.409718
Si Si2 0.759717 0.327574 0.976493
Si Si3 0.472818 0.512508 0.565475
Si Si4 0.781457 0.831377 0.807735
Si Si5 0.692893 0.853520 0.303254
Si Si6 0.077294 0.253914 0.096787
Si Si7 0.042633 0.481117 0.875523
Si Si8 0.103264 0.757740 0.118290
O O1 0.729837 0.761079 0.460127
O O2 0.871358 0.598294 0.419005
O O3 0.754710 0.757195 0.349210
O O4 0.876122 0.900510 0.415434
O O5 0.750000 0.500000 0.978010
O O6 0.664779 0.243795 0.949398
O O7 0.859941 0.297630 0.942894
O O8 0.500000 0.500000 0.500000
O O9 0.478664 0.343161 0.585174
O O10 0.559843 0.583244 0.603485
O O11 0.801958 0.750000 0.750000
O O12 0.879896 0.801519 0.843463
O O13 0.691195 0.752468 0.838082
O O14 0.750000 0.000000 0.798601
O O15 0.671152 0.750000 0.250000
O O16 0.750000 0.000000 0.283347
O O17 0.589859 0.913769 0.327943
O O18 0.037810 0.420594 0.092373
O O19 0.979844 0.343423 0.851590
#
# Coordination Sequence:
#
# PCOD8216617 Si02
#       8
#     8   8   8   8   8   8   8   8
#     4  10  23  42  65  94 131 171 220 268 335 393
#     4  11  20  36  65  95 129 170 211 260 326 404
#     4  11  22  41  63  97 134 170 213 271 330 393
#     4  11  25  43  67  94 135 176 219 271 331 401
#     4  10  23  46  68  91 127 173 224 278 330 387
#     4  11  23  40  63  98 133 168 218 266 330 390
#     4  10  22  42  65  94 129 165 219 270 316 392
#     4  10  23  42  64  93 134 174 210 266 334 391
#
# _framework density 22.022898000000001
#
# number of rings (size 3 to 8) (size 9 to 14) (size 15 to 20)
#    0.000    1.500    3.750    1.125    1.750    4.000 
#    0.000    8.125    0.000    0.000    0.000    0.000 
#    0.000    0.000    0.000    0.000    0.000    0.000 
#
# Total GULP energy -792957.013536 kJ/mol
# GULP energy per Si atom -12389.953336 kJ/mol
# Density = 2.197277 g / cm^3
# Si number density = 22.022898 Si / 1000 Ang^3
#
#
#
# Elastic Constant Matrix: (Units=GPa)
#
#
# Indices 1 2 3 4 5 6 
#
# 1 75.6081 23.0788 32.5760 0.0000 0.0000 0.0000
# 2 23.0788 94.2230 37.8578 0.0000 0.0000 0.0000
# 3 32.5760 37.8578 119.8292 0.0000 0.0000 0.0000
# 4 0.0000 0.0000 0.0000 32.5356 0.0000 0.0000
# 5 0.0000 0.0000 0.0000 0.0000 13.5582 0.0000
# 6 0.0000 0.0000 0.0000 0.0000 0.0000 30.1732
#
#
#
# Elastic Compliance Matrix: (Units=1/GPa)
#
#
# Indices 1 2 3 4 5 6 
#
# 1 0.015441 -0.002400 -0.003439 0.000000 0.000000 0.000000
# 2 -0.002400 0.012529 -0.003306 0.000000 0.000000 0.000000
# 3 -0.003439 -0.003306 0.010325 0.000000 0.000000 0.000000
# 4 0.000000 0.000000 0.000000 0.030736 0.000000 0.000000
# 5 0.000000 0.000000 0.000000 0.000000 0.073756 0.000000
# 6 0.000000 0.000000 0.000000 0.000000 0.000000 0.033142
#
#
# Mechanical properties :
#
#
# Convention : Reuss Voigt Hill
#
# Bulk Modulus (GPa) = 49.99042 52.96504 51.47773
# Shear Modulus (GPa) = 24.88964 28.32991 26.60978
#
# Velocity S-wave (km/s) = 3.36545 3.59051 3.47980
# Velocity P-wave (km/s) = 6.15225 6.42582 6.29053
#
# Compressibility (1/GPa) = 0.02000383
#
# Stress axis : x y z
#
# Youngs Moduli (GPa) = 64.76455 79.81306 96.85567
#
# Poissons Ratio (x) = 0.19156 0.33312
# Poissons Ratio (y) = 0.15544 0.32020
# Poissons Ratio (z) = 0.22275 0.26385
#
# Static dielectric constant tensor:
#      x y z
#    x 4.020640 0.000000 0.000000 
#    y 0.000000 4.153990 0.000000 
#    z 0.000000 0.000000 3.804180 
# 
# 
# High freq. dielectric constant tensor:
#      x y z
#    x 1.868560 0.000000 0.000000 
#    y 0.000000 1.880530 0.000000 
#    z 0.000000 0.000000 1.846180 
# 
# From -- ./inp_files/40674.got.cif
#   From: 2010.06.25/outbox.cif.g09.slc.cpg/sg52_21_cif.got.tgz:40674.got - 2010.06.26 19:32:48.
