data_PCOD8216086
_publ_section_title
;
Structure prediction by ZEFSAII (Michael W. Deem and Ramdas Pophale) SiO2 
 PCOD8216086
Probable space group: P N N A
;
_chemical_formula_sum "Si O2"
_cell_formula_units_Z 32
_cell_length_a 13.205748
_cell_length_b 22.807950
_cell_length_c 4.817098
_cell_angle_alpha 90.000000
_cell_angle_beta 90.000000
_cell_angle_gamma 90.000000
_cell_volume 1450.890842
_symmetry_space_group_name_H-M "P N N A"
_symmetry_group_IT_number 52
_symmetry_cell_setting 'orthorhombic'
loop_
_space_group_symop_operation_xyz
x,y,z
1/2-x,-y,z
x,1/2-y,1/2-z
1/2-x,1/2+y,1/2-z
-x,-y,-z
1/2+x,y,-z
-x,1/2+y,1/2+z
1/2+x,1/2-y,1/2+z
loop_
_atom_site_type_symbol
_atom_site_label
_atom_site_fract_x
_atom_site_fract_y
_atom_site_fract_z
Si Si1 0.014711 0.045198 0.250807
Si Si2 0.601316 0.317118 0.179992
Si Si3 0.426249 0.099834 0.232848
Si Si4 0.806674 0.624873 0.699461
O O1 0.959052 0.041196 0.564970
O O2 0.130991 0.065890 0.281181
O O3 0.952631 0.097664 0.094558
O O4 0.000000 0.000000 0.000000
O O5 0.585393 0.250000 0.250000
O O6 0.490683 0.346574 0.141620
O O7 0.671908 0.354593 0.387635
O O8 0.659440 0.320610 0.889083
O O9 0.308491 0.109655 0.261788
#
# Coordination Sequence:
#
# PCOD8216086 Si02
#       4
#     8   8   8   8
#     4  10  21  38  59  85 115 148 191 238 286 344
#     4  10  21  36  56  83 114 149 191 236 284 342
#     4  10  21  38  58  83 115 149 189 238 286 338
#     4  10  21  38  57  83 117 150 190 240 288 340
#
# _framework density 22.055413999999999
#
# number of rings (size 3 to 8) (size 9 to 14) (size 15 to 20)
#    0.000    2.000    0.000    3.000    0.000    3.000 
#    0.000    2.500    0.000    0.000    0.000    0.000 
#    0.000    0.000    0.000    0.000    0.000    0.000 
#
# Total GULP energy -396482.873116 kJ/mol
# GULP energy per Si atom -12390.089785 kJ/mol
# Density = 2.200521 g / cm^3
# Si number density = 22.055414 Si / 1000 Ang^3
#
#
#
# Elastic Constant Matrix: (Units=GPa)
#
#
# Indices 1 2 3 4 5 6 
#
# 1 197.9079 45.3750 49.3397 0.0000 0.0000 0.0000
# 2 45.3750 76.0203 30.0626 0.0000 0.0000 0.0000
# 3 49.3397 30.0626 130.6001 0.0000 0.0000 0.0000
# 4 0.0000 0.0000 0.0000 32.7773 0.0000 0.0000
# 5 0.0000 0.0000 0.0000 0.0000 26.5500 0.0000
# 6 0.0000 0.0000 0.0000 0.0000 0.0000 15.7037
#
#
#
# Elastic Compliance Matrix: (Units=1/GPa)
#
#
# Indices 1 2 3 4 5 6 
#
# 1 0.006153 -0.003029 -0.001627 0.000000 0.000000 0.000000
# 2 -0.003029 0.015963 -0.002530 0.000000 0.000000 0.000000
# 3 -0.001627 -0.002530 0.008854 0.000000 0.000000 0.000000
# 4 0.000000 0.000000 0.000000 0.030509 0.000000 0.000000
# 5 0.000000 0.000000 0.000000 0.000000 0.037665 0.000000
# 6 0.000000 0.000000 0.000000 0.000000 0.000000 0.063679
#
#
# Mechanical properties :
#
#
# Convention : Reuss Voigt Hill
#
# Bulk Modulus (GPa) = 60.25154 72.67588 66.46371
# Shear Modulus (GPa) = 27.36300 33.65627 30.50963
#
# Velocity S-wave (km/s) = 3.52610 3.91063 3.72333
# Velocity P-wave (km/s) = 6.62989 7.30847 6.97743
#
# Compressibility (1/GPa) = 0.01659708
#
# Stress axis : x y z
#
# Youngs Moduli (GPa) = 162.52120 62.64517 112.94139
#
# Poissons Ratio (x) = 0.18976 0.18379
# Poissons Ratio (y) = 0.49229 0.28575
# Poissons Ratio (z) = 0.26447 0.15850
#
# Static dielectric constant tensor:
#      x y z
#    x 3.773900 0.000000 0.000000 
#    y 0.000000 2.010650 0.000000 
#    z 0.000000 0.000000 23.230200 
# 
# 
# High freq. dielectric constant tensor:
#      x y z
#    x 1.852010 0.000000 0.000000 
#    y 0.000000 1.866510 0.000000 
#    z 0.000000 0.000000 1.907680 
# 
# From -- ./inp_files/1019.got.cif
#   From: 2010.06.25/outbox.cif.g09.slc.cpg/sg52_1_cif.got.tgz:1019.got - 2010.06.26 19:32:48.
