data_PCOD8216498
_publ_section_title
;
Structure prediction by ZEFSAII (Michael W. Deem and Ramdas Pophale) SiO2 
 PCOD8216498
Probable space group: P N N A
;
_chemical_formula_sum "Si O2"
_cell_formula_units_Z 48
_cell_length_a 9.540183
_cell_length_b 8.531724
_cell_length_c 29.696145
_cell_angle_alpha 90.000000
_cell_angle_beta 90.000000
_cell_angle_gamma 90.000000
_cell_volume 2417.094211
_symmetry_space_group_name_H-M "P N N A"
_symmetry_group_IT_number 52
_symmetry_cell_setting 'orthorhombic'
loop_
_space_group_symop_operation_xyz
x,y,z
1/2-x,-y,z
x,1/2-y,1/2-z
1/2-x,1/2+y,1/2-z
-x,-y,-z
1/2+x,y,-z
-x,1/2+y,1/2+z
1/2+x,1/2-y,1/2+z
loop_
_atom_site_type_symbol
_atom_site_label
_atom_site_fract_x
_atom_site_fract_y
_atom_site_fract_z
Si Si1 0.945608 0.137256 0.127180
Si Si2 0.365864 0.781070 0.871681
Si Si3 0.815097 0.672448 0.032125
Si Si4 0.028976 0.836477 0.974787
Si Si5 0.624170 0.303252 0.798185
Si Si6 0.061404 0.833201 0.295800
O O1 0.800626 0.228752 0.135028
O O2 0.010382 0.158847 0.077681
O O3 0.051624 0.207256 0.162614
O O4 0.924430 0.954324 0.133941
O O5 0.393919 0.707662 0.920811
O O6 0.445377 0.682384 0.834262
O O7 0.750000 0.500000 0.030770
O O8 0.694066 0.799202 0.021720
O O9 0.935462 0.695521 0.994858
O O10 0.000000 0.000000 0.000000
O O11 0.569607 0.250000 0.750000
O O12 0.787099 0.258812 0.806391
O O13 0.587345 0.483661 0.795277
O O14 0.004390 0.750000 0.250000
#
# Coordination Sequence:
#
# PCOD8216498 Si02
#       6
#     8   8   8   8   8   8
#     4  10  22  40  62  91 122 165 210 254 309 379
#     4  10  22  39  63  89 124 162 206 252 313 371
#     4  11  24  41  64  92 126 166 208 267 318 374
#     4  11  22  43  64  90 127 168 216 259 316 380
#     4  10  22  41  64  91 127 162 206 259 309 375
#     4  10  22  40  63  93 125 162 206 256 316 372
#
# _framework density 19.858554999999999
#
# number of rings (size 3 to 8) (size 9 to 14) (size 15 to 20)
#    0.000    1.667    1.667    2.000    4.667    4.000 
#    6.000    0.000    0.000    0.000    0.000    0.000 
#    0.000    0.000    0.000    0.000    0.000    0.000 
#
# Total GULP energy -595054.599261 kJ/mol
# GULP energy per Si atom -12396.970818 kJ/mol
# Density = 1.981336 g / cm^3
# Si number density = 19.858555 Si / 1000 Ang^3
#
#
#
# Elastic Constant Matrix: (Units=GPa)
#
#
# Indices 1 2 3 4 5 6 
#
# 1 77.4127 28.1780 79.7107 0.0000 0.0000 0.0000
# 2 28.1780 66.0048 45.2780 0.0000 0.0000 0.0000
# 3 79.7107 45.2780 166.0782 0.0000 0.0000 0.0000
# 4 0.0000 0.0000 0.0000 38.6080 0.0000 0.0000
# 5 0.0000 0.0000 0.0000 0.0000 64.4619 0.0000
# 6 0.0000 0.0000 0.0000 0.0000 0.0000 30.4356
#
#
#
# Elastic Compliance Matrix: (Units=1/GPa)
#
#
# Indices 1 2 3 4 5 6 
#
# 1 0.026055 -0.003130 -0.011652 0.000000 0.000000 0.000000
# 2 -0.003130 0.019012 -0.003681 0.000000 0.000000 0.000000
# 3 -0.011652 -0.003681 0.012617 0.000000 0.000000 0.000000
# 4 0.000000 0.000000 0.000000 0.025901 0.000000 0.000000
# 5 0.000000 0.000000 0.000000 0.000000 0.015513 0.000000
# 6 0.000000 0.000000 0.000000 0.000000 0.000000 0.032856
#
#
# Mechanical properties :
#
#
# Convention : Reuss Voigt Hill
#
# Bulk Modulus (GPa) = 48.17396 68.42543 58.29969
# Shear Modulus (GPa) = 28.44147 37.12304 32.78226
#
# Velocity S-wave (km/s) = 3.78855 4.32831 4.06740
# Velocity P-wave (km/s) = 6.59156 7.71429 7.17492
#
# Compressibility (1/GPa) = 0.02075810
#
# Stress axis : x y z
#
# Youngs Moduli (GPa) = 38.38040 52.59929 79.25671
#
# Poissons Ratio (x) = 0.16464 0.92350
# Poissons Ratio (y) = 0.12013 0.29173
# Poissons Ratio (z) = 0.44721 0.19361
#
# Static dielectric constant tensor:
#      x y z
#    x 3.797850 0.000000 0.000000 
#    y 0.000000 3.597250 0.000000 
#    z 0.000000 0.000000 3.733470 
# 
# 
# High freq. dielectric constant tensor:
#      x y z
#    x 1.774150 0.000000 0.000000 
#    y 0.000000 1.785370 0.000000 
#    z 0.000000 0.000000 1.780870 
# 
# From -- ./inp_files/44383.got.cif
#   From: 2010.06.25/outbox.cif.g09.slc.cpg/sg52_23_cif.got.tgz:44383.got - 2010.06.26 19:32:48.
