data_PCOD8216404
_publ_section_title
;
Structure prediction by ZEFSAII (Michael W. Deem and Ramdas Pophale) SiO2 
 PCOD8216404
Probable space group: P N N A
;
_chemical_formula_sum "Si O2"
_cell_formula_units_Z 60
_cell_length_a 11.117553
_cell_length_b 20.220052
_cell_length_c 11.943177
_cell_angle_alpha 90.000000
_cell_angle_beta 90.000000
_cell_angle_gamma 90.000000
_cell_volume 2684.796329
_symmetry_space_group_name_H-M "P N N A"
_symmetry_group_IT_number 52
_symmetry_cell_setting 'orthorhombic'
loop_
_space_group_symop_operation_xyz
x,y,z
1/2-x,-y,z
x,1/2-y,1/2-z
1/2-x,1/2+y,1/2-z
-x,-y,-z
1/2+x,y,-z
-x,1/2+y,1/2+z
1/2+x,1/2-y,1/2+z
loop_
_atom_site_type_symbol
_atom_site_label
_atom_site_fract_x
_atom_site_fract_y
_atom_site_fract_z
Si Si1 0.689857 0.901990 0.841129
Si Si2 0.031057 0.821125 0.797162
Si Si3 0.877663 0.534638 0.045745
Si Si4 0.250000 0.500000 0.531489
Si Si5 0.349969 0.870522 0.353658
Si Si6 0.078058 0.065480 0.802893
Si Si7 0.198931 0.224150 0.088689
Si Si8 0.785602 0.695325 0.343083
O O1 0.767206 0.915361 0.727691
O O2 0.563929 0.936002 0.816909
O O3 0.692505 0.822868 0.866724
O O4 0.742112 0.935888 0.952598
O O5 0.065374 0.750000 0.750000
O O6 0.984915 0.869404 0.698391
O O7 0.926194 0.815189 0.889419
O O8 0.159093 0.846362 0.842501
O O9 0.750000 0.500000 0.020909
O O10 0.887907 0.547786 0.176459
O O11 0.862791 0.603481 0.978995
O O12 0.000000 0.500000 0.000000
O O13 0.134974 0.488331 0.612382
O O14 0.298231 0.795155 0.350065
O O15 0.114066 0.139955 0.832075
O O16 0.207223 0.236363 0.957373
O O17 0.805836 0.750000 0.250000
#
# Coordination Sequence:
#
# PCOD8216404 Si02
#       8
#     8   8   8   4   8   8   8   8
#     4  11  25  45  75 104 139 186 241 293 373 444
#     4   8  19  39  64  93 129 180 226 271 350 431
#     4  12  28  49  74 105 152 199 254 313 375 449
#     4  12  26  48  72  98 148 192 240 300 362 442
#     4  10  23  46  74 101 141 191 242 298 368 444
#     4  12  27  47  68 109 141 186 246 303 368 435
#     4  10  21  43  70 103 139 182 233 298 366 448
#     4  11  23  39  65 100 142 178 228 292 369 432
#
# _framework density 22.348063
#
# number of rings (size 3 to 8) (size 9 to 14) (size 15 to 20)
#    0.000    1.333    2.000    3.200    6.533    1.067 
#   12.000    0.000    0.000    0.000    0.000    0.000 
#    0.000    0.000    0.000    0.000    0.000    0.000 
#
# Total GULP energy -743677.688359 kJ/mol
# GULP energy per Si atom -12394.628139 kJ/mol
# Density = 2.229720 g / cm^3
# Si number density = 22.348063 Si / 1000 Ang^3
#
#
#
# Elastic Constant Matrix: (Units=GPa)
#
#
# Indices 1 2 3 4 5 6 
#
# 1 86.0894 15.5391 22.3260 0.0000 0.0000 0.0000
# 2 15.5391 73.3892 28.4850 0.0000 0.0000 0.0000
# 3 22.3260 28.4850 145.9493 0.0000 0.0000 0.0000
# 4 0.0000 0.0000 0.0000 40.5098 0.0000 0.0000
# 5 0.0000 0.0000 0.0000 0.0000 25.0416 0.0000
# 6 0.0000 0.0000 0.0000 0.0000 0.0000 25.3505
#
#
#
# Elastic Compliance Matrix: (Units=1/GPa)
#
#
# Indices 1 2 3 4 5 6 
#
# 1 0.012372 -0.002039 -0.001494 0.000000 0.000000 0.000000
# 2 -0.002039 0.015079 -0.002631 0.000000 0.000000 0.000000
# 3 -0.001494 -0.002631 0.007594 0.000000 0.000000 0.000000
# 4 0.000000 0.000000 0.000000 0.024685 0.000000 0.000000
# 5 0.000000 0.000000 0.000000 0.000000 0.039934 0.000000
# 6 0.000000 0.000000 0.000000 0.000000 0.000000 0.039447
#
#
# Mechanical properties :
#
#
# Convention : Reuss Voigt Hill
#
# Bulk Modulus (GPa) = 44.02467 48.68089 46.35278
# Shear Modulus (GPa) = 31.44427 34.11889 32.78158
#
# Velocity S-wave (km/s) = 3.75510 3.91155 3.83412
# Velocity P-wave (km/s) = 6.20833 6.49851 6.35507
#
# Compressibility (1/GPa) = 0.02271454
#
# Stress axis : x y z
#
# Youngs Moduli (GPa) = 80.83085 66.31748 131.68642
#
# Poissons Ratio (x) = 0.13525 0.19680
# Poissons Ratio (y) = 0.16485 0.34647
# Poissons Ratio (z) = 0.12080 0.17448
#
# Static dielectric constant tensor:
#      x y z
#    x 4.148230 0.000000 0.000000 
#    y 0.000000 3.854200 0.000000 
#    z 0.000000 0.000000 4.237740 
# 
# 
# High freq. dielectric constant tensor:
#      x y z
#    x 1.877130 0.000000 0.000000 
#    y 0.000000 1.872560 0.000000 
#    z 0.000000 0.000000 1.900180 
# 
# From -- ./inp_files/18392.got.cif
#   From: 2010.06.25/outbox.cif.g09.slc.cpg/sg52_10_cif.got.tgz:18392.got - 2010.06.26 19:32:48.
