data_PCOD8216026
_publ_section_title
;
Structure prediction by ZEFSAII (Michael W. Deem and Ramdas Pophale) SiO2 
 PCOD8216026
Probable space group: P N N A
;
_chemical_formula_sum "Si O2"
_cell_formula_units_Z 60
_cell_length_a 20.591793
_cell_length_b 19.751958
_cell_length_c 7.075737
_cell_angle_alpha 90.000000
_cell_angle_beta 90.000000
_cell_angle_gamma 90.000000
_cell_volume 2877.901989
_symmetry_space_group_name_H-M "P N N A"
_symmetry_group_IT_number 52
_symmetry_cell_setting 'orthorhombic'
loop_
_space_group_symop_operation_xyz
x,y,z
1/2-x,-y,z
x,1/2-y,1/2-z
1/2-x,1/2+y,1/2-z
-x,-y,-z
1/2+x,y,-z
-x,1/2+y,1/2+z
1/2+x,1/2-y,1/2+z
loop_
_atom_site_type_symbol
_atom_site_label
_atom_site_fract_x
_atom_site_fract_y
_atom_site_fract_z
Si Si1 0.509244 0.178038 0.680558
Si Si2 0.904423 0.542912 0.413677
Si Si3 0.708034 0.250000 0.750000
Si Si4 0.910272 0.180315 0.645155
Si Si5 0.211345 0.694971 0.906357
Si Si6 0.207605 0.066994 0.627889
Si Si7 0.140070 0.386936 0.233380
Si Si8 0.957291 0.400694 0.513838
O O1 0.536872 0.250000 0.750000
O O2 0.475581 0.184545 0.477431
O O3 0.567578 0.124586 0.651095
O O4 0.459605 0.153731 0.844574
O O5 0.860685 0.560354 0.234238
O O6 0.861723 0.561082 0.594982
O O7 0.922445 0.464504 0.420364
O O8 0.970326 0.586233 0.408126
O O9 0.749085 0.234796 0.564506
O O10 0.665102 0.314557 0.695416
O O11 0.896381 0.250000 0.750000
O O12 0.851696 0.161846 0.504286
O O13 0.915267 0.123669 0.807624
O O14 0.190557 0.750000 0.750000
O O15 0.252099 0.633879 0.809045
O O16 0.189080 0.077573 0.410432
O O17 0.250000 0.000000 0.658005
#
# Coordination Sequence:
#
# PCOD8216026 Si02
#       8
#     8   8   4   8   8   8   8   8
#     4  11  21  39  65  97 129 164 212 272 320 381
#     4  10  23  45  65  93 129 170 216 260 330 385
#     4  10  20  42  64  92 124 166 218 266 310 384
#     4  12  24  38  63  97 130 166 213 261 326 386
#     4  11  25  42  63  89 131 174 216 264 321 383
#     4  11  26  43  64  97 127 173 223 267 318 386
#     4  10  22  41  68  94 127 167 217 268 322 372
#     4  10  24  42  67  95 129 167 209 271 327 387
#
# _framework density 20.848521999999999
#
# number of rings (size 3 to 8) (size 9 to 14) (size 15 to 20)
#    0.000    1.333    2.667    2.000    3.733    0.533 
#    2.400    4.667    0.000    0.000    0.000    0.000 
#    0.000    0.000    0.000    0.000    0.000    0.000 
#
# Total GULP energy -744119.916303 kJ/mol
# GULP energy per Si atom -12401.998605 kJ/mol
# Density = 2.080107 g / cm^3
# Si number density = 20.848522 Si / 1000 Ang^3
#
#
#
# Elastic Constant Matrix: (Units=GPa)
#
#
# Indices 1 2 3 4 5 6 
#
# 1 74.2145 20.2324 25.4946 0.0000 0.0000 0.0000
# 2 20.2324 86.8732 35.6591 0.0000 0.0000 0.0000
# 3 25.4946 35.6591 69.5539 0.0000 0.0000 0.0000
# 4 0.0000 0.0000 0.0000 31.5102 0.0000 0.0000
# 5 0.0000 0.0000 0.0000 0.0000 31.5703 0.0000
# 6 0.0000 0.0000 0.0000 0.0000 0.0000 25.3121
#
#
#
# Elastic Compliance Matrix: (Units=1/GPa)
#
#
# Indices 1 2 3 4 5 6 
#
# 1 0.015595 -0.001628 -0.004882 0.000000 0.000000 0.000000
# 2 -0.001628 0.014749 -0.006965 0.000000 0.000000 0.000000
# 3 -0.004882 -0.006965 0.019737 0.000000 0.000000 0.000000
# 4 0.000000 0.000000 0.000000 0.031736 0.000000 0.000000
# 5 0.000000 0.000000 0.000000 0.000000 0.031675 0.000000
# 6 0.000000 0.000000 0.000000 0.000000 0.000000 0.039507
#
#
# Mechanical properties :
#
#
# Convention : Reuss Voigt Hill
#
# Bulk Modulus (GPa) = 43.22926 43.71264 43.47095
# Shear Modulus (GPa) = 26.64396 27.62889 27.13642
#
# Velocity S-wave (km/s) = 3.57876 3.64431 3.61168
# Velocity P-wave (km/s) = 6.15278 6.22256 6.18777
#
# Compressibility (1/GPa) = 0.02313248
#
# Stress axis : x y z
#
# Youngs Moduli (GPa) = 64.12185 67.80074 50.66537
#
# Poissons Ratio (x) = 0.11040 0.24733
# Poissons Ratio (y) = 0.10441 0.35287
# Poissons Ratio (z) = 0.31301 0.47222
#
# Static dielectric constant tensor:
#      x y z
#    x 3.800130 0.000000 0.000000 
#    y 0.000000 3.761400 0.000000 
#    z 0.000000 0.000000 3.693030 
# 
# 
# High freq. dielectric constant tensor:
#      x y z
#    x 1.821140 0.000000 0.000000 
#    y 0.000000 1.818960 0.000000 
#    z 0.000000 0.000000 1.816130 
# 
# From -- ./inp_files/4581.got.cif
#   From: 2010.06.25/outbox.cif.g09.slc.cpg/sg52_3_cif.got.tgz:4581.got - 2010.06.26 19:32:48.
