data_PCOD8216962
_publ_section_title
;
Structure prediction by ZEFSAII (Michael W. Deem and Ramdas Pophale) SiO2 
 PCOD8216962
Probable space group: P N N A
;
_chemical_formula_sum "Si O2"
_cell_formula_units_Z 36
_cell_length_a 8.166056
_cell_length_b 9.280038
_cell_length_c 19.648570
_cell_angle_alpha 90.000000
_cell_angle_beta 90.000000
_cell_angle_gamma 90.000000
_cell_volume 1488.994374
_symmetry_space_group_name_H-M "P N N A"
_symmetry_group_IT_number 52
_symmetry_cell_setting 'orthorhombic'
loop_
_space_group_symop_operation_xyz
x,y,z
1/2-x,-y,z
x,1/2-y,1/2-z
1/2-x,1/2+y,1/2-z
-x,-y,-z
1/2+x,y,-z
-x,1/2+y,1/2+z
1/2+x,1/2-y,1/2+z
loop_
_atom_site_type_symbol
_atom_site_label
_atom_site_fract_x
_atom_site_fract_y
_atom_site_fract_z
Si Si1 0.171998 0.649449 0.913570
Si Si2 0.110585 0.381390 0.642638
Si Si3 0.156641 0.861582 0.035423
Si Si4 0.382344 0.250000 0.250000
Si Si5 0.179353 0.356623 0.130088
O O1 0.250000 0.500000 0.940014
O O2 0.308336 0.725836 0.868002
O O3 0.015873 0.625243 0.865063
O O4 0.113238 0.748189 0.976553
O O5 0.250000 0.500000 0.656027
O O6 0.007155 0.416571 0.573985
O O7 0.993000 0.363953 0.707709
O O8 0.277304 0.786527 0.088810
O O9 0.250000 0.000000 0.004505
O O10 0.263889 0.346576 0.203630
O O11 0.250000 0.500000 0.093472
#
# Coordination Sequence:
#
# PCOD8216962 Si02
#       5
#     8   8   8   4   8
#     4  12  25  43  70 102 135 175 226 280 333 400
#     4  11  25  45  71 103 135 175 228 279 332 399
#     4  11  24  45  70 101 139 176 216 272 342 405
#     4  10  26  46  68  96 134 180 226 278 338 396
#     4  11  25  45  68  96 135 179 222 273 337 399
#
# _framework density 24.177391
#
# number of rings (size 3 to 8) (size 9 to 14) (size 15 to 20)
#    0.000    0.889    0.000    6.667    0.000   14.222 
#    0.000    2.222    0.000    0.000    0.000    0.000 
#    0.000    0.000    0.000    0.000    0.000    0.000 
#
# Total GULP energy -446504.919695 kJ/mol
# GULP energy per Si atom -12402.914436 kJ/mol
# Density = 2.412236 g / cm^3
# Si number density = 24.177391 Si / 1000 Ang^3
#
#
#
# Elastic Constant Matrix: (Units=GPa)
#
#
# Indices 1 2 3 4 5 6 
#
# 1 175.1045 61.9556 66.2311 0.0000 0.0000 0.0000
# 2 61.9556 153.2567 39.2452 0.0000 0.0000 0.0000
# 3 66.2311 39.2452 118.8598 0.0000 0.0000 0.0000
# 4 0.0000 0.0000 0.0000 22.7353 0.0000 0.0000
# 5 0.0000 0.0000 0.0000 0.0000 37.3515 0.0000
# 6 0.0000 0.0000 0.0000 0.0000 0.0000 47.9493
#
#
#
# Elastic Compliance Matrix: (Units=1/GPa)
#
#
# Indices 1 2 3 4 5 6 
#
# 1 0.007890 -0.002254 -0.003652 0.000000 0.000000 0.000000
# 2 -0.002254 0.007772 -0.001310 0.000000 0.000000 0.000000
# 3 -0.003652 -0.001310 0.010881 0.000000 0.000000 0.000000
# 4 0.000000 0.000000 0.000000 0.043985 0.000000 0.000000
# 5 0.000000 0.000000 0.000000 0.000000 0.026773 0.000000
# 6 0.000000 0.000000 0.000000 0.000000 0.000000 0.020855
#
#
# Mechanical properties :
#
#
# Convention : Reuss Voigt Hill
#
# Bulk Modulus (GPa) = 82.57791 86.89831 84.73811
# Shear Modulus (GPa) = 36.59674 40.25982 38.42828
#
# Velocity S-wave (km/s) = 3.89482 4.08509 3.99109
# Velocity P-wave (km/s) = 7.37938 7.63352 7.50753
#
# Compressibility (1/GPa) = 0.01210978
#
# Stress axis : x y z
#
# Youngs Moduli (GPa) = 126.74502 128.67060 91.90526
#
# Poissons Ratio (x) = 0.29007 0.33564
# Poissons Ratio (y) = 0.28573 0.12039
# Poissons Ratio (z) = 0.46288 0.16855
#
# Static dielectric constant tensor:
#      x y z
#    x 4.578790 0.000000 0.000000 
#    y 0.000000 4.359030 0.000000 
#    z 0.000000 0.000000 4.184650 
# 
# 
# High freq. dielectric constant tensor:
#      x y z
#    x 1.979960 0.000000 0.000000 
#    y 0.000000 1.968540 0.000000 
#    z 0.000000 0.000000 1.945140 
# 
# From -- ./inp_files/35566.got.cif
#   From: 2010.06.25/outbox.cif.g09.slc.cpg/sg52_18_cif.got.tgz:35566.got - 2010.06.26 19:32:48.
