data_PCOD8216356
_publ_section_title
;
Structure prediction by ZEFSAII (Michael W. Deem and Ramdas Pophale) SiO2 
 PCOD8216356
Probable space group: P N N A
;
_chemical_formula_sum "Si O2"
_cell_formula_units_Z 64
_cell_length_a 24.062234
_cell_length_b 8.976550
_cell_length_c 13.989094
_cell_angle_alpha 90.000000
_cell_angle_beta 90.000000
_cell_angle_gamma 90.000000
_cell_volume 3021.586202
_symmetry_space_group_name_H-M "P N N A"
_symmetry_group_IT_number 52
_symmetry_cell_setting 'orthorhombic'
loop_
_space_group_symop_operation_xyz
x,y,z
1/2-x,-y,z
x,1/2-y,1/2-z
1/2-x,1/2+y,1/2-z
-x,-y,-z
1/2+x,y,-z
-x,1/2+y,1/2+z
1/2+x,1/2-y,1/2+z
loop_
_atom_site_type_symbol
_atom_site_label
_atom_site_fract_x
_atom_site_fract_y
_atom_site_fract_z
Si Si1 0.869158 0.484753 0.389096
Si Si2 0.049610 0.843422 0.156523
Si Si3 0.806311 0.916978 0.284969
Si Si4 0.477089 0.837662 0.507848
Si Si5 0.354017 0.812296 0.528616
Si Si6 0.485865 0.356538 0.661285
Si Si7 0.284998 0.709389 0.360320
Si Si8 0.172175 0.891052 0.076705
O O1 0.850315 0.490814 0.279035
O O2 0.866609 0.647112 0.434695
O O3 0.930639 0.417218 0.390223
O O4 0.828724 0.390023 0.459918
O O5 0.059654 0.750000 0.250000
O O6 0.109605 0.853566 0.107178
O O7 0.025645 0.004732 0.186964
O O8 0.004383 0.758103 0.092449
O O9 0.800252 0.750000 0.250000
O O10 0.822452 0.916657 0.395555
O O11 0.750000 0.000000 0.268571
O O12 0.413680 0.883851 0.520732
O O13 0.480663 0.744378 0.411652
O O14 0.500000 0.000000 0.500000
O O15 0.319701 0.819354 0.429466
O O16 0.471137 0.250000 0.750000
O O17 0.294040 0.750000 0.250000
O O18 0.219447 0.725251 0.388659
O O19 0.308919 0.545855 0.377125
#
# Coordination Sequence:
#
# PCOD8216356 Si02
#       8
#     8   8   8   8   8   8   8   8
#     4  10  21  41  71  95 134 182 232 276 343 425
#     4  12  25  43  71 102 144 182 232 292 351 423
#     4  10  24  42  68 101 137 182 228 283 349 418
#     4  12  26  45  67 102 141 185 234 287 351 425
#     4  10  23  44  70  95 141 181 221 292 360 407
#     4  12  25  43  70 104 137 189 230 286 353 424
#     4  10  22  42  70  96 134 179 237 286 343 411
#     4  10  22  42  70  98 129 184 231 281 344 409
#
# _framework density 21.180928999999999
#
# number of rings (size 3 to 8) (size 9 to 14) (size 15 to 20)
#    0.000    1.250    2.500    3.000    8.750    3.500 
#    4.500    0.000    0.000    0.000    0.000    0.000 
#    0.000    0.000    0.000    0.000    0.000    0.000 
#
# Total GULP energy -793318.602014 kJ/mol
# GULP energy per Si atom -12395.603156 kJ/mol
# Density = 2.113272 g / cm^3
# Si number density = 21.180929 Si / 1000 Ang^3
#
#
#
# Elastic Constant Matrix: (Units=GPa)
#
#
# Indices 1 2 3 4 5 6 
#
# 1 132.2889 25.4115 39.4620 0.0000 0.0000 0.0000
# 2 25.4115 66.7585 26.0767 0.0000 0.0000 0.0000
# 3 39.4620 26.0767 144.4350 0.0000 0.0000 0.0000
# 4 0.0000 0.0000 0.0000 30.8910 0.0000 0.0000
# 5 0.0000 0.0000 0.0000 0.0000 23.8869 0.0000
# 6 0.0000 0.0000 0.0000 0.0000 0.0000 30.7218
#
#
#
# Elastic Compliance Matrix: (Units=1/GPa)
#
#
# Indices 1 2 3 4 5 6 
#
# 1 0.008612 -0.002538 -0.001895 0.000000 0.000000 0.000000
# 2 -0.002538 0.016864 -0.002351 0.000000 0.000000 0.000000
# 3 -0.001895 -0.002351 0.007866 0.000000 0.000000 0.000000
# 4 0.000000 0.000000 0.000000 0.032372 0.000000 0.000000
# 5 0.000000 0.000000 0.000000 0.000000 0.041864 0.000000
# 6 0.000000 0.000000 0.000000 0.000000 0.000000 0.032550
#
#
# Mechanical properties :
#
#
# Convention : Reuss Voigt Hill
#
# Bulk Modulus (GPa) = 50.57246 58.37588 54.47417
# Shear Modulus (GPa) = 31.19413 33.93543 32.56478
#
# Velocity S-wave (km/s) = 3.84180 4.00705 3.92530
# Velocity P-wave (km/s) = 6.60360 7.00207 6.80575
#
# Compressibility (1/GPa) = 0.01977361
#
# Stress axis : x y z
#
# Youngs Moduli (GPa) = 116.11790 59.29831 127.13442
#
# Poissons Ratio (x) = 0.15050 0.24088
# Poissons Ratio (y) = 0.29471 0.29892
# Poissons Ratio (z) = 0.22001 0.13942
#
# Static dielectric constant tensor:
#      x y z
#    x 4.067470 0.000000 0.000000 
#    y 0.000000 3.944350 0.000000 
#    z 0.000000 0.000000 3.983730 
# 
# 
# High freq. dielectric constant tensor:
#      x y z
#    x 1.844790 0.000000 0.000000 
#    y 0.000000 1.818620 0.000000 
#    z 0.000000 0.000000 1.840490 
# 
# From -- ./inp_files/29246.got.cif
#   From: 2010.06.25/outbox.cif.g09.slc.cpg/sg52_15_cif.got.tgz:29246.got - 2010.06.26 19:32:48.
