data_PCOD8216313
_publ_section_title
;
Structure prediction by ZEFSAII (Michael W. Deem and Ramdas Pophale) SiO2 
 PCOD8216313
Probable space group: P N N A
;
_chemical_formula_sum "Si O2"
_cell_formula_units_Z 60
_cell_length_a 8.599828
_cell_length_b 13.629971
_cell_length_c 25.181839
_cell_angle_alpha 90.000000
_cell_angle_beta 90.000000
_cell_angle_gamma 90.000000
_cell_volume 2951.699488
_symmetry_space_group_name_H-M "P N N A"
_symmetry_group_IT_number 52
_symmetry_cell_setting 'orthorhombic'
loop_
_space_group_symop_operation_xyz
x,y,z
1/2-x,-y,z
x,1/2-y,1/2-z
1/2-x,1/2+y,1/2-z
-x,-y,-z
1/2+x,y,-z
-x,1/2+y,1/2+z
1/2+x,1/2-y,1/2+z
loop_
_atom_site_type_symbol
_atom_site_label
_atom_site_fract_x
_atom_site_fract_y
_atom_site_fract_z
Si Si1 0.509687 0.191192 0.950246
Si Si2 0.493087 0.671364 0.844509
Si Si3 0.421232 0.471796 0.802374
Si Si4 0.355509 0.233905 0.652387
Si Si5 0.806774 0.250000 0.750000
Si Si6 0.440235 0.606271 0.298092
Si Si7 0.580282 0.500946 0.591745
Si Si8 0.879034 0.210656 0.936407
O O1 0.409375 0.250824 0.907876
O O2 0.693163 0.204589 0.940133
O O3 0.472718 0.073933 0.942669
O O4 0.456018 0.230933 0.006781
O O5 0.476344 0.553455 0.844641
O O6 0.329436 0.728120 0.843547
O O7 0.585766 0.695007 0.791553
O O8 0.584839 0.698816 0.897859
O O9 0.250000 0.500000 0.782975
O O10 0.435477 0.366701 0.829797
O O11 0.525339 0.468403 0.749572
O O12 0.413244 0.322210 0.690258
O O13 0.707220 0.327152 0.715931
O O14 0.406079 0.537801 0.348219
O O15 0.750000 0.500000 0.565077
O O16 0.531085 0.614888 0.588174
#
# Coordination Sequence:
#
# PCOD8216313 Si02
#       8
#     8   8   8   8   4   8   8   8
#     4  10  21  40  67  88 120 165 204 259 321 367
#     4  11  26  38  60  93 127 162 215 253 309 380
#     4  10  23  39  61  87 121 165 210 255 307 362
#     4  10  21  44  64  87 122 162 211 264 310 372
#     4  12  24  38  60  92 128 172 204 252 316 368
#     4  11  22  39  62  89 127 169 204 255 315 368
#     4   9  20  35  58  91 126 159 202 248 303 374
#     4  11  22  41  61  94 126 160 208 258 317 379
#
# _framework density 20.327271
#
# number of rings (size 3 to 8) (size 9 to 14) (size 15 to 20)
#    0.000    1.600    1.333    3.600    7.467    0.000 
#    0.000    5.333    0.000    0.000    0.000    0.000 
#    0.000    0.000    0.000    0.000    0.000    0.000 
#
# Total GULP energy -743875.647897 kJ/mol
# GULP energy per Si atom -12397.927465 kJ/mol
# Density = 2.028101 g / cm^3
# Si number density = 20.327271 Si / 1000 Ang^3
#
#
#
# Elastic Constant Matrix: (Units=GPa)
#
#
# Indices 1 2 3 4 5 6 
#
# 1 75.3721 23.7190 24.0948 0.0000 0.0000 0.0000
# 2 23.7190 72.5703 30.5926 0.0000 0.0000 0.0000
# 3 24.0948 30.5926 102.8660 0.0000 0.0000 0.0000
# 4 0.0000 0.0000 0.0000 27.6576 0.0000 0.0000
# 5 0.0000 0.0000 0.0000 0.0000 34.7709 0.0000
# 6 0.0000 0.0000 0.0000 0.0000 0.0000 23.2848
#
#
#
# Elastic Compliance Matrix: (Units=1/GPa)
#
#
# Indices 1 2 3 4 5 6 
#
# 1 0.015288 -0.003987 -0.002395 0.000000 0.000000 0.000000
# 2 -0.003987 0.016795 -0.004061 0.000000 0.000000 0.000000
# 3 -0.002395 -0.004061 0.011490 0.000000 0.000000 0.000000
# 4 0.000000 0.000000 0.000000 0.036156 0.000000 0.000000
# 5 0.000000 0.000000 0.000000 0.000000 0.028760 0.000000
# 6 0.000000 0.000000 0.000000 0.000000 0.000000 0.042947
#
#
# Mechanical properties :
#
#
# Convention : Reuss Voigt Hill
#
# Bulk Modulus (GPa) = 44.07897 45.29125 44.68511
# Shear Modulus (GPa) = 27.79572 28.63613 28.21593
#
# Velocity S-wave (km/s) = 3.70186 3.75741 3.72974
# Velocity P-wave (km/s) = 6.32483 6.41510 6.37013
#
# Compressibility (1/GPa) = 0.02268656
#
# Stress axis : x y z
#
# Youngs Moduli (GPa) = 65.41133 59.54234 87.03102
#
# Poissons Ratio (x) = 0.23740 0.20846
# Poissons Ratio (y) = 0.26080 0.35343
# Poissons Ratio (z) = 0.15667 0.24180
#
# Static dielectric constant tensor:
#      x y z
#    x 3.667070 0.000000 0.000000 
#    y 0.000000 3.966270 0.000000 
#    z 0.000000 0.000000 3.655110 
# 
# 
# High freq. dielectric constant tensor:
#      x y z
#    x 1.794380 0.000000 0.000000 
#    y 0.000000 1.792700 0.000000 
#    z 0.000000 0.000000 1.794650 
# 
# From -- ./inp_files/39634.got.cif
#   From: 2010.06.25/outbox.cif.g09.slc.cpg/sg52_20_cif.got.tgz:39634.got - 2010.06.26 19:32:48.
