data_PCOD8216172
_publ_section_title
;
Structure prediction by ZEFSAII (Michael W. Deem and Ramdas Pophale) SiO2 
 PCOD8216172
Probable space group: P N N A
;
_chemical_formula_sum "Si O2"
_cell_formula_units_Z 32
_cell_length_a 34.533418
_cell_length_b 4.977317
_cell_length_c 8.782677
_cell_angle_alpha 90.000000
_cell_angle_beta 90.000000
_cell_angle_gamma 90.000000
_cell_volume 1509.599620
_symmetry_space_group_name_H-M "P N N A"
_symmetry_group_IT_number 52
_symmetry_cell_setting 'orthorhombic'
loop_
_space_group_symop_operation_xyz
x,y,z
1/2-x,-y,z
x,1/2-y,1/2-z
1/2-x,1/2+y,1/2-z
-x,-y,-z
1/2+x,y,-z
-x,1/2+y,1/2+z
1/2+x,1/2-y,1/2+z
loop_
_atom_site_type_symbol
_atom_site_label
_atom_site_fract_x
_atom_site_fract_y
_atom_site_fract_z
Si Si1 0.609874 0.753459 0.917954
Si Si2 0.723619 0.247561 0.925123
Si Si3 0.474221 0.478828 0.148322
Si Si4 0.857484 0.741208 0.072412
O O1 0.628804 0.750000 0.750000
O O2 0.566450 0.642479 0.907201
O O3 0.634624 0.562412 0.024160
O O4 0.613015 0.053254 0.987599
O O5 0.750000 0.500000 0.967768
O O6 0.709523 0.250000 0.750000
O O7 0.750000 0.000000 0.961921
O O8 0.686917 0.204957 0.033181
O O9 0.494783 0.250000 0.250000
O O10 0.469688 0.750000 0.250000
O O11 0.500000 0.500000 0.000000
O O12 0.865258 0.750000 0.250000
#
# Coordination Sequence:
#
# PCOD8216172 Si02
#       4
#     8   8   8   8
#     4  11  23  43  65  89 125 171 214 253 309 388
#     4  10  21  38  61  88 120 163 209 252 308 381
#     4  11  24  43  67  97 129 168 214 266 325 382
#     4  12  25  40  63  96 128 162 208 267 323 367
#
# _framework density 21.197673999999999
#
# number of rings (size 3 to 8) (size 9 to 14) (size 15 to 20)
#    0.000    1.000    0.000    8.250    0.000    6.000 
#    0.000    0.000    0.000    0.000    0.000    0.000 
#    0.000    0.000    0.000    0.000    0.000    0.000 
#
# Total GULP energy -396760.197471 kJ/mol
# GULP energy per Si atom -12398.756171 kJ/mol
# Density = 2.114943 g / cm^3
# Si number density = 21.197674 Si / 1000 Ang^3
#
#
#
# Elastic Constant Matrix: (Units=GPa)
#
#
# Indices 1 2 3 4 5 6 
#
# 1 86.8537 30.4462 44.2510 0.0000 0.0000 0.0000
# 2 30.4462 125.9578 38.2759 0.0000 0.0000 0.0000
# 3 44.2510 38.2759 149.7046 0.0000 0.0000 0.0000
# 4 0.0000 0.0000 0.0000 40.4466 0.0000 0.0000
# 5 0.0000 0.0000 0.0000 0.0000 27.4080 0.0000
# 6 0.0000 0.0000 0.0000 0.0000 0.0000 29.4414
#
#
#
# Elastic Compliance Matrix: (Units=1/GPa)
#
#
# Indices 1 2 3 4 5 6 
#
# 1 0.014160 -0.002332 -0.003589 0.000000 0.000000 0.000000
# 2 -0.002332 0.008992 -0.001610 0.000000 0.000000 0.000000
# 3 -0.003589 -0.001610 0.008152 0.000000 0.000000 0.000000
# 4 0.000000 0.000000 0.000000 0.024724 0.000000 0.000000
# 5 0.000000 0.000000 0.000000 0.000000 0.036486 0.000000
# 6 0.000000 0.000000 0.000000 0.000000 0.000000 0.033966
#
#
# Mechanical properties :
#
#
# Convention : Reuss Voigt Hill
#
# Bulk Modulus (GPa) = 61.56799 65.38471 63.47635
# Shear Modulus (GPa) = 34.02393 36.09541 35.05967
#
# Velocity S-wave (km/s) = 4.01069 4.13098 4.07128
# Velocity P-wave (km/s) = 7.11022 7.32567 7.21875
#
# Compressibility (1/GPa) = 0.01624221
#
# Stress axis : x y z
#
# Youngs Moduli (GPa) = 70.62273 111.20988 122.66428
#
# Poissons Ratio (x) = 0.25934 0.44027
# Poissons Ratio (y) = 0.16469 0.19746
# Poissons Ratio (z) = 0.25348 0.17902
#
# Static dielectric constant tensor:
#      x y z
#    x 3.656240 0.000000 0.000000 
#    y 0.000000 4.291500 0.000000 
#    z 0.000000 0.000000 3.865360 
# 
# 
# High freq. dielectric constant tensor:
#      x y z
#    x 1.828770 0.000000 0.000000 
#    y 0.000000 1.855700 0.000000 
#    z 0.000000 0.000000 1.834230 
# 
# From -- ./inp_files/15174.got.cif
#   From: 2010.06.25/outbox.cif.g09.slc.cpg/sg52_8_cif.got.tgz:15174.got - 2010.06.26 19:32:48.
