data_PCOD8216938
_publ_section_title
;
Structure prediction by ZEFSAII (Michael W. Deem and Ramdas Pophale) SiO2 
 PCOD8216938
Probable space group: P N N A
;
_chemical_formula_sum "Si O2"
_cell_formula_units_Z 40
_cell_length_a 18.119615
_cell_length_b 11.065785
_cell_length_c 9.128413
_cell_angle_alpha 90.000000
_cell_angle_beta 90.000000
_cell_angle_gamma 90.000000
_cell_volume 1830.317678
_symmetry_space_group_name_H-M "P N N A"
_symmetry_group_IT_number 52
_symmetry_cell_setting 'orthorhombic'
loop_
_space_group_symop_operation_xyz
x,y,z
1/2-x,-y,z
x,1/2-y,1/2-z
1/2-x,1/2+y,1/2-z
-x,-y,-z
1/2+x,y,-z
-x,1/2+y,1/2+z
1/2+x,1/2-y,1/2+z
loop_
_atom_site_type_symbol
_atom_site_label
_atom_site_fract_x
_atom_site_fract_y
_atom_site_fract_z
Si Si1 0.550565 0.986839 0.641646
Si Si2 0.167911 0.459019 0.944247
Si Si3 0.212930 0.250000 0.750000
Si Si4 0.625186 0.750000 0.750000
Si Si5 0.577135 0.890722 0.226802
Si Si6 0.803070 0.389765 0.493057
O O1 0.571201 0.849296 0.679727
O O2 0.500000 0.000000 0.500000
O O3 0.626054 0.060112 0.600407
O O4 0.503947 0.045731 0.774467
O O5 0.250000 0.500000 0.979569
O O6 0.161454 0.341529 0.840877
O O7 0.128110 0.569195 0.862514
O O8 0.264379 0.318120 0.636753
O O9 0.681425 0.692795 0.632823
O O10 0.563878 0.750000 0.250000
O O11 0.617518 0.929051 0.074684
O O12 0.750000 0.500000 0.539985
#
# Coordination Sequence:
#
# PCOD8216938 Si02
#       6
#     8   8   4   4   8   8
#     4  10  25  44  69 101 141 191 231 291 367 425
#     4  11  20  39  73 105 138 185 238 294 362 429
#     4  12  20  41  78 106 141 182 244 300 362 449
#     4  12  28  47  70 100 157 186 238 312 360 417
#     4  11  20  42  71 101 143 190 237 287 353 438
#     4  12  24  44  74 110 144 193 240 302 368 434
#
# _framework density 21.854129
#
# number of rings (size 3 to 8) (size 9 to 14) (size 15 to 20)
#    0.000    0.800    5.000    3.600    0.000    6.400 
#    3.600    0.000    2.200    0.000    0.000    0.000 
#    0.000    0.000    0.000    0.000    0.000    0.000 
#
# Total GULP energy -495797.064481 kJ/mol
# GULP energy per Si atom -12394.926612 kJ/mol
# Density = 2.180439 g / cm^3
# Si number density = 21.854129 Si / 1000 Ang^3
#
#
#
# Elastic Constant Matrix: (Units=GPa)
#
#
# Indices 1 2 3 4 5 6 
#
# 1 154.1912 83.8826 67.0157 0.0000 0.0000 0.0000
# 2 83.8826 151.2459 50.3375 0.0000 0.0000 0.0000
# 3 67.0157 50.3375 92.8169 0.0000 0.0000 0.0000
# 4 0.0000 0.0000 0.0000 43.9464 0.0000 0.0000
# 5 0.0000 0.0000 0.0000 0.0000 27.3235 0.0000
# 6 0.0000 0.0000 0.0000 0.0000 0.0000 37.3789
#
#
#
# Elastic Compliance Matrix: (Units=1/GPa)
#
#
# Indices 1 2 3 4 5 6 
#
# 1 0.011419 -0.004380 -0.005870 0.000000 0.000000 0.000000
# 2 -0.004380 0.009748 -0.002124 0.000000 0.000000 0.000000
# 3 -0.005870 -0.002124 0.016164 0.000000 0.000000 0.000000
# 4 0.000000 0.000000 0.000000 0.022755 0.000000 0.000000
# 5 0.000000 0.000000 0.000000 0.000000 0.036599 0.000000
# 6 0.000000 0.000000 0.000000 0.000000 0.000000 0.026753
#
#
# Mechanical properties :
#
#
# Convention : Reuss Voigt Hill
#
# Bulk Modulus (GPa) = 79.46800 88.96950 84.21875
# Shear Modulus (GPa) = 32.81285 34.86430 33.83857
#
# Velocity S-wave (km/s) = 3.87906 3.99848 3.93922
# Velocity P-wave (km/s) = 7.51696 7.88138 7.70132
#
# Compressibility (1/GPa) = 0.01258368
#
# Stress axis : x y z
#
# Youngs Moduli (GPa) = 87.57195 102.58751 61.86595
#
# Poissons Ratio (x) = 0.44930 0.36313
# Poissons Ratio (y) = 0.38354 0.13142
# Poissons Ratio (z) = 0.51402 0.21793
#
# Static dielectric constant tensor:
#      x y z
#    x 5.099870 0.000000 0.000000 
#    y 0.000000 4.122650 0.000000 
#    z 0.000000 0.000000 4.231820 
# 
# 
# High freq. dielectric constant tensor:
#      x y z
#    x 1.868120 0.000000 0.000000 
#    y 0.000000 1.855880 0.000000 
#    z 0.000000 0.000000 1.850950 
# 
# From -- ./inp_files/11702.got.cif
#   From: 2010.06.25/outbox.cif.g09.slc.cpg/sg52_6_cif.got.tgz:11702.got - 2010.06.26 19:32:48.
