data_PCOD8216307
_publ_section_title
;
Structure prediction by ZEFSAII (Michael W. Deem and Ramdas Pophale) SiO2 
 PCOD8216307
Probable space group: P N N A
;
_chemical_formula_sum "Si O2"
_cell_formula_units_Z 48
_cell_length_a 18.475338
_cell_length_b 15.281630
_cell_length_c 8.607385
_cell_angle_alpha 90.000000
_cell_angle_beta 90.000000
_cell_angle_gamma 90.000000
_cell_volume 2430.151234
_symmetry_space_group_name_H-M "P N N A"
_symmetry_group_IT_number 52
_symmetry_cell_setting 'orthorhombic'
loop_
_space_group_symop_operation_xyz
x,y,z
1/2-x,-y,z
x,1/2-y,1/2-z
1/2-x,1/2+y,1/2-z
-x,-y,-z
1/2+x,y,-z
-x,1/2+y,1/2+z
1/2+x,1/2-y,1/2+z
loop_
_atom_site_type_symbol
_atom_site_label
_atom_site_fract_x
_atom_site_fract_y
_atom_site_fract_z
Si Si1 0.014321 0.750000 0.750000
Si Si2 0.824562 0.250000 0.750000
Si Si3 0.329925 0.987308 0.004615
Si Si4 0.070423 0.364081 0.660943
Si Si5 0.905574 0.811635 0.494419
Si Si6 0.216462 0.092659 0.317462
Si Si7 0.916233 0.341876 0.519076
O O1 0.964825 0.805004 0.630577
O O2 0.066241 0.682930 0.658790
O O3 0.777592 0.163517 0.720404
O O4 0.878411 0.259599 0.602934
O O5 0.328164 0.928354 0.160598
O O6 0.250000 0.000000 0.934253
O O7 0.358755 0.082478 0.041705
O O8 0.382832 0.948828 0.876060
O O9 0.113004 0.284290 0.575402
O O10 0.062316 0.362151 0.846619
O O11 0.989876 0.372250 0.599196
O O12 0.835422 0.862954 0.555234
O O13 0.250000 0.000000 0.378856
#
# Coordination Sequence:
#
# PCOD8216307 Si02
#       7
#     4   4   8   8   8   8   8
#     4  10  21  42  64  93 118 166 222 266 332 387
#     4  12  21  42  66  89 134 166 224 268 316 393
#     4  11  22  42  62  96 130 176 214 260 328 392
#     4  10  22  41  66  93 128 170 218 271 326 382
#     4  10  21  40  66  90 126 167 216 268 327 383
#     4  11  22  40  65  97 127 179 216 264 322 394
#     4  11  22  41  67  92 126 168 217 270 324 385
#
# _framework density 19.751857000000001
#
# number of rings (size 3 to 8) (size 9 to 14) (size 15 to 20)
#    0.000    1.333    3.333    6.000    0.000    0.667 
#    6.000    1.667    0.000    0.000    0.000    0.000 
#    0.000    0.000    0.000    0.000    0.000    0.000 
#
# Total GULP energy -594943.078527 kJ/mol
# GULP energy per Si atom -12394.647469 kJ/mol
# Density = 1.970690 g / cm^3
# Si number density = 19.751857 Si / 1000 Ang^3
#
#
#
# Elastic Constant Matrix: (Units=GPa)
#
#
# Indices 1 2 3 4 5 6 
#
# 1 132.2060 62.2642 62.1786 0.0000 0.0000 0.0000
# 2 62.2642 97.1471 41.7212 0.0000 0.0000 0.0000
# 3 62.1786 41.7212 134.6922 0.0000 0.0000 0.0000
# 4 0.0000 0.0000 0.0000 30.6279 0.0000 0.0000
# 5 0.0000 0.0000 0.0000 0.0000 28.5767 0.0000
# 6 0.0000 0.0000 0.0000 0.0000 0.0000 38.0795
#
#
#
# Elastic Compliance Matrix: (Units=1/GPa)
#
#
# Indices 1 2 3 4 5 6 
#
# 1 0.012263 -0.006262 -0.003722 0.000000 0.000000 0.000000
# 2 -0.006262 0.015070 -0.001777 0.000000 0.000000 0.000000
# 3 -0.003722 -0.001777 0.009693 0.000000 0.000000 0.000000
# 4 0.000000 0.000000 0.000000 0.032650 0.000000 0.000000
# 5 0.000000 0.000000 0.000000 0.000000 0.034994 0.000000
# 6 0.000000 0.000000 0.000000 0.000000 0.000000 0.026261
#
#
# Mechanical properties :
#
#
# Convention : Reuss Voigt Hill
#
# Bulk Modulus (GPa) = 74.04596 77.37480 75.71038
# Shear Modulus (GPa) = 31.45568 32.64890 32.05229
#
# Velocity S-wave (km/s) = 3.99500 4.07006 4.03271
# Velocity P-wave (km/s) = 7.67134 7.83235 7.75226
#
# Compressibility (1/GPa) = 0.01350513
#
# Stress axis : x y z
#
# Youngs Moduli (GPa) = 81.54445 66.35597 103.16788
#
# Poissons Ratio (x) = 0.41549 0.38395
# Poissons Ratio (y) = 0.51059 0.18338
# Poissons Ratio (z) = 0.30348 0.11795
#
# Static dielectric constant tensor:
#      x y z
#    x 3.587050 0.000000 0.000000 
#    y 0.000000 3.741540 0.000000 
#    z 0.000000 0.000000 3.715480 
# 
# 
# High freq. dielectric constant tensor:
#      x y z
#    x 1.776650 0.000000 0.000000 
#    y 0.000000 1.770080 0.000000 
#    z 0.000000 0.000000 1.767250 
# 
# From -- ./inp_files/12175.got.cif
#   From: 2010.06.25/outbox.cif.g09.slc.cpg/sg52_7_cif.got.tgz:12175.got - 2010.06.26 19:32:48.
