data_PCOD8216140
_publ_section_title
;
Structure prediction by ZEFSAII (Michael W. Deem and Ramdas Pophale) SiO2 
 PCOD8216140
Probable space group: P N N A
;
_chemical_formula_sum "Si O2"
_cell_formula_units_Z 32
_cell_length_a 15.922288
_cell_length_b 14.677706
_cell_length_c 6.797700
_cell_angle_alpha 90.000000
_cell_angle_beta 90.000000
_cell_angle_gamma 90.000000
_cell_volume 1588.640586
_symmetry_space_group_name_H-M "P N N A"
_symmetry_group_IT_number 52
_symmetry_cell_setting 'orthorhombic'
loop_
_space_group_symop_operation_xyz
x,y,z
1/2-x,-y,z
x,1/2-y,1/2-z
1/2-x,1/2+y,1/2-z
-x,-y,-z
1/2+x,y,-z
-x,1/2+y,1/2+z
1/2+x,1/2-y,1/2+z
loop_
_atom_site_type_symbol
_atom_site_label
_atom_site_fract_x
_atom_site_fract_y
_atom_site_fract_z
Si Si1 0.160800 0.250000 0.250000
Si Si2 0.969622 0.639538 0.963390
Si Si3 0.958268 0.467229 0.701032
Si Si4 0.820377 0.169485 0.880634
Si Si5 0.390536 0.250000 0.750000
O O1 0.104009 0.285856 0.067737
O O2 0.220345 0.167582 0.169218
O O3 0.942489 0.551651 0.840931
O O4 0.055339 0.680046 0.878343
O O5 0.982606 0.609045 0.190826
O O6 0.866200 0.425460 0.662765
O O7 0.000000 0.500000 0.500000
O O8 0.863144 0.250000 0.750000
O O9 0.831040 0.190964 0.110498
#
# Coordination Sequence:
#
# PCOD8216140 Si02
#       5
#     4   8   8   8   4
#     4   9  22  42  58  85 130 156 198 257 316 366
#     4  10  21  37  62  92 115 158 208 257 294 372
#     4  11  21  37  65  90 118 157 213 253 299 362
#     4  10  21  39  58  86 122 164 193 259 308 363
#     4  11  18  38  62  83 120 164 214 237 304 368
#
# _framework density 20.143008999999999
#
# number of rings (size 3 to 8) (size 9 to 14) (size 15 to 20)
#    0.750    1.000    5.000    0.000    0.000    1.000 
#    4.500    0.000    0.000    0.000    0.000    0.000 
#    0.000    0.000    0.000    0.000    0.000    0.000 
#
# Total GULP energy -396533.268881 kJ/mol
# GULP energy per Si atom -12391.664653 kJ/mol
# Density = 2.009716 g / cm^3
# Si number density = 20.143009 Si / 1000 Ang^3
#
#
#
# Elastic Constant Matrix: (Units=GPa)
#
#
# Indices 1 2 3 4 5 6 
#
# 1 96.8640 14.1713 38.7641 0.0000 0.0000 0.0000
# 2 14.1713 53.4993 20.9476 0.0000 0.0000 0.0000
# 3 38.7641 20.9476 121.2329 0.0000 0.0000 0.0000
# 4 0.0000 0.0000 0.0000 43.5977 0.0000 0.0000
# 5 0.0000 0.0000 0.0000 0.0000 11.0910 0.0000
# 6 0.0000 0.0000 0.0000 0.0000 0.0000 33.3060
#
#
#
# Elastic Compliance Matrix: (Units=1/GPa)
#
#
# Indices 1 2 3 4 5 6 
#
# 1 0.011998 -0.001798 -0.003526 0.000000 0.000000 0.000000
# 2 -0.001798 0.020318 -0.002936 0.000000 0.000000 0.000000
# 3 -0.003526 -0.002936 0.009883 0.000000 0.000000 0.000000
# 4 0.000000 0.000000 0.000000 0.022937 0.000000 0.000000
# 5 0.000000 0.000000 0.000000 0.000000 0.090163 0.000000
# 6 0.000000 0.000000 0.000000 0.000000 0.000000 0.030025
#
#
# Mechanical properties :
#
#
# Convention : Reuss Voigt Hill
#
# Bulk Modulus (GPa) = 38.94043 46.59580 42.76812
# Shear Modulus (GPa) = 23.76409 30.77982 27.27195
#
# Velocity S-wave (km/s) = 3.43850 3.91329 3.68355
# Velocity P-wave (km/s) = 5.92776 6.60312 6.27453
#
# Compressibility (1/GPa) = 0.02568025
#
# Stress axis : x y z
#
# Youngs Moduli (GPa) = 83.34953 49.21857 101.18190
#
# Poissons Ratio (x) = 0.08847 0.35673
# Poissons Ratio (y) = 0.14983 0.29706
# Poissons Ratio (z) = 0.29386 0.14450
#
# Static dielectric constant tensor:
#      x y z
#    x 3.407110 0.000000 0.000000 
#    y 0.000000 3.682350 0.000000 
#    z 0.000000 0.000000 3.738700 
# 
# 
# High freq. dielectric constant tensor:
#      x y z
#    x 1.767440 0.000000 0.000000 
#    y 0.000000 1.782440 0.000000 
#    z 0.000000 0.000000 1.786300 
# 
# From -- ./inp_files/3024.got.cif
#   From: 2010.06.25/outbox.cif.g09.slc.cpg/sg52_2_cif.got.tgz:3024.got - 2010.06.26 19:32:48.
