data_PCOD8216750
_publ_section_title
;
Structure prediction by ZEFSAII (Michael W. Deem and Ramdas Pophale) SiO2 
 PCOD8216750
Probable space group: P N N A
;
_chemical_formula_sum "Si O2"
_cell_formula_units_Z 40
_cell_length_a 9.822938
_cell_length_b 8.596707
_cell_length_c 22.046872
_cell_angle_alpha 90.000000
_cell_angle_beta 90.000000
_cell_angle_gamma 90.000000
_cell_volume 1861.746339
_symmetry_space_group_name_H-M "P N N A"
_symmetry_group_IT_number 52
_symmetry_cell_setting 'orthorhombic'
loop_
_space_group_symop_operation_xyz
x,y,z
1/2-x,-y,z
x,1/2-y,1/2-z
1/2-x,1/2+y,1/2-z
-x,-y,-z
1/2+x,y,-z
-x,1/2+y,1/2+z
1/2+x,1/2-y,1/2+z
loop_
_atom_site_type_symbol
_atom_site_label
_atom_site_fract_x
_atom_site_fract_y
_atom_site_fract_z
Si Si1 0.474240 0.304577 0.186760
Si Si2 0.130358 0.114350 0.001362
Si Si3 0.220957 0.320451 0.625923
Si Si4 0.220709 0.322424 0.109549
Si Si5 0.469150 0.335367 0.813074
O O1 0.407445 0.250000 0.250000
O O2 0.609567 0.205664 0.177229
O O3 0.368037 0.263037 0.132704
O O4 0.529834 0.479460 0.191413
O O5 0.154510 0.214459 0.940066
O O6 0.250000 0.000000 0.015496
O O7 0.141038 0.239503 0.054920
O O8 0.000000 0.000000 0.000000
O O9 0.250000 0.500000 0.628061
O O10 0.355808 0.217646 0.637604
O O11 0.250000 0.500000 0.091127
O O12 0.120882 0.293723 0.166016
O O13 0.436561 0.250000 0.750000
#
# Coordination Sequence:
#
# PCOD8216750 Si02
#       5
#     8   8   8   8   8
#     4  11  23  40  62  90 121 161 205 252 307 366
#     4  11  23  41  64  92 123 162 208 255 306 365
#     4  11  23  40  61  88 122 161 202 251 305 364
#     4  10  23  41  63  91 124 161 205 254 310 367
#     4  11  23  40  61  89 123 161 203 252 308 368
#
# _framework density 21.485204
#
# number of rings (size 3 to 8) (size 9 to 14) (size 15 to 20)
#    0.000    1.200    0.000    6.600    0.000    3.200 
#    0.000    5.000    0.000    0.000    0.000    0.000 
#    0.000    0.000    0.000    0.000    0.000    0.000 
#
# Total GULP energy -495605.537578 kJ/mol
# GULP energy per Si atom -12390.138439 kJ/mol
# Density = 2.143630 g / cm^3
# Si number density = 21.485204 Si / 1000 Ang^3
#
#
#
# Elastic Constant Matrix: (Units=GPa)
#
#
# Indices 1 2 3 4 5 6 
#
# 1 125.9873 48.1966 37.9464 0.0000 0.0000 0.0000
# 2 48.1966 66.5291 58.4354 0.0000 0.0000 0.0000
# 3 37.9464 58.4354 122.4522 0.0000 0.0000 0.0000
# 4 0.0000 0.0000 0.0000 23.8666 0.0000 0.0000
# 5 0.0000 0.0000 0.0000 0.0000 34.6899 0.0000
# 6 0.0000 0.0000 0.0000 0.0000 0.0000 33.6765
#
#
#
# Elastic Compliance Matrix: (Units=1/GPa)
#
#
# Indices 1 2 3 4 5 6 
#
# 1 0.011013 -0.008575 0.000679 0.000000 0.000000 0.000000
# 2 -0.008575 0.032554 -0.012878 0.000000 0.000000 0.000000
# 3 0.000679 -0.012878 0.014101 0.000000 0.000000 0.000000
# 4 0.000000 0.000000 0.000000 0.041900 0.000000 0.000000
# 5 0.000000 0.000000 0.000000 0.000000 0.028827 0.000000
# 6 0.000000 0.000000 0.000000 0.000000 0.000000 0.029694
#
#
# Mechanical properties :
#
#
# Convention : Reuss Voigt Hill
#
# Bulk Modulus (GPa) = 62.02897 67.12506 64.57701
# Shear Modulus (GPa) = 24.38892 29.80594 27.09743
#
# Velocity S-wave (km/s) = 3.37285 3.72866 3.55521
# Velocity P-wave (km/s) = 6.64089 7.06027 6.85379
#
# Compressibility (1/GPa) = 0.01612150
#
# Stress axis : x y z
#
# Youngs Moduli (GPa) = 90.80103 30.71774 70.91448
#
# Poissons Ratio (x) = 0.26340 -0.04817
# Poissons Ratio (y) = 0.77862 0.91324
# Poissons Ratio (z) = -0.06168 0.39558
#
# Static dielectric constant tensor:
#      x y z
#    x 3.951720 0.000000 0.000000 
#    y 0.000000 3.831000 0.000000 
#    z 0.000000 0.000000 4.280970 
# 
# 
# High freq. dielectric constant tensor:
#      x y z
#    x 1.862600 0.000000 0.000000 
#    y 0.000000 1.841490 0.000000 
#    z 0.000000 0.000000 1.847380 
# 
# From -- ./inp_files/39221.got.cif
#   From: 2010.06.25/outbox.cif.g09.slc.cpg/sg52_20_cif.got.tgz:39221.got - 2010.06.26 19:32:48.
