data_PCOD8216842
_publ_section_title
;
Structure prediction by ZEFSAII (Michael W. Deem and Ramdas Pophale) SiO2 
 PCOD8216842
Probable space group: P N N A
;
_chemical_formula_sum "Si O2"
_cell_formula_units_Z 60
_cell_length_a 18.206700
_cell_length_b 6.313982
_cell_length_c 25.138786
_cell_angle_alpha 90.000000
_cell_angle_beta 90.000000
_cell_angle_gamma 90.000000
_cell_volume 2889.873793
_symmetry_space_group_name_H-M "P N N A"
_symmetry_group_IT_number 52
_symmetry_cell_setting 'orthorhombic'
loop_
_space_group_symop_operation_xyz
x,y,z
1/2-x,-y,z
x,1/2-y,1/2-z
1/2-x,1/2+y,1/2-z
-x,-y,-z
1/2+x,y,-z
-x,1/2+y,1/2+z
1/2+x,1/2-y,1/2+z
loop_
_atom_site_type_symbol
_atom_site_label
_atom_site_fract_x
_atom_site_fract_y
_atom_site_fract_z
Si Si1 0.931796 0.741331 0.093741
Si Si2 0.364936 0.750000 0.750000
Si Si3 0.921001 0.085004 0.175089
Si Si4 0.914956 0.713907 0.688324
Si Si5 0.066534 0.158268 0.020357
Si Si6 0.418349 0.035686 0.398823
Si Si7 0.327463 0.471841 0.841310
Si Si8 0.665083 0.564477 0.603478
O O1 0.892711 0.543870 0.120956
O O2 0.018194 0.711868 0.103538
O O3 0.913326 0.969815 0.118383
O O4 0.903227 0.740912 0.033607
O O5 0.418857 0.583327 0.722435
O O6 0.314023 0.631891 0.792203
O O7 0.850821 0.240520 0.178992
O O8 0.997533 0.200689 0.182703
O O9 0.890910 0.750000 0.750000
O O10 0.873484 0.517785 0.658766
O O11 0.896855 0.927252 0.656585
O O12 0.051195 0.364290 0.057829
O O13 0.130069 0.035764 0.050596
O O14 0.000000 0.000000 0.000000
O O15 0.345601 0.182562 0.406953
O O16 0.250000 0.500000 0.872192
O O17 0.750000 0.500000 0.606043
#
# Coordination Sequence:
#
# PCOD8216842 Si02
#       8
#     8   4   8   8   8   8   8   8
#     4  11  22  40  65 100 127 176 226 274 334 405
#     4  10  24  36  64  88 130 180 228 272 342 400
#     4  11  22  40  64  95 133 170 233 278 333 405
#     4  11  23  40  70 100 131 177 231 284 338 426
#     4  11  23  41  72 103 129 178 227 273 339 415
#     4  11  22  43  72  97 137 175 227 283 337 416
#     4  11  25  40  59  91 132 174 222 284 339 399
#     4  11  26  47  66 102 140 178 227 293 355 413
#
# _framework density 20.762152
#
# number of rings (size 3 to 8) (size 9 to 14) (size 15 to 20)
#    0.000    1.067    4.000    2.400    3.733    4.267 
#    7.200    0.000    0.000    0.000    0.000    0.000 
#    0.000    0.000    0.000    0.000    0.000    0.000 
#
# Total GULP energy -743295.914987 kJ/mol
# GULP energy per Si atom -12388.265250 kJ/mol
# Density = 2.071490 g / cm^3
# Si number density = 20.762152 Si / 1000 Ang^3
#
#
#
# Elastic Constant Matrix: (Units=GPa)
#
#
# Indices 1 2 3 4 5 6 
#
# 1 112.2581 48.6083 23.0709 0.0000 0.0000 0.0000
# 2 48.6083 128.1463 44.1228 0.0000 0.0000 0.0000
# 3 23.0709 44.1228 144.4584 0.0000 0.0000 0.0000
# 4 0.0000 0.0000 0.0000 16.7035 0.0000 0.0000
# 5 0.0000 0.0000 0.0000 0.0000 8.3980 0.0000
# 6 0.0000 0.0000 0.0000 0.0000 0.0000 26.8141
#
#
#
# Elastic Compliance Matrix: (Units=1/GPa)
#
#
# Indices 1 2 3 4 5 6 
#
# 1 0.010694 -0.003876 -0.000524 0.000000 0.000000 0.000000
# 2 -0.003876 0.010126 -0.002474 0.000000 0.000000 0.000000
# 3 -0.000524 -0.002474 0.007762 0.000000 0.000000 0.000000
# 4 0.000000 0.000000 0.000000 0.059868 0.000000 0.000000
# 5 0.000000 0.000000 0.000000 0.000000 0.119077 0.000000
# 6 0.000000 0.000000 0.000000 0.000000 0.000000 0.037294
#
#
# Mechanical properties :
#
#
# Convention : Reuss Voigt Hill
#
# Bulk Modulus (GPa) = 67.41363 68.49631 67.95497
# Shear Modulus (GPa) = 18.97451 28.32050 23.64750
#
# Velocity S-wave (km/s) = 3.02636 3.69730 3.37853
# Velocity P-wave (km/s) = 6.68967 7.16166 6.92968
#
# Compressibility (1/GPa) = 0.01483380
#
# Stress axis : x y z
#
# Youngs Moduli (GPa) = 93.50965 98.75990 128.83859
#
# Poissons Ratio (x) = 0.38280 0.06752
# Poissons Ratio (y) = 0.36245 0.31871
# Poissons Ratio (z) = 0.04900 0.24430
#
# Static dielectric constant tensor:
#      x y z
#    x 3.597720 0.000000 0.000000 
#    y 0.000000 4.062640 0.000000 
#    z 0.000000 0.000000 4.046380 
# 
# 
# High freq. dielectric constant tensor:
#      x y z
#    x 1.787990 0.000000 0.000000 
#    y 0.000000 1.832290 0.000000 
#    z 0.000000 0.000000 1.815100 
# 
# From -- ./inp_files/43203.got.cif
#   From: 2010.06.25/outbox.cif.g09.slc.cpg/sg52_22_cif.got.tgz:43203.got - 2010.06.26 19:32:48.
