data_PCOD8216661
_publ_section_title
;
Structure prediction by ZEFSAII (Michael W. Deem and Ramdas Pophale) SiO2 
 PCOD8216661
Probable space group: P N N A
;
_chemical_formula_sum "Si O2"
_cell_formula_units_Z 28
_cell_length_a 11.804165
_cell_length_b 7.166573
_cell_length_c 16.032257
_cell_angle_alpha 90.000000
_cell_angle_beta 90.000000
_cell_angle_gamma 90.000000
_cell_volume 1356.255357
_symmetry_space_group_name_H-M "P N N A"
_symmetry_group_IT_number 52
_symmetry_cell_setting 'orthorhombic'
loop_
_space_group_symop_operation_xyz
x,y,z
1/2-x,-y,z
x,1/2-y,1/2-z
1/2-x,1/2+y,1/2-z
-x,-y,-z
1/2+x,y,-z
-x,1/2+y,1/2+z
1/2+x,1/2-y,1/2+z
loop_
_atom_site_type_symbol
_atom_site_label
_atom_site_fract_x
_atom_site_fract_y
_atom_site_fract_z
Si Si1 0.084849 0.750000 0.250000
Si Si2 0.750000 0.000000 0.103924
Si Si3 0.970573 0.098613 0.178919
Si Si4 0.661738 0.151400 0.944352
Si Si5 0.750000 0.000000 0.639377
O O1 0.163377 0.619201 0.193895
O O2 0.999657 0.612241 0.296679
O O3 0.663913 0.882013 0.161498
O O4 0.829346 0.868532 0.044812
O O5 0.006234 0.250000 0.250000
O O6 0.036014 0.126508 0.091590
O O7 0.687914 0.362328 0.922593
O O8 0.750000 0.000000 0.902390
#
# Coordination Sequence:
#
# PCOD8216661 Si02
#       5
#     4   4   8   8   4
#     4  12  22  36  66 102 136 162 236 278 346 380
#     4  10  26  47  65  94 148 180 222 278 344 407
#     4  12  24  44  68 100 138 181 223 284 335 405
#     4  10  22  43  68  93 136 173 229 275 335 393
#     4  12  20  39  67 106 124 176 224 292 324 393
#
# _framework density 20.64508
#
# number of rings (size 3 to 8) (size 9 to 14) (size 15 to 20)
#    0.857    0.000    5.714    2.571    2.000    0.000 
#    5.143    2.857    0.000    0.000    0.000    0.000 
#    0.000    0.000    0.000    0.000    0.000    0.000 
#
# Total GULP energy -346925.137891 kJ/mol
# GULP energy per Si atom -12390.183496 kJ/mol
# Density = 2.059809 g / cm^3
# Si number density = 20.645080 Si / 1000 Ang^3
#
#
#
# Elastic Constant Matrix: (Units=GPa)
#
#
# Indices 1 2 3 4 5 6 
#
# 1 113.8722 31.3468 26.4289 0.0000 0.0000 0.0000
# 2 31.3468 133.3614 33.0756 0.0000 0.0000 0.0000
# 3 26.4289 33.0756 69.6536 0.0000 0.0000 0.0000
# 4 0.0000 0.0000 0.0000 23.9935 0.0000 0.0000
# 5 0.0000 0.0000 0.0000 0.0000 28.1798 0.0000
# 6 0.0000 0.0000 0.0000 0.0000 0.0000 30.0712
#
#
#
# Elastic Compliance Matrix: (Units=1/GPa)
#
#
# Indices 1 2 3 4 5 6 
#
# 1 0.009917 -0.001584 -0.003010 0.000000 0.000000 0.000000
# 2 -0.001584 0.008753 -0.003555 0.000000 0.000000 0.000000
# 3 -0.003010 -0.003555 0.017187 0.000000 0.000000 0.000000
# 4 0.000000 0.000000 0.000000 0.041678 0.000000 0.000000
# 5 0.000000 0.000000 0.000000 0.000000 0.035486 0.000000
# 6 0.000000 0.000000 0.000000 0.000000 0.000000 0.033254
#
#
# Mechanical properties :
#
#
# Convention : Reuss Voigt Hill
#
# Bulk Modulus (GPa) = 51.13316 55.39888 53.26602
# Shear Modulus (GPa) = 29.56944 31.51795 30.54370
#
# Velocity S-wave (km/s) = 3.78865 3.91148 3.85056
# Velocity P-wave (km/s) = 6.63023 6.87690 6.75469
#
# Compressibility (1/GPa) = 0.01955678
#
# Stress axis : x y z
#
# Youngs Moduli (GPa) = 100.84116 114.25275 58.18297
#
# Poissons Ratio (x) = 0.18101 0.17515
# Poissons Ratio (y) = 0.15976 0.20685
# Poissons Ratio (z) = 0.30357 0.40618
#
# Static dielectric constant tensor:
#      x y z
#    x 3.614130 0.000000 0.000000 
#    y 0.000000 3.871710 0.000000 
#    z 0.000000 0.000000 3.602780 
# 
# 
# High freq. dielectric constant tensor:
#      x y z
#    x 1.806280 0.000000 0.000000 
#    y 0.000000 1.808150 0.000000 
#    z 0.000000 0.000000 1.797050 
# 
# From -- ./inp_files/36405.got.cif
#   From: 2010.06.25/outbox.cif.g09.slc.cpg/sg52_19_cif.got.tgz:36405.got - 2010.06.26 19:32:48.
