data_PCOD8216261
_publ_section_title
;
Structure prediction by ZEFSAII (Michael W. Deem and Ramdas Pophale) SiO2 
 PCOD8216261
Probable space group: P N N A
;
_chemical_formula_sum "Si O2"
_cell_formula_units_Z 32
_cell_length_a 9.120056
_cell_length_b 5.489050
_cell_length_c 29.888599
_cell_angle_alpha 90.000000
_cell_angle_beta 90.000000
_cell_angle_gamma 90.000000
_cell_volume 1496.236518
_symmetry_space_group_name_H-M "P N N A"
_symmetry_group_IT_number 52
_symmetry_cell_setting 'orthorhombic'
loop_
_space_group_symop_operation_xyz
x,y,z
1/2-x,-y,z
x,1/2-y,1/2-z
1/2-x,1/2+y,1/2-z
-x,-y,-z
1/2+x,y,-z
-x,1/2+y,1/2+z
1/2+x,1/2-y,1/2+z
loop_
_atom_site_type_symbol
_atom_site_label
_atom_site_fract_x
_atom_site_fract_y
_atom_site_fract_z
Si Si1 0.160623 0.747889 0.800569
Si Si2 0.991426 0.289293 0.112476
Si Si3 0.750000 0.000000 0.064366
Si Si4 0.750000 0.000000 0.931339
Si Si5 0.993065 0.320078 0.959043
O O1 0.250000 0.500000 0.808628
O O2 0.099661 0.750000 0.750000
O O3 0.021262 0.717337 0.833762
O O4 0.250000 0.000000 0.809920
O O5 0.132318 0.131401 0.100101
O O6 0.005666 0.555832 0.090094
O O7 0.836786 0.187840 0.095158
O O8 0.869754 0.859900 0.034250
O O9 0.662289 0.816490 0.963562
O O10 0.000000 0.500000 0.000000
#
# Coordination Sequence:
#
# PCOD8216261 Si02
#       5
#     8   8   4   4   8
#     4  10  21  39  69 105 136 171 227 286 339 404
#     4  11  22  40  66  94 130 173 216 274 340 396
#     4  10  22  39  66  92 124 166 222 270 319 402
#     4  10  26  43  62  90 134 170 218 280 333 406
#     4  11  25  43  64  92 129 175 225 273 336 402
#
# _framework density 21.386994999999999
#
# number of rings (size 3 to 8) (size 9 to 14) (size 15 to 20)
#    0.000    1.500    1.250    3.000    3.500   10.000 
#    0.000    3.750    5.500    0.000    0.000    0.000 
#    0.000    0.000    0.000    0.000    0.000    0.000 
#
# Total GULP energy -396697.504806 kJ/mol
# GULP energy per Si atom -12396.797025 kJ/mol
# Density = 2.133832 g / cm^3
# Si number density = 21.386995 Si / 1000 Ang^3
#
#
#
# Elastic Constant Matrix: (Units=GPa)
#
#
# Indices 1 2 3 4 5 6 
#
# 1 131.3662 47.1598 56.5734 0.0000 0.0000 0.0000
# 2 47.1598 134.0880 53.3715 0.0000 0.0000 0.0000
# 3 56.5734 53.3715 145.1203 0.0000 0.0000 0.0000
# 4 0.0000 0.0000 0.0000 28.9834 0.0000 0.0000
# 5 0.0000 0.0000 0.0000 0.0000 25.9266 0.0000
# 6 0.0000 0.0000 0.0000 0.0000 0.0000 14.8202
#
#
#
# Elastic Compliance Matrix: (Units=1/GPa)
#
#
# Indices 1 2 3 4 5 6 
#
# 1 0.009686 -0.002230 -0.002956 0.000000 0.000000 0.000000
# 2 -0.002230 0.009250 -0.002533 0.000000 0.000000 0.000000
# 3 -0.002956 -0.002533 0.008975 0.000000 0.000000 0.000000
# 4 0.000000 0.000000 0.000000 0.034503 0.000000 0.000000
# 5 0.000000 0.000000 0.000000 0.000000 0.038570 0.000000
# 6 0.000000 0.000000 0.000000 0.000000 0.000000 0.067476
#
#
# Mechanical properties :
#
#
# Convention : Reuss Voigt Hill
#
# Bulk Modulus (GPa) = 80.16894 80.53155 80.35024
# Shear Modulus (GPa) = 26.58815 30.84403 28.71609
#
# Velocity S-wave (km/s) = 3.52972 3.80173 3.66825
# Velocity P-wave (km/s) = 7.36058 7.55030 7.45605
#
# Compressibility (1/GPa) = 0.01247366
#
# Stress axis : x y z
#
# Youngs Moduli (GPa) = 103.24402 108.10586 111.42665
#
# Poissons Ratio (x) = 0.24109 0.32935
# Poissons Ratio (y) = 0.23024 0.28220
# Poissons Ratio (z) = 0.30516 0.27379
#
# Static dielectric constant tensor:
#      x y z
#    x 4.042100 0.000000 0.000000 
#    y 0.000000 4.501900 0.000000 
#    z 0.000000 0.000000 3.922250 
# 
# 
# High freq. dielectric constant tensor:
#      x y z
#    x 1.830490 0.000000 0.000000 
#    y 0.000000 1.862670 0.000000 
#    z 0.000000 0.000000 1.832750 
# 
# From -- ./inp_files/44037.got.cif
#   From: 2010.06.25/outbox.cif.g09.slc.cpg/sg52_23_cif.got.tgz:44037.got - 2010.06.26 19:32:48.
