data_PCOD8216679
_publ_section_title
;
Structure prediction by ZEFSAII (Michael W. Deem and Ramdas Pophale) SiO2 
 PCOD8216679
Probable space group: P N N A
;
_chemical_formula_sum "Si O2"
_cell_formula_units_Z 36
_cell_length_a 13.835005
_cell_length_b 8.048580
_cell_length_c 14.827384
_cell_angle_alpha 90.000000
_cell_angle_beta 90.000000
_cell_angle_gamma 90.000000
_cell_volume 1651.061006
_symmetry_space_group_name_H-M "P N N A"
_symmetry_group_IT_number 52
_symmetry_cell_setting 'orthorhombic'
loop_
_space_group_symop_operation_xyz
x,y,z
1/2-x,-y,z
x,1/2-y,1/2-z
1/2-x,1/2+y,1/2-z
-x,-y,-z
1/2+x,y,-z
-x,1/2+y,1/2+z
1/2+x,1/2-y,1/2+z
loop_
_atom_site_type_symbol
_atom_site_label
_atom_site_fract_x
_atom_site_fract_y
_atom_site_fract_z
Si Si1 0.550584 0.250000 0.250000
Si Si2 0.129961 0.584369 0.432231
Si Si3 0.579189 0.187260 0.061367
Si Si4 0.802125 0.657620 0.918104
Si Si5 0.422576 0.574181 0.252525
O O1 0.619312 0.221871 0.162653
O O2 0.485243 0.413295 0.229845
O O3 0.117718 0.493366 0.529101
O O4 0.230164 0.682577 0.423792
O O5 0.125092 0.444891 0.352353
O O6 0.036744 0.702444 0.423459
O O7 0.608788 0.320221 0.986688
O O8 0.750000 0.500000 0.960694
O O9 0.835590 0.605030 0.818153
O O10 0.482754 0.750000 0.250000
#
# Coordination Sequence:
#
# PCOD8216679 Si02
#       5
#     4   8   8   8   8
#     4  10  24  46  64  92 132 180 228 276 314 396
#     4  10  23  43  64  95 135 175 209 278 340 391
#     4  10  22  44  63  88 134 175 220 264 329 386
#     4  12  25  38  67 101 134 170 220 275 337 407
#     4  11  23  39  65 101 132 166 212 279 353 397
#
# _framework density 21.80416
#
# number of rings (size 3 to 8) (size 9 to 14) (size 15 to 20)
#    0.000    1.333    2.222    3.333    3.111    3.556 
#    0.000    2.222    0.000    2.667    0.000    0.000 
#    0.000    0.000    0.000    0.000    0.000    0.000 
#
# Total GULP energy -446022.259718 kJ/mol
# GULP energy per Si atom -12389.507214 kJ/mol
# Density = 2.175453 g / cm^3
# Si number density = 21.804160 Si / 1000 Ang^3
#
#
#
# Elastic Constant Matrix: (Units=GPa)
#
#
# Indices 1 2 3 4 5 6 
#
# 1 80.7874 25.7837 57.3819 0.0000 0.0000 0.0000
# 2 25.7837 146.1991 53.1794 0.0000 0.0000 0.0000
# 3 57.3819 53.1794 197.0183 0.0000 0.0000 0.0000
# 4 0.0000 0.0000 0.0000 36.7391 0.0000 0.0000
# 5 0.0000 0.0000 0.0000 0.0000 25.7756 0.0000
# 6 0.0000 0.0000 0.0000 0.0000 0.0000 28.0384
#
#
#
# Elastic Compliance Matrix: (Units=1/GPa)
#
#
# Indices 1 2 3 4 5 6 
#
# 1 0.015805 -0.001234 -0.004270 0.000000 0.000000 0.000000
# 2 -0.001234 0.007681 -0.001714 0.000000 0.000000 0.000000
# 3 -0.004270 -0.001714 0.006782 0.000000 0.000000 0.000000
# 4 0.000000 0.000000 0.000000 0.027219 0.000000 0.000000
# 5 0.000000 0.000000 0.000000 0.000000 0.038796 0.000000
# 6 0.000000 0.000000 0.000000 0.000000 0.000000 0.035665
#
#
# Mechanical properties :
#
#
# Convention : Reuss Voigt Hill
#
# Bulk Modulus (GPa) = 63.16379 77.41052 70.28716
# Shear Modulus (GPa) = 32.96799 37.28793 35.12796
#
# Velocity S-wave (km/s) = 3.89267 4.13986 4.01816
# Velocity P-wave (km/s) = 7.01679 7.64401 7.33711
#
# Compressibility (1/GPa) = 0.01583185
#
# Stress axis : x y z
#
# Youngs Moduli (GPa) = 63.27091 130.19070 147.45021
#
# Poissons Ratio (x) = 0.16067 0.62963
# Poissons Ratio (y) = 0.07809 0.25270
# Poissons Ratio (z) = 0.27017 0.22312
#
# Static dielectric constant tensor:
#      x y z
#    x 3.632070 0.000000 0.000000 
#    y 0.000000 4.314160 0.000000 
#    z 0.000000 0.000000 4.227710 
# 
# 
# High freq. dielectric constant tensor:
#      x y z
#    x 1.818980 0.000000 0.000000 
#    y 0.000000 1.874570 0.000000 
#    z 0.000000 0.000000 1.867410 
# 
# From -- ./inp_files/26772.got.cif
#   From: 2010.06.25/outbox.cif.g09.slc.cpg/sg52_14_cif.got.tgz:26772.got - 2010.06.26 19:32:48.
