data_PCOD8216849
_publ_section_title
;
Structure prediction by ZEFSAII (Michael W. Deem and Ramdas Pophale) SiO2 
 PCOD8216849
Probable space group: P N N A
;
_chemical_formula_sum "Si O2"
_cell_formula_units_Z 64
_cell_length_a 20.069242
_cell_length_b 8.466918
_cell_length_c 18.064590
_cell_angle_alpha 90.000000
_cell_angle_beta 90.000000
_cell_angle_gamma 90.000000
_cell_volume 3069.618706
_symmetry_space_group_name_H-M "P N N A"
_symmetry_group_IT_number 52
_symmetry_cell_setting 'orthorhombic'
loop_
_space_group_symop_operation_xyz
x,y,z
1/2-x,-y,z
x,1/2-y,1/2-z
1/2-x,1/2+y,1/2-z
-x,-y,-z
1/2+x,y,-z
-x,1/2+y,1/2+z
1/2+x,1/2-y,1/2+z
loop_
_atom_site_type_symbol
_atom_site_label
_atom_site_fract_x
_atom_site_fract_y
_atom_site_fract_z
Si Si1 0.114857 0.157063 0.587232
Si Si2 0.514512 0.585843 0.421441
Si Si3 0.507256 0.714615 0.663331
Si Si4 0.624245 0.189432 0.931068
Si Si5 0.743157 0.184900 0.329944
Si Si6 0.355989 0.294552 0.941098
Si Si7 0.771790 0.820499 0.674373
Si Si8 0.848971 0.171638 0.901683
O O1 0.123795 0.270201 0.517234
O O2 0.167938 0.225771 0.646107
O O3 0.040951 0.162395 0.621611
O O4 0.127626 0.977589 0.565991
O O5 0.500000 0.500000 0.500000
O O6 0.521504 0.459538 0.355039
O O7 0.451985 0.699131 0.402399
O O8 0.580250 0.688607 0.423746
O O9 0.507261 0.750000 0.750000
O O10 0.581148 0.731940 0.630981
O O11 0.670053 0.312672 0.886910
O O12 0.652124 0.013641 0.918848
O O13 0.759839 0.250000 0.250000
O O14 0.796511 0.258287 0.386978
O O15 0.750000 0.000000 0.328490
O O16 0.331665 0.267506 0.024335
O O17 0.802053 0.750000 0.750000
O O18 0.708640 0.710742 0.656153
O O19 0.750000 0.000000 0.683357
#
# Coordination Sequence:
#
# PCOD8216849 Si02
#       8
#     8   8   8   8   8   8   8   8
#     4  11  22  39  63  98 129 168 220 273 329 397
#     4  11  21  45  64  95 130 167 221 274 325 403
#     4  11  23  40  66  95 130 169 218 272 334 394
#     4  11  22  41  68  94 127 172 220 268 331 403
#     4  10  24  41  58  90 128 167 213 269 327 392
#     4  11  22  39  67  92 129 170 219 272 329 397
#     4  12  26  43  63  94 133 173 222 279 334 401
#     4  11  22  42  65  93 127 173 219 268 332 395
#
# _framework density 20.849494
#
# number of rings (size 3 to 8) (size 9 to 14) (size 15 to 20)
#    0.000    1.000    3.750    3.375    0.000    9.000 
#    0.000    0.625    0.000    0.000    0.000    0.000 
#    0.000    0.000    0.000    0.000    0.000    0.000 
#
# Total GULP energy -793790.007842 kJ/mol
# GULP energy per Si atom -12402.968873 kJ/mol
# Density = 2.080204 g / cm^3
# Si number density = 20.849494 Si / 1000 Ang^3
#
#
#
# Elastic Constant Matrix: (Units=GPa)
#
#
# Indices 1 2 3 4 5 6 
#
# 1 101.2752 26.6341 34.7933 0.0000 0.0000 0.0000
# 2 26.6341 70.2712 38.6782 0.0000 0.0000 0.0000
# 3 34.7933 38.6782 144.7166 0.0000 0.0000 0.0000
# 4 0.0000 0.0000 0.0000 36.7404 0.0000 0.0000
# 5 0.0000 0.0000 0.0000 0.0000 11.5489 0.0000
# 6 0.0000 0.0000 0.0000 0.0000 0.0000 38.2017
#
#
#
# Elastic Compliance Matrix: (Units=1/GPa)
#
#
# Indices 1 2 3 4 5 6 
#
# 1 0.011377 -0.003291 -0.001856 0.000000 0.000000 0.000000
# 2 -0.003291 0.017637 -0.003923 0.000000 0.000000 0.000000
# 3 -0.001856 -0.003923 0.008405 0.000000 0.000000 0.000000
# 4 0.000000 0.000000 0.000000 0.027218 0.000000 0.000000
# 5 0.000000 0.000000 0.000000 0.000000 0.086589 0.000000
# 6 0.000000 0.000000 0.000000 0.000000 0.000000 0.026177
#
#
# Mechanical properties :
#
#
# Convention : Reuss Voigt Hill
#
# Bulk Modulus (GPa) = 51.86628 57.38601 54.62614
# Shear Modulus (GPa) = 24.75652 31.70870 28.23261
#
# Velocity S-wave (km/s) = 3.44959 3.90402 3.68382
# Velocity P-wave (km/s) = 6.38724 6.92138 6.65967
#
# Compressibility (1/GPa) = 0.01928035
#
# Stress axis : x y z
#
# Youngs Moduli (GPa) = 87.89620 56.69943 118.98192
#
# Poissons Ratio (x) = 0.18658 0.22081
# Poissons Ratio (y) = 0.28924 0.46672
# Poissons Ratio (z) = 0.16312 0.22241
#
# Static dielectric constant tensor:
#      x y z
#    x 4.196370 0.000000 0.000000 
#    y 0.000000 3.820920 0.000000 
#    z 0.000000 0.000000 3.760450 
# 
# 
# High freq. dielectric constant tensor:
#      x y z
#    x 1.833230 0.000000 0.000000 
#    y 0.000000 1.815010 0.000000 
#    z 0.000000 0.000000 1.818510 
# 
# From -- ./inp_files/34104.got.cif
#   From: 2010.06.25/outbox.cif.g09.slc.cpg/sg52_18_cif.got.tgz:34104.got - 2010.06.26 19:32:48.
