data_PCOD8216902
_publ_section_title
;
Structure prediction by ZEFSAII (Michael W. Deem and Ramdas Pophale) SiO2 
 PCOD8216902
Probable space group: P N N A
;
_chemical_formula_sum "Si O2"
_cell_formula_units_Z 40
_cell_length_a 9.841572
_cell_length_b 14.505051
_cell_length_c 11.473194
_cell_angle_alpha 90.000000
_cell_angle_beta 90.000000
_cell_angle_gamma 90.000000
_cell_volume 1637.827170
_symmetry_space_group_name_H-M "P N N A"
_symmetry_group_IT_number 52
_symmetry_cell_setting 'orthorhombic'
loop_
_space_group_symop_operation_xyz
x,y,z
1/2-x,-y,z
x,1/2-y,1/2-z
1/2-x,1/2+y,1/2-z
-x,-y,-z
1/2+x,y,-z
-x,1/2+y,1/2+z
1/2+x,1/2-y,1/2+z
loop_
_atom_site_type_symbol
_atom_site_label
_atom_site_fract_x
_atom_site_fract_y
_atom_site_fract_z
Si Si1 0.962590 0.022749 0.368961
Si Si2 0.804124 0.595156 0.710196
Si Si3 0.013809 0.851765 0.224715
Si Si4 0.430171 0.710607 0.494500
Si Si5 0.816531 0.299594 0.124939
O O1 0.830716 0.089303 0.359459
O O2 0.091670 0.076410 0.314086
O O3 0.000000 0.000000 0.500000
O O4 0.931481 0.928708 0.297014
O O5 0.750000 0.500000 0.653284
O O6 0.672057 0.646900 0.761374
O O7 0.873125 0.656254 0.613828
O O8 0.953656 0.750000 0.250000
O O9 0.986559 0.865634 0.086790
O O10 0.554013 0.772884 0.453067
O O11 0.317338 0.776700 0.551455
O O12 0.817875 0.250000 0.250000
#
# Coordination Sequence:
#
# PCOD8216902 Si02
#       5
#     8   8   8   8   8
#     4  11  26  47  76 116 158 204 270 333 408 484
#     4  10  24  44  78 107 148 207 262 324 406 472
#     4  11  25  48  75 110 154 211 266 331 407 486
#     4  12  25  48  78 109 159 202 266 328 400 493
#     4  12  27  48  78 118 159 210 264 335 413 485
#
# _framework density 24.422602000000001
#
# number of rings (size 3 to 8) (size 9 to 14) (size 15 to 20)
#    0.000    0.800    4.000    1.800    2.800    8.000 
#    0.000    7.000    0.000    0.000    0.000    0.000 
#    0.000    0.000    0.000    0.000    0.000    0.000 
#
# Total GULP energy -495989.590723 kJ/mol
# GULP energy per Si atom -12399.739768 kJ/mol
# Density = 2.436701 g / cm^3
# Si number density = 24.422602 Si / 1000 Ang^3
#
#
#
# Elastic Constant Matrix: (Units=GPa)
#
#
# Indices 1 2 3 4 5 6 
#
# 1 130.3355 23.9812 47.6826 0.0000 0.0000 0.0000
# 2 23.9812 134.2461 59.8088 0.0000 0.0000 0.0000
# 3 47.6826 59.8088 153.7747 0.0000 0.0000 0.0000
# 4 0.0000 0.0000 0.0000 51.4722 0.0000 0.0000
# 5 0.0000 0.0000 0.0000 0.0000 41.4084 0.0000
# 6 0.0000 0.0000 0.0000 0.0000 0.0000 15.9685
#
#
#
# Elastic Compliance Matrix: (Units=1/GPa)
#
#
# Indices 1 2 3 4 5 6 
#
# 1 0.008674 -0.000425 -0.002524 0.000000 0.000000 0.000000
# 2 -0.000425 0.009031 -0.003381 0.000000 0.000000 0.000000
# 3 -0.002524 -0.003381 0.008601 0.000000 0.000000 0.000000
# 4 0.000000 0.000000 0.000000 0.019428 0.000000 0.000000
# 5 0.000000 0.000000 0.000000 0.000000 0.024150 0.000000
# 6 0.000000 0.000000 0.000000 0.000000 0.000000 0.062623
#
#
# Mechanical properties :
#
#
# Convention : Reuss Voigt Hill
#
# Bulk Modulus (GPa) = 73.28242 75.70016 74.49129
# Shear Modulus (GPa) = 33.39660 40.89542 37.14601
#
# Velocity S-wave (km/s) = 3.70191 4.09649 3.90419
# Velocity P-wave (km/s) = 6.95294 7.31015 7.13378
#
# Compressibility (1/GPa) = 0.01364584
#
# Stress axis : x y z
#
# Youngs Moduli (GPa) = 115.28381 110.72853 116.26910
#
# Poissons Ratio (x) = 0.04704 0.29352
# Poissons Ratio (y) = 0.04898 0.39308
# Poissons Ratio (z) = 0.29103 0.37435
#
# Static dielectric constant tensor:
#      x y z
#    x 4.697920 0.000000 0.000000 
#    y 0.000000 4.756180 0.000000 
#    z 0.000000 0.000000 4.760830 
# 
# 
# High freq. dielectric constant tensor:
#      x y z
#    x 1.990090 0.000000 0.000000 
#    y 0.000000 1.978300 0.000000 
#    z 0.000000 0.000000 1.979490 
# 
# From -- ./inp_files/17999.got.cif
#   From: 2010.06.25/outbox.cif.g09.slc.cpg/sg52_9_cif.got.tgz:17999.got - 2010.06.26 19:32:48.
