data_PCOD8216143
_publ_section_title
;
Structure prediction by ZEFSAII (Michael W. Deem and Ramdas Pophale) SiO2 
 PCOD8216143
Probable space group: P N N A
;
_chemical_formula_sum "Si O2"
_cell_formula_units_Z 56
_cell_length_a 12.948175
_cell_length_b 12.041050
_cell_length_c 15.501618
_cell_angle_alpha 90.000000
_cell_angle_beta 90.000000
_cell_angle_gamma 90.000000
_cell_volume 2416.851412
_symmetry_space_group_name_H-M "P N N A"
_symmetry_group_IT_number 52
_symmetry_cell_setting 'orthorhombic'
loop_
_space_group_symop_operation_xyz
x,y,z
1/2-x,-y,z
x,1/2-y,1/2-z
1/2-x,1/2+y,1/2-z
-x,-y,-z
1/2+x,y,-z
-x,1/2+y,1/2+z
1/2+x,1/2-y,1/2+z
loop_
_atom_site_type_symbol
_atom_site_label
_atom_site_fract_x
_atom_site_fract_y
_atom_site_fract_z
Si Si1 0.584974 0.313572 0.922772
Si Si2 0.051320 0.142328 0.790040
Si Si3 0.545032 0.576472 0.211166
Si Si4 0.130084 0.978367 0.531992
Si Si5 0.514072 0.625244 0.525715
Si Si6 0.299999 0.250270 0.494377
Si Si7 0.268907 0.124386 0.831548
O O1 0.546470 0.342967 0.825025
O O2 0.704748 0.279559 0.931499
O O3 0.563903 0.427155 0.979439
O O4 0.519465 0.205705 0.948168
O O5 0.994884 0.250000 0.750000
O O6 0.173443 0.143643 0.765418
O O7 0.054519 0.153319 0.892649
O O8 0.994311 0.028870 0.761307
O O9 0.605254 0.518070 0.132682
O O10 0.625043 0.637619 0.276250
O O11 0.117390 0.852019 0.497643
O O12 0.250000 0.000000 0.518010
O O13 0.500000 0.500000 0.500000
O O14 0.635350 0.647467 0.546210
O O15 0.267001 0.285024 0.591470
O O16 0.250000 0.000000 0.869872
#
# Coordination Sequence:
#
# PCOD8216143 Si02
#       7
#     8   8   8   8   8   8   8
#     4  11  24  43  69 101 145 190 250 301 373 455
#     4  11  24  39  68 100 146 184 236 307 388 434
#     4  11  22  38  64 101 144 183 237 308 373 445
#     4  10  21  37  63 102 133 182 236 293 363 437
#     4  12  25  44  69 103 140 198 246 299 385 469
#     4  11  24  41  72 102 142 190 250 300 367 459
#     4  10  22  40  64 106 146 184 232 311 382 441
#
# _framework density 23.170642000000001
#
# number of rings (size 3 to 8) (size 9 to 14) (size 15 to 20)
#    0.000    1.143    2.857    4.286    6.000    0.000 
#    2.571    0.000    0.000    5.143    0.000    0.000 
#    0.000    0.000    0.000    0.000    0.000    0.000 
#
# Total GULP energy -693950.541246 kJ/mol
# GULP energy per Si atom -12391.973951 kJ/mol
# Density = 2.311790 g / cm^3
# Si number density = 23.170642 Si / 1000 Ang^3
#
#
#
# Elastic Constant Matrix: (Units=GPa)
#
#
# Indices 1 2 3 4 5 6 
#
# 1 93.6297 62.5682 45.5620 0.0000 0.0000 0.0000
# 2 62.5682 148.0345 32.3763 0.0000 0.0000 0.0000
# 3 45.5620 32.3763 75.3795 0.0000 0.0000 0.0000
# 4 0.0000 0.0000 0.0000 45.4515 0.0000 0.0000
# 5 0.0000 0.0000 0.0000 0.0000 33.4396 0.0000
# 6 0.0000 0.0000 0.0000 0.0000 0.0000 34.4324
#
#
#
# Elastic Compliance Matrix: (Units=1/GPa)
#
#
# Indices 1 2 3 4 5 6 
#
# 1 0.019118 -0.006129 -0.008923 0.000000 0.000000 0.000000
# 2 -0.006129 0.009420 -0.000342 0.000000 0.000000 0.000000
# 3 -0.008923 -0.000342 0.018806 0.000000 0.000000 0.000000
# 4 0.000000 0.000000 0.000000 0.022001 0.000000 0.000000
# 5 0.000000 0.000000 0.000000 0.000000 0.029905 0.000000
# 6 0.000000 0.000000 0.000000 0.000000 0.000000 0.029042
#
#
# Mechanical properties :
#
#
# Convention : Reuss Voigt Hill
#
# Bulk Modulus (GPa) = 60.39586 66.45074 63.42330
# Shear Modulus (GPa) = 30.37657 34.43384 32.40521
#
# Velocity S-wave (km/s) = 3.62469 3.85918 3.74377
# Velocity P-wave (km/s) = 6.60607 6.97128 6.79113
#
# Compressibility (1/GPa) = 0.01655743
#
# Stress axis : x y z
#
# Youngs Moduli (GPa) = 52.30593 106.15325 53.17315
#
# Poissons Ratio (x) = 0.65061 0.47448
# Poissons Ratio (y) = 0.32058 0.01816
# Poissons Ratio (z) = 0.46674 0.03626
#
# Static dielectric constant tensor:
#      x y z
#    x 4.237090 0.000000 0.000000 
#    y 0.000000 4.774250 0.000000 
#    z 0.000000 0.000000 3.804060 
# 
# 
# High freq. dielectric constant tensor:
#      x y z
#    x 1.910570 0.000000 0.000000 
#    y 0.000000 1.943370 0.000000 
#    z 0.000000 0.000000 1.881480 
# 
# From -- ./inp_files/27279.got.cif
#   From: 2010.06.25/outbox.cif.g09.slc.cpg/sg52_14_cif.got.tgz:27279.got - 2010.06.26 19:32:48.
