data_PCOD8216298
_publ_section_title
;
Structure prediction by ZEFSAII (Michael W. Deem and Ramdas Pophale) SiO2 
 PCOD8216298
Probable space group: P N N A
;
_chemical_formula_sum "Si O2"
_cell_formula_units_Z 60
_cell_length_a 5.051663
_cell_length_b 27.865128
_cell_length_c 21.162153
_cell_angle_alpha 90.000000
_cell_angle_beta 90.000000
_cell_angle_gamma 90.000000
_cell_volume 2978.895464
_symmetry_space_group_name_H-M "P N N A"
_symmetry_group_IT_number 52
_symmetry_cell_setting 'orthorhombic'
loop_
_space_group_symop_operation_xyz
x,y,z
1/2-x,-y,z
x,1/2-y,1/2-z
1/2-x,1/2+y,1/2-z
-x,-y,-z
1/2+x,y,-z
-x,1/2+y,1/2+z
1/2+x,1/2-y,1/2+z
loop_
_atom_site_type_symbol
_atom_site_label
_atom_site_fract_x
_atom_site_fract_y
_atom_site_fract_z
Si Si1 0.184281 0.368629 0.141665
Si Si2 0.961853 0.250000 0.750000
Si Si3 0.174110 0.150250 0.719389
Si Si4 0.735505 0.055021 0.041831
Si Si5 0.195713 0.712347 0.041369
Si Si6 0.241909 0.299178 0.371014
Si Si7 0.241407 0.555917 0.039433
Si Si8 0.239579 0.137315 0.859313
O O1 0.388688 0.370505 0.199686
O O2 0.262075 0.325237 0.096690
O O3 0.198810 0.418647 0.105183
O O4 0.888700 0.361712 0.166547
O O5 0.774320 0.269192 0.693868
O O6 0.154573 0.207821 0.726268
O O7 0.255734 0.124970 0.784963
O O8 0.787397 0.088730 0.101976
O O9 0.750000 0.000000 0.065430
O O10 0.450213 0.065851 0.012163
O O11 0.225375 0.765617 0.068362
O O12 0.402392 0.704143 0.985069
O O13 0.452995 0.341751 0.375865
O O14 0.952204 0.321815 0.375422
O O15 0.250000 0.500000 0.054274
O O16 0.456826 0.571384 0.987181
#
# Coordination Sequence:
#
# PCOD8216298 Si02
#       8
#     8   4   8   8   8   8   8   8
#     4  12  23  40  60  89 120 164 203 255 294 367
#     4  10  22  42  60  86 116 174 216 250 284 374
#     4  11  24  37  64  86 123 160 214 241 301 351
#     4  10  22  42  69  93 119 159 202 247 309 380
#     4  12  25  38  55  85 122 157 197 247 308 350
#     4  11  24  38  61  85 121 163 201 253 297 363
#     4  10  21  40  65  89 117 157 206 256 308 366
#     4  11  24  40  61  94 120 157 201 255 300 357
#
# _framework density 20.141694000000001
#
# number of rings (size 3 to 8) (size 9 to 14) (size 15 to 20)
#    0.000    1.067    1.333    5.600    3.733    4.267 
#    0.000    1.333    0.000    0.000    0.000    0.000 
#    0.000    0.000    0.000    0.000    0.000    0.000 
#
# Total GULP energy -744405.820329 kJ/mol
# GULP energy per Si atom -12406.763672 kJ/mol
# Density = 2.009585 g / cm^3
# Si number density = 20.141694 Si / 1000 Ang^3
#
#
#
# Elastic Constant Matrix: (Units=GPa)
#
#
# Indices 1 2 3 4 5 6 
#
# 1 75.3454 18.6426 14.8727 0.0000 0.0000 0.0000
# 2 18.6426 90.3032 57.0244 0.0000 0.0000 0.0000
# 3 14.8727 57.0244 88.2356 0.0000 0.0000 0.0000
# 4 0.0000 0.0000 0.0000 36.6879 0.0000 0.0000
# 5 0.0000 0.0000 0.0000 0.0000 23.0951 0.0000
# 6 0.0000 0.0000 0.0000 0.0000 0.0000 22.9321
#
#
#
# Elastic Compliance Matrix: (Units=1/GPa)
#
#
# Indices 1 2 3 4 5 6 
#
# 1 0.014023 -0.002369 -0.000832 0.000000 0.000000 0.000000
# 2 -0.002369 0.019109 -0.011951 0.000000 0.000000 0.000000
# 3 -0.000832 -0.011951 0.019197 0.000000 0.000000 0.000000
# 4 0.000000 0.000000 0.000000 0.027257 0.000000 0.000000
# 5 0.000000 0.000000 0.000000 0.000000 0.043299 0.000000
# 6 0.000000 0.000000 0.000000 0.000000 0.000000 0.043607
#
#
# Mechanical properties :
#
#
# Convention : Reuss Voigt Hill
#
# Bulk Modulus (GPa) = 45.40377 48.32928 46.86652
# Shear Modulus (GPa) = 24.49316 27.43264 25.96290
#
# Velocity S-wave (km/s) = 3.49096 3.69451 3.59418
# Velocity P-wave (km/s) = 6.23219 6.49969 6.36734
#
# Compressibility (1/GPa) = 0.02202460
#
# Stress axis : x y z
#
# Youngs Moduli (GPa) = 71.31265 52.33006 52.09149
#
# Poissons Ratio (x) = 0.12398 0.04336
# Poissons Ratio (y) = 0.16896 0.62253
# Poissons Ratio (z) = 0.05936 0.62538
#
# Static dielectric constant tensor:
#      x y z
#    x 3.813340 0.000000 0.000000 
#    y 0.000000 3.633630 0.000000 
#    z 0.000000 0.000000 3.732240 
# 
# 
# High freq. dielectric constant tensor:
#      x y z
#    x 1.804350 0.000000 0.000000 
#    y 0.000000 1.775580 0.000000 
#    z 0.000000 0.000000 1.787930 
# 
# From -- ./inp_files/30346.got.cif
#   From: 2010.06.25/outbox.cif.g09.slc.cpg/sg52_16_cif.got.tgz:30346.got - 2010.06.26 19:32:48.
