data_PCOD8216094
_publ_section_title
;
Structure prediction by ZEFSAII (Michael W. Deem and Ramdas Pophale) SiO2 
 PCOD8216094
Probable space group: P N N A
;
_chemical_formula_sum "Si O2"
_cell_formula_units_Z 60
_cell_length_a 5.252751
_cell_length_b 25.442996
_cell_length_c 22.989194
_cell_angle_alpha 90.000000
_cell_angle_beta 90.000000
_cell_angle_gamma 90.000000
_cell_volume 3072.407446
_symmetry_space_group_name_H-M "P N N A"
_symmetry_group_IT_number 52
_symmetry_cell_setting 'orthorhombic'
loop_
_space_group_symop_operation_xyz
x,y,z
1/2-x,-y,z
x,1/2-y,1/2-z
1/2-x,1/2+y,1/2-z
-x,-y,-z
1/2+x,y,-z
-x,1/2+y,1/2+z
1/2+x,1/2-y,1/2+z
loop_
_atom_site_type_symbol
_atom_site_label
_atom_site_fract_x
_atom_site_fract_y
_atom_site_fract_z
Si Si1 0.750000 0.500000 0.754534
Si Si2 0.926721 0.814397 0.535176
Si Si3 0.030996 0.102729 0.253567
Si Si4 0.586079 0.309597 0.533973
Si Si5 0.992034 0.252645 0.683218
Si Si6 0.171212 0.855198 0.356562
Si Si7 0.520705 0.814143 0.158779
Si Si8 0.357791 0.551072 0.839862
O O1 0.856036 0.550894 0.719695
O O2 0.526400 0.521170 0.793657
O O3 0.695264 0.831075 0.492461
O O4 0.916179 0.752438 0.546970
O O5 0.894281 0.845072 0.596380
O O6 0.241161 0.134704 0.290175
O O7 0.917477 0.139448 0.203953
O O8 0.838795 0.086246 0.303912
O O9 0.355676 0.327045 0.492358
O O10 0.554079 0.338242 0.596130
O O11 0.079061 0.250000 0.750000
O O12 0.212771 0.284083 0.649870
O O13 0.999499 0.197096 0.649373
O O14 0.711223 0.277861 0.680655
O O15 0.014056 0.906828 0.378752
O O16 0.250000 0.500000 0.876632
#
# Coordination Sequence:
#
# PCOD8216094 Si02
#       8
#     4   8   8   8   8   8   8   8
#     4   8  18  38  56  86 114 146 194 236 288 354
#     4  10  23  36  54  77 108 154 206 243 276 336
#     4  10  21  36  59  88 116 152 186 241 300 355
#     4  10  21  39  55  75 111 161 204 244 278 334
#     4  12  24  35  51  87 128 158 185 231 300 365
#     4  11  22  35  57  80 115 153 194 238 297 349
#     4  12  24  37  56  87 122 157 197 235 288 361
#     4   9  19  36  59  83 112 145 192 239 296 354
#
# _framework density 19.528659999999999
#
# number of rings (size 3 to 8) (size 9 to 14) (size 15 to 20)
#    0.000    1.600    2.667    2.000    9.333    0.000 
#    0.000    0.000    0.000    0.800    0.000    0.933 
#    0.000    0.000    0.000    0.000    0.000    0.000 
#
# Total GULP energy -743418.181210 kJ/mol
# GULP energy per Si atom -12390.303020 kJ/mol
# Density = 1.948421 g / cm^3
# Si number density = 19.528660 Si / 1000 Ang^3
#
#
#
# Elastic Constant Matrix: (Units=GPa)
#
#
# Indices 1 2 3 4 5 6 
#
# 1 80.6933 19.0094 -0.3496 0.0000 0.0000 0.0000
# 2 19.0094 77.5093 12.4357 0.0000 0.0000 0.0000
# 3 -0.3496 12.4357 69.2580 0.0000 0.0000 0.0000
# 4 0.0000 0.0000 0.0000 6.7019 0.0000 0.0000
# 5 0.0000 0.0000 0.0000 0.0000 24.0700 0.0000
# 6 0.0000 0.0000 0.0000 0.0000 0.0000 23.5161
#
#
#
# Elastic Compliance Matrix: (Units=1/GPa)
#
#
# Indices 1 2 3 4 5 6 
#
# 1 0.013182 -0.003340 0.000666 0.000000 0.000000 0.000000
# 2 -0.003340 0.014131 -0.002554 0.000000 0.000000 0.000000
# 3 0.000666 -0.002554 0.014901 0.000000 0.000000 0.000000
# 4 0.000000 0.000000 0.000000 0.149213 0.000000 0.000000
# 5 0.000000 0.000000 0.000000 0.000000 0.041546 0.000000
# 6 0.000000 0.000000 0.000000 0.000000 0.000000 0.042524
#
#
# Mechanical properties :
#
#
# Convention : Reuss Voigt Hill
#
# Bulk Modulus (GPa) = 31.48802 32.18352 31.83577
# Shear Modulus (GPa) = 16.86129 23.94860 20.40494
#
# Velocity S-wave (km/s) = 2.94158 3.50570 3.23595
# Velocity P-wave (km/s) = 5.26271 5.73607 5.50448
#
# Compressibility (1/GPa) = 0.03175811
#
# Stress axis : x y z
#
# Youngs Moduli (GPa) = 75.85939 70.76852 67.11084
#
# Poissons Ratio (x) = 0.23636 -0.04471
# Poissons Ratio (y) = 0.25336 0.17141
# Poissons Ratio (z) = -0.05054 0.18075
#
# Static dielectric constant tensor:
#      x y z
#    x 3.717680 0.000000 0.000000 
#    y 0.000000 3.773550 0.000000 
#    z 0.000000 0.000000 3.313980 
# 
# 
# High freq. dielectric constant tensor:
#      x y z
#    x 1.779930 0.000000 0.000000 
#    y 0.000000 1.740780 0.000000 
#    z 0.000000 0.000000 1.725580 
# 
# From -- ./inp_files/35276.got.cif
#   From: 2010.06.25/outbox.cif.g09.slc.cpg/sg52_18_cif.got.tgz:35276.got - 2010.06.26 19:32:48.
