data_PCOD8216157
_publ_section_title
;
Structure prediction by ZEFSAII (Michael W. Deem and Ramdas Pophale) SiO2 
 PCOD8216157
Probable space group: P N N A
;
_chemical_formula_sum "Si O2"
_cell_formula_units_Z 40
_cell_length_a 13.568094
_cell_length_b 10.375853
_cell_length_c 14.153254
_cell_angle_alpha 90.000000
_cell_angle_beta 90.000000
_cell_angle_gamma 90.000000
_cell_volume 1992.502866
_symmetry_space_group_name_H-M "P N N A"
_symmetry_group_IT_number 52
_symmetry_cell_setting 'orthorhombic'
loop_
_space_group_symop_operation_xyz
x,y,z
1/2-x,-y,z
x,1/2-y,1/2-z
1/2-x,1/2+y,1/2-z
-x,-y,-z
1/2+x,y,-z
-x,1/2+y,1/2+z
1/2+x,1/2-y,1/2+z
loop_
_atom_site_type_symbol
_atom_site_label
_atom_site_fract_x
_atom_site_fract_y
_atom_site_fract_z
Si Si1 0.864669 0.751085 0.860147
Si Si2 0.047685 0.918646 0.919257
Si Si3 0.994342 0.613225 0.278222
Si Si4 0.574261 0.981107 0.586173
Si Si5 0.659097 0.704538 0.574631
O O1 0.844753 0.750000 0.750000
O O2 0.860472 0.608941 0.904911
O O3 0.772983 0.829061 0.905291
O O4 0.968804 0.816689 0.880599
O O5 0.079599 0.019562 0.836831
O O6 0.138915 0.845919 0.967964
O O7 0.000000 0.000000 0.000000
O O8 0.944137 0.750000 0.250000
O O9 0.016601 0.534141 0.184369
O O10 0.091340 0.640668 0.343093
O O11 0.643403 0.857916 0.571719
O O12 0.500000 0.000000 0.500000
#
# Coordination Sequence:
#
# PCOD8216157 Si02
#       5
#     8   8   8   8   8
#     4  12  22  37  63  95 120 159 205 261 312 367
#     4  10  21  38  57  88 123 162 199 251 308 374
#     4   9  19  36  56  85 120 161 199 248 306 359
#     4  11  20  35  58  91 124 159 196 253 310 364
#     4  10  22  37  58  94 124 153 201 256 310 365
#
# _framework density 20.075254999999999
#
# number of rings (size 3 to 8) (size 9 to 14) (size 15 to 20)
#    0.000    1.600    4.000    2.400    0.000    3.200 
#    0.000    0.000    0.000    0.000   46.800    0.000 
#    0.000    0.000    0.000    0.000    0.000    0.000 
#
# Total GULP energy -495707.358469 kJ/mol
# GULP energy per Si atom -12392.683962 kJ/mol
# Density = 2.002956 g / cm^3
# Si number density = 20.075255 Si / 1000 Ang^3
#
#
#
# Elastic Constant Matrix: (Units=GPa)
#
#
# Indices 1 2 3 4 5 6 
#
# 1 69.2304 20.5015 53.2821 0.0000 0.0000 0.0000
# 2 20.5015 97.7416 56.2359 0.0000 0.0000 0.0000
# 3 53.2821 56.2359 135.4594 0.0000 0.0000 0.0000
# 4 0.0000 0.0000 0.0000 48.6649 0.0000 0.0000
# 5 0.0000 0.0000 0.0000 0.0000 22.1693 0.0000
# 6 0.0000 0.0000 0.0000 0.0000 0.0000 15.7730
#
#
#
# Elastic Compliance Matrix: (Units=1/GPa)
#
#
# Indices 1 2 3 4 5 6 
#
# 1 0.020731 0.000451 -0.008342 0.000000 0.000000 0.000000
# 2 0.000451 0.013452 -0.005762 0.000000 0.000000 0.000000
# 3 -0.008342 -0.005762 0.013055 0.000000 0.000000 0.000000
# 4 0.000000 0.000000 0.000000 0.020549 0.000000 0.000000
# 5 0.000000 0.000000 0.000000 0.000000 0.045107 0.000000
# 6 0.000000 0.000000 0.000000 0.000000 0.000000 0.063400
#
#
# Mechanical properties :
#
#
# Convention : Reuss Voigt Hill
#
# Bulk Modulus (GPa) = 50.16781 62.49671 56.33226
# Shear Modulus (GPa) = 23.78203 28.81556 26.29879
#
# Velocity S-wave (km/s) = 3.44560 3.79275 3.62333
# Velocity P-wave (km/s) = 6.39325 7.09780 6.75472
#
# Compressibility (1/GPa) = 0.01993310
#
# Stress axis : x y z
#
# Youngs Moduli (GPa) = 48.23699 74.34095 76.59649
#
# Poissons Ratio (x) = -0.03353 0.63894
# Poissons Ratio (y) = -0.02176 0.44133
# Poissons Ratio (z) = 0.40238 0.42834
#
# Static dielectric constant tensor:
#      x y z
#    x 3.242480 0.000000 0.000000 
#    y 0.000000 4.234620 0.000000 
#    z 0.000000 0.000000 4.399760 
# 
# 
# High freq. dielectric constant tensor:
#      x y z
#    x 1.726300 0.000000 0.000000 
#    y 0.000000 1.809660 0.000000 
#    z 0.000000 0.000000 1.795830 
# 
# From -- ./inp_files/25827.got.cif
#   From: 2010.06.25/outbox.cif.g09.slc.cpg/sg52_13_cif.got.tgz:25827.got - 2010.06.26 19:32:48.
