data_PCOD8216493
_publ_section_title
;
Structure prediction by ZEFSAII (Michael W. Deem and Ramdas Pophale) SiO2 
 PCOD8216493
Probable space group: P N N A
;
_chemical_formula_sum "Si O2"
_cell_formula_units_Z 56
_cell_length_a 19.405569
_cell_length_b 8.632999
_cell_length_c 17.541439
_cell_angle_alpha 90.000000
_cell_angle_beta 90.000000
_cell_angle_gamma 90.000000
_cell_volume 2938.686714
_symmetry_space_group_name_H-M "P N N A"
_symmetry_group_IT_number 52
_symmetry_cell_setting 'orthorhombic'
loop_
_space_group_symop_operation_xyz
x,y,z
1/2-x,-y,z
x,1/2-y,1/2-z
1/2-x,1/2+y,1/2-z
-x,-y,-z
1/2+x,y,-z
-x,1/2+y,1/2+z
1/2+x,1/2-y,1/2+z
loop_
_atom_site_type_symbol
_atom_site_label
_atom_site_fract_x
_atom_site_fract_y
_atom_site_fract_z
Si Si1 0.141400 0.654645 0.945026
Si Si2 0.321723 0.578278 0.072400
Si Si3 0.424973 0.543015 0.819558
Si Si4 0.723468 0.162531 0.034907
Si Si5 0.395523 0.874569 0.845821
Si Si6 0.443388 0.836680 0.328479
Si Si7 0.975390 0.384948 0.434950
O O1 0.122749 0.576096 0.865001
O O2 0.215498 0.731133 0.932705
O O3 0.085021 0.780115 0.970336
O O4 0.140951 0.526802 0.010105
O O5 0.250000 0.500000 0.098718
O O6 0.371071 0.588319 0.145765
O O7 0.312160 0.748322 0.035241
O O8 0.432764 0.709325 0.861041
O O9 0.383209 0.583495 0.742516
O O10 0.500741 0.470284 0.811211
O O11 0.674524 0.123453 0.106079
O O12 0.750000 0.000000 0.000955
O O13 0.446661 0.010634 0.867950
O O14 0.429376 0.750000 0.250000
O O15 0.466046 0.723189 0.397666
O O16 0.000000 0.500000 0.500000
#
# Coordination Sequence:
#
# PCOD8216493 Si02
#       7
#     8   8   8   8   8   8   8
#     4  10  22  39  61  89 128 164 212 258 307 376
#     4  10  23  43  66  89 120 163 213 256 318 378
#     4  10  23  39  60  90 129 165 207 252 309 382
#     4  11  21  40  60  89 128 165 207 262 303 364
#     4  11  21  40  57  90 128 164 206 253 307 379
#     4  11  23  43  67  89 126 165 201 266 322 370
#     4  11  23  36  63  95 122 163 215 256 312 369
#
# _framework density 19.05613
#
# number of rings (size 3 to 8) (size 9 to 14) (size 15 to 20)
#    0.000    1.429    4.286    0.857    2.000    1.143 
#    5.143    0.714    3.143    0.000    0.000    0.000 
#    0.000    0.000    0.000    0.000    0.000    0.000 
#
# Total GULP energy -694335.871783 kJ/mol
# GULP energy per Si atom -12398.854853 kJ/mol
# Density = 1.901276 g / cm^3
# Si number density = 19.056130 Si / 1000 Ang^3
#
#
#
# Elastic Constant Matrix: (Units=GPa)
#
#
# Indices 1 2 3 4 5 6 
#
# 1 77.6807 18.1586 39.1900 0.0000 0.0000 0.0000
# 2 18.1586 106.8182 25.1487 0.0000 0.0000 0.0000
# 3 39.1900 25.1487 66.2960 0.0000 0.0000 0.0000
# 4 0.0000 0.0000 0.0000 32.0456 0.0000 0.0000
# 5 0.0000 0.0000 0.0000 0.0000 30.3906 0.0000
# 6 0.0000 0.0000 0.0000 0.0000 0.0000 34.0483
#
#
#
# Elastic Compliance Matrix: (Units=1/GPa)
#
#
# Indices 1 2 3 4 5 6 
#
# 1 0.018381 -0.000622 -0.010630 0.000000 0.000000 0.000000
# 2 -0.000622 0.010301 -0.003540 0.000000 0.000000 0.000000
# 3 -0.010630 -0.003540 0.022710 0.000000 0.000000 0.000000
# 4 0.000000 0.000000 0.000000 0.031205 0.000000 0.000000
# 5 0.000000 0.000000 0.000000 0.000000 0.032905 0.000000
# 6 0.000000 0.000000 0.000000 0.000000 0.000000 0.029370
#
#
# Mechanical properties :
#
#
# Convention : Reuss Voigt Hill
#
# Bulk Modulus (GPa) = 45.85257 46.19883 46.02570
# Shear Modulus (GPa) = 27.51388 30.51675 29.01531
#
# Velocity S-wave (km/s) = 3.80390 4.00611 3.90631
# Velocity P-wave (km/s) = 6.58840 6.75979 6.67464
#
# Compressibility (1/GPa) = 0.02180903
#
# Stress axis : x y z
#
# Youngs Moduli (GPa) = 54.40268 97.07947 44.03275
#
# Poissons Ratio (x) = 0.06039 0.46807
# Poissons Ratio (y) = 0.03384 0.15587
# Poissons Ratio (z) = 0.57830 0.34364
#
# Static dielectric constant tensor:
#      x y z
#    x 3.611650 0.000000 0.000000 
#    y 0.000000 4.045620 0.000000 
#    z 0.000000 0.000000 1.143200 
# 
# 
# High freq. dielectric constant tensor:
#      x y z
#    x 1.735720 0.000000 0.000000 
#    y 0.000000 1.766380 0.000000 
#    z 0.000000 0.000000 1.723110 
# 
# From -- ./inp_files/28782.got.cif
#   From: 2010.06.25/outbox.cif.g09.slc.cpg/sg52_15_cif.got.tgz:28782.got - 2010.06.26 19:32:48.
