data_PCOD8216906
_publ_section_title
;
Structure prediction by ZEFSAII (Michael W. Deem and Ramdas Pophale) SiO2 
 PCOD8216906
Probable space group: P N N A
;
_chemical_formula_sum "Si O2"
_cell_formula_units_Z 32
_cell_length_a 10.216994
_cell_length_b 16.833965
_cell_length_c 7.566870
_cell_angle_alpha 90.000000
_cell_angle_beta 90.000000
_cell_angle_gamma 90.000000
_cell_volume 1301.445035
_symmetry_space_group_name_H-M "P N N A"
_symmetry_group_IT_number 52
_symmetry_cell_setting 'orthorhombic'
loop_
_space_group_symop_operation_xyz
x,y,z
1/2-x,-y,z
x,1/2-y,1/2-z
1/2-x,1/2+y,1/2-z
-x,-y,-z
1/2+x,y,-z
-x,1/2+y,1/2+z
1/2+x,1/2-y,1/2+z
loop_
_atom_site_type_symbol
_atom_site_label
_atom_site_fract_x
_atom_site_fract_y
_atom_site_fract_z
Si Si1 0.472836 0.906697 0.637181
Si Si2 0.597440 0.315189 0.482658
Si Si3 0.844238 0.276079 0.946807
Si Si4 0.872769 0.553104 0.781862
O O1 0.411287 0.854497 0.790961
O O2 0.610507 0.868781 0.561796
O O3 0.366894 0.907760 0.477355
O O4 0.500065 0.995020 0.713832
O O5 0.709379 0.247746 0.456882
O O6 0.462661 0.272873 0.535890
O O7 0.622927 0.379693 0.633553
O O8 0.817947 0.250000 0.750000
O O9 0.750000 0.500000 0.733754
#
# Coordination Sequence:
#
# PCOD8216906 Si02
#       4
#     8   8   8   8
#     4  10  25  45  65 110 140 190 246 299 361 448
#     4  11  24  46  74  99 145 192 235 306 366 430
#     4  10  24  45  70 107 143 182 252 294 361 441
#     4  11  24  43  72 100 148 185 242 304 366 433
#
# _framework density 24.588055000000001
#
# number of rings (size 3 to 8) (size 9 to 14) (size 15 to 20)
#    0.000    1.500    0.000    3.750    7.000    5.000 
#    9.000    0.000    0.000    0.000    0.000    0.000 
#    0.000    0.000    0.000    0.000    0.000    0.000 
#
# Total GULP energy -396606.985507 kJ/mol
# GULP energy per Si atom -12393.968297 kJ/mol
# Density = 2.453209 g / cm^3
# Si number density = 24.588055 Si / 1000 Ang^3
#
#
#
# Elastic Constant Matrix: (Units=GPa)
#
#
# Indices 1 2 3 4 5 6 
#
# 1 104.8194 19.6422 31.0393 0.0000 0.0000 0.0000
# 2 19.6422 120.9521 33.6016 0.0000 0.0000 0.0000
# 3 31.0393 33.6016 89.3225 0.0000 0.0000 0.0000
# 4 0.0000 0.0000 0.0000 47.2543 0.0000 0.0000
# 5 0.0000 0.0000 0.0000 0.0000 -4.5865 0.0000
# 6 0.0000 0.0000 0.0000 0.0000 0.0000 -112.8830
#
#
#
# Elastic Compliance Matrix: (Units=1/GPa)
#
#
# Indices 1 2 3 4 5 6 
#
# 1 0.010701 -0.000787 -0.003423 0.000000 0.000000 0.000000
# 2 -0.000787 0.009290 -0.003221 0.000000 0.000000 0.000000
# 3 -0.003423 -0.003221 0.013597 0.000000 0.000000 0.000000
# 4 0.000000 0.000000 0.000000 0.021162 0.000000 0.000000
# 5 0.000000 0.000000 0.000000 0.000000 -0.218032 0.000000
# 6 0.000000 0.000000 0.000000 0.000000 0.000000 -0.008859
#
#
# Mechanical properties :
#
#
# Convention : Reuss Voigt Hill
#
# Bulk Modulus (GPa) = 53.40111 53.74003 53.57057
# Shear Modulus (GPa) = -33.10465 1.34435 -15.88015
#
# Velocity S-wave (km/s) = -3.67327 0.74023 -2.54411
# Velocity P-wave (km/s) = 1.94290 4.75754 3.63380
#
# Compressibility (1/GPa) = 0.01872620
#
# Stress axis : x y z
#
# Youngs Moduli (GPa) = 93.44747 107.63692 73.54791
#
# Poissons Ratio (x) = 0.08471 0.25172
# Poissons Ratio (y) = 0.07354 0.23693
# Poissons Ratio (z) = 0.31983 0.34675
#
# Static dielectric constant tensor:
#      x y z
#    x 4.602580 0.000000 0.000000 
#    y 0.000000 4.877580 0.000000 
#    z 0.000000 0.000000 4.320000 
# 
# 
# High freq. dielectric constant tensor:
#      x y z
#    x 1.974820 0.000000 0.000000 
#    y 0.000000 2.003540 0.000000 
#    z 0.000000 0.000000 1.973520 
# 
# From -- ./inp_files/7195.got.cif
#   From: 2010.06.25/outbox.cif.g09.slc.cpg/sg52_4_cif.got.tgz:7195.got - 2010.06.26 19:32:48.
