data_PCOD8216764
_publ_section_title
;
Structure prediction by ZEFSAII (Michael W. Deem and Ramdas Pophale) SiO2 
 PCOD8216764
Probable space group: P N N A
;
_chemical_formula_sum "Si O2"
_cell_formula_units_Z 40
_cell_length_a 28.783225
_cell_length_b 5.134281
_cell_length_c 12.769427
_cell_angle_alpha 90.000000
_cell_angle_beta 90.000000
_cell_angle_gamma 90.000000
_cell_volume 1887.080801
_symmetry_space_group_name_H-M "P N N A"
_symmetry_group_IT_number 52
_symmetry_cell_setting 'orthorhombic'
loop_
_space_group_symop_operation_xyz
x,y,z
1/2-x,-y,z
x,1/2-y,1/2-z
1/2-x,1/2+y,1/2-z
-x,-y,-z
1/2+x,y,-z
-x,1/2+y,1/2+z
1/2+x,1/2-y,1/2+z
loop_
_atom_site_type_symbol
_atom_site_label
_atom_site_fract_x
_atom_site_fract_y
_atom_site_fract_z
Si Si1 0.372100 0.652692 0.527573
Si Si2 0.464609 0.894746 0.084077
Si Si3 0.086721 0.750000 0.250000
Si Si4 0.841407 0.374596 0.916805
Si Si5 0.028618 0.750000 0.750000
Si Si6 0.750000 0.000000 0.690596
Si Si7 0.592931 0.250000 0.250000
O O1 0.422282 0.729771 0.479189
O O2 0.356070 0.364866 0.492745
O O3 0.373412 0.703087 0.651373
O O4 0.336626 0.863391 0.483682
O O5 0.495833 0.693001 0.149386
O O6 0.446207 0.093518 0.171939
O O7 0.500000 0.000000 0.000000
O O8 0.121367 0.579714 0.176971
O O9 0.789701 0.342627 0.872670
O O10 0.060687 0.500237 0.749091
O O11 0.726786 0.250000 0.750000
#
# Coordination Sequence:
#
# PCOD8216764 Si02
#       7
#     8   8   4   8   4   4   4
#     4  11  25  43  64  94 134 179 222 272 335 383
#     4  11  23  39  60  91 130 183 228 281 321 384
#     4  10  23  42  58  97 138 176 217 274 334 393
#     4  11  24  44  69  99 138 170 206 271 347 408
#     4  12  24  40  60  91 125 178 238 284 328 368
#     4  12  24  42  76 110 138 166 212 264 346 432
#     4  12  25  42  66  90 127 178 237 284 312 387
#
# _framework density 21.196760000000001
#
# number of rings (size 3 to 8) (size 9 to 14) (size 15 to 20)
#    0.000    0.800    3.000    4.200    5.600    2.400 
#    0.000    0.000    0.000    2.400    0.000    0.000 
#    0.000    0.000    0.000    0.000    0.000    0.000 
#
# Total GULP energy -495567.799019 kJ/mol
# GULP energy per Si atom -12389.194975 kJ/mol
# Density = 2.114852 g / cm^3
# Si number density = 21.196760 Si / 1000 Ang^3
#
#
#
# Elastic Constant Matrix: (Units=GPa)
#
#
# Indices 1 2 3 4 5 6 
#
# 1 78.9718 14.7918 38.7756 0.0000 0.0000 0.0000
# 2 14.7918 98.5369 28.0439 0.0000 0.0000 0.0000
# 3 38.7756 28.0439 146.5532 0.0000 0.0000 0.0000
# 4 0.0000 0.0000 0.0000 35.9151 0.0000 0.0000
# 5 0.0000 0.0000 0.0000 0.0000 4.1410 0.0000
# 6 0.0000 0.0000 0.0000 0.0000 0.0000 2.2444
#
#
#
# Elastic Compliance Matrix: (Units=1/GPa)
#
#
# Indices 1 2 3 4 5 6 
#
# 1 0.014678 -0.001161 -0.003661 0.000000 0.000000 0.000000
# 2 -0.001161 0.010825 -0.001764 0.000000 0.000000 0.000000
# 3 -0.003661 -0.001764 0.008130 0.000000 0.000000 0.000000
# 4 0.000000 0.000000 0.000000 0.027843 0.000000 0.000000
# 5 0.000000 0.000000 0.000000 0.000000 0.241487 0.000000
# 6 0.000000 0.000000 0.000000 0.000000 0.000000 0.445555
#
#
# Mechanical properties :
#
#
# Convention : Reuss Voigt Hill
#
# Bulk Modulus (GPa) = 48.87819 54.14273 51.51046
# Shear Modulus (GPa) = 6.50609 24.62348 15.56479
#
# Velocity S-wave (km/s) = 1.75387 3.41201 2.71274
# Velocity P-wave (km/s) = 5.21639 6.41255 5.84515
#
# Compressibility (1/GPa) = 0.02045902
#
# Stress axis : x y z
#
# Youngs Moduli (GPa) = 68.12908 92.37967 123.00469
#
# Poissons Ratio (x) = 0.10729 0.45036
# Poissons Ratio (y) = 0.07912 0.21700
# Poissons Ratio (z) = 0.24944 0.16297
#
# Static dielectric constant tensor:
#      x y z
#    x 3.588380 0.000000 0.000000 
#    y 0.000000 4.181390 0.000000 
#    z 0.000000 0.000000 4.202750 
# 
# 
# High freq. dielectric constant tensor:
#      x y z
#    x 1.819240 0.000000 0.000000 
#    y 0.000000 1.831260 0.000000 
#    z 0.000000 0.000000 1.840450 
# 
# From -- ./inp_files/22721.got.cif
#   From: 2010.06.25/outbox.cif.g09.slc.cpg/sg52_12_cif.got.tgz:22721.got - 2010.06.26 19:32:48.
