data_PCOD8216034
_publ_section_title
;
Structure prediction by ZEFSAII (Michael W. Deem and Ramdas Pophale) SiO2 
 PCOD8216034
Probable space group: P N N A
;
_chemical_formula_sum "Si O2"
_cell_formula_units_Z 56
_cell_length_a 15.519932
_cell_length_b 26.800932
_cell_length_c 6.237861
_cell_angle_alpha 90.000000
_cell_angle_beta 90.000000
_cell_angle_gamma 90.000000
_cell_volume 2594.629813
_symmetry_space_group_name_H-M "P N N A"
_symmetry_group_IT_number 52
_symmetry_cell_setting 'orthorhombic'
loop_
_space_group_symop_operation_xyz
x,y,z
1/2-x,-y,z
x,1/2-y,1/2-z
1/2-x,1/2+y,1/2-z
-x,-y,-z
1/2+x,y,-z
-x,1/2+y,1/2+z
1/2+x,1/2-y,1/2+z
loop_
_atom_site_type_symbol
_atom_site_label
_atom_site_fract_x
_atom_site_fract_y
_atom_site_fract_z
Si Si1 0.911637 0.096000 0.683167
Si Si2 0.830268 0.201741 0.352800
Si Si3 0.587347 0.494207 0.623422
Si Si4 0.473179 0.332248 0.538406
Si Si5 0.933144 0.608389 0.856124
Si Si6 0.580641 0.750000 0.750000
Si Si7 0.244753 0.105525 0.566581
Si Si8 0.250000 0.500000 0.685057
O O1 0.933570 0.120311 0.912196
O O2 0.814158 0.110608 0.624563
O O3 0.979411 0.110083 0.496301
O O4 0.909479 0.036749 0.699191
O O5 0.783758 0.250000 0.250000
O O6 0.858315 0.215087 0.598832
O O7 0.768947 0.154643 0.298081
O O8 0.916183 0.190252 0.224850
O O9 0.500000 0.500000 0.500000
O O10 0.589347 0.444256 0.755514
O O11 0.665992 0.497691 0.459726
O O12 0.558913 0.352039 0.659625
O O13 0.485611 0.286747 0.373133
O O14 0.851663 0.619733 0.001685
O O15 0.252755 0.051196 0.676905
#
# Coordination Sequence:
#
# PCOD8216034 Si02
#       8
#     8   8   8   8   8   4   8   4
#     4  12  23  45  68  98 141 189 228 292 356 415
#     4  10  22  43  76  99 130 185 240 285 362 434
#     4  12  23  41  66  98 139 187 234 280 349 424
#     4  11  21  42  71 100 133 178 239 288 359 422
#     4  12  25  41  67 108 139 184 241 293 351 438
#     4  10  20  42  76  98 128 178 236 298 358 434
#     4  12  24  44  70 101 145 186 236 296 356 429
#     4  12  26  44  70 106 144 194 236 298 360 430
#
# _framework density 21.583041000000001
#
# number of rings (size 3 to 8) (size 9 to 14) (size 15 to 20)
#    0.000    0.571    4.286    4.714    0.000    0.000 
#    0.000    0.000   20.429    0.000    0.000    0.000 
#    0.000    0.000    0.000    0.000    0.000    0.000 
#
# Total GULP energy -693804.534548 kJ/mol
# GULP energy per Si atom -12389.366688 kJ/mol
# Density = 2.153392 g / cm^3
# Si number density = 21.583041 Si / 1000 Ang^3
#
#
#
# Elastic Constant Matrix: (Units=GPa)
#
#
# Indices 1 2 3 4 5 6 
#
# 1 61.3823 17.1423 22.8068 0.0000 0.0000 0.0000
# 2 17.1423 170.3492 47.0547 0.0000 0.0000 0.0000
# 3 22.8068 47.0547 98.5385 0.0000 0.0000 0.0000
# 4 0.0000 0.0000 0.0000 46.9721 0.0000 0.0000
# 5 0.0000 0.0000 0.0000 0.0000 -22.5161 0.0000
# 6 0.0000 0.0000 0.0000 0.0000 0.0000 80.3832
#
#
#
# Elastic Compliance Matrix: (Units=1/GPa)
#
#
# Indices 1 2 3 4 5 6 
#
# 1 0.017909 -0.000757 -0.003783 0.000000 0.000000 0.000000
# 2 -0.000757 0.006794 -0.003069 0.000000 0.000000 0.000000
# 3 -0.003783 -0.003069 0.012490 0.000000 0.000000 0.000000
# 4 0.000000 0.000000 0.000000 0.021289 0.000000 0.000000
# 5 0.000000 0.000000 0.000000 0.000000 -0.044413 0.000000
# 6 0.000000 0.000000 0.000000 0.000000 0.000000 0.012440
#
#
# Mechanical properties :
#
#
# Convention : Reuss Voigt Hill
#
# Bulk Modulus (GPa) = 45.51037 56.03082 50.77059
# Shear Modulus (GPa) = 101.93014 37.18558 69.55786
#
# Velocity S-wave (km/s) = 6.87964 4.15530 5.68313
# Velocity P-wave (km/s) = 9.17812 7.00278 8.16324
#
# Compressibility (1/GPa) = 0.02197301
#
# Stress axis : x y z
#
# Youngs Moduli (GPa) = 55.83933 147.18280 80.06642
#
# Poissons Ratio (x) = 0.11143 0.30293
# Poissons Ratio (y) = 0.04227 0.24574
# Poissons Ratio (z) = 0.21126 0.45174
#
# Static dielectric constant tensor:
#      x y z
#    x 3.758340 0.000000 0.000000 
#    y 0.000000 4.714310 0.000000 
#    z 0.000000 0.000000 3.977660 
# 
# 
# High freq. dielectric constant tensor:
#      x y z
#    x 1.824460 0.000000 0.000000 
#    y 0.000000 1.878480 0.000000 
#    z 0.000000 0.000000 1.855630 
# 
# From -- ./inp_files/2663.got.cif
#   From: 2010.06.25/outbox.cif.g09.slc.cpg/sg52_2_cif.got.tgz:2663.got - 2010.06.26 19:32:48.
