data_PCOD8216072
_publ_section_title
;
Structure prediction by ZEFSAII (Michael W. Deem and Ramdas Pophale) SiO2 
 PCOD8216072
Probable space group: P N N A
;
_chemical_formula_sum "Si O2"
_cell_formula_units_Z 56
_cell_length_a 23.498554
_cell_length_b 8.581175
_cell_length_c 13.694096
_cell_angle_alpha 90.000000
_cell_angle_beta 90.000000
_cell_angle_gamma 90.000000
_cell_volume 2761.348783
_symmetry_space_group_name_H-M "P N N A"
_symmetry_group_IT_number 52
_symmetry_cell_setting 'orthorhombic'
loop_
_space_group_symop_operation_xyz
x,y,z
1/2-x,-y,z
x,1/2-y,1/2-z
1/2-x,1/2+y,1/2-z
-x,-y,-z
1/2+x,y,-z
-x,1/2+y,1/2+z
1/2+x,1/2-y,1/2+z
loop_
_atom_site_type_symbol
_atom_site_label
_atom_site_fract_x
_atom_site_fract_y
_atom_site_fract_z
Si Si1 0.051094 0.494682 0.222147
Si Si2 0.646282 0.687025 0.144588
Si Si3 0.053830 0.691324 0.395084
Si Si4 0.215771 0.229586 0.058069
Si Si5 0.973963 0.130540 0.432012
Si Si6 0.250000 0.500000 0.919851
Si Si7 0.854673 0.750000 0.750000
Si Si8 0.331277 0.088423 0.023829
O O1 0.021631 0.575242 0.318707
O O2 0.064642 0.636020 0.148373
O O3 0.107628 0.405896 0.255612
O O4 0.010191 0.367037 0.168668
O O5 0.629353 0.750000 0.250000
O O6 0.591912 0.599093 0.096514
O O7 0.701227 0.574465 0.148631
O O8 0.661996 0.838020 0.082410
O O9 0.021969 0.711084 0.500834
O O10 0.114643 0.612755 0.408564
O O11 0.185542 0.273973 0.157880
O O12 0.279172 0.169416 0.081138
O O13 0.179612 0.093985 0.005217
O O14 0.217077 0.377352 0.987410
O O15 0.000000 0.000000 0.500000
#
# Coordination Sequence:
#
# PCOD8216072 Si02
#       8
#     8   8   8   8   8   4   4   8
#     4  10  21  35  58  87 122 158 210 250 306 380
#     4  10  22  41  68  89 117 164 216 258 322 376
#     4   9  18  39  61  80 120 170 196 250 315 366
#     4  10  22  36  56  89 124 161 201 251 313 374
#     4   9  20  38  65  89 121 163 204 255 318 388
#     4  10  24  40  64  88 124 162 208 266 324 362
#     4  12  24  32  54  92 130 154 206 256 302 376
#     4   9  19  40  57  84 120 162 202 247 308 381
#
# _framework density 20.279945000000001
#
# number of rings (size 3 to 8) (size 9 to 14) (size 15 to 20)
#    0.000    2.286    1.429    0.000    9.000    4.571 
#    0.000    2.143   12.571    0.000    0.000    0.000 
#    0.000    0.000    0.000    0.000    0.000    0.000 
#
# Total GULP energy -693888.462071 kJ/mol
# GULP energy per Si atom -12390.865394 kJ/mol
# Density = 2.023379 g / cm^3
# Si number density = 20.279945 Si / 1000 Ang^3
#
#
#
# Elastic Constant Matrix: (Units=GPa)
#
#
# Indices 1 2 3 4 5 6 
#
# 1 96.5622 35.1253 60.0980 0.0000 0.0000 0.0000
# 2 35.1253 91.4040 47.6366 0.0000 0.0000 0.0000
# 3 60.0980 47.6366 115.8409 0.0000 0.0000 0.0000
# 4 0.0000 0.0000 0.0000 27.9043 0.0000 0.0000
# 5 0.0000 0.0000 0.0000 0.0000 27.7773 0.0000
# 6 0.0000 0.0000 0.0000 0.0000 0.0000 26.5358
#
#
#
# Elastic Compliance Matrix: (Units=1/GPa)
#
#
# Indices 1 2 3 4 5 6 
#
# 1 0.015656 -0.002270 -0.007189 0.000000 0.000000 0.000000
# 2 -0.002270 0.014254 -0.004684 0.000000 0.000000 0.000000
# 3 -0.007189 -0.004684 0.014288 0.000000 0.000000 0.000000
# 4 0.000000 0.000000 0.000000 0.035837 0.000000 0.000000
# 5 0.000000 0.000000 0.000000 0.000000 0.036001 0.000000
# 6 0.000000 0.000000 0.000000 0.000000 0.000000 0.037685
#
#
# Mechanical properties :
#
#
# Convention : Reuss Voigt Hill
#
# Bulk Modulus (GPa) = 62.84262 65.50299 64.17281
# Shear Modulus (GPa) = 26.69379 27.17330 26.93355
#
# Velocity S-wave (km/s) = 3.63197 3.66445 3.64825
# Velocity P-wave (km/s) = 6.97446 7.09040 7.03267
#
# Compressibility (1/GPa) = 0.01591277
#
# Stress axis : x y z
#
# Youngs Moduli (GPa) = 63.87407 70.15670 69.98762
#
# Poissons Ratio (x) = 0.15924 0.50313
# Poissons Ratio (y) = 0.14498 0.32782
# Poissons Ratio (z) = 0.45918 0.32861
#
# Static dielectric constant tensor:
#      x y z
#    x 3.747710 0.000000 0.000000 
#    y 0.000000 3.766510 0.000000 
#    z 0.000000 0.000000 3.901620 
# 
# 
# High freq. dielectric constant tensor:
#      x y z
#    x 1.782310 0.000000 0.000000 
#    y 0.000000 1.790690 0.000000 
#    z 0.000000 0.000000 1.795660 
# 
# From -- ./inp_files/28811.got.cif
#   From: 2010.06.25/outbox.cif.g09.slc.cpg/sg52_15_cif.got.tgz:28811.got - 2010.06.26 19:32:48.
