data_PCOD8216009
_publ_section_title
;
Structure prediction by ZEFSAII (Michael W. Deem and Ramdas Pophale) SiO2 
 PCOD8216009
Probable space group: P N N A
;
_chemical_formula_sum "Si O2"
_cell_formula_units_Z 56
_cell_length_a 9.751667
_cell_length_b 18.927181
_cell_length_c 15.013618
_cell_angle_alpha 90.000000
_cell_angle_beta 90.000000
_cell_angle_gamma 90.000000
_cell_volume 2771.086991
_symmetry_space_group_name_H-M "P N N A"
_symmetry_group_IT_number 52
_symmetry_cell_setting 'orthorhombic'
loop_
_space_group_symop_operation_xyz
x,y,z
1/2-x,-y,z
x,1/2-y,1/2-z
1/2-x,1/2+y,1/2-z
-x,-y,-z
1/2+x,y,-z
-x,1/2+y,1/2+z
1/2+x,1/2-y,1/2+z
loop_
_atom_site_type_symbol
_atom_site_label
_atom_site_fract_x
_atom_site_fract_y
_atom_site_fract_z
Si Si1 0.201061 0.428847 0.591789
Si Si2 0.651674 0.758939 0.849446
Si Si3 0.246928 0.582828 0.907959
Si Si4 0.562094 0.880810 0.971495
Si Si5 0.025778 0.849145 0.483968
Si Si6 0.465407 0.724155 0.384161
Si Si7 0.288867 0.324100 0.733769
O O1 0.250000 0.500000 0.641678
O O2 0.044345 0.440451 0.561740
O O3 0.300935 0.416819 0.507681
O O4 0.205904 0.362350 0.656386
O O5 0.596126 0.750000 0.750000
O O6 0.596448 0.831691 0.888443
O O7 0.598925 0.691816 0.904010
O O8 0.814868 0.764226 0.847911
O O9 0.250000 0.500000 0.883175
O O10 0.388034 0.613791 0.948267
O O11 0.204191 0.626839 0.820264
O O12 0.129578 0.590415 0.982655
O O13 0.474557 0.837635 0.043672
O O14 0.008308 0.797021 0.568063
O O15 0.561114 0.700157 0.301766
O O16 0.208286 0.250000 0.750000
#
# Coordination Sequence:
#
# PCOD8216009 Si02
#       7
#     8   8   8   8   8   8   8
#     4  11  23  41  63  91 130 170 210 262 326 391
#     4  11  23  37  64  98 127 162 219 282 325 376
#     4  12  26  45  68 100 136 181 225 275 334 404
#     4  10  22  38  62  91 126 166 212 261 324 385
#     4  11  24  42  66  95 134 177 224 272 336 395
#     4  10  20  41  65  97 124 165 216 272 330 382
#     4  11  24  39  69  97 126 165 219 270 325 386
#
# _framework density 20.208676000000001
#
# number of rings (size 3 to 8) (size 9 to 14) (size 15 to 20)
#    0.000    1.143    4.286    1.714    6.000    0.000 
#    0.000    0.000    0.000    0.857    0.000    0.000 
#    0.000    0.000    0.000    0.000    0.000    0.000 
#
# Total GULP energy -694141.918950 kJ/mol
# GULP energy per Si atom -12395.391410 kJ/mol
# Density = 2.016268 g / cm^3
# Si number density = 20.208676 Si / 1000 Ang^3
#
#
#
# Elastic Constant Matrix: (Units=GPa)
#
#
# Indices 1 2 3 4 5 6 
#
# 1 118.9234 33.6025 59.4823 0.0000 0.0000 0.0000
# 2 33.6025 118.3770 50.3151 0.0000 0.0000 0.0000
# 3 59.4823 50.3151 118.9239 0.0000 0.0000 0.0000
# 4 0.0000 0.0000 0.0000 155.6604 0.0000 0.0000
# 5 0.0000 0.0000 0.0000 0.0000 16.0250 0.0000
# 6 0.0000 0.0000 0.0000 0.0000 0.0000 24.1506
#
#
#
# Elastic Compliance Matrix: (Units=1/GPa)
#
#
# Indices 1 2 3 4 5 6 
#
# 1 0.011307 -0.000983 -0.005240 0.000000 0.000000 0.000000
# 2 -0.000983 0.010385 -0.003902 0.000000 0.000000 0.000000
# 3 -0.005240 -0.003902 0.012681 0.000000 0.000000 0.000000
# 4 0.000000 0.000000 0.000000 0.006424 0.000000 0.000000
# 5 0.000000 0.000000 0.000000 0.000000 0.062403 0.000000
# 6 0.000000 0.000000 0.000000 0.000000 0.000000 0.041407
#
#
# Mechanical properties :
#
#
# Convention : Reuss Voigt Hill
#
# Bulk Modulus (GPa) = 70.80418 71.44714 71.12566
# Shear Modulus (GPa) = 29.48737 53.35548 41.42142
#
# Velocity S-wave (km/s) = 3.82402 5.14389 4.53226
# Velocity P-wave (km/s) = 7.38986 8.40898 7.91584
#
# Compressibility (1/GPa) = 0.01412346
#
# Stress axis : x y z
#
# Youngs Moduli (GPa) = 88.43894 96.29123 78.86050
#
# Poissons Ratio (x) = 0.09461 0.41322
# Poissons Ratio (y) = 0.08689 0.30774
# Poissons Ratio (z) = 0.46341 0.37577
#
# Static dielectric constant tensor:
#      x y z
#    x 3.695190 0.000000 0.000000 
#    y 0.000000 3.781260 0.000000 
#    z 0.000000 0.000000 3.740470 
# 
# 
# High freq. dielectric constant tensor:
#      x y z
#    x 1.799240 0.000000 0.000000 
#    y 0.000000 1.786890 0.000000 
#    z 0.000000 0.000000 1.792700 
# 
# From -- ./inp_files/24950.got.cif
#   From: 2010.06.25/outbox.cif.g09.slc.cpg/sg52_13_cif.got.tgz:24950.got - 2010.06.26 19:32:48.
