data_PCOD8216005
_publ_section_title
;
Structure prediction by ZEFSAII (Michael W. Deem and Ramdas Pophale) SiO2 
 PCOD8216005
Probable space group: P N N A
;
_chemical_formula_sum "Si O2"
_cell_formula_units_Z 44
_cell_length_a 8.312050
_cell_length_b 8.960726
_cell_length_c 28.039693
_cell_angle_alpha 90.000000
_cell_angle_beta 90.000000
_cell_angle_gamma 90.000000
_cell_volume 2088.452485
_symmetry_space_group_name_H-M "P N N A"
_symmetry_group_IT_number 52
_symmetry_cell_setting 'orthorhombic'
loop_
_space_group_symop_operation_xyz
x,y,z
1/2-x,-y,z
x,1/2-y,1/2-z
1/2-x,1/2+y,1/2-z
-x,-y,-z
1/2+x,y,-z
-x,1/2+y,1/2+z
1/2+x,1/2-y,1/2+z
loop_
_atom_site_type_symbol
_atom_site_label
_atom_site_fract_x
_atom_site_fract_y
_atom_site_fract_z
Si Si1 0.250000 0.500000 0.486204
Si Si2 0.250000 0.000000 0.294005
Si Si3 0.436566 0.017538 0.448234
Si Si4 0.466059 0.250000 0.250000
Si Si5 0.969139 0.090472 0.354758
Si Si6 0.954096 0.845952 0.062077
Si Si7 0.344228 0.755671 0.658114
O O1 0.393437 0.448855 0.451344
O O2 0.184361 0.369493 0.521724
O O3 0.356504 0.107767 0.261560
O O4 0.138305 0.106287 0.327124
O O5 0.486374 0.179936 0.432586
O O6 0.250000 0.000000 0.447623
O O7 0.500000 0.000000 0.500000
O O8 0.508633 0.893320 0.412157
O O9 0.580311 0.306466 0.293083
O O10 0.849344 0.221911 0.337950
O O11 0.909519 0.922575 0.347509
O O12 0.883546 0.865474 0.115910
#
# Coordination Sequence:
#
# PCOD8216005 Si02
#       7
#     4   4   8   4   8   8   8
#     4  10  22  41  58  78 128 178 203 254 304 380
#     4  10  20  41  62  94 120 162 203 264 318 380
#     4  11  22  33  59  96 118 151 203 257 305 370
#     4  10  22  40  66  92 124 158 216 262 324 378
#     4   9  19  37  58  87 125 154 191 255 328 353
#     4  10  22  40  57  84 122 164 209 246 313 377
#     4   9  20  38  60  85 120 159 199 261 313 376
#
# _framework density 21.068231999999998
#
# number of rings (size 3 to 8) (size 9 to 14) (size 15 to 20)
#    0.000    2.182    0.909    1.091    7.636    1.455 
#    0.000    5.455    0.000    0.000    0.000    0.000 
#    0.000    0.000    0.000    0.000    0.000    0.000 
#
# Total GULP energy -545138.879911 kJ/mol
# GULP energy per Si atom -12389.519998 kJ/mol
# Density = 2.102028 g / cm^3
# Si number density = 21.068232 Si / 1000 Ang^3
#
#
#
# Elastic Constant Matrix: (Units=GPa)
#
#
# Indices 1 2 3 4 5 6 
#
# 1 149.0696 34.5635 79.6450 0.0000 0.0000 0.0000
# 2 34.5635 45.6560 38.6979 0.0000 0.0000 0.0000
# 3 79.6450 38.6979 175.1805 0.0000 0.0000 0.0000
# 4 0.0000 0.0000 0.0000 29.0064 0.0000 0.0000
# 5 0.0000 0.0000 0.0000 0.0000 37.3577 0.0000
# 6 0.0000 0.0000 0.0000 0.0000 0.0000 30.9650
#
#
#
# Elastic Compliance Matrix: (Units=1/GPa)
#
#
# Indices 1 2 3 4 5 6 
#
# 1 0.009515 -0.004351 -0.003365 0.000000 0.000000 0.000000
# 2 -0.004351 0.028939 -0.004414 0.000000 0.000000 0.000000
# 3 -0.003365 -0.004414 0.008213 0.000000 0.000000 0.000000
# 4 0.000000 0.000000 0.000000 0.034475 0.000000 0.000000
# 5 0.000000 0.000000 0.000000 0.000000 0.026768 0.000000
# 6 0.000000 0.000000 0.000000 0.000000 0.000000 0.032295
#
#
# Mechanical properties :
#
#
# Convention : Reuss Voigt Hill
#
# Bulk Modulus (GPa) = 44.63055 75.07989 59.85522
# Shear Modulus (GPa) = 29.08094 33.93247 31.50670
#
# Velocity S-wave (km/s) = 3.71930 4.01758 3.87131
# Velocity P-wave (km/s) = 6.29873 7.56539 6.96093
#
# Compressibility (1/GPa) = 0.02240617
#
# Stress axis : x y z
#
# Youngs Moduli (GPa) = 105.09895 34.55589 121.75412
#
# Poissons Ratio (x) = 0.15036 0.40966
# Poissons Ratio (y) = 0.45731 0.53747
# Poissons Ratio (z) = 0.35362 0.15254
#
# Static dielectric constant tensor:
#      x y z
#    x 4.410120 0.000000 0.000000 
#    y 0.000000 3.388080 0.000000 
#    z 0.000000 0.000000 3.852460 
# 
# 
# High freq. dielectric constant tensor:
#      x y z
#    x 1.842950 0.000000 0.000000 
#    y 0.000000 1.785690 0.000000 
#    z 0.000000 0.000000 1.835500 
# 
# From -- ./inp_files/44296.got.cif
#   From: 2010.06.25/outbox.cif.g09.slc.cpg/sg52_23_cif.got.tgz:44296.got - 2010.06.26 19:32:48.
