data_PCOD8216708
_publ_section_title
;
Structure prediction by ZEFSAII (Michael W. Deem and Ramdas Pophale) SiO2 
 PCOD8216708
Probable space group: P N N A
;
_chemical_formula_sum "Si O2"
_cell_formula_units_Z 40
_cell_length_a 9.098736
_cell_length_b 20.273076
_cell_length_c 9.153017
_cell_angle_alpha 90.000000
_cell_angle_beta 90.000000
_cell_angle_gamma 90.000000
_cell_volume 1688.359717
_symmetry_space_group_name_H-M "P N N A"
_symmetry_group_IT_number 52
_symmetry_cell_setting 'orthorhombic'
loop_
_space_group_symop_operation_xyz
x,y,z
1/2-x,-y,z
x,1/2-y,1/2-z
1/2-x,1/2+y,1/2-z
-x,-y,-z
1/2+x,y,-z
-x,1/2+y,1/2+z
1/2+x,1/2-y,1/2+z
loop_
_atom_site_type_symbol
_atom_site_label
_atom_site_fract_x
_atom_site_fract_y
_atom_site_fract_z
Si Si1 0.604361 0.205627 0.089024
Si Si2 0.893365 0.356240 0.807125
Si Si3 0.106880 0.711055 0.906130
Si Si4 0.920353 0.633408 0.685565
Si Si5 0.081758 0.999238 0.348568
O O1 0.521711 0.192223 0.244281
O O2 0.766749 0.233819 0.120782
O O3 0.531628 0.259070 0.986803
O O4 0.589334 0.138149 0.991453
O O5 0.740066 0.340462 0.730139
O O6 0.951919 0.429614 0.770928
O O7 0.854289 0.347638 0.979886
O O8 0.048778 0.681212 0.751609
O O9 0.956468 0.559177 0.738771
O O10 0.250000 0.000000 0.392667
O O11 0.000000 0.000000 0.500000
#
# Coordination Sequence:
#
# PCOD8216708 Si02
#       5
#     8   8   8   8   8
#     4  12  26  43  68 104 142 183 231 283 361 414
#     4  11  24  46  70 102 143 184 231 292 345 419
#     4  12  24  43  70  98 144 181 230 285 347 422
#     4  11  24  46  70 103 143 182 233 292 346 416
#     4  10  22  45  72 101 138 185 235 287 345 418
#
# _framework density 23.691634000000001
#
# number of rings (size 3 to 8) (size 9 to 14) (size 15 to 20)
#    0.000    0.800    6.000    1.200    0.000    4.000 
#    3.600    0.000    0.000    0.000    0.000    0.000 
#    0.000    0.000    0.000    0.000    0.000    0.000 
#
# Total GULP energy -495560.838724 kJ/mol
# GULP energy per Si atom -12389.020968 kJ/mol
# Density = 2.363771 g / cm^3
# Si number density = 23.691634 Si / 1000 Ang^3
#
#
#
# Elastic Constant Matrix: (Units=GPa)
#
#
# Indices 1 2 3 4 5 6 
#
# 1 98.7047 56.5253 31.3937 0.0000 0.0000 0.0000
# 2 56.5253 146.4274 45.4638 0.0000 0.0000 0.0000
# 3 31.3937 45.4638 152.0165 0.0000 0.0000 0.0000
# 4 0.0000 0.0000 0.0000 33.0463 0.0000 0.0000
# 5 0.0000 0.0000 0.0000 0.0000 36.6502 0.0000
# 6 0.0000 0.0000 0.0000 0.0000 0.0000 29.9437
#
#
#
# Elastic Compliance Matrix: (Units=1/GPa)
#
#
# Indices 1 2 3 4 5 6 
#
# 1 0.013246 -0.004700 -0.001330 0.000000 0.000000 0.000000
# 2 -0.004700 0.009196 -0.001780 0.000000 0.000000 0.000000
# 3 -0.001330 -0.001780 0.007385 0.000000 0.000000 0.000000
# 4 0.000000 0.000000 0.000000 0.030261 0.000000 0.000000
# 5 0.000000 0.000000 0.000000 0.000000 0.027285 0.000000
# 6 0.000000 0.000000 0.000000 0.000000 0.000000 0.033396
#
#
# Mechanical properties :
#
#
# Convention : Reuss Voigt Hill
#
# Bulk Modulus (GPa) = 70.38409 73.76824 72.07617
# Shear Modulus (GPa) = 35.42968 37.51244 36.47106
#
# Velocity S-wave (km/s) = 3.87130 3.98347 3.92778
# Velocity P-wave (km/s) = 7.05376 7.23614 7.14553
#
# Compressibility (1/GPa) = 0.01420776
#
# Stress axis : x y z
#
# Youngs Moduli (GPa) = 75.49463 108.73815 135.40804
#
# Poissons Ratio (x) = 0.51112 0.18005
# Poissons Ratio (y) = 0.35486 0.24098
# Poissons Ratio (z) = 0.10039 0.19352
#
# Static dielectric constant tensor:
#      x y z
#    x 4.212330 0.000000 0.000000 
#    y 0.000000 4.711420 0.000000 
#    z 0.000000 0.000000 5.201670 
# 
# 
# High freq. dielectric constant tensor:
#      x y z
#    x 1.943900 0.000000 0.000000 
#    y 0.000000 1.940340 0.000000 
#    z 0.000000 0.000000 1.951100 
# 
# From -- ./inp_files/7405.got.cif
#   From: 2010.06.25/outbox.cif.g09.slc.cpg/sg52_4_cif.got.tgz:7405.got - 2010.06.26 19:32:48.
