data_PCOD8216262
_publ_section_title
;
Structure prediction by ZEFSAII (Michael W. Deem and Ramdas Pophale) SiO2 
 PCOD8216262
Probable space group: P N N A
;
_chemical_formula_sum "Si O2"
_cell_formula_units_Z 40
_cell_length_a 11.966599
_cell_length_b 9.187341
_cell_length_c 17.394974
_cell_angle_alpha 90.000000
_cell_angle_beta 90.000000
_cell_angle_gamma 90.000000
_cell_volume 1912.424761
_symmetry_space_group_name_H-M "P N N A"
_symmetry_group_IT_number 52
_symmetry_cell_setting 'orthorhombic'
loop_
_space_group_symop_operation_xyz
x,y,z
1/2-x,-y,z
x,1/2-y,1/2-z
1/2-x,1/2+y,1/2-z
-x,-y,-z
1/2+x,y,-z
-x,1/2+y,1/2+z
1/2+x,1/2-y,1/2+z
loop_
_atom_site_type_symbol
_atom_site_label
_atom_site_fract_x
_atom_site_fract_y
_atom_site_fract_z
Si Si1 0.250000 0.000000 0.668538
Si Si2 0.916612 0.591906 0.053468
Si Si3 0.574662 0.661210 0.562038
Si Si4 0.786798 0.658580 0.914456
Si Si5 0.497279 0.847449 0.109465
Si Si6 0.145079 0.750000 0.750000
O O1 0.132478 0.997756 0.622312
O O2 0.262862 0.141092 0.718708
O O3 0.976021 0.732603 0.089924
O O4 0.808133 0.639812 0.005128
O O5 0.000000 0.500000 0.000000
O O6 0.690304 0.723034 0.594982
O O7 0.571385 0.665774 0.468434
O O8 0.561300 0.504923 0.601864
O O9 0.750000 0.500000 0.878830
O O10 0.902556 0.722021 0.880085
O O11 0.572169 0.832579 0.185166
#
# Coordination Sequence:
#
# PCOD8216262 Si02
#       6
#     4   8   8   8   8   4
#     4  12  26  42  66  96 138 178 218 268 336 418
#     4  11  19  37  68 101 128 164 224 281 333 392
#     4  10  21  39  69  96 123 167 228 286 331 378
#     4  11  19  35  66  99 122 160 220 281 332 382
#     4  10  24  42  61  94 135 170 216 278 331 408
#     4  12  28  46  62  92 142 180 212 264 348 422
#
# _framework density 20.915855000000001
#
# number of rings (size 3 to 8) (size 9 to 14) (size 15 to 20)
#    0.000    1.200    3.000    4.200    2.800    0.000 
#    3.600    2.000    0.000    0.000    0.000    0.000 
#    0.000    0.000    0.000    0.000    0.000    0.000 
#
# Total GULP energy -495658.180117 kJ/mol
# GULP energy per Si atom -12391.454503 kJ/mol
# Density = 2.086825 g / cm^3
# Si number density = 20.915855 Si / 1000 Ang^3
#
#
#
# Elastic Constant Matrix: (Units=GPa)
#
#
# Indices 1 2 3 4 5 6 
#
# 1 94.2956 54.1318 43.0476 0.0000 0.0000 0.0000
# 2 54.1318 137.1011 37.9077 0.0000 0.0000 0.0000
# 3 43.0476 37.9077 81.8173 0.0000 0.0000 0.0000
# 4 0.0000 0.0000 0.0000 30.8419 0.0000 0.0000
# 5 0.0000 0.0000 0.0000 0.0000 -1.3553 0.0000
# 6 0.0000 0.0000 0.0000 0.0000 0.0000 47.4660
#
#
#
# Elastic Compliance Matrix: (Units=1/GPa)
#
#
# Indices 1 2 3 4 5 6 
#
# 1 0.016163 -0.004623 -0.006362 0.000000 0.000000 0.000000
# 2 -0.004623 0.009688 -0.002056 0.000000 0.000000 0.000000
# 3 -0.006362 -0.002056 0.016523 0.000000 0.000000 0.000000
# 4 0.000000 0.000000 0.000000 0.032423 0.000000 0.000000
# 5 0.000000 0.000000 0.000000 0.000000 -0.737850 0.000000
# 6 0.000000 0.000000 0.000000 0.000000 0.000000 0.021068
#
#
# Mechanical properties :
#
#
# Convention : Reuss Voigt Hill
#
# Bulk Modulus (GPa) = 61.38443 64.82092 63.10268
# Shear Modulus (GPa) = -8.19038 27.26565 9.53764
#
# Velocity S-wave (km/s) = -1.98100 3.61444 2.13773
# Velocity P-wave (km/s) = 4.91726 6.96258 6.02731
#
# Compressibility (1/GPa) = 0.01629078
#
# Stress axis : x y z
#
# Youngs Moduli (GPa) = 61.86920 103.22500 60.52304
#
# Poissons Ratio (x) = 0.47716 0.38507
# Poissons Ratio (y) = 0.28599 0.12446
# Poissons Ratio (z) = 0.39364 0.21227
#
# Static dielectric constant tensor:
#      x y z
#    x 3.746860 0.000000 0.000000 
#    y 0.000000 4.078320 0.000000 
#    z 0.000000 0.000000 3.508210 
# 
# 
# High freq. dielectric constant tensor:
#      x y z
#    x 1.829140 0.000000 0.000000 
#    y 0.000000 1.842380 0.000000 
#    z 0.000000 0.000000 1.774890 
# 
# From -- ./inp_files/31995.got.cif
#   From: 2010.06.25/outbox.cif.g09.slc.cpg/sg52_16_cif.got.tgz:31995.got - 2010.06.26 19:32:48.
