data_PCOD8216730
_publ_section_title
;
Structure prediction by ZEFSAII (Michael W. Deem and Ramdas Pophale) SiO2 
 PCOD8216730
Probable space group: P N N A
;
_chemical_formula_sum "Si O2"
_cell_formula_units_Z 56
_cell_length_a 21.215901
_cell_length_b 13.212699
_cell_length_c 10.176816
_cell_angle_alpha 90.000000
_cell_angle_beta 90.000000
_cell_angle_gamma 90.000000
_cell_volume 2852.758079
_symmetry_space_group_name_H-M "P N N A"
_symmetry_group_IT_number 52
_symmetry_cell_setting 'orthorhombic'
loop_
_space_group_symop_operation_xyz
x,y,z
1/2-x,-y,z
x,1/2-y,1/2-z
1/2-x,1/2+y,1/2-z
-x,-y,-z
1/2+x,y,-z
-x,1/2+y,1/2+z
1/2+x,1/2-y,1/2+z
loop_
_atom_site_type_symbol
_atom_site_label
_atom_site_fract_x
_atom_site_fract_y
_atom_site_fract_z
Si Si1 0.660761 0.316427 0.130736
Si Si2 0.409593 0.750134 0.107787
Si Si3 0.184776 0.941600 0.964944
Si Si4 0.130771 0.540392 0.820541
Si Si5 0.507882 0.442450 0.862876
Si Si6 0.058135 0.474342 0.406494
Si Si7 0.303770 0.221797 0.610218
O O1 0.631433 0.250000 0.250000
O O2 0.631357 0.427670 0.121909
O O3 0.734963 0.319631 0.142081
O O4 0.645940 0.262142 0.995112
O O5 0.376307 0.750000 0.250000
O O6 0.463134 0.665196 0.100213
O O7 0.443271 0.854564 0.078918
O O8 0.171660 0.963155 0.812466
O O9 0.193204 0.819179 0.986581
O O10 0.250000 0.000000 0.004334
O O11 0.125468 0.977834 0.051817
O O12 0.158176 0.619814 0.930810
O O13 0.059487 0.573384 0.793534
O O14 0.548014 0.501645 0.749142
O O15 0.500000 0.500000 0.000000
O O16 0.000000 0.500000 0.500000
O O17 0.335688 0.250000 0.750000
#
# Coordination Sequence:
#
# PCOD8216730 Si02
#       7
#     8   8   8   8   8   8   8
#     4  11  20  36  61  92 118 158 212 263 308 366
#     4  10  23  38  60  84 122 166 203 244 317 379
#     4  11  21  38  63  96 128 161 211 268 315 371
#     4  11  20  35  62  92 126 162 212 261 316 372
#     4  11  23  41  61  89 126 166 204 255 313 373
#     4  11  23  39  64  93 119 161 210 257 307 374
#     4   9  20  33  59  91 125 158 201 261 319 370
#
# _framework density 19.630127000000002
#
# number of rings (size 3 to 8) (size 9 to 14) (size 15 to 20)
#    0.000    1.429    2.857    4.714    2.000    1.714 
#    0.000    0.000    9.429    0.000    0.000    0.000 
#    0.000    0.000    0.000    0.000    0.000    0.000 
#
# Total GULP energy -693847.218857 kJ/mol
# GULP energy per Si atom -12390.128908 kJ/mol
# Density = 1.958545 g / cm^3
# Si number density = 19.630127 Si / 1000 Ang^3
#
#
#
# Elastic Constant Matrix: (Units=GPa)
#
#
# Indices 1 2 3 4 5 6 
#
# 1 107.2890 35.5110 39.7917 0.0000 0.0000 0.0000
# 2 35.5110 122.7057 53.2952 0.0000 0.0000 0.0000
# 3 39.7917 53.2952 106.4976 0.0000 0.0000 0.0000
# 4 0.0000 0.0000 0.0000 21.9795 0.0000 0.0000
# 5 0.0000 0.0000 0.0000 0.0000 21.7841 0.0000
# 6 0.0000 0.0000 0.0000 0.0000 0.0000 25.7948
#
#
#
# Elastic Compliance Matrix: (Units=1/GPa)
#
#
# Indices 1 2 3 4 5 6 
#
# 1 0.011125 -0.001807 -0.003252 0.000000 0.000000 0.000000
# 2 -0.001807 0.010706 -0.004683 0.000000 0.000000 0.000000
# 3 -0.003252 -0.004683 0.012949 0.000000 0.000000 0.000000
# 4 0.000000 0.000000 0.000000 0.045497 0.000000 0.000000
# 5 0.000000 0.000000 0.000000 0.000000 0.045905 0.000000
# 6 0.000000 0.000000 0.000000 0.000000 0.000000 0.038768
#
#
# Mechanical properties :
#
#
# Convention : Reuss Voigt Hill
#
# Bulk Modulus (GPa) = 65.37802 65.96534 65.67168
# Shear Modulus (GPa) = 26.38075 27.77130 27.07603
#
# Velocity S-wave (km/s) = 3.66989 3.76537 3.71794
# Velocity P-wave (km/s) = 7.16482 7.25128 7.20818
#
# Compressibility (1/GPa) = 0.01529566
#
# Stress axis : x y z
#
# Youngs Moduli (GPa) = 89.88789 93.40244 77.22877
#
# Poissons Ratio (x) = 0.16877 0.25119
# Poissons Ratio (y) = 0.16242 0.36164
# Poissons Ratio (z) = 0.29236 0.43738
#
# Static dielectric constant tensor:
#      x y z
#    x 3.582320 0.000000 0.000000 
#    y 0.000000 3.972550 0.000000 
#    z 0.000000 0.000000 3.321710 
# 
# 
# High freq. dielectric constant tensor:
#      x y z
#    x 1.767470 0.000000 0.000000 
#    y 0.000000 1.779510 0.000000 
#    z 0.000000 0.000000 1.738480 
# 
# From -- ./inp_files/21709.got.cif
#   From: 2010.06.25/outbox.cif.g09.slc.cpg/sg52_11_cif.got.tgz:21709.got - 2010.06.26 19:32:48.
