data_PCOD8216584
_publ_section_title
;
Structure prediction by ZEFSAII (Michael W. Deem and Ramdas Pophale) SiO2 
 PCOD8216584
Probable space group: P N N A
;
_chemical_formula_sum "Si O2"
_cell_formula_units_Z 56
_cell_length_a 20.528526
_cell_length_b 5.078497
_cell_length_c 24.869989
_cell_angle_alpha 90.000000
_cell_angle_beta 90.000000
_cell_angle_gamma 90.000000
_cell_volume 2592.797268
_symmetry_space_group_name_H-M "P N N A"
_symmetry_group_IT_number 52
_symmetry_cell_setting 'orthorhombic'
loop_
_space_group_symop_operation_xyz
x,y,z
1/2-x,-y,z
x,1/2-y,1/2-z
1/2-x,1/2+y,1/2-z
-x,-y,-z
1/2+x,y,-z
-x,1/2+y,1/2+z
1/2+x,1/2-y,1/2+z
loop_
_atom_site_type_symbol
_atom_site_label
_atom_site_fract_x
_atom_site_fract_y
_atom_site_fract_z
Si Si1 0.250000 0.000000 0.836392
Si Si2 0.447314 0.424596 0.705675
Si Si3 0.372522 0.329907 0.602517
Si Si4 0.323551 0.999828 0.213860
Si Si5 0.059986 0.892544 0.141195
Si Si6 0.333503 0.750000 0.750000
Si Si7 0.587867 0.143395 0.458331
Si Si8 0.049230 0.098610 0.425824
O O1 0.301118 0.130552 0.875397
O O2 0.215494 0.232859 0.800940
O O3 0.485656 0.250000 0.750000
O O4 0.421207 0.274543 0.652616
O O5 0.500711 0.639930 0.685077
O O6 0.384461 0.513254 0.741280
O O7 0.398378 0.571394 0.566491
O O8 0.363425 0.069988 0.566733
O O9 0.337967 0.250000 0.250000
O O10 0.373464 0.993069 0.164859
O O11 0.250000 0.000000 0.190624
O O12 0.336537 0.750000 0.250000
O O13 0.079360 0.609550 0.116401
O O14 0.036102 0.113260 0.098627
O O15 0.595968 0.146386 0.522808
O O16 0.516544 0.043556 0.443444
#
# Coordination Sequence:
#
# PCOD8216584 Si02
#       8
#     4   8   8   8   8   4   8   8
#     4  10  26  40  64  88 128 190 226 264 320 390
#     4  11  25  37  61  93 134 166 214 273 319 380
#     4  11  24  42  66  89 127 171 222 267 323 382
#     4  10  22  41  64  92 131 171 204 240 303 390
#     4  12  23  39  66 101 127 168 206 266 325 388
#     4  10  26  42  56  90 132 180 226 266 320 368
#     4  11  22  44  66  93 124 163 210 280 328 389
#     4  11  23  40  68  97 126 159 210 267 344 380
#
# _framework density 21.598293999999999
#
# number of rings (size 3 to 8) (size 9 to 14) (size 15 to 20)
#    0.000    1.143    2.857    2.143   11.000    2.857 
#    0.000    0.000    9.429    0.000    0.000    0.000 
#    0.000    0.000    0.000    0.000    0.000    0.000 
#
# Total GULP energy -693833.284067 kJ/mol
# GULP energy per Si atom -12389.880073 kJ/mol
# Density = 2.154914 g / cm^3
# Si number density = 21.598294 Si / 1000 Ang^3
#
#
#
# Elastic Constant Matrix: (Units=GPa)
#
#
# Indices 1 2 3 4 5 6 
#
# 1 90.8728 -2.0099 48.0107 0.0000 0.0000 0.0000
# 2 -2.0099 92.9855 42.7018 0.0000 0.0000 0.0000
# 3 48.0107 42.7018 123.5263 0.0000 0.0000 0.0000
# 4 0.0000 0.0000 0.0000 65.8388 0.0000 0.0000
# 5 0.0000 0.0000 0.0000 0.0000 20.3954 0.0000
# 6 0.0000 0.0000 0.0000 0.0000 0.0000 16.0655
#
#
#
# Elastic Compliance Matrix: (Units=1/GPa)
#
#
# Indices 1 2 3 4 5 6 
#
# 1 0.014752 0.003509 -0.006947 0.000000 0.000000 0.000000
# 2 0.003509 0.013618 -0.006072 0.000000 0.000000 0.000000
# 3 -0.006947 -0.006072 0.012894 0.000000 0.000000 0.000000
# 4 0.000000 0.000000 0.000000 0.015189 0.000000 0.000000
# 5 0.000000 0.000000 0.000000 0.000000 0.049031 0.000000
# 6 0.000000 0.000000 0.000000 0.000000 0.000000 0.062245
#
#
# Mechanical properties :
#
#
# Convention : Reuss Voigt Hill
#
# Bulk Modulus (GPa) = 44.95127 53.86552 49.40840
# Shear Modulus (GPa) = 25.75151 35.03875 30.39513
#
# Velocity S-wave (km/s) = 3.45671 4.03214 3.75546
# Velocity P-wave (km/s) = 6.06542 6.83165 6.45990
#
# Compressibility (1/GPa) = 0.02224631
#
# Stress axis : x y z
#
# Youngs Moduli (GPa) = 67.78671 73.42965 77.55365
#
# Poissons Ratio (x) = -0.25767 0.53874
# Poissons Ratio (y) = -0.23786 0.47088
# Poissons Ratio (z) = 0.47090 0.44584
#
# Static dielectric constant tensor:
#      x y z
#    x 3.896820 0.000000 0.000000 
#    y 0.000000 3.970820 0.000000 
#    z 0.000000 0.000000 4.234920 
# 
# 
# High freq. dielectric constant tensor:
#      x y z
#    x 1.836110 0.000000 0.000000 
#    y 0.000000 1.850000 0.000000 
#    z 0.000000 0.000000 1.847920 
# 
# From -- ./inp_files/41026.got.cif
#   From: 2010.06.25/outbox.cif.g09.slc.cpg/sg52_21_cif.got.tgz:41026.got - 2010.06.26 19:32:48.
