data_PCOD8216472
_publ_section_title
;
Structure prediction by ZEFSAII (Michael W. Deem and Ramdas Pophale) SiO2 
 PCOD8216472
Probable space group: P N N A
;
_chemical_formula_sum "Si O2"
_cell_formula_units_Z 48
_cell_length_a 9.102310
_cell_length_b 11.147387
_cell_length_c 23.364426
_cell_angle_alpha 90.000000
_cell_angle_beta 90.000000
_cell_angle_gamma 90.000000
_cell_volume 2370.717563
_symmetry_space_group_name_H-M "P N N A"
_symmetry_group_IT_number 52
_symmetry_cell_setting 'orthorhombic'
loop_
_space_group_symop_operation_xyz
x,y,z
1/2-x,-y,z
x,1/2-y,1/2-z
1/2-x,1/2+y,1/2-z
-x,-y,-z
1/2+x,y,-z
-x,1/2+y,1/2+z
1/2+x,1/2-y,1/2+z
loop_
_atom_site_type_symbol
_atom_site_label
_atom_site_fract_x
_atom_site_fract_y
_atom_site_fract_z
Si Si1 0.700777 0.863406 0.153534
Si Si2 0.065845 0.302428 0.809285
Si Si3 0.259766 0.858942 0.330528
Si Si4 0.878031 0.199866 0.439728
Si Si5 0.250000 0.500000 0.858172
Si Si6 0.694831 0.364562 0.959607
Si Si7 0.503899 0.750000 0.250000
O O1 0.851341 0.785582 0.146351
O O2 0.607003 0.823641 0.097002
O O3 0.606391 0.836783 0.211301
O O4 0.750000 0.000000 0.151701
O O5 0.122255 0.250000 0.750000
O O6 0.125996 0.437585 0.818424
O O7 0.890215 0.296081 0.810460
O O8 0.274604 0.817163 0.395882
O O9 0.399667 0.823026 0.292911
O O10 0.250000 0.000000 0.325490
O O11 0.767843 0.219691 0.492516
O O12 0.023402 0.151447 0.470313
O O13 0.832766 0.095784 0.396177
O O14 0.750000 0.500000 0.968733
#
# Coordination Sequence:
#
# PCOD8216472 Si02
#       7
#     8   8   8   8   4   8   4
#     4  11  27  44  66  92 134 181 225 265 327 407
#     4  11  24  38  64  93 127 174 217 267 325 393
#     4  11  25  40  66 100 134 162 214 284 345 386
#     4  11  23  41  65  97 128 172 214 281 338 395
#     4  10  22  38  62  94 130 166 222 266 340 392
#     4  11  22  38  67 100 131 165 216 284 345 390
#     4  12  24  44  66  94 134 176 222 272 330 404
#
# _framework density 20.247036000000001
#
# number of rings (size 3 to 8) (size 9 to 14) (size 15 to 20)
#    0.000    1.000    4.167    2.500   10.500    0.000 
#    0.000    0.833    0.000    0.000    0.000    0.000 
#    0.000    0.000    0.000    0.000    0.000    0.000 
#
# Total GULP energy -594916.291332 kJ/mol
# GULP energy per Si atom -12394.089403 kJ/mol
# Density = 2.020095 g / cm^3
# Si number density = 20.247036 Si / 1000 Ang^3
#
#
#
# Elastic Constant Matrix: (Units=GPa)
#
#
# Indices 1 2 3 4 5 6 
#
# 1 139.7985 51.6369 47.1577 0.0000 0.0000 0.0000
# 2 51.6369 108.2091 55.1690 0.0000 0.0000 0.0000
# 3 47.1577 55.1690 142.1184 0.0000 0.0000 0.0000
# 4 0.0000 0.0000 0.0000 -1.2615 0.0000 0.0000
# 5 0.0000 0.0000 0.0000 0.0000 63.9548 0.0000
# 6 0.0000 0.0000 0.0000 0.0000 0.0000 29.5758
#
#
#
# Elastic Compliance Matrix: (Units=1/GPa)
#
#
# Indices 1 2 3 4 5 6 
#
# 1 0.008981 -0.003449 -0.001641 0.000000 0.000000 0.000000
# 2 -0.003449 0.012846 -0.003842 0.000000 0.000000 0.000000
# 3 -0.001641 -0.003842 0.009073 0.000000 0.000000 0.000000
# 4 0.000000 0.000000 0.000000 -0.792677 0.000000 0.000000
# 5 0.000000 0.000000 0.000000 0.000000 0.015636 0.000000
# 6 0.000000 0.000000 0.000000 0.000000 0.000000 0.033811
#
#
# Mechanical properties :
#
#
# Convention : Reuss Voigt Hill
#
# Bulk Modulus (GPa) = 76.71872 77.56147 77.14009
# Shear Modulus (GPa) = -7.24511 34.19798 13.47644
#
# Velocity S-wave (km/s) = -1.89371 4.11425 2.58272
# Velocity P-wave (km/s) = 5.76126 7.80770 6.86120
#
# Compressibility (1/GPa) = 0.01303463
#
# Stress axis : x y z
#
# Youngs Moduli (GPa) = 111.35083 77.84475 110.22292
#
# Poissons Ratio (x) = 0.26847 0.18089
# Poissons Ratio (y) = 0.38402 0.42352
# Poissons Ratio (z) = 0.18275 0.29911
#
# Static dielectric constant tensor:
#      x y z
#    x 3.890160 0.000000 0.000000 
#    y 0.000000 3.689130 0.000000 
#    z 0.000000 0.000000 3.924970 
# 
# 
# High freq. dielectric constant tensor:
#      x y z
#    x 1.808630 0.000000 0.000000 
#    y 0.000000 1.758320 0.000000 
#    z 0.000000 0.000000 1.801220 
# 
# From -- ./inp_files/39485.got.cif
#   From: 2010.06.25/outbox.cif.g09.slc.cpg/sg52_20_cif.got.tgz:39485.got - 2010.06.26 19:32:48.
