data_PCOD8216790
_publ_section_title
;
Structure prediction by ZEFSAII (Michael W. Deem and Ramdas Pophale) SiO2 
 PCOD8216790
Probable space group: P N N A
;
_chemical_formula_sum "Si O2"
_cell_formula_units_Z 64
_cell_length_a 26.965744
_cell_length_b 9.368057
_cell_length_c 12.447110
_cell_angle_alpha 90.000000
_cell_angle_beta 90.000000
_cell_angle_gamma 90.000000
_cell_volume 3144.346942
_symmetry_space_group_name_H-M "P N N A"
_symmetry_group_IT_number 52
_symmetry_cell_setting 'orthorhombic'
loop_
_space_group_symop_operation_xyz
x,y,z
1/2-x,-y,z
x,1/2-y,1/2-z
1/2-x,1/2+y,1/2-z
-x,-y,-z
1/2+x,y,-z
-x,1/2+y,1/2+z
1/2+x,1/2-y,1/2+z
loop_
_atom_site_type_symbol
_atom_site_label
_atom_site_fract_x
_atom_site_fract_y
_atom_site_fract_z
Si Si1 0.895970 0.994750 0.509207
Si Si2 0.423884 0.249106 0.626895
Si Si3 0.800247 0.578974 0.869542
Si Si4 0.968867 0.373835 0.819717
Si Si5 0.897178 0.995005 0.992742
Si Si6 0.799399 0.588002 0.622712
Si Si7 0.027211 0.373144 0.321711
Si Si8 0.929913 0.754052 0.128449
O O1 0.840754 0.998267 0.555810
O O2 0.902442 0.835294 0.464461
O O3 0.909331 0.090229 0.407025
O O4 0.932435 0.041476 0.603820
O O5 0.404812 0.250000 0.750000
O O6 0.397062 0.342491 0.534467
O O7 0.482248 0.290164 0.619581
O O8 0.750000 0.500000 0.897320
O O9 0.815769 0.557357 0.745314
O O10 0.791361 0.744463 0.896099
O O11 0.940523 0.250000 0.750000
O O12 0.995355 0.497372 0.748993
O O13 0.012297 0.288275 0.880412
O O14 0.841300 0.963931 0.958951
O O15 0.933510 0.952246 0.896171
O O16 0.918561 0.915437 0.096742
O O17 0.750000 0.500000 0.594429
O O18 0.054708 0.250000 0.250000
O O19 0.909510 0.750000 0.250000
#
# Coordination Sequence:
#
# PCOD8216790 Si02
#       8
#     8   8   8   8   8   8   8   8
#     4  12  22  39  63  92 121 168 213 253 311 376
#     4  11  24  40  56  88 132 174 213 256 299 352
#     4  10  23  43  67  96 126 152 189 256 324 386
#     4  11  22  37  57  92 131 165 209 259 305 371
#     4  12  22  38  65  89 120 171 211 253 308 376
#     4  10  23  43  67  97 124 151 194 253 325 383
#     4  11  22  37  59  91 131 167 205 259 311 371
#     4  11  22  38  59  85 123 168 216 258 294 354
#
# _framework density 20.35399
#
# number of rings (size 3 to 8) (size 9 to 14) (size 15 to 20)
#    0.000    1.000    1.250    7.500    3.500    0.000 
#    2.250    0.000    0.000    4.500    0.000    0.000 
#    0.000    0.000    0.000    0.000    0.000    0.000 
#
# Total GULP energy -793135.663700 kJ/mol
# GULP energy per Si atom -12392.744745 kJ/mol
# Density = 2.030766 g / cm^3
# Si number density = 20.353990 Si / 1000 Ang^3
#
#
#
# Elastic Constant Matrix: (Units=GPa)
#
#
# Indices 1 2 3 4 5 6 
#
# 1 108.5492 23.1945 45.8600 0.0000 0.0000 0.0000
# 2 23.1945 66.9491 23.5455 0.0000 0.0000 0.0000
# 3 45.8600 23.5455 94.2586 0.0000 0.0000 0.0000
# 4 0.0000 0.0000 0.0000 49.4849 0.0000 0.0000
# 5 0.0000 0.0000 0.0000 0.0000 8.8161 0.0000
# 6 0.0000 0.0000 0.0000 0.0000 0.0000 13.6279
#
#
#
# Elastic Compliance Matrix: (Units=1/GPa)
#
#
# Indices 1 2 3 4 5 6 
#
# 1 0.011908 -0.002289 -0.005222 0.000000 0.000000 0.000000
# 2 -0.002289 0.016815 -0.003087 0.000000 0.000000 0.000000
# 3 -0.005222 -0.003087 0.013921 0.000000 0.000000 0.000000
# 4 0.000000 0.000000 0.000000 0.020208 0.000000 0.000000
# 5 0.000000 0.000000 0.000000 0.000000 0.113429 0.000000
# 6 0.000000 0.000000 0.000000 0.000000 0.000000 0.073379
#
#
# Mechanical properties :
#
#
# Convention : Reuss Voigt Hill
#
# Bulk Modulus (GPa) = 46.62260 50.55078 48.58669
# Shear Modulus (GPa) = 17.98534 26.19623 22.09079
#
# Velocity S-wave (km/s) = 2.97581 3.59141 3.29801
# Velocity P-wave (km/s) = 5.89601 6.48748 6.19880
#
# Compressibility (1/GPa) = 0.02144882
#
# Stress axis : x y z
#
# Youngs Moduli (GPa) = 83.98021 59.46952 71.83546
#
# Poissons Ratio (x) = 0.13612 0.37510
# Poissons Ratio (y) = 0.19223 0.22174
# Poissons Ratio (z) = 0.43852 0.18357
#
# Static dielectric constant tensor:
#      x y z
#    x 3.335990 0.000000 0.000000 
#    y 0.000000 4.056100 0.000000 
#    z 0.000000 0.000000 3.798210 
# 
# 
# High freq. dielectric constant tensor:
#      x y z
#    x 1.758390 0.000000 0.000000 
#    y 0.000000 1.823350 0.000000 
#    z 0.000000 0.000000 1.802780 
# 
# From -- ./inp_files/23224.got.cif
#   From: 2010.06.25/outbox.cif.g09.slc.cpg/sg52_12_cif.got.tgz:23224.got - 2010.06.26 19:32:48.
