data_PCOD8216639
_publ_section_title
;
Structure prediction by ZEFSAII (Michael W. Deem and Ramdas Pophale) SiO2 
 PCOD8216639
Probable space group: P N N A
;
_chemical_formula_sum "Si O2"
_cell_formula_units_Z 36
_cell_length_a 21.564323
_cell_length_b 8.841003
_cell_length_c 8.521299
_cell_angle_alpha 90.000000
_cell_angle_beta 90.000000
_cell_angle_gamma 90.000000
_cell_volume 1624.587736
_symmetry_space_group_name_H-M "P N N A"
_symmetry_group_IT_number 52
_symmetry_cell_setting 'orthorhombic'
loop_
_space_group_symop_operation_xyz
x,y,z
1/2-x,-y,z
x,1/2-y,1/2-z
1/2-x,1/2+y,1/2-z
-x,-y,-z
1/2+x,y,-z
-x,1/2+y,1/2+z
1/2+x,1/2-y,1/2+z
loop_
_atom_site_type_symbol
_atom_site_label
_atom_site_fract_x
_atom_site_fract_y
_atom_site_fract_z
Si Si1 0.545415 0.907347 0.304767
Si Si2 0.741557 0.250000 0.250000
Si Si3 0.186628 0.081011 0.199363
Si Si4 0.330511 0.487023 0.648286
Si Si5 0.074438 0.904759 0.340171
O O1 0.514953 0.750000 0.250000
O O2 0.576270 0.883841 0.473814
O O3 0.598814 0.951982 0.183379
O O4 0.493090 0.033767 0.293736
O O5 0.697040 0.396523 0.215647
O O6 0.790469 0.330074 0.372160
O O7 0.196396 0.250000 0.250000
O O8 0.250000 0.000000 0.246939
O O9 0.129043 0.016903 0.295771
O O10 0.172474 0.075957 0.014546
O O11 0.086215 0.750000 0.250000
#
# Coordination Sequence:
#
# PCOD8216639 Si02
#       5
#     8   4   8   8   8
#     4  11  25  46  71  97 138 184 232 286 342 421
#     4  10  22  42  70 104 140 180 236 276 342 424
#     4  12  27  47  70 103 146 181 229 289 353 411
#     4  11  24  43  73 102 140 188 231 284 346 417
#     4  11  27  45  70 105 135 181 233 289 353 406
#
# _framework density 22.159468
#
# number of rings (size 3 to 8) (size 9 to 14) (size 15 to 20)
#    0.000    0.889    3.333    2.667    4.667    7.111 
#    0.000    0.000    0.000    0.000    0.000    0.000 
#    0.000    0.000    0.000    0.000    0.000    0.000 
#
# Total GULP energy -446003.624052 kJ/mol
# GULP energy per Si atom -12388.989557 kJ/mol
# Density = 2.210903 g / cm^3
# Si number density = 22.159468 Si / 1000 Ang^3
#
#
#
# Elastic Constant Matrix: (Units=GPa)
#
#
# Indices 1 2 3 4 5 6 
#
# 1 113.6925 31.4501 34.9615 0.0000 0.0000 0.0000
# 2 31.4501 143.2653 49.6413 0.0000 0.0000 0.0000
# 3 34.9615 49.6413 92.0543 0.0000 0.0000 0.0000
# 4 0.0000 0.0000 0.0000 36.5040 0.0000 0.0000
# 5 0.0000 0.0000 0.0000 0.0000 26.8821 0.0000
# 6 0.0000 0.0000 0.0000 0.0000 0.0000 -25.7524
#
#
#
# Elastic Compliance Matrix: (Units=1/GPa)
#
#
# Indices 1 2 3 4 5 6 
#
# 1 0.010096 -0.001092 -0.003246 0.000000 0.000000 0.000000
# 2 -0.001092 0.008702 -0.004278 0.000000 0.000000 0.000000
# 3 -0.003246 -0.004278 0.014403 0.000000 0.000000 0.000000
# 4 0.000000 0.000000 0.000000 0.027394 0.000000 0.000000
# 5 0.000000 0.000000 0.000000 0.000000 0.037199 0.000000
# 6 0.000000 0.000000 0.000000 0.000000 0.000000 -0.038831
#
#
# Mechanical properties :
#
#
# Convention : Reuss Voigt Hill
#
# Bulk Modulus (GPa) = 62.61772 64.56866 63.59319
# Shear Modulus (GPa) = 61.33701 23.05735 42.19718
#
# Velocity S-wave (km/s) = 5.26687 3.22921 4.36851
# Velocity P-wave (km/s) = 8.08119 6.56545 7.36243
#
# Compressibility (1/GPa) = 0.01596992
#
# Stress axis : x y z
#
# Youngs Moduli (GPa) = 99.05229 114.91549 69.43097
#
# Poissons Ratio (x) = 0.12545 0.22534
# Poissons Ratio (y) = 0.10813 0.29703
# Poissons Ratio (z) = 0.32148 0.49162
#
# Static dielectric constant tensor:
#      x y z
#    x 4.149690 0.000000 0.000000 
#    y 0.000000 4.245780 0.000000 
#    z 0.000000 0.000000 3.927410 
# 
# 
# High freq. dielectric constant tensor:
#      x y z
#    x 1.896230 0.000000 0.000000 
#    y 0.000000 1.888080 0.000000 
#    z 0.000000 0.000000 1.851900 
# 
# From -- ./inp_files/12953.got.cif
#   From: 2010.06.25/outbox.cif.g09.slc.cpg/sg52_7_cif.got.tgz:12953.got - 2010.06.26 19:32:48.
