data_PCOD8216622
_publ_section_title
;
Structure prediction by ZEFSAII (Michael W. Deem and Ramdas Pophale) SiO2 
 PCOD8216622
Probable space group: P N N A
;
_chemical_formula_sum "Si O2"
_cell_formula_units_Z 36
_cell_length_a 8.385582
_cell_length_b 9.852351
_cell_length_c 19.006906
_cell_angle_alpha 90.000000
_cell_angle_beta 90.000000
_cell_angle_gamma 90.000000
_cell_volume 1570.306805
_symmetry_space_group_name_H-M "P N N A"
_symmetry_group_IT_number 52
_symmetry_cell_setting 'orthorhombic'
loop_
_space_group_symop_operation_xyz
x,y,z
1/2-x,-y,z
x,1/2-y,1/2-z
1/2-x,1/2+y,1/2-z
-x,-y,-z
1/2+x,y,-z
-x,1/2+y,1/2+z
1/2+x,1/2-y,1/2+z
loop_
_atom_site_type_symbol
_atom_site_label
_atom_site_fract_x
_atom_site_fract_y
_atom_site_fract_z
Si Si1 0.250000 0.000000 0.084704
Si Si2 0.521367 0.680826 0.446123
Si Si3 0.268516 0.352036 0.049002
Si Si4 0.768600 0.151309 0.188978
Si Si5 0.915149 0.267251 0.669142
O O1 0.399612 0.946573 0.036416
O O2 0.195091 0.883547 0.137523
O O3 0.413285 0.813173 0.435398
O O4 0.650236 0.726026 0.505001
O O5 0.607626 0.643641 0.374087
O O6 0.250000 0.500000 0.011972
O O7 0.369646 0.365524 0.121924
O O8 0.833757 0.250000 0.250000
O O9 0.601806 0.206396 0.159473
O O10 0.750000 0.000000 0.220847
O O11 0.868348 0.250000 0.750000
#
# Coordination Sequence:
#
# PCOD8216622 Si02
#       5
#     4   8   8   8   8
#     4  10  22  42  66 100 136 182 224 286 338 416
#     4  11  24  43  69  99 137 182 232 283 347 415
#     4  11  25  44  68 102 137 183 230 291 353 415
#     4  11  24  45  70 102 141 183 235 288 353 420
#     4  10  23  41  66  99 134 182 222 285 345 416
#
# _framework density 22.925456000000001
#
# number of rings (size 3 to 8) (size 9 to 14) (size 15 to 20)
#    0.000    1.333    2.222    2.000    1.556   11.556 
#   10.000    0.000    0.000    0.000    0.000    0.000 
#    0.000    0.000    0.000    0.000    0.000    0.000 
#
# Total GULP energy -446068.672539 kJ/mol
# GULP energy per Si atom -12390.796459 kJ/mol
# Density = 2.287328 g / cm^3
# Si number density = 22.925456 Si / 1000 Ang^3
#
#
#
# Elastic Constant Matrix: (Units=GPa)
#
#
# Indices 1 2 3 4 5 6 
#
# 1 101.9842 23.3753 49.0018 0.0000 0.0000 0.0000
# 2 23.3753 117.2505 35.8475 0.0000 0.0000 0.0000
# 3 49.0018 35.8475 119.4822 0.0000 0.0000 0.0000
# 4 0.0000 0.0000 0.0000 25.3432 0.0000 0.0000
# 5 0.0000 0.0000 0.0000 0.0000 40.9815 0.0000
# 6 0.0000 0.0000 0.0000 0.0000 0.0000 33.3427
#
#
#
# Elastic Compliance Matrix: (Units=1/GPa)
#
#
# Indices 1 2 3 4 5 6 
#
# 1 0.012318 -0.001003 -0.004751 0.000000 0.000000 0.000000
# 2 -0.001003 0.009472 -0.002430 0.000000 0.000000 0.000000
# 3 -0.004751 -0.002430 0.011047 0.000000 0.000000 0.000000
# 4 0.000000 0.000000 0.000000 0.039458 0.000000 0.000000
# 5 0.000000 0.000000 0.000000 0.000000 0.024401 0.000000
# 6 0.000000 0.000000 0.000000 0.000000 0.000000 0.029992
#
#
# Mechanical properties :
#
#
# Convention : Reuss Voigt Hill
#
# Bulk Modulus (GPa) = 60.72371 61.68513 61.20442
# Shear Modulus (GPa) = 33.65955 35.29964 34.47959
#
# Velocity S-wave (km/s) = 3.83589 3.92823 3.88233
# Velocity P-wave (km/s) = 6.79439 6.89492 6.84484
#
# Compressibility (1/GPa) = 0.01646803
#
# Stress axis : x y z
#
# Youngs Moduli (GPa) = 81.18132 105.57667 90.52221
#
# Poissons Ratio (x) = 0.10592 0.43006
# Poissons Ratio (y) = 0.08145 0.22000
# Poissons Ratio (z) = 0.38568 0.25658
#
# Static dielectric constant tensor:
#      x y z
#    x 4.451730 0.000000 0.000000 
#    y 0.000000 4.503660 0.000000 
#    z 0.000000 0.000000 4.166770 
# 
# 
# High freq. dielectric constant tensor:
#      x y z
#    x 1.927850 0.000000 0.000000 
#    y 0.000000 1.913030 0.000000 
#    z 0.000000 0.000000 1.889130 
# 
# From -- ./inp_files/35586.got.cif
#   From: 2010.06.25/outbox.cif.g09.slc.cpg/sg52_18_cif.got.tgz:35586.got - 2010.06.26 19:32:48.
