data_PCOD8216363
_publ_section_title
;
Structure prediction by ZEFSAII (Michael W. Deem and Ramdas Pophale) SiO2 
 PCOD8216363
Probable space group: P N N A
;
_chemical_formula_sum "Si O2"
_cell_formula_units_Z 48
_cell_length_a 8.890263
_cell_length_b 15.265815
_cell_length_c 18.261282
_cell_angle_alpha 90.000000
_cell_angle_beta 90.000000
_cell_angle_gamma 90.000000
_cell_volume 2478.368423
_symmetry_space_group_name_H-M "P N N A"
_symmetry_group_IT_number 52
_symmetry_cell_setting 'orthorhombic'
loop_
_space_group_symop_operation_xyz
x,y,z
1/2-x,-y,z
x,1/2-y,1/2-z
1/2-x,1/2+y,1/2-z
-x,-y,-z
1/2+x,y,-z
-x,1/2+y,1/2+z
1/2+x,1/2-y,1/2+z
loop_
_atom_site_type_symbol
_atom_site_label
_atom_site_fract_x
_atom_site_fract_y
_atom_site_fract_z
Si Si1 0.540760 0.922406 0.906431
Si Si2 0.906662 0.603193 0.068612
Si Si3 0.555168 0.593441 0.077576
Si Si4 0.250000 0.000000 0.209389
Si Si5 0.363514 0.831680 0.299077
Si Si6 0.250000 0.500000 0.524438
Si Si7 0.939448 0.262938 0.835860
O O1 0.603087 0.980643 0.839606
O O2 0.369771 0.949503 0.924918
O O3 0.533778 0.822505 0.883393
O O4 0.654246 0.931950 0.975186
O O5 0.729450 0.603062 0.063555
O O6 0.982975 0.509287 0.084717
O O7 0.946239 0.664487 0.136205
O O8 0.968925 0.637327 0.990795
O O9 0.504563 0.640245 0.152090
O O10 0.205415 0.085863 0.255182
O O11 0.419812 0.750000 0.250000
O O12 0.230216 0.795419 0.350287
O O13 0.969115 0.250000 0.750000
#
# Coordination Sequence:
#
# PCOD8216363 Si02
#       7
#     8   8   8   4   8   4   8
#     4  10  21  42  64  91 124 161 210 256 319 374
#     4  10  22  41  61  88 124 156 212 258 312 376
#     4  10  22  40  63  89 119 168 202 259 317 369
#     4  11  20  42  64  88 131 164 204 260 305 388
#     4  11  22  39  64  93 123 167 209 249 317 381
#     4   9  22  42  66  92 117 168 208 258 317 376
#     4  11  22  40  61  94 125 164 207 261 317 376
#
# _framework density 19.36758
#
# number of rings (size 3 to 8) (size 9 to 14) (size 15 to 20)
#    0.000    1.667    3.333    2.000    0.000    6.000 
#    9.000    0.000    0.000    0.000    0.000    0.000 
#    0.000    0.000    0.000    0.000    0.000    0.000 
#
# Total GULP energy -595171.120517 kJ/mol
# GULP energy per Si atom -12399.398344 kJ/mol
# Density = 1.932350 g / cm^3
# Si number density = 19.367580 Si / 1000 Ang^3
#
#
#
# Elastic Constant Matrix: (Units=GPa)
#
#
# Indices 1 2 3 4 5 6 
#
# 1 110.3745 47.2954 59.5896 0.0000 0.0000 0.0000
# 2 47.2954 106.3412 60.3855 0.0000 0.0000 0.0000
# 3 59.5896 60.3855 103.0903 0.0000 0.0000 0.0000
# 4 0.0000 0.0000 0.0000 31.0657 0.0000 0.0000
# 5 0.0000 0.0000 0.0000 0.0000 26.6801 0.0000
# 6 0.0000 0.0000 0.0000 0.0000 0.0000 26.8329
#
#
#
# Elastic Compliance Matrix: (Units=1/GPa)
#
#
# Indices 1 2 3 4 5 6 
#
# 1 0.013556 -0.002367 -0.006450 0.000000 0.000000 0.000000
# 2 -0.002367 0.014504 -0.007127 0.000000 0.000000 0.000000
# 3 -0.006450 -0.007127 0.017603 0.000000 0.000000 0.000000
# 4 0.000000 0.000000 0.000000 0.032190 0.000000 0.000000
# 5 0.000000 0.000000 0.000000 0.000000 0.037481 0.000000
# 6 0.000000 0.000000 0.000000 0.000000 0.000000 0.037268
#
#
# Mechanical properties :
#
#
# Convention : Reuss Voigt Hill
#
# Bulk Modulus (GPa) = 72.59305 72.70523 72.64914
# Shear Modulus (GPa) = 26.44365 27.08479 26.76422
#
# Velocity S-wave (km/s) = 3.69908 3.74366 3.72144
# Velocity P-wave (km/s) = 7.47043 7.50385 7.48716
#
# Compressibility (1/GPa) = 0.01377542
#
# Stress axis : x y z
#
# Youngs Moduli (GPa) = 73.76659 68.94821 56.80759
#
# Poissons Ratio (x) = 0.16318 0.36639
# Poissons Ratio (y) = 0.17459 0.40490
# Poissons Ratio (z) = 0.47577 0.49143
#
# Static dielectric constant tensor:
#      x y z
#    x 3.506060 0.000000 0.000000 
#    y 0.000000 3.662840 0.000000 
#    z 0.000000 0.000000 3.595290 
# 
# 
# High freq. dielectric constant tensor:
#      x y z
#    x 1.753880 0.000000 0.000000 
#    y 0.000000 1.757960 0.000000 
#    z 0.000000 0.000000 1.757140 
# 
# From -- ./inp_files/31284.got.cif
#   From: 2010.06.25/outbox.cif.g09.slc.cpg/sg52_16_cif.got.tgz:31284.got - 2010.06.26 19:32:48.
