data_PCOD8216828
_publ_section_title
;
Structure prediction by ZEFSAII (Michael W. Deem and Ramdas Pophale) SiO2 
 PCOD8216828
Probable space group: P N N A
;
_chemical_formula_sum "Si O2"
_cell_formula_units_Z 40
_cell_length_a 13.139221
_cell_length_b 8.671458
_cell_length_c 17.510588
_cell_angle_alpha 90.000000
_cell_angle_beta 90.000000
_cell_angle_gamma 90.000000
_cell_volume 1995.089910
_symmetry_space_group_name_H-M "P N N A"
_symmetry_group_IT_number 52
_symmetry_cell_setting 'orthorhombic'
loop_
_space_group_symop_operation_xyz
x,y,z
1/2-x,-y,z
x,1/2-y,1/2-z
1/2-x,1/2+y,1/2-z
-x,-y,-z
1/2+x,y,-z
-x,1/2+y,1/2+z
1/2+x,1/2-y,1/2+z
loop_
_atom_site_type_symbol
_atom_site_label
_atom_site_fract_x
_atom_site_fract_y
_atom_site_fract_z
Si Si1 0.750000 0.500000 0.183359
Si Si2 0.250000 0.500000 0.069260
Si Si3 0.738251 0.254211 0.054408
Si Si4 0.149873 0.919406 0.284137
Si Si5 0.587793 0.981458 0.060540
Si Si6 0.052985 0.926023 0.768617
O O1 0.760192 0.348358 0.131467
O O2 0.848971 0.518310 0.237060
O O3 0.163432 0.577133 0.123463
O O4 0.293573 0.635020 0.015544
O O5 0.838514 0.156430 0.033661
O O6 0.644559 0.143019 0.069014
O O7 0.137690 0.750000 0.250000
O O8 0.250000 0.000000 0.245985
O O9 0.049375 0.016130 0.270213
O O10 0.538359 0.945434 0.141597
O O11 0.500000 0.000000 0.000000
O O12 0.070259 0.750000 0.750000
#
# Coordination Sequence:
#
# PCOD8216828 Si02
#       6
#     4   4   8   8   8   8
#     4  11  24  44  72  93 140 174 240 283 348 408
#     4   9  24  44  70  91 136 176 224 283 338 414
#     4  10  23  46  65  98 133 181 224 283 344 417
#     4  10  25  44  70 102 131 180 230 285 348 408
#     4  11  26  40  67  99 137 178 228 280 352 406
#     4  12  26  43  70 103 138 181 235 292 344 411
#
# _framework density 20.049222
#
# number of rings (size 3 to 8) (size 9 to 14) (size 15 to 20)
#    0.600    0.800    2.000    1.800    8.400    0.000 
#    0.000    4.000    0.000    0.000    0.000    0.000 
#    0.000    0.000    0.000    0.000    0.000    0.000 
#
# Total GULP energy -496010.425719 kJ/mol
# GULP energy per Si atom -12400.260643 kJ/mol
# Density = 2.000359 g / cm^3
# Si number density = 20.049222 Si / 1000 Ang^3
#
#
#
# Elastic Constant Matrix: (Units=GPa)
#
#
# Indices 1 2 3 4 5 6 
#
# 1 124.8605 19.5405 37.8986 0.0000 0.0000 0.0000
# 2 19.5405 95.5367 35.1696 0.0000 0.0000 0.0000
# 3 37.8986 35.1696 141.7133 0.0000 0.0000 0.0000
# 4 0.0000 0.0000 0.0000 23.1810 0.0000 0.0000
# 5 0.0000 0.0000 0.0000 0.0000 36.0002 0.0000
# 6 0.0000 0.0000 0.0000 0.0000 0.0000 24.0195
#
#
#
# Elastic Compliance Matrix: (Units=1/GPa)
#
#
# Indices 1 2 3 4 5 6 
#
# 1 0.008807 -0.001028 -0.002100 0.000000 0.000000 0.000000
# 2 -0.001028 0.011640 -0.002614 0.000000 0.000000 0.000000
# 3 -0.002100 -0.002614 0.008267 0.000000 0.000000 0.000000
# 4 0.000000 0.000000 0.000000 0.043139 0.000000 0.000000
# 5 0.000000 0.000000 0.000000 0.000000 0.027778 0.000000
# 6 0.000000 0.000000 0.000000 0.000000 0.000000 0.041633
#
#
# Mechanical properties :
#
#
# Convention : Reuss Voigt Hill
#
# Bulk Modulus (GPa) = 58.03979 60.81423 59.42701
# Shear Modulus (GPa) = 31.54763 34.60692 33.07728
#
# Velocity S-wave (km/s) = 3.97105 4.15914 4.06618
# Velocity P-wave (km/s) = 7.07369 7.31183 7.19375
#
# Compressibility (1/GPa) = 0.01722956
#
# Stress axis : x y z
#
# Youngs Moduli (GPa) = 113.54187 85.91314 120.96584
#
# Poissons Ratio (x) = 0.08834 0.25405
# Poissons Ratio (y) = 0.11675 0.31617
# Poissons Ratio (z) = 0.23846 0.22455
#
# Static dielectric constant tensor:
#      x y z
#    x 3.771780 0.000000 0.000000 
#    y 0.000000 3.730100 0.000000 
#    z 0.000000 0.000000 3.805500 
# 
# 
# High freq. dielectric constant tensor:
#      x y z
#    x 1.779650 0.000000 0.000000 
#    y 0.000000 1.796950 0.000000 
#    z 0.000000 0.000000 1.790120 
# 
# From -- ./inp_files/32005.got.cif
#   From: 2010.06.25/outbox.cif.g09.slc.cpg/sg52_17_cif.got.tgz:32005.got - 2010.06.26 19:32:48.
