data_PCOD8216803
_publ_section_title
;
Structure prediction by ZEFSAII (Michael W. Deem and Ramdas Pophale) SiO2 
 PCOD8216803
Probable space group: P N N A
;
_chemical_formula_sum "Si O2"
_cell_formula_units_Z 48
_cell_length_a 16.724487
_cell_length_b 26.103733
_cell_length_c 5.259286
_cell_angle_alpha 90.000000
_cell_angle_beta 90.000000
_cell_angle_gamma 90.000000
_cell_volume 2296.054605
_symmetry_space_group_name_H-M "P N N A"
_symmetry_group_IT_number 52
_symmetry_cell_setting 'orthorhombic'
loop_
_space_group_symop_operation_xyz
x,y,z
1/2-x,-y,z
x,1/2-y,1/2-z
1/2-x,1/2+y,1/2-z
-x,-y,-z
1/2+x,y,-z
-x,1/2+y,1/2+z
1/2+x,1/2-y,1/2+z
loop_
_atom_site_type_symbol
_atom_site_label
_atom_site_fract_x
_atom_site_fract_y
_atom_site_fract_z
Si Si1 0.440010 0.168007 0.075503
Si Si2 0.673851 0.750000 0.750000
Si Si3 0.307706 0.095180 0.946724
Si Si4 0.779517 0.750000 0.250000
Si Si5 0.483415 0.750000 0.250000
Si Si6 0.214055 0.400567 0.075201
Si Si7 0.250000 0.500000 0.310690
Si Si8 0.595726 0.175191 0.376284
O O1 0.381895 0.199516 0.261342
O O2 0.397693 0.117372 0.961360
O O3 0.522417 0.152544 0.214712
O O4 0.459743 0.204698 0.841377
O O5 0.726317 0.754107 0.499335
O O6 0.256942 0.123047 0.173452
O O7 0.308848 0.033997 0.009286
O O8 0.270048 0.106251 0.672196
O O9 0.831190 0.802195 0.210647
O O10 0.428145 0.774102 0.466590
O O11 0.129128 0.372212 0.042582
O O12 0.198745 0.461289 0.130874
#
# Coordination Sequence:
#
# PCOD8216803 Si02
#       8
#     8   4   8   4   4   8   4   8
#     4  12  25  41  63  97 142 183 225 274 343 403
#     4  12  24  40  61  93 128 180 228 270 314 400
#     4  10  23  43  71 101 127 175 225 286 337 408
#     4  12  24  40  63  89 132 176 236 266 320 398
#     4  12  24  42  62  90 156 184 226 268 340 410
#     4  10  23  43  72 100 130 171 228 283 344 402
#     4   8  22  44  76  98 132 158 240 292 346 390
#     4  12  25  42  62  98 139 188 222 281 337 409
#
# _framework density 20.905428000000001
#
# number of rings (size 3 to 8) (size 9 to 14) (size 15 to 20)
#    1.000    0.000    3.333    3.500    4.667    0.000 
#    0.000    0.833    0.000    3.000    0.000    0.000 
#    0.000    0.000    0.000    0.000    0.000    0.000 
#
# Total GULP energy -594821.274502 kJ/mol
# GULP energy per Si atom -12392.109885 kJ/mol
# Density = 2.085785 g / cm^3
# Si number density = 20.905428 Si / 1000 Ang^3
#
#
#
# Elastic Constant Matrix: (Units=GPa)
#
#
# Indices 1 2 3 4 5 6 
#
# 1 93.8474 27.5871 27.0979 0.0000 0.0000 0.0000
# 2 27.5871 83.6245 0.7509 0.0000 0.0000 0.0000
# 3 27.0979 0.7509 108.4288 0.0000 0.0000 0.0000
# 4 0.0000 0.0000 0.0000 27.4962 0.0000 0.0000
# 5 0.0000 0.0000 0.0000 0.0000 -16.9973 0.0000
# 6 0.0000 0.0000 0.0000 0.0000 0.0000 36.8097
#
#
#
# Elastic Compliance Matrix: (Units=1/GPa)
#
#
# Indices 1 2 3 4 5 6 
#
# 1 0.012805 -0.004196 -0.003171 0.000000 0.000000 0.000000
# 2 -0.004196 0.013334 0.000956 0.000000 0.000000 0.000000
# 3 -0.003171 0.000956 0.010008 0.000000 0.000000 0.000000
# 4 0.000000 0.000000 0.000000 0.036369 0.000000 0.000000
# 5 0.000000 0.000000 0.000000 0.000000 -0.058833 0.000000
# 6 0.000000 0.000000 0.000000 0.000000 0.000000 0.027167
#
#
# Mechanical properties :
#
#
# Convention : Reuss Voigt Hill
#
# Bulk Modulus (GPa) = 42.87073 44.08584 43.47829
# Shear Modulus (GPa) = 81.37290 24.82604 53.09947
#
# Velocity S-wave (km/s) = 6.24570 3.44981 5.04529
# Velocity P-wave (km/s) = 8.51841 6.08295 7.40154
#
# Compressibility (1/GPa) = 0.02332594
#
# Stress axis : x y z
#
# Youngs Moduli (GPa) = 78.09724 74.99763 99.91514
#
# Poissons Ratio (x) = 0.31466 0.31683
# Poissons Ratio (y) = 0.32767 -0.09554
# Poissons Ratio (z) = 0.24764 -0.07171
#
# Static dielectric constant tensor:
#      x y z
#    x 3.820740 0.000000 0.000000 
#    y 0.000000 3.685160 0.000000 
#    z 0.000000 0.000000 3.441500 
# 
# 
# High freq. dielectric constant tensor:
#      x y z
#    x 1.805710 0.000000 0.000000 
#    y 0.000000 1.806330 0.000000 
#    z 0.000000 0.000000 1.828260 
# 
# From -- ./inp_files/2529.got.cif
#   From: 2010.06.25/outbox.cif.g09.slc.cpg/sg52_2_cif.got.tgz:2529.got - 2010.06.26 19:32:48.
