data_PCOD8216868
_publ_section_title
;
Structure prediction by ZEFSAII (Michael W. Deem and Ramdas Pophale) SiO2 
 PCOD8216868
Probable space group: P N N A
;
_chemical_formula_sum "Si O2"
_cell_formula_units_Z 40
_cell_length_a 11.945726
_cell_length_b 16.308712
_cell_length_c 8.620645
_cell_angle_alpha 90.000000
_cell_angle_beta 90.000000
_cell_angle_gamma 90.000000
_cell_volume 1679.468929
_symmetry_space_group_name_H-M "P N N A"
_symmetry_group_IT_number 52
_symmetry_cell_setting 'orthorhombic'
loop_
_space_group_symop_operation_xyz
x,y,z
1/2-x,-y,z
x,1/2-y,1/2-z
1/2-x,1/2+y,1/2-z
-x,-y,-z
1/2+x,y,-z
-x,1/2+y,1/2+z
1/2+x,1/2-y,1/2+z
loop_
_atom_site_type_symbol
_atom_site_label
_atom_site_fract_x
_atom_site_fract_y
_atom_site_fract_z
Si Si1 0.365631 0.848907 0.566880
Si Si2 0.750000 0.500000 0.497180
Si Si3 0.143382 0.401175 0.269219
Si Si4 0.495941 0.303426 0.529596
Si Si5 0.192321 0.750000 0.750000
Si Si6 0.964945 0.956263 0.190451
O O1 0.315027 0.880664 0.403684
O O2 0.456570 0.776642 0.555327
O O3 0.266353 0.823787 0.682569
O O4 0.426603 0.926532 0.641528
O O5 0.753792 0.579743 0.613261
O O6 0.862598 0.496375 0.394632
O O7 0.077933 0.321332 0.326446
O O8 0.063500 0.480442 0.280198
O O9 0.375244 0.286208 0.604369
O O10 0.492544 0.379644 0.411954
#
# Coordination Sequence:
#
# PCOD8216868 Si02
#       6
#     8   4   8   8   4   8
#     4  12  25  45  72 110 143 191 260 298 364 452
#     4  10  24  42  68 104 142 190 232 280 378 436
#     4  11  25  45  70 105 151 185 242 310 363 441
#     4  11  23  47  72 104 147 193 246 305 364 436
#     4  12  26  44  80 100 148 198 246 314 370 422
#     4  11  25  43  75 105 150 195 238 304 373 436
#
# _framework density 23.817050999999999
#
# number of rings (size 3 to 8) (size 9 to 14) (size 15 to 20)
#    0.000    0.800    4.000    3.000    5.600    2.400 
#    0.000    4.000    0.000    0.000    0.000    0.000 
#    0.000    0.000    0.000    0.000    0.000    0.000 
#
# Total GULP energy -495943.064749 kJ/mol
# GULP energy per Si atom -12398.576619 kJ/mol
# Density = 2.376284 g / cm^3
# Si number density = 23.817051 Si / 1000 Ang^3
#
#
#
# Elastic Constant Matrix: (Units=GPa)
#
#
# Indices 1 2 3 4 5 6 
#
# 1 90.5750 38.8080 31.6266 0.0000 0.0000 0.0000
# 2 38.8080 94.6881 39.3623 0.0000 0.0000 0.0000
# 3 31.6266 39.3623 109.0766 0.0000 0.0000 0.0000
# 4 0.0000 0.0000 0.0000 31.2663 0.0000 0.0000
# 5 0.0000 0.0000 0.0000 0.0000 36.6200 0.0000
# 6 0.0000 0.0000 0.0000 0.0000 0.0000 23.3336
#
#
#
# Elastic Compliance Matrix: (Units=1/GPa)
#
#
# Indices 1 2 3 4 5 6 
#
# 1 0.013873 -0.004722 -0.002318 0.000000 0.000000 0.000000
# 2 -0.004722 0.014032 -0.003695 0.000000 0.000000 0.000000
# 3 -0.002318 -0.003695 0.011173 0.000000 0.000000 0.000000
# 4 0.000000 0.000000 0.000000 0.031983 0.000000 0.000000
# 5 0.000000 0.000000 0.000000 0.000000 0.027307 0.000000
# 6 0.000000 0.000000 0.000000 0.000000 0.000000 0.042857
#
#
# Mechanical properties :
#
#
# Convention : Reuss Voigt Hill
#
# Bulk Modulus (GPa) = 56.79091 57.10372 56.94732
# Shear Modulus (GPa) = 29.66188 30.54684 30.10436
#
# Velocity S-wave (km/s) = 3.53286 3.58517 3.55911
# Velocity P-wave (km/s) = 6.36693 6.41607 6.39155
#
# Compressibility (1/GPa) = 0.01760845
#
# Stress axis : x y z
#
# Youngs Moduli (GPa) = 72.08022 71.26433 89.49848
#
# Poissons Ratio (x) = 0.33653 0.20750
# Poissons Ratio (y) = 0.34038 0.33066
# Poissons Ratio (z) = 0.16712 0.26329
#
# Static dielectric constant tensor:
#      x y z
#    x 4.257560 0.000000 0.000000 
#    y 0.000000 4.331360 0.000000 
#    z 0.000000 0.000000 4.633200 
# 
# 
# High freq. dielectric constant tensor:
#      x y z
#    x 1.933410 0.000000 0.000000 
#    y 0.000000 1.949470 0.000000 
#    z 0.000000 0.000000 1.959840 
# 
# From -- ./inp_files/8573.got.cif
#   From: 2010.06.25/outbox.cif.g09.slc.cpg/sg52_5_cif.got.tgz:8573.got - 2010.06.26 19:32:48.
