data_PCOD8216563
_publ_section_title
;
Structure prediction by ZEFSAII (Michael W. Deem and Ramdas Pophale) SiO2 
 PCOD8216563
Probable space group: P N N A
;
_chemical_formula_sum "Si O2"
_cell_formula_units_Z 56
_cell_length_a 14.559949
_cell_length_b 14.974160
_cell_length_c 11.513353
_cell_angle_alpha 90.000000
_cell_angle_beta 90.000000
_cell_angle_gamma 90.000000
_cell_volume 2510.175829
_symmetry_space_group_name_H-M "P N N A"
_symmetry_group_IT_number 52
_symmetry_cell_setting 'orthorhombic'
loop_
_space_group_symop_operation_xyz
x,y,z
1/2-x,-y,z
x,1/2-y,1/2-z
1/2-x,1/2+y,1/2-z
-x,-y,-z
1/2+x,y,-z
-x,1/2+y,1/2+z
1/2+x,1/2-y,1/2+z
loop_
_atom_site_type_symbol
_atom_site_label
_atom_site_fract_x
_atom_site_fract_y
_atom_site_fract_z
Si Si1 0.080834 0.516400 0.275163
Si Si2 0.246001 0.694052 0.508419
Si Si3 0.357981 0.503968 0.015546
Si Si4 0.580831 0.296221 0.973742
Si Si5 0.699384 0.750000 0.250000
Si Si6 0.750000 0.000000 0.931851
Si Si7 0.064743 0.792708 0.130358
Si Si8 0.054185 0.616040 0.818146
O O1 0.164702 0.478457 0.348985
O O2 0.045235 0.604008 0.341424
O O3 0.997663 0.445525 0.276161
O O4 0.115043 0.531675 0.143231
O O5 0.332163 0.734523 0.436848
O O6 0.261021 0.736709 0.636113
O O7 0.242364 0.586772 0.512806
O O8 0.149265 0.726674 0.456561
O O9 0.250000 0.500000 0.994877
O O10 0.412878 0.442138 0.927098
O O11 0.387420 0.605063 0.990633
O O12 0.513651 0.305283 0.863034
O O13 0.527758 0.250016 0.080472
O O14 0.639377 0.660215 0.245761
O O15 0.095878 0.750000 0.250000
#
# Coordination Sequence:
#
# PCOD8216563 Si02
#       8
#     8   8   8   8   4   4   8   8
#     4  10  22  40  70 102 134 176 230 288 354 411
#     4  11  27  46  67 101 140 185 235 286 354 421
#     4  11  22  42  69 101 142 177 230 292 354 413
#     4  11  24  43  71 100 136 181 236 281 353 416
#     4  12  26  48  64  96 144 184 236 282 340 430
#     4  10  24  46  68 102 138 180 236 294 354 418
#     4  11  23  42  70 101 141 173 232 297 343 410
#     4  11  24  43  68 100 140 185 234 286 350 421
#
# _framework density 22.309194999999999
#
# number of rings (size 3 to 8) (size 9 to 14) (size 15 to 20)
#    0.000    1.143    2.143    4.286    5.000    2.286 
#    6.429    2.857    0.000    0.000    0.000    0.000 
#    0.000    0.000    0.000    0.000    0.000    0.000 
#
# Total GULP energy -694503.827250 kJ/mol
# GULP energy per Si atom -12401.854058 kJ/mol
# Density = 2.225842 g / cm^3
# Si number density = 22.309195 Si / 1000 Ang^3
#
#
#
# Elastic Constant Matrix: (Units=GPa)
#
#
# Indices 1 2 3 4 5 6 
#
# 1 104.2840 40.2175 21.6074 0.0000 0.0000 0.0000
# 2 40.2175 92.4445 30.3278 0.0000 0.0000 0.0000
# 3 21.6074 30.3278 78.7104 0.0000 0.0000 0.0000
# 4 0.0000 0.0000 0.0000 28.0389 0.0000 0.0000
# 5 0.0000 0.0000 0.0000 0.0000 -114.5016 0.0000
# 6 0.0000 0.0000 0.0000 0.0000 0.0000 41.5741
#
#
#
# Elastic Compliance Matrix: (Units=1/GPa)
#
#
# Indices 1 2 3 4 5 6 
#
# 1 0.011661 -0.004605 -0.001427 0.000000 0.000000 0.000000
# 2 -0.004605 0.014201 -0.004208 0.000000 0.000000 0.000000
# 3 -0.001427 -0.004208 0.014718 0.000000 0.000000 0.000000
# 4 0.000000 0.000000 0.000000 0.035665 0.000000 0.000000
# 5 0.000000 0.000000 0.000000 0.000000 -0.008733 0.000000
# 6 0.000000 0.000000 0.000000 0.000000 0.000000 0.024053
#
#
# Mechanical properties :
#
#
# Convention : Reuss Voigt Hill
#
# Bulk Modulus (GPa) = 49.74912 51.08269 50.41590
# Shear Modulus (GPa) = 42.10776 3.24135 22.67456
#
# Velocity S-wave (km/s) = 4.34921 1.20668 3.19153
# Velocity P-wave (km/s) = 6.89703 4.98886 6.01904
#
# Compressibility (1/GPa) = 0.02010086
#
# Stress axis : x y z
#
# Youngs Moduli (GPa) = 85.75820 70.41761 67.94526
#
# Poissons Ratio (x) = 0.32426 0.09694
# Poissons Ratio (y) = 0.39490 0.28589
# Poissons Ratio (z) = 0.12236 0.29629
#
# Static dielectric constant tensor:
#      x y z
#    x 4.150380 0.000000 0.000000 
#    y 0.000000 4.128870 0.000000 
#    z 0.000000 0.000000 3.804690 
# 
# 
# High freq. dielectric constant tensor:
#      x y z
#    x 1.889550 0.000000 0.000000 
#    y 0.000000 1.890110 0.000000 
#    z 0.000000 0.000000 1.865290 
# 
# From -- ./inp_files/19679.got.cif
#   From: 2010.06.25/outbox.cif.g09.slc.cpg/sg52_10_cif.got.tgz:19679.got - 2010.06.26 19:32:48.
