data_PCOD8216351
_publ_section_title
;
Structure prediction by ZEFSAII (Michael W. Deem and Ramdas Pophale) SiO2 
 PCOD8216351
Probable space group: P N N A
;
_chemical_formula_sum "Si O2"
_cell_formula_units_Z 40
_cell_length_a 9.666143
_cell_length_b 14.001683
_cell_length_c 13.737083
_cell_angle_alpha 90.000000
_cell_angle_beta 90.000000
_cell_angle_gamma 90.000000
_cell_volume 1859.207998
_symmetry_space_group_name_H-M "P N N A"
_symmetry_group_IT_number 52
_symmetry_cell_setting 'orthorhombic'
loop_
_space_group_symop_operation_xyz
x,y,z
1/2-x,-y,z
x,1/2-y,1/2-z
1/2-x,1/2+y,1/2-z
-x,-y,-z
1/2+x,y,-z
-x,1/2+y,1/2+z
1/2+x,1/2-y,1/2+z
loop_
_atom_site_type_symbol
_atom_site_label
_atom_site_fract_x
_atom_site_fract_y
_atom_site_fract_z
Si Si1 0.360501 0.415513 0.443258
Si Si2 0.972567 0.163452 0.312049
Si Si3 0.217377 0.777912 0.355432
Si Si4 0.874376 0.071132 0.498349
Si Si5 0.907849 0.022871 0.150529
O O1 0.250000 0.500000 0.426841
O O2 0.287221 0.316013 0.421344
O O3 0.497038 0.430790 0.375822
O O4 0.408665 0.409577 0.555353
O O5 0.905396 0.250000 0.250000
O O6 0.877953 0.141161 0.405181
O O7 0.981741 0.072361 0.241535
O O8 0.125134 0.188911 0.348025
O O9 0.155312 0.750000 0.250000
O O10 0.130538 0.863681 0.404488
O O11 0.750000 0.000000 0.489343
O O12 0.000000 0.000000 0.500000
O O13 0.750000 0.000000 0.179628
#
# Coordination Sequence:
#
# PCOD8216351 Si02
#       5
#     8   8   8   8   8
#     4  10  21  41  70 101 139 177 231 294 358 421
#     4  11  23  44  71  97 135 184 238 289 354 424
#     4  11  25  42  70 101 133 185 237 287 342 431
#     4  12  26  48  71 101 146 190 235 294 359 432
#     4  10  22  41  67  99 137 177 225 296 358 411
#
# _framework density 21.514537000000001
#
# number of rings (size 3 to 8) (size 9 to 14) (size 15 to 20)
#    0.000    1.200    2.000    4.200    2.800    4.000 
#    3.600    0.000    0.000    0.000    0.000    0.000 
#    0.000    0.000    0.000    0.000    0.000    0.000 
#
# Total GULP energy -495967.238167 kJ/mol
# GULP energy per Si atom -12399.180954 kJ/mol
# Density = 2.146557 g / cm^3
# Si number density = 21.514537 Si / 1000 Ang^3
#
#
#
# Elastic Constant Matrix: (Units=GPa)
#
#
# Indices 1 2 3 4 5 6 
#
# 1 124.6280 65.4954 42.6118 0.0000 0.0000 0.0000
# 2 65.4954 131.5008 70.9884 0.0000 0.0000 0.0000
# 3 42.6118 70.9884 140.2524 0.0000 0.0000 0.0000
# 4 0.0000 0.0000 0.0000 46.4709 0.0000 0.0000
# 5 0.0000 0.0000 0.0000 0.0000 31.5642 0.0000
# 6 0.0000 0.0000 0.0000 0.0000 0.0000 34.7730
#
#
#
# Elastic Compliance Matrix: (Units=1/GPa)
#
#
# Indices 1 2 3 4 5 6 
#
# 1 0.010930 -0.005024 -0.000778 0.000000 0.000000 0.000000
# 2 -0.005024 0.012773 -0.004938 0.000000 0.000000 0.000000
# 3 -0.000778 -0.004938 0.009866 0.000000 0.000000 0.000000
# 4 0.000000 0.000000 0.000000 0.021519 0.000000 0.000000
# 5 0.000000 0.000000 0.000000 0.000000 0.031681 0.000000
# 6 0.000000 0.000000 0.000000 0.000000 0.000000 0.028758
#
#
# Mechanical properties :
#
#
# Convention : Reuss Voigt Hill
#
# Bulk Modulus (GPa) = 82.72644 83.84139 83.28392
# Shear Modulus (GPa) = 35.45169 37.04731 36.24950
#
# Velocity S-wave (km/s) = 4.06372 4.15416 4.10919
# Velocity P-wave (km/s) = 7.78160 7.87805 7.82997
#
# Compressibility (1/GPa) = 0.01208803
#
# Stress axis : x y z
#
# Youngs Moduli (GPa) = 91.49087 78.29221 101.35838
#
# Poissons Ratio (x) = 0.39333 0.07886
# Poissons Ratio (y) = 0.45964 0.50056
# Poissons Ratio (z) = 0.07118 0.38665
#
# Static dielectric constant tensor:
#      x y z
#    x 3.677420 0.000000 0.000000 
#    y 0.000000 3.983070 0.000000 
#    z 0.000000 0.000000 4.588770 
# 
# 
# High freq. dielectric constant tensor:
#      x y z
#    x 1.838460 0.000000 0.000000 
#    y 0.000000 1.844540 0.000000 
#    z 0.000000 0.000000 1.856950 
# 
# From -- ./inp_files/24443.got.cif
#   From: 2010.06.25/outbox.cif.g09.slc.cpg/sg52_13_cif.got.tgz:24443.got - 2010.06.26 19:32:48.
