data_PCOD8216028
_publ_section_title
;
Structure prediction by ZEFSAII (Michael W. Deem and Ramdas Pophale) SiO2 
 PCOD8216028
Probable space group: P N N A
;
_chemical_formula_sum "Si O2"
_cell_formula_units_Z 48
_cell_length_a 25.834793
_cell_length_b 13.608736
_cell_length_c 6.390760
_cell_angle_alpha 90.000000
_cell_angle_beta 90.000000
_cell_angle_gamma 90.000000
_cell_volume 2246.856228
_symmetry_space_group_name_H-M "P N N A"
_symmetry_group_IT_number 52
_symmetry_cell_setting 'orthorhombic'
loop_
_space_group_symop_operation_xyz
x,y,z
1/2-x,-y,z
x,1/2-y,1/2-z
1/2-x,1/2+y,1/2-z
-x,-y,-z
1/2+x,y,-z
-x,1/2+y,1/2+z
1/2+x,1/2-y,1/2+z
loop_
_atom_site_type_symbol
_atom_site_label
_atom_site_fract_x
_atom_site_fract_y
_atom_site_fract_z
Si Si1 0.961984 0.847455 0.865913
Si Si2 0.234443 0.750000 0.750000
Si Si3 0.999831 0.750000 0.250000
Si Si4 0.038047 0.587801 0.948727
Si Si5 0.621082 0.008081 0.689188
Si Si6 0.188877 0.847892 0.130787
Si Si7 0.710193 0.344473 0.872746
O O1 0.941680 0.750000 0.750000
O O2 0.921578 0.934387 0.824660
O O3 0.020267 0.876686 0.782936
O O4 0.964416 0.824167 0.112497
O O5 0.198355 0.677351 0.612942
O O6 0.270739 0.816142 0.603502
O O7 0.033911 0.681933 0.100763
O O8 0.095951 0.545873 0.984781
O O9 0.000000 0.500000 0.000000
O O10 0.665317 0.077014 0.597077
O O11 0.644827 0.929741 0.851013
O O12 0.170438 0.750000 0.250000
O O13 0.241914 0.887217 0.237773
O O14 0.687588 0.250000 0.750000
#
# Coordination Sequence:
#
# PCOD8216028 Si02
#       7
#     8   4   4   8   8   8   8
#     4   9  20  41  63  89 123 162 206 256 318 374
#     4   8  18  42  63  82 126 172 202 248 317 366
#     4  10  20  42  65  80 128 170 194 266 317 360
#     4   9  21  38  60  89 122 157 205 252 314 374
#     4  11  20  36  65  93 123 160 210 262 310 378
#     4   9  20  39  60  86 130 164 203 258 312 367
#     4   9  19  39  61  87 126 165 200 258 313 368
#
# _framework density 21.363182999999999
#
# number of rings (size 3 to 8) (size 9 to 14) (size 15 to 20)
#    0.000    3.000    0.000    1.000    1.167    2.667 
#    0.000   50.833    1.833    0.000    0.000    0.000 
#    0.000    0.000    0.000    0.000    0.000    0.000 
#
# Total GULP energy -594819.953002 kJ/mol
# GULP energy per Si atom -12392.082354 kJ/mol
# Density = 2.131456 g / cm^3
# Si number density = 21.363183 Si / 1000 Ang^3
#
#
#
# Elastic Constant Matrix: (Units=GPa)
#
#
# Indices 1 2 3 4 5 6 
#
# 1 122.2611 73.9209 58.8146 0.0000 0.0000 0.0000
# 2 73.9209 119.5656 49.7895 0.0000 0.0000 0.0000
# 3 58.8146 49.7895 145.8917 0.0000 0.0000 0.0000
# 4 0.0000 0.0000 0.0000 22.3117 0.0000 0.0000
# 5 0.0000 0.0000 0.0000 0.0000 10.3164 0.0000
# 6 0.0000 0.0000 0.0000 0.0000 0.0000 46.7604
#
#
#
# Elastic Compliance Matrix: (Units=1/GPa)
#
#
# Indices 1 2 3 4 5 6 
#
# 1 0.014229 -0.007470 -0.003187 0.000000 0.000000 0.000000
# 2 -0.007470 0.013670 -0.001654 0.000000 0.000000 0.000000
# 3 -0.003187 -0.001654 0.008704 0.000000 0.000000 0.000000
# 4 0.000000 0.000000 0.000000 0.044820 0.000000 0.000000
# 5 0.000000 0.000000 0.000000 0.000000 0.096933 0.000000
# 6 0.000000 0.000000 0.000000 0.000000 0.000000 0.021386
#
#
# Mechanical properties :
#
#
# Convention : Reuss Voigt Hill
#
# Bulk Modulus (GPa) = 83.46247 83.64093 83.55170
# Shear Modulus (GPa) = 21.89561 29.55725 25.72643
#
# Velocity S-wave (km/s) = 3.20491 3.72366 3.47398
# Velocity P-wave (km/s) = 7.26970 7.59766 7.43549
#
# Compressibility (1/GPa) = 0.01198143
#
# Stress axis : x y z
#
# Youngs Moduli (GPa) = 70.28127 73.15023 114.89424
#
# Poissons Ratio (x) = 0.54641 0.36615
# Poissons Ratio (y) = 0.52498 0.19005
# Poissons Ratio (z) = 0.22398 0.12100
#
# Static dielectric constant tensor:
#      x y z
#    x 3.805560 0.000000 0.000000 
#    y 0.000000 4.119110 0.000000 
#    z 0.000000 0.000000 3.908990 
# 
# 
# High freq. dielectric constant tensor:
#      x y z
#    x 1.819080 0.000000 0.000000 
#    y 0.000000 1.854880 0.000000 
#    z 0.000000 0.000000 1.821930 
# 
# From -- ./inp_files/5826.got.cif
#   From: 2010.06.25/outbox.cif.g09.slc.cpg/sg52_3_cif.got.tgz:5826.got - 2010.06.26 19:32:48.
