data_PCOD8216709
_publ_section_title
;
Structure prediction by ZEFSAII (Michael W. Deem and Ramdas Pophale) SiO2 
 PCOD8216709
Probable space group: P N N A
;
_chemical_formula_sum "Si O2"
_cell_formula_units_Z 40
_cell_length_a 8.693234
_cell_length_b 8.172843
_cell_length_c 24.497822
_cell_angle_alpha 90.000000
_cell_angle_beta 90.000000
_cell_angle_gamma 90.000000
_cell_volume 1740.531954
_symmetry_space_group_name_H-M "P N N A"
_symmetry_group_IT_number 52
_symmetry_cell_setting 'orthorhombic'
loop_
_space_group_symop_operation_xyz
x,y,z
1/2-x,-y,z
x,1/2-y,1/2-z
1/2-x,1/2+y,1/2-z
-x,-y,-z
1/2+x,y,-z
-x,1/2+y,1/2+z
1/2+x,1/2-y,1/2+z
loop_
_atom_site_type_symbol
_atom_site_label
_atom_site_fract_x
_atom_site_fract_y
_atom_site_fract_z
Si Si1 0.003021 0.729743 0.312951
Si Si2 0.250000 0.500000 0.652089
Si Si3 0.250000 0.000000 0.018675
Si Si4 0.031411 0.250000 0.250000
Si Si5 0.750000 0.000000 0.803161
Si Si6 0.919506 0.065795 0.352543
Si Si7 0.039699 0.837387 0.932510
O O1 0.046699 0.750000 0.250000
O O2 0.832067 0.645830 0.313988
O O3 0.142808 0.621392 0.339247
O O4 0.019289 0.901918 0.344077
O O5 0.106634 0.559006 0.617015
O O6 0.132719 0.104387 0.055102
O O7 0.345983 0.134097 0.983605
O O8 0.131942 0.094764 0.235299
O O9 0.929809 0.193935 0.302036
O O10 0.966286 0.150369 0.410328
O O11 0.750000 0.000000 0.357634
#
# Coordination Sequence:
#
# PCOD8216709 Si02
#       7
#     8   4   4   4   4   8   8
#     4  12  26  42  65  98 151 202 244 290 353 416
#     4  11  24  40  70 103 134 188 249 290 353 450
#     4   9  22  49  80 104 144 190 228 317 381 432
#     4  12  24  42  64 100 150 192 244 286 356 424
#     4  12  24  43  60  91 140 212 241 291 336 420
#     4  12  26  40  69 108 146 192 243 296 350 443
#     4  10  22  45  77 106 140 181 244 292 377 445
#
# _framework density 22.981482
#
# number of rings (size 3 to 8) (size 9 to 14) (size 15 to 20)
#    0.000    0.800    5.000    1.200    2.800    3.200 
#    1.800    1.000    0.000    0.000    0.000    0.000 
#    0.000    0.000    0.000    0.000    0.000    0.000 
#
# Total GULP energy -495649.121170 kJ/mol
# GULP energy per Si atom -12391.228029 kJ/mol
# Density = 2.292918 g / cm^3
# Si number density = 22.981482 Si / 1000 Ang^3
#
#
#
# Elastic Constant Matrix: (Units=GPa)
#
#
# Indices 1 2 3 4 5 6 
#
# 1 161.5236 77.8274 67.0747 0.0000 0.0000 0.0000
# 2 77.8274 174.2758 67.4995 0.0000 0.0000 0.0000
# 3 67.0747 67.4995 81.6351 0.0000 0.0000 0.0000
# 4 0.0000 0.0000 0.0000 41.8430 0.0000 0.0000
# 5 0.0000 0.0000 0.0000 0.0000 28.5953 0.0000
# 6 0.0000 0.0000 0.0000 0.0000 0.0000 45.5159
#
#
#
# Elastic Compliance Matrix: (Units=1/GPa)
#
#
# Indices 1 2 3 4 5 6 
#
# 1 0.009786 -0.001848 -0.006513 0.000000 0.000000 0.000000
# 2 -0.001848 0.008790 -0.005750 0.000000 0.000000 0.000000
# 3 -0.006513 -0.005750 0.022355 0.000000 0.000000 0.000000
# 4 0.000000 0.000000 0.000000 0.023899 0.000000 0.000000
# 5 0.000000 0.000000 0.000000 0.000000 0.034971 0.000000
# 6 0.000000 0.000000 0.000000 0.000000 0.000000 0.021970
#
#
# Mechanical properties :
#
#
# Convention : Reuss Voigt Hill
#
# Bulk Modulus (GPa) = 78.67592 93.58198 86.12895
# Shear Modulus (GPa) = 32.41940 36.85969 34.63955
#
# Velocity S-wave (km/s) = 3.75997 4.00920 3.88658
# Velocity P-wave (km/s) = 7.29100 7.88927 7.59603
#
# Compressibility (1/GPa) = 0.01271037
#
# Stress axis : x y z
#
# Youngs Moduli (GPa) = 102.18915 113.76275 44.73246
#
# Poissons Ratio (x) = 0.21019 0.29133
# Poissons Ratio (y) = 0.18881 0.25721
# Poissons Ratio (z) = 0.66553 0.65414
#
# Static dielectric constant tensor:
#      x y z
#    x 4.357580 0.000000 0.000000 
#    y 0.000000 5.270570 0.000000 
#    z 0.000000 0.000000 3.952450 
# 
# 
# High freq. dielectric constant tensor:
#      x y z
#    x 1.927610 0.000000 0.000000 
#    y 0.000000 1.918010 0.000000 
#    z 0.000000 0.000000 1.875070 
# 
# From -- ./inp_files/39303.got.cif
#   From: 2010.06.25/outbox.cif.g09.slc.cpg/sg52_20_cif.got.tgz:39303.got - 2010.06.26 19:32:48.
