data_PCOD8216534
_publ_section_title
;
Structure prediction by ZEFSAII (Michael W. Deem and Ramdas Pophale) SiO2 
 PCOD8216534
Probable space group: P N N A
;
_chemical_formula_sum "Si O2"
_cell_formula_units_Z 40
_cell_length_a 30.405745
_cell_length_b 5.034278
_cell_length_c 11.857099
_cell_angle_alpha 90.000000
_cell_angle_beta 90.000000
_cell_angle_gamma 90.000000
_cell_volume 1814.977682
_symmetry_space_group_name_H-M "P N N A"
_symmetry_group_IT_number 52
_symmetry_cell_setting 'orthorhombic'
loop_
_space_group_symop_operation_xyz
x,y,z
1/2-x,-y,z
x,1/2-y,1/2-z
1/2-x,1/2+y,1/2-z
-x,-y,-z
1/2+x,y,-z
-x,1/2+y,1/2+z
1/2+x,1/2-y,1/2+z
loop_
_atom_site_type_symbol
_atom_site_label
_atom_site_fract_x
_atom_site_fract_y
_atom_site_fract_z
Si Si1 0.824257 0.397720 0.482893
Si Si2 0.277967 0.250000 0.750000
Si Si3 0.881384 0.906031 0.505071
Si Si4 0.452350 0.506015 0.825254
Si Si5 0.250000 0.500000 0.333462
Si Si6 0.047566 0.002681 0.320170
O O1 0.804907 0.360774 0.357026
O O2 0.862200 0.619394 0.472610
O O3 0.791089 0.487898 0.581057
O O4 0.842377 0.114821 0.523276
O O5 0.250000 0.500000 0.795809
O O6 0.910744 0.881592 0.615407
O O7 0.914887 0.031340 0.416727
O O8 0.451023 0.250000 0.750000
O O9 0.500842 0.568881 0.881767
O O10 0.437660 0.750000 0.750000
O O11 0.245968 0.250000 0.250000
O O12 0.030809 0.250000 0.250000
O O13 0.064345 0.750000 0.250000
#
# Coordination Sequence:
#
# PCOD8216534 Si02
#       6
#     8   4   8   8   4   8
#     4  12  28  45  72 108 128 184 221 282 356 404
#     4  12  26  50  78  96 148 174 228 284 350 442
#     4  12  25  41  67 102 138 166 231 279 339 395
#     4  10  22  40  62  95 135 182 225 272 337 393
#     4  12  28  52  74  98 140 178 226 280 344 426
#     4  10  22  41  65  91 134 187 230 272 329 395
#
# _framework density 22.038837000000001
#
# number of rings (size 3 to 8) (size 9 to 14) (size 15 to 20)
#    0.000    0.800    1.000    5.400    5.600    4.800 
#    0.000    8.000    0.000    0.000    0.000    0.000 
#    0.000    0.000    0.000    0.000    0.000    0.000 
#
# Total GULP energy -495639.613624 kJ/mol
# GULP energy per Si atom -12390.990341 kJ/mol
# Density = 2.198868 g / cm^3
# Si number density = 22.038837 Si / 1000 Ang^3
#
#
#
# Elastic Constant Matrix: (Units=GPa)
#
#
# Indices 1 2 3 4 5 6 
#
# 1 104.3036 27.7535 53.5823 0.0000 0.0000 0.0000
# 2 27.7535 145.2305 37.7079 0.0000 0.0000 0.0000
# 3 53.5823 37.7079 119.4014 0.0000 0.0000 0.0000
# 4 0.0000 0.0000 0.0000 36.5857 0.0000 0.0000
# 5 0.0000 0.0000 0.0000 0.0000 39.3084 0.0000
# 6 0.0000 0.0000 0.0000 0.0000 0.0000 47.7231
#
#
#
# Elastic Compliance Matrix: (Units=1/GPa)
#
#
# Indices 1 2 3 4 5 6 
#
# 1 0.012598 -0.001024 -0.005330 0.000000 0.000000 0.000000
# 2 -0.001024 0.007584 -0.001936 0.000000 0.000000 0.000000
# 3 -0.005330 -0.001936 0.011378 0.000000 0.000000 0.000000
# 4 0.000000 0.000000 0.000000 0.027333 0.000000 0.000000
# 5 0.000000 0.000000 0.000000 0.000000 0.025440 0.000000
# 6 0.000000 0.000000 0.000000 0.000000 0.000000 0.020954
#
#
# Mechanical properties :
#
#
# Convention : Reuss Voigt Hill
#
# Bulk Modulus (GPa) = 66.74996 67.44699 67.09848
# Shear Modulus (GPa) = 39.41359 41.38291 40.39825
#
# Velocity S-wave (km/s) = 4.23350 4.33798 4.28606
# Velocity P-wave (km/s) = 7.36545 7.46732 7.41656
#
# Compressibility (1/GPa) = 0.01498128
#
# Stress axis : x y z
#
# Youngs Moduli (GPa) = 79.37810 131.86024 87.88598
#
# Poissons Ratio (x) = 0.13496 0.46845
# Poissons Ratio (y) = 0.08125 0.17012
# Poissons Ratio (z) = 0.42310 0.25524
#
# Static dielectric constant tensor:
#      x y z
#    x 4.226760 0.000000 0.000000 
#    y 0.000000 4.019960 0.000000 
#    z 0.000000 0.000000 3.884440 
# 
# 
# High freq. dielectric constant tensor:
#      x y z
#    x 1.885980 0.000000 0.000000 
#    y 0.000000 1.887520 0.000000 
#    z 0.000000 0.000000 1.857740 
# 
# From -- ./inp_files/22656.got.cif
#   From: 2010.06.25/outbox.cif.g09.slc.cpg/sg52_12_cif.got.tgz:22656.got - 2010.06.26 19:32:48.
