data_PCOD8216424
_publ_section_title
;
Structure prediction by ZEFSAII (Michael W. Deem and Ramdas Pophale) SiO2 
 PCOD8216424
Probable space group: P N N A
;
_chemical_formula_sum "Si O2"
_cell_formula_units_Z 44
_cell_length_a 13.995167
_cell_length_b 15.703800
_cell_length_c 8.648624
_cell_angle_alpha 90.000000
_cell_angle_beta 90.000000
_cell_angle_gamma 90.000000
_cell_volume 1900.771262
_symmetry_space_group_name_H-M "P N N A"
_symmetry_group_IT_number 52
_symmetry_cell_setting 'orthorhombic'
loop_
_space_group_symop_operation_xyz
x,y,z
1/2-x,-y,z
x,1/2-y,1/2-z
1/2-x,1/2+y,1/2-z
-x,-y,-z
1/2+x,y,-z
-x,1/2+y,1/2+z
1/2+x,1/2-y,1/2+z
loop_
_atom_site_type_symbol
_atom_site_label
_atom_site_fract_x
_atom_site_fract_y
_atom_site_fract_z
Si Si1 0.061335 0.250000 0.250000
Si Si2 0.908134 0.380885 0.279393
Si Si3 0.462561 0.549658 0.852889
Si Si4 0.673207 0.388950 0.578770
Si Si5 0.199427 0.154438 0.735350
Si Si6 0.616870 0.924691 0.877927
O O1 0.127179 0.297462 0.376424
O O2 0.990283 0.325482 0.191509
O O3 0.918903 0.480407 0.260699
O O4 0.811031 0.351199 0.192427
O O5 0.910667 0.371353 0.466828
O O6 0.372598 0.611871 0.890728
O O7 0.545715 0.601861 0.761733
O O8 0.500000 0.500000 0.000000
O O9 0.688175 0.394101 0.396780
O O10 0.607643 0.471381 0.615289
O O11 0.774899 0.398622 0.665803
O O12 0.165159 0.250000 0.750000
#
# Coordination Sequence:
#
# PCOD8216424 Si02
#       6
#     4   8   8   8   8   8
#     4  12  22  38  68 104 124 160 222 284 334 378
#     4  11  22  44  70  94 128 178 226 275 331 412
#     4  12  25  43  66  99 138 180 218 282 344 402
#     4  10  22  41  72  95 130 176 228 279 326 407
#     4  11  24  43  64 100 134 174 227 283 339 400
#     4  10  21  46  70  93 126 184 235 260 331 415
#
# _framework density 23.148499999999999
#
# number of rings (size 3 to 8) (size 9 to 14) (size 15 to 20)
#    0.000    1.091    4.545    2.182    2.545    0.000 
#   11.455    0.000    0.000    0.000    0.000    0.000 
#    0.000    0.000    0.000    0.000    0.000    0.000 
#
# Total GULP energy -545198.228917 kJ/mol
# GULP energy per Si atom -12390.868839 kJ/mol
# Density = 2.309581 g / cm^3
# Si number density = 23.148500 Si / 1000 Ang^3
#
#
#
# Elastic Constant Matrix: (Units=GPa)
#
#
# Indices 1 2 3 4 5 6 
#
# 1 119.6679 57.6322 43.3868 0.0000 0.0000 0.0000
# 2 57.6322 97.8318 7.8005 0.0000 0.0000 0.0000
# 3 43.3868 7.8005 61.9105 0.0000 0.0000 0.0000
# 4 0.0000 0.0000 0.0000 27.8244 0.0000 0.0000
# 5 0.0000 0.0000 0.0000 0.0000 19.1864 0.0000
# 6 0.0000 0.0000 0.0000 0.0000 0.0000 44.5521
#
#
#
# Elastic Compliance Matrix: (Units=1/GPa)
#
#
# Indices 1 2 3 4 5 6 
#
# 1 0.016349 -0.008806 -0.010348 0.000000 0.000000 0.000000
# 2 -0.008806 0.015069 0.004273 0.000000 0.000000 0.000000
# 3 -0.010348 0.004273 0.022866 0.000000 0.000000 0.000000
# 4 0.000000 0.000000 0.000000 0.035940 0.000000 0.000000
# 5 0.000000 0.000000 0.000000 0.000000 0.052120 0.000000
# 6 0.000000 0.000000 0.000000 0.000000 0.000000 0.022446
#
#
# Mechanical properties :
#
#
# Convention : Reuss Voigt Hill
#
# Bulk Modulus (GPa) = 40.78147 55.22768 48.00458
# Shear Modulus (GPa) = 24.66384 29.68530 27.17457
#
# Velocity S-wave (km/s) = 3.26768 3.58493 3.42997
# Velocity P-wave (km/s) = 5.64735 6.40667 6.03895
#
# Compressibility (1/GPa) = 0.02452094
#
# Stress axis : x y z
#
# Youngs Moduli (GPa) = 61.16460 66.36298 43.73325
#
# Poissons Ratio (x) = 0.58441 0.45255
# Poissons Ratio (y) = 0.53863 -0.18686
# Poissons Ratio (z) = 0.63293 -0.28356
#
# Static dielectric constant tensor:
#      x y z
#    x 4.580730 0.000000 0.000000 
#    y 0.000000 4.129470 0.000000 
#    z 0.000000 0.000000 3.660580 
# 
# 
# High freq. dielectric constant tensor:
#      x y z
#    x 1.940460 0.000000 0.000000 
#    y 0.000000 1.913050 0.000000 
#    z 0.000000 0.000000 1.867120 
# 
# From -- ./inp_files/10366.got.cif
#   From: 2010.06.25/outbox.cif.g09.slc.cpg/sg52_6_cif.got.tgz:10366.got - 2010.06.26 19:32:48.
