data_PCOD8216984
_publ_section_title
;
Structure prediction by ZEFSAII (Michael W. Deem and Ramdas Pophale) SiO2 
 PCOD8216984
Probable space group: P N N A
;
_chemical_formula_sum "Si O2"
_cell_formula_units_Z 48
_cell_length_a 13.778831
_cell_length_b 16.914425
_cell_length_c 10.103382
_cell_angle_alpha 90.000000
_cell_angle_beta 90.000000
_cell_angle_gamma 90.000000
_cell_volume 2354.704348
_symmetry_space_group_name_H-M "P N N A"
_symmetry_group_IT_number 52
_symmetry_cell_setting 'orthorhombic'
loop_
_space_group_symop_operation_xyz
x,y,z
1/2-x,-y,z
x,1/2-y,1/2-z
1/2-x,1/2+y,1/2-z
-x,-y,-z
1/2+x,y,-z
-x,1/2+y,1/2+z
1/2+x,1/2-y,1/2+z
loop_
_atom_site_type_symbol
_atom_site_label
_atom_site_fract_x
_atom_site_fract_y
_atom_site_fract_z
Si Si1 0.128516 0.199828 0.626840
Si Si2 0.793091 0.415091 0.596007
Si Si3 0.837075 0.324933 0.081552
Si Si4 0.392131 0.804425 0.120549
Si Si5 0.074271 0.661351 0.196631
Si Si6 0.899775 0.146369 0.141161
O O1 0.168987 0.250000 0.750000
O O2 0.222395 0.154621 0.572394
O O3 0.085833 0.252801 0.509047
O O4 0.041215 0.144483 0.680937
O O5 0.750000 0.500000 0.626903
O O6 0.708707 0.350108 0.608000
O O7 0.878772 0.398927 0.700348
O O8 0.841842 0.415242 0.450739
O O9 0.862038 0.232822 0.099135
O O10 0.878988 0.373449 0.205685
O O11 0.878834 0.355865 0.944735
O O12 0.388646 0.750000 0.250000
O O13 0.484148 0.862986 0.125865
O O14 0.091448 0.750000 0.250000
#
# Coordination Sequence:
#
# PCOD8216984 Si02
#       6
#     8   8   8   8   8   8
#     4  11  18  29  57  89 114 145 190 260 312 343
#     4  12  26  41  58  88 137 175 198 244 318 389
#     4  11  18  34  60  90 118 142 202 274 308 341
#     4  12  21  36  65  92 114 158 210 263 313 351
#     4  11  20  36  59  89 119 155 211 262 300 358
#     4  11  20  37  58  92 118 152 207 262 309 358
#
# _framework density 20.384726000000001
#
# number of rings (size 3 to 8) (size 9 to 14) (size 15 to 20)
#    0.000    0.667    8.333    2.500    0.000    0.667 
#    0.000    0.833    0.000    7.000    0.000    0.000 
#    0.000    0.000    0.000    0.000    0.000    0.000 
#
# Total GULP energy -595132.096368 kJ/mol
# GULP energy per Si atom -12398.585341 kJ/mol
# Density = 2.033833 g / cm^3
# Si number density = 20.384726 Si / 1000 Ang^3
#
#
#
# Elastic Constant Matrix: (Units=GPa)
#
#
# Indices 1 2 3 4 5 6 
#
# 1 146.4818 -4.7130 21.4539 0.0000 0.0000 0.0000
# 2 -4.7130 16.9310 5.1367 0.0000 0.0000 0.0000
# 3 21.4539 5.1367 125.5760 0.0000 0.0000 0.0000
# 4 0.0000 0.0000 0.0000 16.1969 0.0000 0.0000
# 5 0.0000 0.0000 0.0000 0.0000 38.7197 0.0000
# 6 0.0000 0.0000 0.0000 0.0000 0.0000 13.1729
#
#
#
# Elastic Compliance Matrix: (Units=1/GPa)
#
#
# Indices 1 2 3 4 5 6 
#
# 1 0.007095 0.002372 -0.001309 0.000000 0.000000 0.000000
# 2 0.002372 0.060599 -0.002884 0.000000 0.000000 0.000000
# 3 -0.001309 -0.002884 0.008305 0.000000 0.000000 0.000000
# 4 0.000000 0.000000 0.000000 0.061740 0.000000 0.000000
# 5 0.000000 0.000000 0.000000 0.000000 0.025827 0.000000
# 6 0.000000 0.000000 0.000000 0.000000 0.000000 0.075913
#
#
# Mechanical properties :
#
#
# Convention : Reuss Voigt Hill
#
# Bulk Modulus (GPa) = 13.82052 36.97157 25.39604
# Shear Modulus (GPa) = 18.70983 31.42533 25.06758
#
# Velocity S-wave (km/s) = 3.03287 3.93060 3.51055
# Velocity P-wave (km/s) = 4.36565 6.22701 5.37748
#
# Compressibility (1/GPa) = 0.07235618
#
# Stress axis : x y z
#
# Youngs Moduli (GPa) = 140.94739 16.50206 120.41037
#
# Poissons Ratio (x) = -0.03914 0.15763
# Poissons Ratio (y) = -0.33434 0.34727
# Poissons Ratio (z) = 0.18452 0.04759
#
# Static dielectric constant tensor:
#      x y z
#    x 4.089550 0.000000 0.000000 
#    y 0.000000 2.983320 0.000000 
#    z 0.000000 0.000000 4.031740 
# 
# 
# High freq. dielectric constant tensor:
#      x y z
#    x 1.828730 0.000000 0.000000 
#    y 0.000000 1.707380 0.000000 
#    z 0.000000 0.000000 1.825430 
# 
# From -- ./inp_files/10507.got.cif
#   From: 2010.06.25/outbox.cif.g09.slc.cpg/sg52_6_cif.got.tgz:10507.got - 2010.06.26 19:32:48.
