data_PCOD8216805
_publ_section_title
;
Structure prediction by ZEFSAII (Michael W. Deem and Ramdas Pophale) SiO2 
 PCOD8216805
Probable space group: P N N A
;
_chemical_formula_sum "Si O2"
_cell_formula_units_Z 40
_cell_length_a 9.758173
_cell_length_b 7.438976
_cell_length_c 23.505441
_cell_angle_alpha 90.000000
_cell_angle_beta 90.000000
_cell_angle_gamma 90.000000
_cell_volume 1706.279113
_symmetry_space_group_name_H-M "P N N A"
_symmetry_group_IT_number 52
_symmetry_cell_setting 'orthorhombic'
loop_
_space_group_symop_operation_xyz
x,y,z
1/2-x,-y,z
x,1/2-y,1/2-z
1/2-x,1/2+y,1/2-z
-x,-y,-z
1/2+x,y,-z
-x,1/2+y,1/2+z
1/2+x,1/2-y,1/2+z
loop_
_atom_site_type_symbol
_atom_site_label
_atom_site_fract_x
_atom_site_fract_y
_atom_site_fract_z
Si Si1 0.984515 0.774742 0.935746
Si Si2 0.096999 0.942579 0.156862
Si Si3 0.276548 0.800579 0.528139
Si Si4 0.473832 0.906767 0.623382
Si Si5 0.401987 0.041311 0.746492
O O1 0.966538 0.573173 0.911905
O O2 0.133399 0.803498 0.964146
O O3 0.970434 0.918414 0.886355
O O4 0.869696 0.808688 0.983610
O O5 0.094599 0.740960 0.130889
O O6 0.250000 0.000000 0.172091
O O7 0.009335 0.935633 0.214438
O O8 0.349235 0.813483 0.589586
O O9 0.250000 0.000000 0.503887
O O10 0.413838 0.972264 0.682712
O O11 0.437212 0.250000 0.750000
O O12 0.250000 0.000000 0.769556
#
# Coordination Sequence:
#
# PCOD8216805 Si02
#       5
#     8   8   8   8   8
#     4  11  25  48  72 107 150 191 251 295 377 432
#     4  12  30  46  70 110 146 195 247 303 370 432
#     4  10  23  43  77 107 141 199 238 303 370 440
#     4  11  24  48  77 104 148 188 245 305 365 445
#     4  12  25  48  80 109 143 191 243 303 369 444
#
# _framework density 23.442823000000001
#
# number of rings (size 3 to 8) (size 9 to 14) (size 15 to 20)
#    0.000    0.800    2.000    6.000    8.400    2.400 
#    0.000    0.000    0.000    0.000    0.000    0.000 
#    0.000    0.000    0.000    0.000    0.000    0.000 
#
# Total GULP energy -496292.410959 kJ/mol
# GULP energy per Si atom -12407.310274 kJ/mol
# Density = 2.338947 g / cm^3
# Si number density = 23.442823 Si / 1000 Ang^3
#
#
#
# Elastic Constant Matrix: (Units=GPa)
#
#
# Indices 1 2 3 4 5 6 
#
# 1 159.6539 29.7230 63.2772 0.0000 0.0000 0.0000
# 2 29.7230 84.0403 20.5494 0.0000 0.0000 0.0000
# 3 63.2772 20.5494 128.2718 0.0000 0.0000 0.0000
# 4 0.0000 0.0000 0.0000 14.6149 0.0000 0.0000
# 5 0.0000 0.0000 0.0000 0.0000 96.6108 0.0000
# 6 0.0000 0.0000 0.0000 0.0000 0.0000 30.5567
#
#
#
# Elastic Compliance Matrix: (Units=1/GPa)
#
#
# Indices 1 2 3 4 5 6 
#
# 1 0.008085 -0.001961 -0.003674 0.000000 0.000000 0.000000
# 2 -0.001961 0.012860 -0.001093 0.000000 0.000000 0.000000
# 3 -0.003674 -0.001093 0.009783 0.000000 0.000000 0.000000
# 4 0.000000 0.000000 0.000000 0.068423 0.000000 0.000000
# 5 0.000000 0.000000 0.000000 0.000000 0.010351 0.000000
# 6 0.000000 0.000000 0.000000 0.000000 0.000000 0.032726
#
#
# Mechanical properties :
#
#
# Convention : Reuss Voigt Hill
#
# Bulk Modulus (GPa) = 57.89630 66.56280 62.22955
# Shear Modulus (GPa) = 30.97095 45.58426 38.27761
#
# Velocity S-wave (km/s) = 3.63867 4.41442 4.04518
# Velocity P-wave (km/s) = 6.51181 7.37822 6.95851
#
# Compressibility (1/GPa) = 0.01727226
#
# Stress axis : x y z
#
# Youngs Moduli (GPa) = 123.68828 77.76162 102.21310
#
# Poissons Ratio (x) = 0.15249 0.37554
# Poissons Ratio (y) = 0.24255 0.11170
# Poissons Ratio (z) = 0.45445 0.08498
#
# Static dielectric constant tensor:
#      x y z
#    x 4.220340 0.000000 0.000000 
#    y 0.000000 4.330520 0.000000 
#    z 0.000000 0.000000 4.209110 
# 
# 
# High freq. dielectric constant tensor:
#      x y z
#    x 1.925760 0.000000 0.000000 
#    y 0.000000 1.934200 0.000000 
#    z 0.000000 0.000000 1.937670 
# 
# From -- ./inp_files/39233.got.cif
#   From: 2010.06.25/outbox.cif.g09.slc.cpg/sg52_20_cif.got.tgz:39233.got - 2010.06.26 19:32:48.
