data_PCOD8216473
_publ_section_title
;
Structure prediction by ZEFSAII (Michael W. Deem and Ramdas Pophale) SiO2 
 PCOD8216473
Probable space group: P N N A
;
_chemical_formula_sum "Si O2"
_cell_formula_units_Z 48
_cell_length_a 15.816544
_cell_length_b 27.179987
_cell_length_c 5.088365
_cell_angle_alpha 90.000000
_cell_angle_beta 90.000000
_cell_angle_gamma 90.000000
_cell_volume 2187.454837
_symmetry_space_group_name_H-M "P N N A"
_symmetry_group_IT_number 52
_symmetry_cell_setting 'orthorhombic'
loop_
_space_group_symop_operation_xyz
x,y,z
1/2-x,-y,z
x,1/2-y,1/2-z
1/2-x,1/2+y,1/2-z
-x,-y,-z
1/2+x,y,-z
-x,1/2+y,1/2+z
1/2+x,1/2-y,1/2+z
loop_
_atom_site_type_symbol
_atom_site_label
_atom_site_fract_x
_atom_site_fract_y
_atom_site_fract_z
Si Si1 0.006996 0.106082 0.895334
Si Si2 0.185213 0.363664 0.722716
Si Si3 0.781675 0.446155 0.001688
Si Si4 0.033017 0.549937 0.881918
Si Si5 0.833247 0.141284 0.837980
Si Si6 0.757142 0.282282 0.996376
O O1 0.993107 0.091301 0.592593
O O2 0.926703 0.140731 0.969644
O O3 0.095933 0.134097 0.925275
O O4 0.010915 0.060924 0.102028
O O5 0.208018 0.417563 0.839630
O O6 0.261625 0.343238 0.543898
O O7 0.179778 0.320076 0.939319
O O8 0.750000 0.500000 0.912297
O O9 0.866511 0.452095 0.174897
O O10 0.808056 0.414193 0.749283
O O11 0.000000 0.500000 0.000000
O O12 0.833764 0.181488 0.601038
O O13 0.785210 0.250000 0.250000
O O14 0.726734 0.250000 0.750000
#
# Coordination Sequence:
#
# PCOD8216473 Si02
#       6
#     8   8   8   8   8   8
#     4  11  25  41  64  94 134 173 224 275 324 392
#     4  11  23  42  69  94 134 179 218 273 339 389
#     4  10  22  38  62  96 134 181 225 268 323 391
#     4  11  23  40  59  93 134 177 230 277 317 377
#     4  10  23  44  65  97 133 174 221 271 337 390
#     4  11  23  43  74  97 127 171 215 276 343 405
#
# _framework density 21.943311000000001
#
# number of rings (size 3 to 8) (size 9 to 14) (size 15 to 20)
#    0.000    1.333    3.333    1.500    7.000    0.667 
#    0.000    1.667    0.000    0.000    0.000    0.000 
#    0.000    0.000    0.000    0.000    0.000    0.000 
#
# Total GULP energy -594856.916897 kJ/mol
# GULP energy per Si atom -12392.852435 kJ/mol
# Density = 2.189337 g / cm^3
# Si number density = 21.943311 Si / 1000 Ang^3
#
#
#
# Elastic Constant Matrix: (Units=GPa)
#
#
# Indices 1 2 3 4 5 6 
#
# 1 166.7832 50.0615 43.7137 0.0000 0.0000 0.0000
# 2 50.0615 143.1502 46.6779 0.0000 0.0000 0.0000
# 3 43.7137 46.6779 99.5021 0.0000 0.0000 0.0000
# 4 0.0000 0.0000 0.0000 40.2792 0.0000 0.0000
# 5 0.0000 0.0000 0.0000 0.0000 27.5648 0.0000
# 6 0.0000 0.0000 0.0000 0.0000 0.0000 8.6541
#
#
#
# Elastic Compliance Matrix: (Units=1/GPa)
#
#
# Indices 1 2 3 4 5 6 
#
# 1 0.007124 -0.001736 -0.002315 0.000000 0.000000 0.000000
# 2 -0.001736 0.008670 -0.003305 0.000000 0.000000 0.000000
# 3 -0.002315 -0.003305 0.012617 0.000000 0.000000 0.000000
# 4 0.000000 0.000000 0.000000 0.024827 0.000000 0.000000
# 5 0.000000 0.000000 0.000000 0.000000 0.036278 0.000000
# 6 0.000000 0.000000 0.000000 0.000000 0.000000 0.115552
#
#
# Mechanical properties :
#
#
# Convention : Reuss Voigt Hill
#
# Bulk Modulus (GPa) = 72.99569 76.70464 74.85017
# Shear Modulus (GPa) = 22.28693 33.23179 27.75936
#
# Velocity S-wave (km/s) = 3.19040 3.89580 3.56061
# Velocity P-wave (km/s) = 6.84904 7.43425 7.14763
#
# Compressibility (1/GPa) = 0.01369944
#
# Stress axis : x y z
#
# Youngs Moduli (GPa) = 140.37485 115.33421 79.25597
#
# Poissons Ratio (x) = 0.20026 0.18348
# Poissons Ratio (y) = 0.24374 0.26191
# Poissons Ratio (z) = 0.32498 0.38113
#
# Static dielectric constant tensor:
#      x y z
#    x 3.922530 0.000000 0.000000 
#    y 0.000000 4.011910 0.000000 
#    z 0.000000 0.000000 4.103980 
# 
# 
# High freq. dielectric constant tensor:
#      x y z
#    x 1.842080 0.000000 0.000000 
#    y 0.000000 1.858720 0.000000 
#    z 0.000000 0.000000 1.867190 
# 
# From -- ./inp_files/2468.got.cif
#   From: 2010.06.25/outbox.cif.g09.slc.cpg/sg52_2_cif.got.tgz:2468.got - 2010.06.26 19:32:48.
