data_PCOD8216816
_publ_section_title
;
Structure prediction by ZEFSAII (Michael W. Deem and Ramdas Pophale) SiO2 
 PCOD8216816
Probable space group: P N N A
;
_chemical_formula_sum "Si O2"
_cell_formula_units_Z 40
_cell_length_a 11.608212
_cell_length_b 16.520059
_cell_length_c 9.731358
_cell_angle_alpha 90.000000
_cell_angle_beta 90.000000
_cell_angle_gamma 90.000000
_cell_volume 1866.166439
_symmetry_space_group_name_H-M "P N N A"
_symmetry_group_IT_number 52
_symmetry_cell_setting 'orthorhombic'
loop_
_space_group_symop_operation_xyz
x,y,z
1/2-x,-y,z
x,1/2-y,1/2-z
1/2-x,1/2+y,1/2-z
-x,-y,-z
1/2+x,y,-z
-x,1/2+y,1/2+z
1/2+x,1/2-y,1/2+z
loop_
_atom_site_type_symbol
_atom_site_label
_atom_site_fract_x
_atom_site_fract_y
_atom_site_fract_z
Si Si1 0.701158 0.339086 0.446157
Si Si2 0.936157 0.447187 0.110576
Si Si3 0.250000 0.000000 0.802279
Si Si4 0.168055 0.810750 0.437159
Si Si5 0.382304 0.838697 0.242005
Si Si6 0.030435 0.250000 0.750000
O O1 0.764779 0.419425 0.393501
O O2 0.793856 0.268468 0.477119
O O3 0.637157 0.363872 0.585463
O O4 0.609748 0.312547 0.331739
O O5 0.863924 0.506302 0.208699
O O6 0.033947 0.403810 0.196555
O O7 0.847478 0.383550 0.043703
O O8 0.000000 0.500000 0.000000
O O9 0.262194 0.835524 0.324557
O O10 0.047255 0.797471 0.360154
O O11 0.440890 0.750000 0.250000
#
# Coordination Sequence:
#
# PCOD8216816 Si02
#       6
#     8   8   4   8   8   4
#     4  11  25  44  65 103 135 179 239 282 350 427
#     4  12  26  43  68 101 141 180 232 290 356 418
#     4  12  28  42  64 102 138 188 220 288 358 406
#     4  11  22  45  72  96 134 183 232 286 350 417
#     4  10  23  44  70 101 132 183 236 285 348 421
#     4  12  22  42  74  98 132 178 232 296 346 414
#
# _framework density 21.434317
#
# number of rings (size 3 to 8) (size 9 to 14) (size 15 to 20)
#    0.000    0.800    3.000    6.000    5.600    2.400 
#    0.000    0.000    0.000    0.000    0.000    0.000 
#    0.000    0.000    0.000    0.000    0.000    0.000 
#
# Total GULP energy -496204.195936 kJ/mol
# GULP energy per Si atom -12405.104898 kJ/mol
# Density = 2.138553 g / cm^3
# Si number density = 21.434317 Si / 1000 Ang^3
#
#
#
# Elastic Constant Matrix: (Units=GPa)
#
#
# Indices 1 2 3 4 5 6 
#
# 1 103.1845 58.4982 57.0829 0.0000 0.0000 0.0000
# 2 58.4982 120.8663 73.3506 0.0000 0.0000 0.0000
# 3 57.0829 73.3506 132.1274 0.0000 0.0000 0.0000
# 4 0.0000 0.0000 0.0000 37.4232 0.0000 0.0000
# 5 0.0000 0.0000 0.0000 0.0000 32.2116 0.0000
# 6 0.0000 0.0000 0.0000 0.0000 0.0000 3.6008
#
#
#
# Elastic Compliance Matrix: (Units=1/GPa)
#
#
# Indices 1 2 3 4 5 6 
#
# 1 0.014377 -0.004809 -0.003542 0.000000 0.000000 0.000000
# 2 -0.004809 0.014086 -0.005742 0.000000 0.000000 0.000000
# 3 -0.003542 -0.005742 0.012286 0.000000 0.000000 0.000000
# 4 0.000000 0.000000 0.000000 0.026721 0.000000 0.000000
# 5 0.000000 0.000000 0.000000 0.000000 0.031045 0.000000
# 6 0.000000 0.000000 0.000000 0.000000 0.000000 0.277718
#
#
# Mechanical properties :
#
#
# Convention : Reuss Voigt Hill
#
# Bulk Modulus (GPa) = 79.59455 81.56018 80.57736
# Shear Modulus (GPa) = 12.23671 25.79686 19.01678
#
# Velocity S-wave (km/s) = 2.39193 3.47296 2.98184
# Velocity P-wave (km/s) = 6.69651 7.36313 7.03772
#
# Compressibility (1/GPa) = 0.01256367
#
# Stress axis : x y z
#
# Youngs Moduli (GPa) = 69.55552 70.99286 81.39181
#
# Poissons Ratio (x) = 0.34141 0.28825
# Poissons Ratio (y) = 0.33450 0.46736
# Poissons Ratio (z) = 0.24633 0.40765
#
# Static dielectric constant tensor:
#      x y z
#    x -5.666270 0.000000 0.000000 
#    y 0.000000 3.891180 0.000000 
#    z 0.000000 0.000000 4.112900 
# 
# 
# High freq. dielectric constant tensor:
#      x y z
#    x 1.844310 0.000000 0.000000 
#    y 0.000000 1.839650 0.000000 
#    z 0.000000 0.000000 1.862890 
# 
# From -- ./inp_files/8553.got.cif
#   From: 2010.06.25/outbox.cif.g09.slc.cpg/sg52_5_cif.got.tgz:8553.got - 2010.06.26 19:32:48.
