data_PCOD8217338
_publ_section_title
;
Structure prediction by ZEFSAII (Michael W. Deem and Ramdas Pophale) SiO2 
 PCOD8217338
Probable space group: P N N A
;
_chemical_formula_sum "Si O2"
_cell_formula_units_Z 32
_cell_length_a 10.977092
_cell_length_b 7.918599
_cell_length_c 14.948305
_cell_angle_alpha 90.000000
_cell_angle_beta 90.000000
_cell_angle_gamma 90.000000
_cell_volume 1299.354352
_symmetry_space_group_name_H-M "P N N A"
_symmetry_group_IT_number 52
_symmetry_cell_setting 'orthorhombic'
loop_
_space_group_symop_operation_xyz
x,y,z
1/2-x,-y,z
x,1/2-y,1/2-z
1/2-x,1/2+y,1/2-z
-x,-y,-z
1/2+x,y,-z
-x,1/2+y,1/2+z
1/2+x,1/2-y,1/2+z
loop_
_atom_site_type_symbol
_atom_site_label
_atom_site_fract_x
_atom_site_fract_y
_atom_site_fract_z
Si Si1 0.507133 0.805165 0.021465
Si Si2 0.357926 0.635515 0.164194
Si Si3 0.972401 0.652450 0.163719
Si Si4 0.287163 0.196163 0.841170
O O1 0.384110 0.749622 0.075379
O O2 0.627363 0.763858 0.076685
O O3 0.531915 0.709766 0.929118
O O4 0.500000 0.000000 0.000000
O O5 0.250000 0.500000 0.147602
O O6 0.325380 0.750000 0.250000
O O7 0.486586 0.539508 0.180523
O O8 0.024795 0.750000 0.250000
O O9 0.828544 0.678845 0.154025
O O10 0.356068 0.250000 0.750000
O O11 0.250000 0.000000 0.840768
#
# Coordination Sequence:
#
# PCOD8217338 Si02
#       4
#     8   8   8   8
#     4  12  26  48  82 121 161 213 272 333 410 486
#     4  12  29  52  80 117 165 218 268 337 413 496
#     4  11  26  50  80 117 163 210 272 332 407 482
#     4  11  26  47  80 120 160 207 265 342 398 479
#
# _framework density 24.627614999999999
#
# number of rings (size 3 to 8) (size 9 to 14) (size 15 to 20)
#    0.000    0.500    2.500    3.750   14.000    0.000 
#    0.000    0.000    0.000    0.000    0.000    0.000 
#    0.000    0.000    0.000    0.000    0.000    0.000 
#
# Total GULP energy -396651.450206 kJ/mol
# GULP energy per Si atom -12395.357819 kJ/mol
# Density = 2.457156 g / cm^3
# Si number density = 24.627615 Si / 1000 Ang^3
#
#
#
# Elastic Constant Matrix: (Units=GPa)
#
#
# Indices 1 2 3 4 5 6 
#
# 1 124.5393 63.9426 61.6838 0.0000 0.0000 0.0000
# 2 63.9426 117.7840 51.2427 0.0000 0.0000 0.0000
# 3 61.6838 51.2427 219.8587 0.0000 0.0000 0.0000
# 4 0.0000 0.0000 0.0000 49.9866 0.0000 0.0000
# 5 0.0000 0.0000 0.0000 0.0000 49.6064 0.0000
# 6 0.0000 0.0000 0.0000 0.0000 0.0000 45.5310
#
#
#
# Elastic Compliance Matrix: (Units=1/GPa)
#
#
# Indices 1 2 3 4 5 6 
#
# 1 0.011902 -0.005574 -0.002040 0.000000 0.000000 0.000000
# 2 -0.005574 0.012058 -0.001247 0.000000 0.000000 0.000000
# 3 -0.002040 -0.001247 0.005411 0.000000 0.000000 0.000000
# 4 0.000000 0.000000 0.000000 0.020005 0.000000 0.000000
# 5 0.000000 0.000000 0.000000 0.000000 0.020159 0.000000
# 6 0.000000 0.000000 0.000000 0.000000 0.000000 0.021963
#
#
# Mechanical properties :
#
#
# Convention : Reuss Voigt Hill
#
# Bulk Modulus (GPa) = 85.83344 90.65779 88.24561
# Shear Modulus (GPa) = 44.20751 48.04566 46.12659
#
# Velocity S-wave (km/s) = 4.24139 4.42167 4.33247
# Velocity P-wave (km/s) = 7.67554 7.93471 7.80620
#
# Compressibility (1/GPa) = 0.01165047
#
# Stress axis : x y z
#
# Youngs Moduli (GPa) = 84.02121 82.93023 184.79778
#
# Poissons Ratio (x) = 0.46222 0.37701
# Poissons Ratio (y) = 0.46831 0.23039
# Poissons Ratio (z) = 0.17141 0.10339
#
# Static dielectric constant tensor:
#      x y z
#    x 4.468600 0.000000 0.000000 
#    y 0.000000 4.619760 0.000000 
#    z 0.000000 0.000000 4.353830 
# 
# 
# High freq. dielectric constant tensor:
#      x y z
#    x 1.976040 0.000000 0.000000 
#    y 0.000000 1.993030 0.000000 
#    z 0.000000 0.000000 2.001200 
# 
# From -- ./inp_files/25504.got.cif
#   From: 2010.06.25/outbox.cif.g09.slc.cpg/sg52_13_cif.got.tgz:25504.got - 2010.06.26 19:32:48.
