data_PCOD8217292
_publ_section_title
;
Structure prediction by ZEFSAII (Michael W. Deem and Ramdas Pophale) SiO2 
 PCOD8217292
Probable space group: P N N A
;
_chemical_formula_sum "Si O2"
_cell_formula_units_Z 36
_cell_length_a 24.197280
_cell_length_b 12.571030
_cell_length_c 4.891989
_cell_angle_alpha 90.000000
_cell_angle_beta 90.000000
_cell_angle_gamma 90.000000
_cell_volume 1488.068367
_symmetry_space_group_name_H-M "P N N A"
_symmetry_group_IT_number 52
_symmetry_cell_setting 'orthorhombic'
loop_
_space_group_symop_operation_xyz
x,y,z
1/2-x,-y,z
x,1/2-y,1/2-z
1/2-x,1/2+y,1/2-z
-x,-y,-z
1/2+x,y,-z
-x,1/2+y,1/2+z
1/2+x,1/2-y,1/2+z
loop_
_atom_site_type_symbol
_atom_site_label
_atom_site_fract_x
_atom_site_fract_y
_atom_site_fract_z
Si Si1 0.791814 0.750000 0.250000
Si Si2 0.557640 0.750000 0.250000
Si Si3 0.889255 0.848437 0.537883
Si Si4 0.483646 0.750000 0.750000
Si Si5 0.860404 0.078475 0.496601
Si Si6 0.713264 0.903461 0.979693
O O1 0.831186 0.838054 0.382835
O O2 0.752897 0.803228 0.024804
O O3 0.519952 0.706031 0.497763
O O4 0.592765 0.845839 0.374187
O O5 0.894887 0.750000 0.750000
O O6 0.942786 0.845436 0.341486
O O7 0.886670 0.970988 0.633935
O O8 0.816508 0.057708 0.256504
O O9 0.830373 0.134733 0.751382
O O10 0.750000 0.000000 0.863022
#
# Coordination Sequence:
#
# PCOD8217292 Si02
#       6
#     4   4   8   4   8   8
#     4  11  25  42  74 102 156 192 249 305 356 452
#     4  12  27  52  71 110 153 194 251 328 390 452
#     4  11  25  49  76 113 144 199 261 321 369 456
#     4  11  26  50  79 108 141 200 262 317 402 440
#     4  12  28  47  75 110 155 195 253 310 379 462
#     4  12  25  46  71 111 146 202 244 298 378 450
#
# _framework density 24.192437999999999
#
# number of rings (size 3 to 8) (size 9 to 14) (size 15 to 20)
#    0.000    0.444    3.333    4.000    6.222    3.556 
#    0.000    0.000    0.000    0.000    0.000    0.000 
#    0.000    0.000    0.000    0.000    0.000    0.000 
#
# Total GULP energy -446238.188721 kJ/mol
# GULP energy per Si atom -12395.505242 kJ/mol
# Density = 2.413738 g / cm^3
# Si number density = 24.192438 Si / 1000 Ang^3
#
#
#
# Elastic Constant Matrix: (Units=GPa)
#
#
# Indices 1 2 3 4 5 6 
#
# 1 160.1626 72.7385 69.2557 0.0000 0.0000 0.0000
# 2 72.7385 139.1324 43.9056 0.0000 0.0000 0.0000
# 3 69.2557 43.9056 144.4450 0.0000 0.0000 0.0000
# 4 0.0000 0.0000 0.0000 32.4880 0.0000 0.0000
# 5 0.0000 0.0000 0.0000 0.0000 79.3489 0.0000
# 6 0.0000 0.0000 0.0000 0.0000 0.0000 1.8366
#
#
#
# Elastic Compliance Matrix: (Units=1/GPa)
#
#
# Indices 1 2 3 4 5 6 
#
# 1 0.009459 -0.003887 -0.003354 0.000000 0.000000 0.000000
# 2 -0.003887 0.009547 -0.001038 0.000000 0.000000 0.000000
# 3 -0.003354 -0.001038 0.008847 0.000000 0.000000 0.000000
# 4 0.000000 0.000000 0.000000 0.030781 0.000000 0.000000
# 5 0.000000 0.000000 0.000000 0.000000 0.012603 0.000000
# 6 0.000000 0.000000 0.000000 0.000000 0.000000 0.544487
#
#
# Mechanical properties :
#
#
# Convention : Reuss Voigt Hill
#
# Bulk Modulus (GPa) = 88.53590 90.61551 89.57571
# Shear Modulus (GPa) = 7.86107 39.92406 23.89256
#
# Velocity S-wave (km/s) = 1.80456 4.06676 3.14603
# Velocity P-wave (km/s) = 6.40452 7.71938 7.09249
#
# Compressibility (1/GPa) = 0.01129485
#
# Stress axis : x y z
#
# Youngs Moduli (GPa) = 105.71816 104.74353 113.03668
#
# Poissons Ratio (x) = 0.40713 0.37910
# Poissons Ratio (y) = 0.41091 0.11737
# Poissons Ratio (z) = 0.35456 0.10876
#
# Static dielectric constant tensor:
#      x y z
#    x 4.775420 0.000000 0.000000 
#    y 0.000000 6.117210 0.000000 
#    z 0.000000 0.000000 4.475940 
# 
# 
# High freq. dielectric constant tensor:
#      x y z
#    x 1.979000 0.000000 0.000000 
#    y 0.000000 1.947980 0.000000 
#    z 0.000000 0.000000 1.964530 
# 
# From -- ./inp_files/4948.got.cif
#   From: 2010.06.25/outbox.cif.g09.slc.cpg/sg52_3_cif.got.tgz:4948.got - 2010.06.26 19:32:48.
