data_PCOD8217932
_publ_section_title
;
Structure prediction by ZEFSAII (Michael W. Deem and Ramdas Pophale) SiO2 
 PCOD8217932
Probable space group: P M N A
;
_chemical_formula_sum "Si O2"
_cell_formula_units_Z 64
_cell_length_a 8.636050
_cell_length_b 19.934361
_cell_length_c 19.079780
_cell_angle_alpha 90.000000
_cell_angle_beta 90.000000
_cell_angle_gamma 90.000000
_cell_volume 3284.663085
_symmetry_space_group_name_H-M "P M N A"
_symmetry_group_IT_number 53
_symmetry_cell_setting 'orthorhombic'
loop_
_space_group_symop_operation_xyz
x,y,z
1/2-x,-y,1/2+z
x,-y,-z
1/2-x,y,1/2-z
-x,-y,-z
1/2+x,y,1/2-z
-x,y,z
1/2+x,-y,1/2+z
loop_
_atom_site_type_symbol
_atom_site_label
_atom_site_fract_x
_atom_site_fract_y
_atom_site_fract_z
Si Si1 0.815919 0.293118 0.940221
Si Si2 0.817446 0.386130 0.674470
Si Si3 0.683519 0.859923 0.443273
Si Si4 0.815976 0.526898 0.826372
Si Si5 0.815939 0.091289 0.090558
Si Si6 0.816601 0.653961 0.911523
Si Si7 0.683733 0.220442 0.326308
Si Si8 0.683643 0.961531 0.327707
O O1 0.728793 0.325480 0.875248
O O2 0.756603 0.216501 0.945493
O O3 0.000000 0.296828 0.929318
O O4 0.761913 0.334211 0.008934
O O5 0.750000 0.368699 0.750000
O O6 0.746320 0.455793 0.646012
O O7 0.000000 0.393927 0.679834
O O8 0.500000 0.858691 0.447908
O O9 0.745672 0.902097 0.510506
O O10 0.737491 0.896022 0.371587
O O11 0.750000 0.544586 0.750000
O O12 0.757727 0.582735 0.881801
O O13 0.000000 0.524426 0.821453
O O14 0.755784 0.156330 0.131445
O O15 0.000000 0.087301 0.090279
O O16 0.749717 0.025840 0.130103
O O17 0.748886 0.713146 0.863205
O O18 0.000000 0.657295 0.908722
O O19 0.750000 0.215822 0.250000
O O20 0.500000 0.221825 0.324035
O O21 0.750000 0.957638 0.250000
O O22 0.500000 0.965518 0.321997
#
# Coordination Sequence:
#
# PCOD8217932 Si02
#       8
#     8   8   8   8   8   8   8   8
#     4  10  19  36  59  81 106 140 182 226 269 318
#     4  11  23  40  59  81 107 138 177 223 272 323
#     4   9  17  32  56  80 103 139 185 227 264 311
#     4  10  19  34  55  80 108 143 182 221 266 319
#     4   9  16  30  53  78 105 138 181 224 261 311
#     4   9  18  32  53  78 108 143 180 217 262 321
#     4  10  18  30  49  76 107 143 179 217 261 312
#     4  10  20  33  52  80 109 139 178 225 272 317
#
# _framework density 19.484494999999999
#
# number of rings (size 3 to 8) (size 9 to 14) (size 15 to 20)
#    0.000    2.250    1.250    3.375    0.000    2.500 
#    0.000    6.875    0.000    3.000    0.000    0.000 
#    0.000    0.000    0.000    0.000    0.000    0.000 
#
# Total GULP energy -793492.410758 kJ/mol
# GULP energy per Si atom -12398.318918 kJ/mol
# Density = 1.944015 g / cm^3
# Si number density = 19.484495 Si / 1000 Ang^3
#
#
#
# Elastic Constant Matrix: (Units=GPa)
#
#
# Indices 1 2 3 4 5 6 
#
# 1 43.5159 23.2502 25.0862 0.0000 0.0000 0.0000
# 2 23.2502 124.9682 88.2646 0.0000 0.0000 0.0000
# 3 25.0862 88.2646 158.7497 0.0000 0.0000 0.0000
# 4 0.0000 0.0000 0.0000 45.0834 0.0000 0.0000
# 5 0.0000 0.0000 0.0000 0.0000 28.0869 0.0000
# 6 0.0000 0.0000 0.0000 0.0000 0.0000 15.5351
#
#
#
# Elastic Compliance Matrix: (Units=1/GPa)
#
#
# Indices 1 2 3 4 5 6 
#
# 1 0.026034 -0.003191 -0.002340 0.000000 0.000000 0.000000
# 2 -0.003191 0.013568 -0.007039 0.000000 0.000000 0.000000
# 3 -0.002340 -0.007039 0.010583 0.000000 0.000000 0.000000
# 4 0.000000 0.000000 0.000000 0.022181 0.000000 0.000000
# 5 0.000000 0.000000 0.000000 0.000000 0.035604 0.000000
# 6 0.000000 0.000000 0.000000 0.000000 0.000000 0.064370
#
#
# Mechanical properties :
#
#
# Convention : Reuss Voigt Hill
#
# Bulk Modulus (GPa) = 39.92957 66.71508 53.32233
# Shear Modulus (GPa) = 24.29218 30.44995 27.37106
#
# Velocity S-wave (km/s) = 3.53476 3.95749 3.75208
# Velocity P-wave (km/s) = 6.09892 7.42945 6.79682
#
# Compressibility (1/GPa) = 0.02504409
#
# Stress axis : x y z
#
# Youngs Moduli (GPa) = 38.41153 73.70540 94.49306
#
# Poissons Ratio (x) = 0.23519 0.22109
# Poissons Ratio (y) = 0.12257 0.66516
# Poissons Ratio (z) = 0.08987 0.51883
#
# Static dielectric constant tensor:
#      x y z
#    x 3.121430 0.000000 0.000000 
#    y 0.000000 3.903310 0.000000 
#    z 0.000000 0.000000 3.659270 
# 
# 
# High freq. dielectric constant tensor:
#      x y z
#    x 1.714320 0.000000 0.000000 
#    y 0.000000 1.771660 0.000000 
#    z 0.000000 0.000000 1.768480 
# 
# From -- ./inp_files/26987.got.cif
#   From: 2010.03.12/outbox.cif.g09.slc.cpg/sg53_14_cif.got.tgz:26987.got - 2010.04.16 14:36:59.
