data_PCOD8217009
_publ_section_title
;
Structure prediction by ZEFSAII (Michael W. Deem and Ramdas Pophale) SiO2 
 PCOD8217009
Probable space group: P N N A
;
_chemical_formula_sum "Si O2"
_cell_formula_units_Z 64
_cell_length_a 12.828030
_cell_length_b 9.532087
_cell_length_c 30.813340
_cell_angle_alpha 90.000000
_cell_angle_beta 90.000000
_cell_angle_gamma 90.000000
_cell_volume 3767.790446
_symmetry_space_group_name_H-M "P N N A"
_symmetry_group_IT_number 52
_symmetry_cell_setting 'orthorhombic'
loop_
_space_group_symop_operation_xyz
x,y,z
1/2-x,-y,z
x,1/2-y,1/2-z
1/2-x,1/2+y,1/2-z
-x,-y,-z
1/2+x,y,-z
-x,1/2+y,1/2+z
1/2+x,1/2-y,1/2+z
loop_
_atom_site_type_symbol
_atom_site_label
_atom_site_fract_x
_atom_site_fract_y
_atom_site_fract_z
Si Si1 0.567211 0.531777 0.064096
Si Si2 0.365075 0.160485 0.709268
Si Si3 0.850273 0.583194 0.974141
Si Si4 0.850264 0.586794 0.522296
Si Si5 0.153053 0.722806 0.616478
Si Si6 0.883158 0.845392 0.288750
Si Si7 0.605104 0.268813 0.118656
Si Si8 0.950630 0.516704 0.431842
O O1 0.443626 0.552789 0.059098
O O2 0.617800 0.678773 0.076863
O O3 0.594123 0.427096 0.102675
O O4 0.620627 0.477549 0.020739
O O5 0.407802 0.250000 0.750000
O O6 0.394787 0.229752 0.662907
O O7 0.241156 0.152693 0.710877
O O8 0.418601 0.007629 0.714072
O O9 0.750000 0.500000 0.956220
O O10 0.826014 0.748035 0.978138
O O11 0.750000 0.500000 0.537513
O O12 0.882044 0.532566 0.474945
O O13 0.939819 0.554759 0.557203
O O14 0.276961 0.715031 0.616061
O O15 0.109676 0.570106 0.604987
O O16 0.927367 0.750000 0.250000
O O17 0.930006 0.771584 0.331414
O O18 0.530913 0.169418 0.089732
#
# Coordination Sequence:
#
# PCOD8217009 Si02
#       8
#     8   8   8   8   8   8   8   8
#     4  11  22  36  53  76 103 133 183 217 249 302
#     4   9  18  30  46  68 101 139 168 206 252 301
#     4  11  24  37  56  75 100 138 174 220 265 303
#     4  11  24  39  53  73 106 137 171 219 268 304
#     4  11  20  35  51  74 106 140 178 211 249 304
#     4   9  18  30  45  70 102 134 172 205 250 305
#     4  11  20  33  53  76 102 144 173 213 253 300
#     4  11  24  36  51  76 104 137 178 213 255 310
#
# _framework density 16.986084000000002
#
# number of rings (size 3 to 8) (size 9 to 14) (size 15 to 20)
#    0.000    1.500    3.750    2.250    5.250    0.000 
#    0.000    0.000    0.000    0.000    0.000    0.000 
#    0.000    6.000    0.000    0.000    0.000    0.000 
#
# Total GULP energy -793667.827888 kJ/mol
# GULP energy per Si atom -12401.059811 kJ/mol
# Density = 1.694742 g / cm^3
# Si number density = 16.986084 Si / 1000 Ang^3
#
#
#
# Elastic Constant Matrix: (Units=GPa)
#
#
# Indices 1 2 3 4 5 6 
#
# 1 48.1262 28.1900 16.5261 0.0000 0.0000 0.0000
# 2 28.1900 76.9403 22.3002 0.0000 0.0000 0.0000
# 3 16.5261 22.3002 87.6555 0.0000 0.0000 0.0000
# 4 0.0000 0.0000 0.0000 14.9099 0.0000 0.0000
# 5 0.0000 0.0000 0.0000 0.0000 12.5136 0.0000
# 6 0.0000 0.0000 0.0000 0.0000 0.0000 25.8595
#
#
#
# Elastic Compliance Matrix: (Units=1/GPa)
#
#
# Indices 1 2 3 4 5 6 
#
# 1 0.027073 -0.009112 -0.002786 0.000000 0.000000 0.000000
# 2 -0.009112 0.017098 -0.002632 0.000000 0.000000 0.000000
# 3 -0.002786 -0.002632 0.012603 0.000000 0.000000 0.000000
# 4 0.000000 0.000000 0.000000 0.067070 0.000000 0.000000
# 5 0.000000 0.000000 0.000000 0.000000 0.079913 0.000000
# 6 0.000000 0.000000 0.000000 0.000000 0.000000 0.038671
#
#
# Mechanical properties :
#
#
# Convention : Reuss Voigt Hill
#
# Bulk Modulus (GPa) = 36.08202 38.52829 37.30515
# Shear Modulus (GPa) = 17.81102 20.37029 19.09066
#
# Velocity S-wave (km/s) = 3.24167 3.46675 3.35610
# Velocity P-wave (km/s) = 5.94133 6.22543 6.08504
#
# Compressibility (1/GPa) = 0.02771463
#
# Stress axis : x y z
#
# Youngs Moduli (GPa) = 36.93779 58.48521 79.34497
#
# Poissons Ratio (x) = 0.53289 0.22106
# Poissons Ratio (y) = 0.33656 0.20884
# Poissons Ratio (z) = 0.10291 0.15394
#
# Static dielectric constant tensor:
#      x y z
#    x 2.889420 0.000000 0.000000 
#    y 0.000000 3.374700 0.000000 
#    z 0.000000 0.000000 3.237250 
# 
# 
# High freq. dielectric constant tensor:
#      x y z
#    x 1.606270 0.000000 0.000000 
#    y 0.000000 1.678080 0.000000 
#    z 0.000000 0.000000 1.650700 
# 
# From -- ./inp_files/44837.got.cif
#   From: 2010.06.25/outbox.cif.g09.slc.cpg/sg52_23_cif.got.tgz:44837.got - 2010.06.26 19:32:48.
