data_PCOD8217210
_publ_section_title
;
Structure prediction by ZEFSAII (Michael W. Deem and Ramdas Pophale) SiO2 
 PCOD8217210
Probable space group: P N N A
;
_chemical_formula_sum "Si O2"
_cell_formula_units_Z 32
_cell_length_a 30.832449
_cell_length_b 4.899948
_cell_length_c 9.688035
_cell_angle_alpha 90.000000
_cell_angle_beta 90.000000
_cell_angle_gamma 90.000000
_cell_volume 1463.643108
_symmetry_space_group_name_H-M "P N N A"
_symmetry_group_IT_number 52
_symmetry_cell_setting 'orthorhombic'
loop_
_space_group_symop_operation_xyz
x,y,z
1/2-x,-y,z
x,1/2-y,1/2-z
1/2-x,1/2+y,1/2-z
-x,-y,-z
1/2+x,y,-z
-x,1/2+y,1/2+z
1/2+x,1/2-y,1/2+z
loop_
_atom_site_type_symbol
_atom_site_label
_atom_site_fract_x
_atom_site_fract_y
_atom_site_fract_z
Si Si1 0.832776 0.063635 0.506766
Si Si2 0.122221 0.406415 0.386896
Si Si3 0.750000 0.000000 0.661486
Si Si4 0.021313 0.494104 0.347251
Si Si5 0.718755 0.750000 0.250000
O O1 0.853083 0.308686 0.596357
O O2 0.816164 0.184287 0.365478
O O3 0.867661 0.814902 0.490856
O O4 0.790930 0.913474 0.570983
O O5 0.139379 0.250000 0.250000
O O6 0.071900 0.470777 0.378105
O O7 0.733560 0.750000 0.750000
O O8 0.004197 0.250000 0.250000
O O9 0.000000 0.500000 0.500000
O O10 0.010573 0.750000 0.250000
O O11 0.750000 0.500000 0.291660
#
# Coordination Sequence:
#
# PCOD8217210 Si02
#       5
#     8   8   4   8   4
#     4  12  24  42  63  91 127 171 222 263 332 392
#     4  11  23  43  68  96 131 167 215 275 336 388
#     4  12  24  36  60  90 118 156 210 268 308 376
#     4  11  24  46  75 105 144 183 226 285 355 424
#     4  12  26  46  62  84 134 182 218 272 336 396
#
# _framework density 21.863254999999999
#
# number of rings (size 3 to 8) (size 9 to 14) (size 15 to 20)
#    0.000    0.500    1.250    9.750    1.750    0.000 
#    6.750    0.000    0.000    0.000    0.000    0.000 
#    0.000    0.000    0.000    0.000    0.000    0.000 
#
# Total GULP energy -396560.432311 kJ/mol
# GULP energy per Si atom -12392.513510 kJ/mol
# Density = 2.181349 g / cm^3
# Si number density = 21.863255 Si / 1000 Ang^3
#
#
#
# Elastic Constant Matrix: (Units=GPa)
#
#
# Indices 1 2 3 4 5 6 
#
# 1 80.7317 34.0399 52.1727 0.0000 0.0000 0.0000
# 2 34.0399 146.6565 35.6518 0.0000 0.0000 0.0000
# 3 52.1727 35.6518 123.9271 0.0000 0.0000 0.0000
# 4 0.0000 0.0000 0.0000 33.5483 0.0000 0.0000
# 5 0.0000 0.0000 0.0000 0.0000 23.5187 0.0000
# 6 0.0000 0.0000 0.0000 0.0000 0.0000 33.6335
#
#
#
# Elastic Compliance Matrix: (Units=1/GPa)
#
#
# Indices 1 2 3 4 5 6 
#
# 1 0.017821 -0.002486 -0.006787 0.000000 0.000000 0.000000
# 2 -0.002486 0.007678 -0.001162 0.000000 0.000000 0.000000
# 3 -0.006787 -0.001162 0.011261 0.000000 0.000000 0.000000
# 4 0.000000 0.000000 0.000000 0.029808 0.000000 0.000000
# 5 0.000000 0.000000 0.000000 0.000000 0.042519 0.000000
# 6 0.000000 0.000000 0.000000 0.000000 0.000000 0.029732
#
#
# Mechanical properties :
#
#
# Convention : Reuss Voigt Hill
#
# Bulk Modulus (GPa) = 62.93755 66.11600 64.52677
# Shear Modulus (GPa) = 30.30511 33.43681 31.87096
#
# Velocity S-wave (km/s) = 3.72710 3.91495 3.82218
# Velocity P-wave (km/s) = 6.88267 7.12335 7.00404
#
# Compressibility (1/GPa) = 0.01588877
#
# Stress axis : x y z
#
# Youngs Moduli (GPa) = 56.11202 130.23738 88.80154
#
# Poissons Ratio (x) = 0.32383 0.60274
# Poissons Ratio (y) = 0.13952 0.10320
# Poissons Ratio (z) = 0.38086 0.15135
#
# Static dielectric constant tensor:
#      x y z
#    x 3.950300 0.000000 0.000000 
#    y 0.000000 4.287540 0.000000 
#    z 0.000000 0.000000 4.281950 
# 
# 
# High freq. dielectric constant tensor:
#      x y z
#    x 1.858180 0.000000 0.000000 
#    y 0.000000 1.884340 0.000000 
#    z 0.000000 0.000000 1.852680 
# 
# From -- ./inp_files/15228.got.cif
#   From: 2010.06.25/outbox.cif.g09.slc.cpg/sg52_8_cif.got.tgz:15228.got - 2010.06.26 19:32:48.
