data_PCOD8217253
_publ_section_title
;
Structure prediction by ZEFSAII (Michael W. Deem and Ramdas Pophale) SiO2 
 PCOD8217253
Probable space group: P N N A
;
_chemical_formula_sum "Si O2"
_cell_formula_units_Z 36
_cell_length_a 21.406280
_cell_length_b 8.685514
_cell_length_c 9.329715
_cell_angle_alpha 90.000000
_cell_angle_beta 90.000000
_cell_angle_gamma 90.000000
_cell_volume 1734.623013
_symmetry_space_group_name_H-M "P N N A"
_symmetry_group_IT_number 52
_symmetry_cell_setting 'orthorhombic'
loop_
_space_group_symop_operation_xyz
x,y,z
1/2-x,-y,z
x,1/2-y,1/2-z
1/2-x,1/2+y,1/2-z
-x,-y,-z
1/2+x,y,-z
-x,1/2+y,1/2+z
1/2+x,1/2-y,1/2+z
loop_
_atom_site_type_symbol
_atom_site_label
_atom_site_fract_x
_atom_site_fract_y
_atom_site_fract_z
Si Si1 0.206937 0.854132 0.876069
Si Si2 0.478153 0.750000 0.250000
Si Si3 0.098080 0.301556 0.972775
Si Si4 0.268690 0.825558 0.400029
Si Si5 0.578322 0.500450 0.295448
O O1 0.235558 0.750000 0.750000
O O2 0.250000 0.000000 0.893118
O O3 0.136454 0.895410 0.840209
O O4 0.209917 0.759363 0.025159
O O5 0.435778 0.821826 0.375415
O O6 0.518379 0.609214 0.313271
O O7 0.082528 0.444813 0.869273
O O8 0.074484 0.143774 0.901591
O O9 0.172443 0.303116 0.994954
O O10 0.285408 0.750000 0.250000
O O11 0.250000 0.000000 0.373915
#
# Coordination Sequence:
#
# PCOD8217253 Si02
#       5
#     8   4   8   8   8
#     4  12  22  40  68  99 132 173 229 283 338 409
#     4  12  24  44  72  96 136 180 234 280 340 404
#     4  11  24  46  66  97 142 178 223 285 344 400
#     4  12  26  43  67 100 137 179 222 283 355 411
#     4  11  24  42  69  99 132 179 231 278 334 413
#
# _framework density 20.753788
#
# number of rings (size 3 to 8) (size 9 to 14) (size 15 to 20)
#    0.000    0.444    4.444    5.333    0.000    0.000 
#    0.000    0.000    0.000    0.000    0.000    0.000 
#    0.000    0.000    0.000    0.000    0.000    0.000 
#
# Total GULP energy -446583.809627 kJ/mol
# GULP energy per Si atom -12405.105823 kJ/mol
# Density = 2.070655 g / cm^3
# Si number density = 20.753788 Si / 1000 Ang^3
#
#
#
# Elastic Constant Matrix: (Units=GPa)
#
#
# Indices 1 2 3 4 5 6 
#
# 1 90.9192 32.2509 34.3289 0.0000 0.0000 0.0000
# 2 32.2509 107.2727 19.4749 0.0000 0.0000 0.0000
# 3 34.3289 19.4749 88.8745 0.0000 0.0000 0.0000
# 4 0.0000 0.0000 0.0000 37.6876 0.0000 0.0000
# 5 0.0000 0.0000 0.0000 0.0000 17.1737 0.0000
# 6 0.0000 0.0000 0.0000 0.0000 0.0000 91.8098
#
#
#
# Elastic Compliance Matrix: (Units=1/GPa)
#
#
# Indices 1 2 3 4 5 6 
#
# 1 0.013943 -0.003347 -0.004652 0.000000 0.000000 0.000000
# 2 -0.003347 0.010512 -0.001011 0.000000 0.000000 0.000000
# 3 -0.004652 -0.001011 0.013270 0.000000 0.000000 0.000000
# 4 0.000000 0.000000 0.000000 0.026534 0.000000 0.000000
# 5 0.000000 0.000000 0.000000 0.000000 0.058228 0.000000
# 6 0.000000 0.000000 0.000000 0.000000 0.000000 0.010892
#
#
# Mechanical properties :
#
#
# Convention : Reuss Voigt Hill
#
# Bulk Modulus (GPa) = 50.74849 51.01955 50.88402
# Shear Modulus (GPa) = 31.65219 42.73500 37.19359
#
# Velocity S-wave (km/s) = 3.90953 4.54270 4.23795
# Velocity P-wave (km/s) = 6.69962 7.22160 6.96550
#
# Compressibility (1/GPa) = 0.01970502
#
# Stress axis : x y z
#
# Youngs Moduli (GPa) = 71.72260 95.13108 75.35701
#
# Poissons Ratio (x) = 0.31842 0.35056
# Poissons Ratio (y) = 0.24007 0.07615
# Poissons Ratio (z) = 0.33366 0.09613
#
# Static dielectric constant tensor:
#      x y z
#    x 3.695260 0.000000 0.000000 
#    y 0.000000 3.910100 0.000000 
#    z 0.000000 0.000000 3.785200 
# 
# 
# High freq. dielectric constant tensor:
#      x y z
#    x 1.805620 0.000000 0.000000 
#    y 0.000000 1.827820 0.000000 
#    z 0.000000 0.000000 1.821410 
# 
# From -- ./inp_files/12901.got.cif
#   From: 2010.06.25/outbox.cif.g09.slc.cpg/sg52_7_cif.got.tgz:12901.got - 2010.06.26 19:32:48.
