data_PCOD8217010
_publ_section_title
;
Structure prediction by ZEFSAII (Michael W. Deem and Ramdas Pophale) SiO2 
 PCOD8217010
Probable space group: P N N A
;
_chemical_formula_sum "Si O2"
_cell_formula_units_Z 56
_cell_length_a 9.622437
_cell_length_b 16.260569
_cell_length_c 19.786517
_cell_angle_alpha 90.000000
_cell_angle_beta 90.000000
_cell_angle_gamma 90.000000
_cell_volume 3095.923120
_symmetry_space_group_name_H-M "P N N A"
_symmetry_group_IT_number 52
_symmetry_cell_setting 'orthorhombic'
loop_
_space_group_symop_operation_xyz
x,y,z
1/2-x,-y,z
x,1/2-y,1/2-z
1/2-x,1/2+y,1/2-z
-x,-y,-z
1/2+x,y,-z
-x,1/2+y,1/2+z
1/2+x,1/2-y,1/2+z
loop_
_atom_site_type_symbol
_atom_site_label
_atom_site_fract_x
_atom_site_fract_y
_atom_site_fract_z
Si Si1 0.980173 0.215591 0.174774
Si Si2 0.471284 0.170940 0.380851
Si Si3 0.289701 0.146697 0.627764
Si Si4 0.369458 0.057019 0.494064
Si Si5 0.209969 0.801797 0.181919
Si Si6 0.638158 0.937867 0.232814
Si Si7 0.881825 0.449688 0.763315
O O1 0.990557 0.250000 0.250000
O O2 0.902426 0.279772 0.126107
O O3 0.888658 0.132776 0.177512
O O4 0.136476 0.198202 0.147869
O O5 0.636564 0.184152 0.383862
O O6 0.405721 0.136552 0.449800
O O7 0.400020 0.259313 0.368445
O O8 0.439483 0.106758 0.322196
O O9 0.322961 0.084031 0.568316
O O10 0.297541 0.098051 0.698104
O O11 0.250000 0.000000 0.460841
O O12 0.500000 0.000000 0.500000
O O13 0.215778 0.750000 0.250000
O O14 0.159737 0.894428 0.198156
O O15 0.750000 0.000000 0.200995
O O16 0.493563 0.982655 0.244337
O O17 0.750000 0.500000 0.790514
#
# Coordination Sequence:
#
# PCOD8217010 Si02
#       7
#     8   8   8   8   8   8   8
#     4   9  20  34  51  75 107 141 175 214 265 319
#     4  11  23  36  53  76 108 147 179 217 263 316
#     4  11  23  37  51  77 111 143 180 217 263 319
#     4  12  24  39  55  78 108 142 184 221 258 307
#     4   9  20  34  51  76 105 141 178 213 264 319
#     4  11  20  33  55  80 110 142 172 220 271 310
#     4  11  20  34  54  80 110 138 178 220 262 316
#
# _framework density 18.088304999999998
#
# number of rings (size 3 to 8) (size 9 to 14) (size 15 to 20)
#    0.000    1.429    4.286    1.714    6.000    1.714 
#    0.000    0.000    0.000    0.000    0.000    2.000 
#    0.000    0.000    0.000    0.000    0.000    0.000 
#
# Total GULP energy -694433.438575 kJ/mol
# GULP energy per Si atom -12400.597117 kJ/mol
# Density = 1.804714 g / cm^3
# Si number density = 18.088305 Si / 1000 Ang^3
#
#
#
# Elastic Constant Matrix: (Units=GPa)
#
#
# Indices 1 2 3 4 5 6 
#
# 1 132.3918 25.0453 20.4047 0.0000 0.0000 0.0000
# 2 25.0453 64.0635 16.3706 0.0000 0.0000 0.0000
# 3 20.4047 16.3706 38.5376 0.0000 0.0000 0.0000
# 4 0.0000 0.0000 0.0000 -7.7116 0.0000 0.0000
# 5 0.0000 0.0000 0.0000 0.0000 17.7233 0.0000
# 6 0.0000 0.0000 0.0000 0.0000 0.0000 26.8399
#
#
#
# Elastic Compliance Matrix: (Units=1/GPa)
#
#
# Indices 1 2 3 4 5 6 
#
# 1 0.008555 -0.002453 -0.003487 0.000000 0.000000 0.000000
# 2 -0.002453 0.018214 -0.006438 0.000000 0.000000 0.000000
# 3 -0.003487 -0.006438 0.030530 0.000000 0.000000 0.000000
# 4 0.000000 0.000000 0.000000 -0.129675 0.000000 0.000000
# 5 0.000000 0.000000 0.000000 0.000000 0.056423 0.000000
# 6 0.000000 0.000000 0.000000 0.000000 0.000000 0.037258
#
#
# Mechanical properties :
#
#
# Convention : Reuss Voigt Hill
#
# Bulk Modulus (GPa) = 30.73051 39.84823 35.28937
# Shear Modulus (GPa) = 87.85812 18.91514 53.38663
#
# Velocity S-wave (km/s) = 6.97691 3.23725 5.43861
# Velocity P-wave (km/s) = 9.05146 6.00423 7.68049
#
# Compressibility (1/GPa) = 0.03254095
#
# Stress axis : x y z
#
# Youngs Moduli (GPa) = 116.89144 54.90331 32.75448
#
# Poissons Ratio (x) = 0.13470 0.11423
# Poissons Ratio (y) = 0.28677 0.21088
# Poissons Ratio (z) = 0.40766 0.35348
#
# Static dielectric constant tensor:
#      x y z
#    x 3.254370 0.000000 0.000000 
#    y 0.000000 3.639390 0.000000 
#    z 0.000000 0.000000 3.113430 
# 
# 
# High freq. dielectric constant tensor:
#      x y z
#    x 1.727120 0.000000 0.000000 
#    y 0.000000 1.703670 0.000000 
#    z 0.000000 0.000000 1.643840 
# 
# From -- ./inp_files/36140.got.cif
#   From: 2010.06.25/outbox.cif.g09.slc.cpg/sg52_19_cif.got.tgz:36140.got - 2010.06.26 19:32:48.
