data_PCOD8217513
_publ_section_title
;
Structure prediction by ZEFSAII (Michael W. Deem and Ramdas Pophale) SiO2 
 PCOD8217513
Probable space group: P M N A
;
_chemical_formula_sum "Si O2"
_cell_formula_units_Z 64
_cell_length_a 18.864990
_cell_length_b 13.346651
_cell_length_c 15.112303
_cell_angle_alpha 90.000000
_cell_angle_beta 90.000000
_cell_angle_gamma 90.000000
_cell_volume 3805.042712
_symmetry_space_group_name_H-M "P M N A"
_symmetry_group_IT_number 53
_symmetry_cell_setting 'orthorhombic'
loop_
_space_group_symop_operation_xyz
x,y,z
1/2-x,-y,1/2+z
x,-y,-z
1/2-x,y,1/2-z
-x,-y,-z
1/2+x,y,1/2-z
-x,y,z
1/2+x,-y,1/2+z
loop_
_atom_site_type_symbol
_atom_site_label
_atom_site_fract_x
_atom_site_fract_y
_atom_site_fract_z
Si Si1 0.578467 0.127015 0.653912
Si Si2 0.853773 0.810284 0.987482
Si Si3 0.418115 0.656118 0.280540
Si Si4 0.155304 0.924217 0.819876
Si Si5 0.797755 0.861189 0.450658
Si Si6 0.294619 0.328050 0.834982
Si Si7 0.316753 0.929534 0.868047
Si Si8 0.669297 0.401347 0.556862
O O1 0.500000 0.085520 0.673030
O O2 0.581569 0.165093 0.552685
O O3 0.594532 0.223719 0.714951
O O4 0.634353 0.039610 0.668413
O O5 0.880090 0.847959 0.890615
O O6 0.785933 0.870547 0.026982
O O7 0.835501 0.692106 0.988858
O O8 0.500000 0.628655 0.261605
O O9 0.367079 0.618843 0.199888
O O10 0.394247 0.603697 0.371823
O O11 0.237392 0.910395 0.837563
O O12 0.135520 0.898408 0.717304
O O13 0.817586 0.762661 0.397598
O O14 0.837335 0.862071 0.546711
O O15 0.825050 0.953821 0.392581
O O16 0.250000 0.288454 0.750000
O O17 0.245036 0.403008 0.891738
O O18 0.660669 0.500000 0.500000
#
# Coordination Sequence:
#
# PCOD8217513 Si02
#       8
#     8   8   8   8   8   8   8   8
#     4  10  18  27  42  67  97 128 155 188 230 277
#     4   9  17  28  41  63  91 121 153 191 234 288
#     4   9  18  31  49  76 100 122 159 196 239 295
#     4  10  17  25  39  60  92 123 157 184 225 280
#     4   9  15  26  40  63  87 117 151 192 233 273
#     4   9  17  28  51  71  93 120 157 199 249 279
#     4   9  17  23  39  59  88 120 154 188 227 273
#     4   9  18  32  51  70  99 124 155 201 257 299
#
# _framework density 16.819785
#
# number of rings (size 3 to 8) (size 9 to 14) (size 15 to 20)
#    0.000    2.750    1.250    1.875    1.750    1.250 
#    0.000    0.000   24.750    1.125    0.000    3.500 
#    0.000    0.000    0.000    0.000    0.000    0.000 
#
# Total GULP energy -792849.767354 kJ/mol
# GULP energy per Si atom -12388.277615 kJ/mol
# Density = 1.678150 g / cm^3
# Si number density = 16.819785 Si / 1000 Ang^3
#
#
#
# Elastic Constant Matrix: (Units=GPa)
#
#
# Indices 1 2 3 4 5 6 
#
# 1 60.4409 16.0768 20.9354 0.0000 0.0000 0.0000
# 2 16.0768 54.8844 30.2777 0.0000 0.0000 0.0000
# 3 20.9354 30.2777 97.1842 0.0000 0.0000 0.0000
# 4 0.0000 0.0000 0.0000 22.3891 0.0000 0.0000
# 5 0.0000 0.0000 0.0000 0.0000 11.5957 0.0000
# 6 0.0000 0.0000 0.0000 0.0000 0.0000 6.9572
#
#
#
# Elastic Compliance Matrix: (Units=1/GPa)
#
#
# Indices 1 2 3 4 5 6 
#
# 1 0.018545 -0.003898 -0.002780 0.000000 0.000000 0.000000
# 2 -0.003898 0.022821 -0.006270 0.000000 0.000000 0.000000
# 3 -0.002780 -0.006270 0.012842 0.000000 0.000000 0.000000
# 4 0.000000 0.000000 0.000000 0.044665 0.000000 0.000000
# 5 0.000000 0.000000 0.000000 0.000000 0.086239 0.000000
# 6 0.000000 0.000000 0.000000 0.000000 0.000000 0.143736
#
#
# Mechanical properties :
#
#
# Convention : Reuss Voigt Hill
#
# Bulk Modulus (GPa) = 35.32266 38.56547 36.94407
# Shear Modulus (GPa) = 13.72940 17.86972 15.79956
#
# Velocity S-wave (km/s) = 2.86013 3.26302 3.06820
# Velocity P-wave (km/s) = 5.65273 6.09711 5.87912
#
# Compressibility (1/GPa) = 0.02831044
#
# Stress axis : x y z
#
# Youngs Moduli (GPa) = 53.92259 43.81925 77.86870
#
# Poissons Ratio (x) = 0.17082 0.21651
# Poissons Ratio (y) = 0.21021 0.48824
# Poissons Ratio (z) = 0.14993 0.27475
#
# Static dielectric constant tensor:
#      x y z
#    x 2.956030 0.000000 0.000000 
#    y 0.000000 2.764650 0.000000 
#    z 0.000000 0.000000 3.654780 
# 
# 
# High freq. dielectric constant tensor:
#      x y z
#    x 1.615480 0.000000 0.000000 
#    y 0.000000 1.606880 0.000000 
#    z 0.000000 0.000000 1.655390 
# 
# From -- ./inp_files/23960.got.cif
#   From: 2010.03.12/outbox.cif.g09.slc.cpg/sg53_12_cif.got.tgz:23960.got - 2010.04.16 14:36:59.
