data_PCOD8217564
_publ_section_title
;
Structure prediction by ZEFSAII (Michael W. Deem and Ramdas Pophale) SiO2 
 PCOD8217564
Probable space group: P M N A
;
_chemical_formula_sum "Si O2"
_cell_formula_units_Z 64
_cell_length_a 9.076584
_cell_length_b 17.045661
_cell_length_c 26.294184
_cell_angle_alpha 90.000000
_cell_angle_beta 90.000000
_cell_angle_gamma 90.000000
_cell_volume 4068.140803
_symmetry_space_group_name_H-M "P M N A"
_symmetry_group_IT_number 53
_symmetry_cell_setting 'orthorhombic'
loop_
_space_group_symop_operation_xyz
x,y,z
1/2-x,-y,1/2+z
x,-y,-z
1/2-x,y,1/2-z
-x,-y,-z
1/2+x,y,1/2-z
-x,y,z
1/2+x,-y,1/2+z
loop_
_atom_site_type_symbol
_atom_site_label
_atom_site_fract_x
_atom_site_fract_y
_atom_site_fract_z
Si Si1 0.173356 0.359139 0.423856
Si Si2 0.667923 0.836569 0.056170
Si Si3 0.834247 0.513103 0.059776
Si Si4 0.175275 0.900847 0.696941
Si Si5 0.170191 0.336499 0.541073
Si Si6 0.167026 0.898694 0.960260
Si Si7 0.670406 0.778049 0.629927
Si Si8 0.831851 0.988456 0.392551
O O1 0.234702 0.446578 0.414069
O O2 0.210689 0.330982 0.481207
O O3 0.254277 0.304671 0.382712
O O4 0.000000 0.357610 0.413347
O O5 0.500000 0.839567 0.036375
O O6 0.708030 0.746292 0.068431
O O7 0.688297 0.893370 0.105676
O O8 0.770358 0.868378 0.012511
O O9 0.765372 0.598526 0.070649
O O10 0.000000 0.509767 0.081732
O O11 0.833983 0.500000 0.000000
O O12 0.250000 0.921332 0.750000
O O13 0.242172 0.819448 0.675954
O O14 0.000000 0.892477 0.702854
O O15 0.222114 0.973840 0.660465
O O16 0.000000 0.360087 0.546904
O O17 0.186444 0.830450 0.919644
O O18 0.000000 0.922397 0.969081
O O19 0.246694 0.976945 0.940974
O O20 0.500000 0.765643 0.645537
O O21 0.000000 0.013117 0.400365
#
# Coordination Sequence:
#
# PCOD8217564 Si02
#       8
#     8   8   8   8   8   8   8   8
#     4  10  17  27  43  62  85 115 152 188 218 256
#     4  10  18  29  43  60  85 118 152 184 218 259
#     4   9  17  27  39  56  82 116 151 185 220 258
#     4  10  20  35  52  68  87 113 145 184 230 274
#     4   9  17  27  40  58  83 117 154 187 219 255
#     4  10  19  28  40  60  88 117 147 183 220 256
#     4  10  19  30  45  66  90 117 149 184 223 266
#     4   9  19  32  46  62  83 113 148 181 219 269
#
# _framework density 15.732002
#
# number of rings (size 3 to 8) (size 9 to 14) (size 15 to 20)
#    0.000    2.375    1.250    2.250    0.000    6.000 
#    0.000    0.000    0.000    0.000    0.000    0.000 
#    0.000    1.000    0.000    7.000    0.000    3.250 
#
# Total GULP energy -793426.392712 kJ/mol
# GULP energy per Si atom -12397.287386 kJ/mol
# Density = 1.569619 g / cm^3
# Si number density = 15.732002 Si / 1000 Ang^3
#
#
#
# Elastic Constant Matrix: (Units=GPa)
#
#
# Indices 1 2 3 4 5 6 
#
# 1 81.7316 45.4317 27.8361 0.0000 0.0000 0.0000
# 2 45.4317 117.5274 30.4389 0.0000 0.0000 0.0000
# 3 27.8361 30.4389 40.4102 0.0000 0.0000 0.0000
# 4 0.0000 0.0000 0.0000 11.5480 0.0000 0.0000
# 5 0.0000 0.0000 0.0000 0.0000 18.7823 0.0000
# 6 0.0000 0.0000 0.0000 0.0000 0.0000 14.0745
#
#
#
# Elastic Compliance Matrix: (Units=1/GPa)
#
#
# Indices 1 2 3 4 5 6 
#
# 1 0.017784 -0.004599 -0.008786 0.000000 0.000000 0.000000
# 2 -0.004599 0.011760 -0.005690 0.000000 0.000000 0.000000
# 3 -0.008786 -0.005690 0.035085 0.000000 0.000000 0.000000
# 4 0.000000 0.000000 0.000000 0.086595 0.000000 0.000000
# 5 0.000000 0.000000 0.000000 0.000000 0.053241 0.000000
# 6 0.000000 0.000000 0.000000 0.000000 0.000000 0.071050
#
#
# Mechanical properties :
#
#
# Convention : Reuss Voigt Hill
#
# Bulk Modulus (GPa) = 37.76729 49.67582 43.72156
# Shear Modulus (GPa) = 15.50423 17.94515 16.72469
#
# Velocity S-wave (km/s) = 3.14271 3.38106 3.26406
# Velocity P-wave (km/s) = 6.10144 6.84740 6.48516
#
# Compressibility (1/GPa) = 0.02647794
#
# Stress axis : x y z
#
# Youngs Moduli (GPa) = 56.23038 85.03216 28.50249
#
# Poissons Ratio (x) = 0.39107 0.25042
# Poissons Ratio (y) = 0.25861 0.16219
# Poissons Ratio (z) = 0.49404 0.48386
#
# Static dielectric constant tensor:
#      x y z
#    x 3.140480 0.000000 0.000000 
#    y 0.000000 3.200400 0.000000 
#    z 0.000000 0.000000 2.597290 
# 
# 
# High freq. dielectric constant tensor:
#      x y z
#    x 1.618540 0.000000 0.000000 
#    y 0.000000 1.610020 0.000000 
#    z 0.000000 0.000000 1.541610 
# 
# From -- ./inp_files/36473.got.cif
#   From: 2010.03.12/outbox.cif.g09.slc.cpg/sg53_19_cif.got.tgz:36473.got - 2010.04.16 14:36:59.
