data_PCOD8217815
_publ_section_title
;
Structure prediction by ZEFSAII (Michael W. Deem and Ramdas Pophale) SiO2 
 PCOD8217815
Probable space group: P M N A
;
_chemical_formula_sum "Si O2"
_cell_formula_units_Z 64
_cell_length_a 9.310256
_cell_length_b 14.785728
_cell_length_c 29.439488
_cell_angle_alpha 90.000000
_cell_angle_beta 90.000000
_cell_angle_gamma 90.000000
_cell_volume 4052.607912
_symmetry_space_group_name_H-M "P M N A"
_symmetry_group_IT_number 53
_symmetry_cell_setting 'orthorhombic'
loop_
_space_group_symop_operation_xyz
x,y,z
1/2-x,-y,1/2+z
x,-y,-z
1/2-x,y,1/2-z
-x,-y,-z
1/2+x,y,1/2-z
-x,y,z
1/2+x,-y,1/2+z
loop_
_atom_site_type_symbol
_atom_site_label
_atom_site_fract_x
_atom_site_fract_y
_atom_site_fract_z
Si Si1 0.830528 0.445903 0.066587
Si Si2 0.671505 0.167823 0.538397
Si Si3 0.167885 0.789183 0.706905
Si Si4 0.666486 0.045356 0.893743
Si Si5 0.166697 0.997287 0.706611
Si Si6 0.330724 0.370349 0.528807
Si Si7 0.831548 0.699186 0.614501
Si Si8 0.666580 0.864680 0.948508
O O1 0.787423 0.552554 0.065660
O O2 0.749264 0.395733 0.107284
O O3 0.000000 0.433544 0.072894
O O4 0.772536 0.399486 0.020400
O O5 0.500000 0.159796 0.536548
O O6 0.731175 0.117881 0.582555
O O7 0.726561 0.271623 0.542561
O O8 0.736963 0.122323 0.493236
O O9 0.250000 0.747696 0.750000
O O10 0.219923 0.735015 0.663025
O O11 0.000000 0.778211 0.715059
O O12 0.210954 0.893278 0.699844
O O13 0.500000 0.071243 0.901248
O O14 0.706083 0.047746 0.840301
O O15 0.696880 0.946321 0.914016
O O16 0.250000 0.039493 0.750000
O O17 0.000000 0.007169 0.717462
O O18 0.500000 0.367797 0.524871
O O19 0.788056 0.772289 0.576323
O O20 0.000000 0.681786 0.613709
O O21 0.500000 0.863222 0.963149
#
# Coordination Sequence:
#
# PCOD8217815 Si02
#       8
#     8   8   8   8   8   8   8   8
#     4   9  16  30  49  65  86 120 154 182 225 278
#     4  11  21  32  46  67  93 121 159 203 232 256
#     4   9  17  30  46  66  92 121 151 186 226 270
#     4  10  20  34  48  64  91 130 161 182 224 283
#     4   9  17  31  49  67  89 118 153 189 227 271
#     4   8  16  30  46  64  89 119 150 188 231 271
#     4  10  18  29  46  69  95 121 152 190 227 265
#     4  10  19  32  46  62  92 132 162 181 218 274
#
# _framework density 15.792299999999999
#
# number of rings (size 3 to 8) (size 9 to 14) (size 15 to 20)
#    0.000    2.500    2.500    1.500    0.000    3.000 
#    0.000    2.500    0.000    0.000    0.000    0.875 
#    0.000    0.000    0.000    0.000    0.000    0.000 
#
# Total GULP energy -793433.710098 kJ/mol
# GULP energy per Si atom -12397.401720 kJ/mol
# Density = 1.575636 g / cm^3
# Si number density = 15.792300 Si / 1000 Ang^3
#
#
#
# Elastic Constant Matrix: (Units=GPa)
#
#
# Indices 1 2 3 4 5 6 
#
# 1 46.5388 29.8693 45.5819 0.0000 0.0000 0.0000
# 2 29.8693 66.0001 36.1961 0.0000 0.0000 0.0000
# 3 45.5819 36.1961 112.9492 0.0000 0.0000 0.0000
# 4 0.0000 0.0000 0.0000 20.2990 0.0000 0.0000
# 5 0.0000 0.0000 0.0000 0.0000 28.4244 0.0000
# 6 0.0000 0.0000 0.0000 0.0000 0.0000 20.6716
#
#
#
# Elastic Compliance Matrix: (Units=1/GPa)
#
#
# Indices 1 2 3 4 5 6 
#
# 1 0.041908 -0.011757 -0.013145 0.000000 0.000000 0.000000
# 2 -0.011757 0.021681 -0.002203 0.000000 0.000000 0.000000
# 3 -0.013145 -0.002203 0.014864 0.000000 0.000000 0.000000
# 4 0.000000 0.000000 0.000000 0.049264 0.000000 0.000000
# 5 0.000000 0.000000 0.000000 0.000000 0.035181 0.000000
# 6 0.000000 0.000000 0.000000 0.000000 0.000000 0.048375
#
#
# Mechanical properties :
#
#
# Convention : Reuss Voigt Hill
#
# Bulk Modulus (GPa) = 41.24932 49.86475 45.55704
# Shear Modulus (GPa) = 18.27733 21.46839 19.87286
#
# Velocity S-wave (km/s) = 3.40569 3.69103 3.55123
# Velocity P-wave (km/s) = 6.45302 7.05754 6.76204
#
# Compressibility (1/GPa) = 0.02424282
#
# Stress axis : x y z
#
# Youngs Moduli (GPa) = 23.86203 46.12421 67.27575
#
# Poissons Ratio (x) = 0.54229 0.88431
# Poissons Ratio (y) = 0.28055 0.14822
# Poissons Ratio (z) = 0.31366 0.10162
#
# Static dielectric constant tensor:
#      x y z
#    x 2.857210 0.000000 0.000000 
#    y 0.000000 3.069820 0.000000 
#    z 0.000000 0.000000 3.024110 
# 
# 
# High freq. dielectric constant tensor:
#      x y z
#    x 1.596550 0.000000 0.000000 
#    y 0.000000 1.589220 0.000000 
#    z 0.000000 0.000000 1.594820 
# 
# From -- ./inp_files/38397.got.cif
#   From: 2010.03.12/outbox.cif.g09.slc.cpg/sg53_20_cif.got.tgz:38397.got - 2010.04.16 14:36:59.
