data_PCOD8217435
_publ_section_title
;
Structure prediction by ZEFSAII (Michael W. Deem and Ramdas Pophale) SiO2 
 PCOD8217435
Probable space group: P N N A
;
_chemical_formula_sum "Si O2"
_cell_formula_units_Z 24
_cell_length_a 8.597004
_cell_length_b 11.956733
_cell_length_c 9.112306
_cell_angle_alpha 90.000000
_cell_angle_beta 90.000000
_cell_angle_gamma 90.000000
_cell_volume 936.672900
_symmetry_space_group_name_H-M "P N N A"
_symmetry_group_IT_number 52
_symmetry_cell_setting 'orthorhombic'
loop_
_space_group_symop_operation_xyz
x,y,z
1/2-x,-y,z
x,1/2-y,1/2-z
1/2-x,1/2+y,1/2-z
-x,-y,-z
1/2+x,y,-z
-x,1/2+y,1/2+z
1/2+x,1/2-y,1/2+z
loop_
_atom_site_type_symbol
_atom_site_label
_atom_site_fract_x
_atom_site_fract_y
_atom_site_fract_z
Si Si1 0.093370 0.431472 0.614136
Si Si2 0.113243 0.911001 0.398713
Si Si3 0.897494 0.780381 0.590609
O O1 0.250000 0.500000 0.648211
O O2 0.108693 0.309248 0.541329
O O3 0.000000 0.500000 0.500000
O O4 0.992717 0.428610 0.759223
O O5 0.214794 0.798949 0.381247
O O6 0.996504 0.891341 0.538150
O O7 0.250000 0.000000 0.424739
O O8 0.972512 0.750000 0.750000
#
# Coordination Sequence:
#
# PCOD8217435 Si02
#       3
#     8   8   8
#     4  12  26  48  78 111 150 198 249 309 376 448
#     4  12  28  50  76 109 152 201 255 312 378 454
#     4  12  26  48  75 110 151 197 253 317 379 450
#
# _framework density 25.622605
#
# number of rings (size 3 to 8) (size 9 to 14) (size 15 to 20)
#    0.000    0.000    0.000   11.000    0.000    9.333 
#    0.000    1.667    0.000    0.000    0.000    0.000 
#    0.000    0.000    0.000    0.000    0.000    0.000 
#
# Total GULP energy -297340.183989 kJ/mol
# GULP energy per Si atom -12389.174333 kJ/mol
# Density = 2.556429 g / cm^3
# Si number density = 25.622605 Si / 1000 Ang^3
#
#
#
# Elastic Constant Matrix: (Units=GPa)
#
#
# Indices 1 2 3 4 5 6 
#
# 1 224.1440 95.7149 119.3755 0.0000 0.0000 0.0000
# 2 95.7149 76.2492 75.6736 0.0000 0.0000 0.0000
# 3 119.3755 75.6736 220.2783 0.0000 0.0000 0.0000
# 4 0.0000 0.0000 0.0000 33.5918 0.0000 0.0000
# 5 0.0000 0.0000 0.0000 0.0000 60.1945 0.0000
# 6 0.0000 0.0000 0.0000 0.0000 0.0000 52.6378
#
#
#
# Elastic Compliance Matrix: (Units=1/GPa)
#
#
# Indices 1 2 3 4 5 6 
#
# 1 0.010010 -0.010897 -0.001681 0.000000 0.000000 0.000000
# 2 -0.010897 0.031762 -0.005006 0.000000 0.000000 0.000000
# 3 -0.001681 -0.005006 0.007171 0.000000 0.000000 0.000000
# 4 0.000000 0.000000 0.000000 0.029769 0.000000 0.000000
# 5 0.000000 0.000000 0.000000 0.000000 0.016613 0.000000
# 6 0.000000 0.000000 0.000000 0.000000 0.000000 0.018998
#
#
# Mechanical properties :
#
#
# Convention : Reuss Voigt Hill
#
# Bulk Modulus (GPa) = 72.59965 122.46661 97.53313
# Shear Modulus (GPa) = 32.45017 44.61200 38.53109
#
# Velocity S-wave (km/s) = 3.56261 4.17720 3.88208
# Velocity P-wave (km/s) = 6.73191 8.43596 7.63164
#
# Compressibility (1/GPa) = 0.01377417
#
# Stress axis : x y z
#
# Youngs Moduli (GPa) = 99.89869 31.48414 139.45889
#
# Poissons Ratio (x) = 0.34308 0.23447
# Poissons Ratio (y) = 1.08860 0.69813
# Poissons Ratio (z) = 0.16796 0.15761
#
# Static dielectric constant tensor:
#      x y z
#    x 5.365730 0.000000 0.000000 
#    y 0.000000 5.179950 0.000000 
#    z 0.000000 0.000000 4.368670 
# 
# 
# High freq. dielectric constant tensor:
#      x y z
#    x 2.051980 0.000000 0.000000 
#    y 0.000000 2.052690 0.000000 
#    z 0.000000 0.000000 2.034580 
# 
# From -- ./inp_files/6987.got.cif
#   From: 2010.06.25/outbox.cif.g09.slc.cpg/sg52_4_cif.got.tgz:6987.got - 2010.06.26 19:32:48.
