data_PCOD8217647
_publ_section_title
;
Structure prediction by ZEFSAII (Michael W. Deem and Ramdas Pophale) SiO2 
 PCOD8217647
Probable space group: P M N A
;
_chemical_formula_sum "Si O2"
_cell_formula_units_Z 40
_cell_length_a 24.748749
_cell_length_b 17.901169
_cell_length_c 5.208881
_cell_angle_alpha 90.000000
_cell_angle_beta 90.000000
_cell_angle_gamma 90.000000
_cell_volume 2307.698563
_symmetry_space_group_name_H-M "P M N A"
_symmetry_group_IT_number 53
_symmetry_cell_setting 'orthorhombic'
loop_
_space_group_symop_operation_xyz
x,y,z
1/2-x,-y,1/2+z
x,-y,-z
1/2-x,y,1/2-z
-x,-y,-z
1/2+x,y,1/2-z
-x,y,z
1/2+x,-y,1/2+z
loop_
_atom_site_type_symbol
_atom_site_label
_atom_site_fract_x
_atom_site_fract_y
_atom_site_fract_z
Si Si1 0.599544 0.161497 0.956946
Si Si2 0.064103 0.672286 0.496424
Si Si3 0.691982 0.923744 0.842805
Si Si4 0.564021 0.416464 0.495092
Si Si5 0.410941 0.919425 0.552749
O O1 0.594437 0.249379 0.987794
O O2 0.576126 0.135274 0.683900
O O3 0.663092 0.138562 0.975503
O O4 0.566278 0.119329 0.186538
O O5 0.084796 0.627928 0.746015
O O6 0.000000 0.685559 0.499546
O O7 0.083021 0.625760 0.249863
O O8 0.750000 0.894467 0.750000
O O9 0.653390 0.934170 0.594131
O O10 0.698387 0.000000 0.000000
O O11 0.588657 0.500000 0.500000
O O12 0.500000 0.421750 0.483471
O O13 0.438728 0.000000 0.500000
#
# Coordination Sequence:
#
# PCOD8217647 Si02
#       5
#     8   8   8   8   8
#     4  10  20  30  46  68  96 127 156 198 239 283
#     4  10  19  32  49  70  99 133 160 188 235 285
#     4  10  20  29  50  70  94 122 159 199 253 293
#     4   9  17  30  50  74  97 123 156 193 234 283
#     4  10  17  32  45  63  89 123 155 198 241 280
#
# _framework density 17.333285
#
# number of rings (size 3 to 8) (size 9 to 14) (size 15 to 20)
#    1.200    1.000    2.000    3.000    0.000    2.400 
#    0.000    0.000    0.000    6.600    0.000    0.000 
#    0.000    3.200    0.000    0.000    0.000    0.000 
#
# Total GULP energy -495620.367100 kJ/mol
# GULP energy per Si atom -12390.509178 kJ/mol
# Density = 1.729383 g / cm^3
# Si number density = 17.333285 Si / 1000 Ang^3
#
#
#
# Elastic Constant Matrix: (Units=GPa)
#
#
# Indices 1 2 3 4 5 6 
#
# 1 29.5719 18.0273 6.6719 0.0000 0.0000 0.0000
# 2 18.0273 147.8478 59.6978 0.0000 0.0000 0.0000
# 3 6.6719 59.6978 147.4157 0.0000 0.0000 0.0000
# 4 0.0000 0.0000 0.0000 33.4340 0.0000 0.0000
# 5 0.0000 0.0000 0.0000 0.0000 4.6403 0.0000
# 6 0.0000 0.0000 0.0000 0.0000 0.0000 18.7719
#
#
#
# Elastic Compliance Matrix: (Units=1/GPa)
#
#
# Indices 1 2 3 4 5 6 
#
# 1 0.036535 -0.004527 0.000180 0.000000 0.000000 0.000000
# 2 -0.004527 0.008647 -0.003297 0.000000 0.000000 0.000000
# 3 0.000180 -0.003297 0.008110 0.000000 0.000000 0.000000
# 4 0.000000 0.000000 0.000000 0.029910 0.000000 0.000000
# 5 0.000000 0.000000 0.000000 0.000000 0.215502 0.000000
# 6 0.000000 0.000000 0.000000 0.000000 0.000000 0.053271
#
#
# Mechanical properties :
#
#
# Convention : Reuss Voigt Hill
#
# Bulk Modulus (GPa) = 26.31303 54.84770 40.58036
# Shear Modulus (GPa) = 13.16024 27.39847 20.27936
#
# Velocity S-wave (km/s) = 2.75843 3.98010 3.42419
# Velocity P-wave (km/s) = 5.03576 7.26865 6.25268
#
# Compressibility (1/GPa) = 0.03800399
#
# Stress axis : x y z
#
# Youngs Moduli (GPa) = 27.37085 115.64824 123.29753
#
# Poissons Ratio (x) = 0.52359 -0.02218
# Poissons Ratio (y) = 0.12392 0.40648
# Poissons Ratio (z) = -0.00492 0.38127
#
# Static dielectric constant tensor:
#      x y z
#    x 2.735160 0.000000 0.000000 
#    y 0.000000 3.175660 0.000000 
#    z 0.000000 0.000000 3.452330 
# 
# 
# High freq. dielectric constant tensor:
#      x y z
#    x 1.602690 0.000000 0.000000 
#    y 0.000000 1.667410 0.000000 
#    z 0.000000 0.000000 1.691890 
# 
# From -- ./inp_files/4563.got.cif
#   From: 2010.03.12/outbox.cif.g09.slc.cpg/sg53_3_cif.got.tgz:4563.got - 2010.04.16 14:36:59.
