data_PCOD8217439
_publ_section_title
;
Structure prediction by ZEFSAII (Michael W. Deem and Ramdas Pophale) SiO2 
 PCOD8217439
Probable space group: P N N A
;
_chemical_formula_sum "Si O2"
_cell_formula_units_Z 32
_cell_length_a 15.459767
_cell_length_b 16.246795
_cell_length_c 4.946258
_cell_angle_alpha 90.000000
_cell_angle_beta 90.000000
_cell_angle_gamma 90.000000
_cell_volume 1242.359858
_symmetry_space_group_name_H-M "P N N A"
_symmetry_group_IT_number 52
_symmetry_cell_setting 'orthorhombic'
loop_
_space_group_symop_operation_xyz
x,y,z
1/2-x,-y,z
x,1/2-y,1/2-z
1/2-x,1/2+y,1/2-z
-x,-y,-z
1/2+x,y,-z
-x,1/2+y,1/2+z
1/2+x,1/2-y,1/2+z
loop_
_atom_site_type_symbol
_atom_site_label
_atom_site_fract_x
_atom_site_fract_y
_atom_site_fract_z
Si Si1 0.454794 0.340869 0.335246
Si Si2 0.223254 0.658531 0.654585
Si Si3 0.109549 0.071782 0.055944
Si Si4 0.382588 0.460583 0.946920
O O1 0.482348 0.250000 0.250000
O O2 0.359020 0.341034 0.457581
O O3 0.524700 0.370803 0.556533
O O4 0.457278 0.401085 0.071575
O O5 0.242686 0.750000 0.750000
O O6 0.308098 0.626608 0.510310
O O7 0.202929 0.596164 0.903593
O O8 0.091373 0.996922 0.845958
O O9 0.132251 0.035280 0.347920
#
# Coordination Sequence:
#
# PCOD8217439 Si02
#       4
#     8   8   8   8
#     4  12  27  50  77 111 154 201 252 313 386 452
#     4  12  28  49  78 114 157 200 256 318 389 454
#     4  12  30  48  79 110 154 198 260 310 380 453
#     4  12  27  49  74 113 148 204 251 316 368 456
#
# _framework density 25.757428999999998
#
# number of rings (size 3 to 8) (size 9 to 14) (size 15 to 20)
#    0.000    0.000    5.000    3.000   10.500    0.000 
#    0.000    3.750    0.000    0.000    0.000    0.000 
#    0.000    0.000    0.000    0.000    0.000    0.000 
#
# Total GULP energy -396816.821687 kJ/mol
# GULP energy per Si atom -12400.525678 kJ/mol
# Density = 2.569880 g / cm^3
# Si number density = 25.757429 Si / 1000 Ang^3
#
#
#
# Elastic Constant Matrix: (Units=GPa)
#
#
# Indices 1 2 3 4 5 6 
#
# 1 108.1227 36.9356 4.6027 0.0000 0.0000 0.0000
# 2 36.9356 143.8890 17.2538 0.0000 0.0000 0.0000
# 3 4.6027 17.2538 88.2778 0.0000 0.0000 0.0000
# 4 0.0000 0.0000 0.0000 34.7382 0.0000 0.0000
# 5 0.0000 0.0000 0.0000 0.0000 -18.2024 0.0000
# 6 0.0000 0.0000 0.0000 0.0000 0.0000 -1.5872
#
#
#
# Elastic Compliance Matrix: (Units=1/GPa)
#
#
# Indices 1 2 3 4 5 6 
#
# 1 0.010138 -0.002600 -0.000020 0.000000 0.000000 0.000000
# 2 -0.002600 0.007783 -0.001386 0.000000 0.000000 0.000000
# 3 -0.000020 -0.001386 0.011600 0.000000 0.000000 0.000000
# 4 0.000000 0.000000 0.000000 0.028787 0.000000 0.000000
# 5 0.000000 0.000000 0.000000 0.000000 -0.054938 0.000000
# 6 0.000000 0.000000 0.000000 0.000000 0.000000 -0.630030
#
#
# Mechanical properties :
#
#
# Convention : Reuss Voigt Hill
#
# Bulk Modulus (GPa) = 46.49239 50.87484 48.68361
# Shear Modulus (GPa) = -8.17690 21.75624 6.78967
#
# Velocity S-wave (km/s) = -1.78367 2.90945 1.62534
# Velocity P-wave (km/s) = 3.72120 5.57503 4.73963
#
# Compressibility (1/GPa) = 0.02150890
#
# Stress axis : x y z
#
# Youngs Moduli (GPa) = 98.64122 128.47972 86.20863
#
# Poissons Ratio (x) = 0.33403 0.00176
# Poissons Ratio (y) = 0.25645 0.11946
# Poissons Ratio (z) = 0.00201 0.17803
#
# Static dielectric constant tensor:
#      x y z
#    x 4.551430 0.000000 0.000000 
#    y 0.000000 5.186670 0.000000 
#    z 0.000000 0.000000 4.718000 
# 
# 
# High freq. dielectric constant tensor:
#      x y z
#    x 2.030240 0.000000 0.000000 
#    y 0.000000 2.051160 0.000000 
#    z 0.000000 0.000000 2.031690 
# 
# From -- ./inp_files/3061.got.cif
#   From: 2010.06.25/outbox.cif.g09.slc.cpg/sg52_2_cif.got.tgz:3061.got - 2010.06.26 19:32:48.
