data_PCOD8217974
_publ_section_title
;
Structure prediction by ZEFSAII (Michael W. Deem and Ramdas Pophale) SiO2 
 PCOD8217974
Probable space group: P M N A
;
_chemical_formula_sum "Si O2"
_cell_formula_units_Z 64
_cell_length_a 9.180659
_cell_length_b 14.657182
_cell_length_c 24.815970
_cell_angle_alpha 90.000000
_cell_angle_beta 90.000000
_cell_angle_gamma 90.000000
_cell_volume 3339.301193
_symmetry_space_group_name_H-M "P M N A"
_symmetry_group_IT_number 53
_symmetry_cell_setting 'orthorhombic'
loop_
_space_group_symop_operation_xyz
x,y,z
1/2-x,-y,1/2+z
x,-y,-z
1/2-x,y,1/2-z
-x,-y,-z
1/2+x,y,1/2-z
-x,y,z
1/2+x,-y,1/2+z
loop_
_atom_site_type_symbol
_atom_site_label
_atom_site_fract_x
_atom_site_fract_y
_atom_site_fract_z
Si Si1 0.826467 0.173657 0.697307
Si Si2 0.173509 0.718149 0.408146
Si Si3 0.827080 0.787413 0.804964
Si Si4 0.326776 0.479532 0.939987
Si Si5 0.163447 0.340535 0.387076
Si Si6 0.334343 0.050688 0.449163
Si Si7 0.661165 0.788555 0.980604
Si Si8 0.166496 0.995139 0.831718
O O1 0.750000 0.217382 0.750000
O O2 0.770779 0.233039 0.646379
O O3 0.000000 0.175716 0.702971
O O4 0.774489 0.068252 0.694406
O O5 0.234090 0.615336 0.414950
O O6 0.230010 0.775298 0.459949
O O7 0.000000 0.716734 0.408796
O O8 0.750000 0.757378 0.750000
O O9 0.772095 0.718319 0.850720
O O10 0.784106 0.892461 0.817259
O O11 0.000000 0.777278 0.800424
O O12 0.500000 0.475669 0.944552
O O13 0.280931 0.555776 0.895451
O O14 0.262120 0.500000 0.000000
O O15 0.157315 0.306414 0.448932
O O16 0.000000 0.336063 0.361944
O O17 0.500000 0.074783 0.461924
O O18 0.253990 0.146014 0.442351
O O19 0.318917 0.990732 0.395802
O O20 0.261762 0.000000 0.500000
O O21 0.500000 0.830162 0.986360
O O22 0.000000 0.013132 0.812911
#
# Coordination Sequence:
#
# PCOD8217974 Si02
#       8
#     8   8   8   8   8   8   8   8
#     4  11  23  38  57  79 108 145 186 233 277 319
#     4   9  18  33  54  84 115 144 182 228 276 325
#     4  11  23  39  58  79 110 148 188 232 276 327
#     4   9  15  29  56  87 116 144 179 224 271 326
#     4  10  19  32  56  87 114 143 180 225 275 325
#     4  10  20  33  49  74 111 151 183 215 269 333
#     4  10  18  30  52  82 113 141 177 222 270 324
#     4  10  21  37  56  80 108 144 188 228 270 324
#
# _framework density 19.165685
#
# number of rings (size 3 to 8) (size 9 to 14) (size 15 to 20)
#    0.000    2.000    2.500    1.875    0.000    2.750 
#    0.000    1.250    0.000    4.125    0.000    0.000 
#    0.000    0.000    0.000    0.000    0.000    0.000 
#
# Total GULP energy -793305.418946 kJ/mol
# GULP energy per Si atom -12395.397171 kJ/mol
# Density = 1.912206 g / cm^3
# Si number density = 19.165685 Si / 1000 Ang^3
#
#
#
# Elastic Constant Matrix: (Units=GPa)
#
#
# Indices 1 2 3 4 5 6 
#
# 1 56.6847 31.3104 35.5599 0.0000 0.0000 0.0000
# 2 31.3104 96.4351 41.2081 0.0000 0.0000 0.0000
# 3 35.5599 41.2081 119.3690 0.0000 0.0000 0.0000
# 4 0.0000 0.0000 0.0000 21.1850 0.0000 0.0000
# 5 0.0000 0.0000 0.0000 0.0000 26.2811 0.0000
# 6 0.0000 0.0000 0.0000 0.0000 0.0000 9.7319
#
#
#
# Elastic Compliance Matrix: (Units=1/GPa)
#
#
# Indices 1 2 3 4 5 6 
#
# 1 0.023990 -0.005555 -0.005229 0.000000 0.000000 0.000000
# 2 -0.005555 0.013450 -0.002989 0.000000 0.000000 0.000000
# 3 -0.005229 -0.002989 0.010967 0.000000 0.000000 0.000000
# 4 0.000000 0.000000 0.000000 0.047203 0.000000 0.000000
# 5 0.000000 0.000000 0.000000 0.000000 0.038050 0.000000
# 6 0.000000 0.000000 0.000000 0.000000 0.000000 0.102755
#
#
# Mechanical properties :
#
#
# Convention : Reuss Voigt Hill
#
# Bulk Modulus (GPa) = 47.93265 54.29396 51.11330
# Shear Modulus (GPa) = 18.45605 22.40028 20.42817
#
# Velocity S-wave (km/s) = 3.10655 3.42244 3.26831
# Velocity P-wave (km/s) = 6.15885 6.63383 6.40075
#
# Compressibility (1/GPa) = 0.02086261
#
# Stress axis : x y z
#
# Youngs Moduli (GPa) = 41.68430 74.34861 91.18444
#
# Poissons Ratio (x) = 0.41297 0.47681
# Poissons Ratio (y) = 0.23154 0.27251
# Poissons Ratio (z) = 0.21797 0.22219
#
# Static dielectric constant tensor:
#      x y z
#    x 3.166600 0.000000 0.000000 
#    y 0.000000 3.568150 0.000000 
#    z 0.000000 0.000000 3.652150 
# 
# 
# High freq. dielectric constant tensor:
#      x y z
#    x 1.712770 0.000000 0.000000 
#    y 0.000000 1.739470 0.000000 
#    z 0.000000 0.000000 1.751820 
# 
# From -- ./inp_files/34304.got.cif
#   From: 2010.03.12/outbox.cif.g09.slc.cpg/sg53_18_cif.got.tgz:34304.got - 2010.04.16 14:36:59.
