data_PCOD8217247
_publ_section_title
;
Structure prediction by ZEFSAII (Michael W. Deem and Ramdas Pophale) SiO2 
 PCOD8217247
Probable space group: P N N A
;
_chemical_formula_sum "Si O2"
_cell_formula_units_Z 36
_cell_length_a 22.162554
_cell_length_b 8.870118
_cell_length_c 7.799024
_cell_angle_alpha 90.000000
_cell_angle_beta 90.000000
_cell_angle_gamma 90.000000
_cell_volume 1533.166993
_symmetry_space_group_name_H-M "P N N A"
_symmetry_group_IT_number 52
_symmetry_cell_setting 'orthorhombic'
loop_
_space_group_symop_operation_xyz
x,y,z
1/2-x,-y,z
x,1/2-y,1/2-z
1/2-x,1/2+y,1/2-z
-x,-y,-z
1/2+x,y,-z
-x,1/2+y,1/2+z
1/2+x,1/2-y,1/2+z
loop_
_atom_site_type_symbol
_atom_site_label
_atom_site_fract_x
_atom_site_fract_y
_atom_site_fract_z
Si Si1 0.220608 0.750000 0.250000
Si Si2 0.690991 0.276943 0.437804
Si Si3 0.418909 0.891354 0.432969
Si Si4 0.048649 0.779218 0.555968
Si Si5 0.128388 0.971766 0.115056
O O1 0.259903 0.767003 0.420717
O O2 0.178156 0.895463 0.236907
O O3 0.719946 0.250000 0.250000
O O4 0.634490 0.166381 0.449334
O O5 0.665610 0.447824 0.461635
O O6 0.476347 0.783404 0.464674
O O7 0.427342 0.063186 0.489155
O O8 0.402956 0.895898 0.228645
O O9 0.068493 0.750000 0.750000
O O10 0.076942 0.643570 0.445695
#
# Coordination Sequence:
#
# PCOD8217247 Si02
#       5
#     4   8   8   8   8
#     4  12  26  50  74 104 152 200 248 314 380 450
#     4  12  27  47  76 110 145 194 254 312 374 451
#     4  11  24  46  71 106 151 195 245 310 379 447
#     4  11  24  41  72 109 144 195 249 303 372 457
#     4  12  24  49  72 102 153 201 240 316 384 446
#
# _framework density 23.480808
#
# number of rings (size 3 to 8) (size 9 to 14) (size 15 to 20)
#    0.000    0.444    4.444    3.333    0.000    8.000 
#    8.000    0.000    0.000    0.000    0.000    0.000 
#    0.000    0.000    0.000    0.000    0.000    0.000 
#
# Total GULP energy -446493.726954 kJ/mol
# GULP energy per Si atom -12402.603527 kJ/mol
# Density = 2.342736 g / cm^3
# Si number density = 23.480808 Si / 1000 Ang^3
#
#
#
# Elastic Constant Matrix: (Units=GPa)
#
#
# Indices 1 2 3 4 5 6 
#
# 1 146.5231 51.8742 64.3081 0.0000 0.0000 0.0000
# 2 51.8742 101.0213 35.7769 0.0000 0.0000 0.0000
# 3 64.3081 35.7769 160.3743 0.0000 0.0000 0.0000
# 4 0.0000 0.0000 0.0000 36.3494 0.0000 0.0000
# 5 0.0000 0.0000 0.0000 0.0000 30.6927 0.0000
# 6 0.0000 0.0000 0.0000 0.0000 0.0000 19.2500
#
#
#
# Elastic Compliance Matrix: (Units=1/GPa)
#
#
# Indices 1 2 3 4 5 6 
#
# 1 0.009470 -0.003820 -0.002945 0.000000 0.000000 0.000000
# 2 -0.003820 0.012289 -0.001210 0.000000 0.000000 0.000000
# 3 -0.002945 -0.001210 0.007686 0.000000 0.000000 0.000000
# 4 0.000000 0.000000 0.000000 0.027511 0.000000 0.000000
# 5 0.000000 0.000000 0.000000 0.000000 0.032581 0.000000
# 6 0.000000 0.000000 0.000000 0.000000 0.000000 0.051948
#
#
# Mechanical properties :
#
#
# Convention : Reuss Voigt Hill
#
# Bulk Modulus (GPa) = 74.09837 79.09299 76.59568
# Shear Modulus (GPa) = 30.87710 34.32239 32.59975
#
# Velocity S-wave (km/s) = 3.63022 3.82739 3.73011
# Velocity P-wave (km/s) = 7.01404 7.29994 7.15842
#
# Compressibility (1/GPa) = 0.01349557
#
# Stress axis : x y z
#
# Youngs Moduli (GPa) = 105.59929 81.37529 130.10226
#
# Poissons Ratio (x) = 0.31083 0.38317
# Poissons Ratio (y) = 0.40335 0.15740
# Poissons Ratio (z) = 0.31101 0.09845
#
# Static dielectric constant tensor:
#      x y z
#    x 4.434390 0.000000 0.000000 
#    y 0.000000 4.328230 0.000000 
#    z 0.000000 0.000000 4.261580 
# 
# 
# High freq. dielectric constant tensor:
#      x y z
#    x 1.939400 0.000000 0.000000 
#    y 0.000000 1.947760 0.000000 
#    z 0.000000 0.000000 1.924050 
# 
# From -- ./inp_files/12915.got.cif
#   From: 2010.06.25/outbox.cif.g09.slc.cpg/sg52_7_cif.got.tgz:12915.got - 2010.06.26 19:32:48.
