data_PCOD8217369
_publ_section_title
;
Structure prediction by ZEFSAII (Michael W. Deem and Ramdas Pophale) SiO2 
 PCOD8217369
Probable space group: P N N A
;
_chemical_formula_sum "Si O2"
_cell_formula_units_Z 32
_cell_length_a 10.309762
_cell_length_b 10.895109
_cell_length_c 12.510185
_cell_angle_alpha 90.000000
_cell_angle_beta 90.000000
_cell_angle_gamma 90.000000
_cell_volume 1405.218800
_symmetry_space_group_name_H-M "P N N A"
_symmetry_group_IT_number 52
_symmetry_cell_setting 'orthorhombic'
loop_
_space_group_symop_operation_xyz
x,y,z
1/2-x,-y,z
x,1/2-y,1/2-z
1/2-x,1/2+y,1/2-z
-x,-y,-z
1/2+x,y,-z
-x,1/2+y,1/2+z
1/2+x,1/2-y,1/2+z
loop_
_atom_site_type_symbol
_atom_site_label
_atom_site_fract_x
_atom_site_fract_y
_atom_site_fract_z
Si Si1 0.861137 0.250000 0.250000
Si Si2 0.975816 0.510303 0.216090
Si Si3 0.250000 0.500000 0.119387
Si Si4 0.317873 0.825190 0.559733
Si Si5 0.612042 0.069287 0.060834
O O1 0.947675 0.370817 0.248784
O O2 0.778347 0.242085 0.358041
O O3 0.899401 0.562510 0.112506
O O4 0.926631 0.589871 0.315159
O O5 0.128219 0.517125 0.196833
O O6 0.251069 0.619996 0.044892
O O7 0.396437 0.708234 0.514557
O O8 0.750000 0.000000 0.046804
O O9 0.500000 0.000000 0.000000
#
# Coordination Sequence:
#
# PCOD8217369 Si02
#       5
#     4   8   4   8   8
#     4  12  22  46  74  98 146 192 248 302 386 454
#     4  12  26  49  73 109 152 197 254 320 387 465
#     4  12  30  44  80 114 148 198 262 326 382 460
#     4  12  24  49  75 107 147 198 260 313 388 464
#     4  12  28  48  75 108 151 204 256 318 394 465
#
# _framework density 22.772252000000002
#
# number of rings (size 3 to 8) (size 9 to 14) (size 15 to 20)
#    0.000    0.000    7.500    0.750    8.750    0.000 
#    4.500    0.000    0.000    0.000    0.000    0.000 
#    0.000    0.000    0.000    0.000    0.000    0.000 
#
# Total GULP energy -396682.633965 kJ/mol
# GULP energy per Si atom -12396.332311 kJ/mol
# Density = 2.272042 g / cm^3
# Si number density = 22.772252 Si / 1000 Ang^3
#
#
#
# Elastic Constant Matrix: (Units=GPa)
#
#
# Indices 1 2 3 4 5 6 
#
# 1 163.5066 49.9058 45.0612 0.0000 0.0000 0.0000
# 2 49.9058 172.4177 33.0777 0.0000 0.0000 0.0000
# 3 45.0612 33.0777 51.7304 0.0000 0.0000 0.0000
# 4 0.0000 0.0000 0.0000 33.1503 0.0000 0.0000
# 5 0.0000 0.0000 0.0000 0.0000 33.8358 0.0000
# 6 0.0000 0.0000 0.0000 0.0000 0.0000 30.2829
#
#
#
# Elastic Compliance Matrix: (Units=1/GPa)
#
#
# Indices 1 2 3 4 5 6 
#
# 1 0.008243 -0.001149 -0.006445 0.000000 0.000000 0.000000
# 2 -0.001149 0.006771 -0.003328 0.000000 0.000000 0.000000
# 3 -0.006445 -0.003328 0.027074 0.000000 0.000000 0.000000
# 4 0.000000 0.000000 0.000000 0.030166 0.000000 0.000000
# 5 0.000000 0.000000 0.000000 0.000000 0.029554 0.000000
# 6 0.000000 0.000000 0.000000 0.000000 0.000000 0.033022
#
#
# Mechanical properties :
#
#
# Convention : Reuss Voigt Hill
#
# Bulk Modulus (GPa) = 49.40352 71.52713 60.46533
# Shear Modulus (GPa) = 30.59535 36.76114 33.67825
#
# Velocity S-wave (km/s) = 3.66940 4.02219 3.84984
# Velocity P-wave (km/s) = 6.30035 7.28345 6.80966
#
# Compressibility (1/GPa) = 0.02024147
#
# Stress axis : x y z
#
# Youngs Moduli (GPa) = 121.31369 147.68645 36.93621
#
# Poissons Ratio (x) = 0.16975 0.23807
# Poissons Ratio (y) = 0.13944 0.12294
# Poissons Ratio (z) = 0.78192 0.49156
#
# Static dielectric constant tensor:
#      x y z
#    x 4.047910 0.000000 0.000000 
#    y 0.000000 4.557490 0.000000 
#    z 0.000000 0.000000 4.616420 
# 
# 
# High freq. dielectric constant tensor:
#      x y z
#    x 1.892720 0.000000 0.000000 
#    y 0.000000 1.926080 0.000000 
#    z 0.000000 0.000000 1.894080 
# 
# From -- ./inp_files/24133.got.cif
#   From: 2010.06.25/outbox.cif.g09.slc.cpg/sg52_13_cif.got.tgz:24133.got - 2010.06.26 19:32:48.
