data_PCOD8217102
_publ_section_title
;
Structure prediction by ZEFSAII (Michael W. Deem and Ramdas Pophale) SiO2 
 PCOD8217102
Probable space group: P N N A
;
_chemical_formula_sum "Si O2"
_cell_formula_units_Z 48
_cell_length_a 9.241773
_cell_length_b 13.572289
_cell_length_c 16.527403
_cell_angle_alpha 90.000000
_cell_angle_beta 90.000000
_cell_angle_gamma 90.000000
_cell_volume 2073.065445
_symmetry_space_group_name_H-M "P N N A"
_symmetry_group_IT_number 52
_symmetry_cell_setting 'orthorhombic'
loop_
_space_group_symop_operation_xyz
x,y,z
1/2-x,-y,z
x,1/2-y,1/2-z
1/2-x,1/2+y,1/2-z
-x,-y,-z
1/2+x,y,-z
-x,1/2+y,1/2+z
1/2+x,1/2-y,1/2+z
loop_
_atom_site_type_symbol
_atom_site_label
_atom_site_fract_x
_atom_site_fract_y
_atom_site_fract_z
Si Si1 0.270705 0.284317 0.403174
Si Si2 0.504084 0.046731 0.089629
Si Si3 0.580317 0.025057 0.745825
Si Si4 0.006465 0.776516 0.667513
Si Si5 0.720439 0.281645 0.418345
Si Si6 0.001320 0.674612 0.178485
O O1 0.363889 0.383411 0.402304
O O2 0.190017 0.265283 0.487565
O O3 0.370808 0.189558 0.386619
O O4 0.141258 0.289030 0.337403
O O5 0.483370 0.964619 0.161025
O O6 0.653022 0.109907 0.103182
O O7 0.500000 0.000000 0.000000
O O8 0.490896 0.934014 0.711090
O O9 0.750000 0.000000 0.746590
O O10 0.540247 0.109653 0.680401
O O11 0.090118 0.750000 0.750000
O O12 0.108669 0.738619 0.594925
O O13 0.649643 0.196985 0.364564
O O14 0.036442 0.750000 0.250000
#
# Coordination Sequence:
#
# PCOD8217102 Si02
#       6
#     8   8   8   8   8   8
#     4  11  23  47  72 101 149 194 237 293 375 439
#     4  11  27  46  73 110 148 188 239 308 379 449
#     4  12  25  45  78 109 138 194 265 290 360 463
#     4  12  26  44  71 108 146 194 248 304 360 448
#     4  11  26  46  69 105 154 186 229 306 395 419
#     4  11  21  47  72  99 145 198 234 301 364 439
#
# _framework density 23.154118
#
# number of rings (size 3 to 8) (size 9 to 14) (size 15 to 20)
#    0.000    0.667    5.000    4.000    7.000    0.667 
#    0.000    5.833    0.000    0.000    0.000    0.000 
#    0.000    0.000    0.000    0.000    0.000    0.000 
#
# Total GULP energy -594706.556565 kJ/mol
# GULP energy per Si atom -12389.719928 kJ/mol
# Density = 2.310142 g / cm^3
# Si number density = 23.154118 Si / 1000 Ang^3
#
#
#
# Elastic Constant Matrix: (Units=GPa)
#
#
# Indices 1 2 3 4 5 6 
#
# 1 114.2166 37.4523 26.3253 0.0000 0.0000 0.0000
# 2 37.4523 99.6056 25.3150 0.0000 0.0000 0.0000
# 3 26.3253 25.3150 80.2554 0.0000 0.0000 0.0000
# 4 0.0000 0.0000 0.0000 37.7151 0.0000 0.0000
# 5 0.0000 0.0000 0.0000 0.0000 39.4712 0.0000
# 6 0.0000 0.0000 0.0000 0.0000 0.0000 26.0168
#
#
#
# Elastic Compliance Matrix: (Units=1/GPa)
#
#
# Indices 1 2 3 4 5 6 
#
# 1 0.010383 -0.003303 -0.002364 0.000000 0.000000 0.000000
# 2 -0.003303 0.011966 -0.002691 0.000000 0.000000 0.000000
# 3 -0.002364 -0.002691 0.014084 0.000000 0.000000 0.000000
# 4 0.000000 0.000000 0.000000 0.026515 0.000000 0.000000
# 5 0.000000 0.000000 0.000000 0.000000 0.025335 0.000000
# 6 0.000000 0.000000 0.000000 0.000000 0.000000 0.038437
#
#
# Mechanical properties :
#
#
# Convention : Reuss Voigt Hill
#
# Bulk Modulus (GPa) = 50.71728 52.47364 51.59546
# Shear Modulus (GPa) = 33.33155 34.30629 33.81892
#
# Velocity S-wave (km/s) = 3.79826 3.85340 3.82593
# Velocity P-wave (km/s) = 6.41775 6.51998 6.46907
#
# Compressibility (1/GPa) = 0.01971715
#
# Stress axis : x y z
#
# Youngs Moduli (GPa) = 96.30797 83.57327 71.00068
#
# Poissons Ratio (x) = 0.27608 0.16784
# Poissons Ratio (y) = 0.31814 0.19104
# Poissons Ratio (z) = 0.22767 0.22487
#
# Static dielectric constant tensor:
#      x y z
#    x 4.169950 0.000000 0.000000 
#    y 0.000000 4.294020 0.000000 
#    z 0.000000 0.000000 3.176550 
# 
# 
# High freq. dielectric constant tensor:
#      x y z
#    x 1.924910 0.000000 0.000000 
#    y 0.000000 1.901790 0.000000 
#    z 0.000000 0.000000 1.923800 
# 
# From -- ./inp_files/31256.got.cif
#   From: 2010.06.25/outbox.cif.g09.slc.cpg/sg52_16_cif.got.tgz:31256.got - 2010.06.26 19:32:48.
