data_PCOD8217596
_publ_section_title
;
Structure prediction by ZEFSAII (Michael W. Deem and Ramdas Pophale) SiO2 
 PCOD8217596
Probable space group: P M N A
;
_chemical_formula_sum "Si O2"
_cell_formula_units_Z 64
_cell_length_a 8.956491
_cell_length_b 20.328675
_cell_length_c 23.305604
_cell_angle_alpha 90.000000
_cell_angle_beta 90.000000
_cell_angle_gamma 90.000000
_cell_volume 4243.335096
_symmetry_space_group_name_H-M "P M N A"
_symmetry_group_IT_number 53
_symmetry_cell_setting 'orthorhombic'
loop_
_space_group_symop_operation_xyz
x,y,z
1/2-x,-y,1/2+z
x,-y,-z
1/2-x,y,1/2-z
-x,-y,-z
1/2+x,y,1/2-z
-x,y,z
1/2+x,-y,1/2+z
loop_
_atom_site_type_symbol
_atom_site_label
_atom_site_fract_x
_atom_site_fract_y
_atom_site_fract_z
Si Si1 0.175521 0.705944 0.688933
Si Si2 0.666743 0.044415 0.080312
Si Si3 0.326228 0.402543 0.099040
Si Si4 0.823100 0.783511 0.014789
Si Si5 0.831649 0.526587 0.064168
Si Si6 0.174431 0.349422 0.526675
Si Si7 0.669532 0.091847 0.950279
Si Si8 0.178476 0.181787 0.395296
O O1 0.250000 0.699871 0.750000
O O2 0.228282 0.645145 0.649760
O O3 0.224660 0.774334 0.659062
O O4 0.000000 0.704181 0.697171
O O5 0.500000 0.031974 0.101922
O O6 0.734992 0.105951 0.116674
O O7 0.741798 0.971408 0.084521
O O8 0.666435 0.070690 0.015940
O O9 0.500000 0.419238 0.103405
O O10 0.237455 0.470919 0.105466
O O11 0.291080 0.366586 0.039305
O O12 0.762400 0.716719 0.043177
O O13 0.755554 0.788828 0.951402
O O14 0.000000 0.782388 0.011158
O O15 0.771999 0.843747 0.056151
O O16 0.000000 0.541707 0.083925
O O17 0.826336 0.500000 0.000000
O O18 0.734400 0.592909 0.068174
O O19 0.000000 0.339275 0.537878
O O20 0.500000 0.107502 0.930010
O O21 0.000000 0.183769 0.406122
#
# Coordination Sequence:
#
# PCOD8217596 Si02
#       8
#     8   8   8   8   8   8   8   8
#     4  10  20  32  45  61  80 104 138 177 214 248
#     4   7  11  21  40  55  66  92 134 169 191 226
#     4   9  17  30  44  57  74 103 137 167 202 246
#     4  11  19  24  35  57  82 106 132 166 202 236
#     4   9  17  27  40  61  82  99 125 164 205 242
#     4  10  17  28  43  57  77 107 139 166 196 240
#     4   8  13  23  36  52  72  99 131 161 192 231
#     4   9  16  30  44  54  71 102 138 170 204 244
#
# _framework density 15.082477000000001
#
# number of rings (size 3 to 8) (size 9 to 14) (size 15 to 20)
#    0.000    2.875    1.250    3.375    0.000    3.000 
#    0.000    5.000    0.000    0.000    0.000    0.000 
#    0.000    0.000    0.000    1.125    0.000   15.250 
#
# Total GULP energy -792907.971466 kJ/mol
# GULP energy per Si atom -12389.187054 kJ/mol
# Density = 1.504815 g / cm^3
# Si number density = 15.082477 Si / 1000 Ang^3
#
#
#
# Elastic Constant Matrix: (Units=GPa)
#
#
# Indices 1 2 3 4 5 6 
#
# 1 64.2596 52.0094 16.6743 0.0000 0.0000 0.0000
# 2 52.0094 152.6552 44.0866 0.0000 0.0000 0.0000
# 3 16.6743 44.0866 40.6442 0.0000 0.0000 0.0000
# 4 0.0000 0.0000 0.0000 14.0026 0.0000 0.0000
# 5 0.0000 0.0000 0.0000 0.0000 13.8921 0.0000
# 6 0.0000 0.0000 0.0000 0.0000 0.0000 14.7130
#
#
#
# Elastic Compliance Matrix: (Units=1/GPa)
#
#
# Indices 1 2 3 4 5 6 
#
# 1 0.021532 -0.006967 -0.001276 0.000000 0.000000 0.000000
# 2 -0.006967 0.011793 -0.009934 0.000000 0.000000 0.000000
# 3 -0.001276 -0.009934 0.035902 0.000000 0.000000 0.000000
# 4 0.000000 0.000000 0.000000 0.071415 0.000000 0.000000
# 5 0.000000 0.000000 0.000000 0.000000 0.071983 0.000000
# 6 0.000000 0.000000 0.000000 0.000000 0.000000 0.067967
#
#
# Mechanical properties :
#
#
# Convention : Reuss Voigt Hill
#
# Bulk Modulus (GPa) = 30.41974 53.67774 42.04874
# Shear Modulus (GPa) = 15.24827 18.17413 16.71120
#
# Velocity S-wave (km/s) = 3.18306 3.47505 3.33226
# Velocity P-wave (km/s) = 5.80705 7.19500 6.53796
#
# Compressibility (1/GPa) = 0.03287339
#
# Stress axis : x y z
#
# Youngs Moduli (GPa) = 46.44208 84.79325 27.85329
#
# Poissons Ratio (x) = 0.59080 0.03554
# Poissons Ratio (y) = 0.32358 0.27669
# Poissons Ratio (z) = 0.05926 0.84232
#
# Static dielectric constant tensor:
#      x y z
#    x 2.815490 0.000000 0.000000 
#    y 0.000000 3.451320 0.000000 
#    z 0.000000 0.000000 2.428060 
# 
# 
# High freq. dielectric constant tensor:
#      x y z
#    x 1.568670 0.000000 0.000000 
#    y 0.000000 1.601380 0.000000 
#    z 0.000000 0.000000 1.496350 
# 
# From -- ./inp_files/36497.got.cif
#   From: 2010.03.12/outbox.cif.g09.slc.cpg/sg53_19_cif.got.tgz:36497.got - 2010.04.16 14:36:59.
