data_PCOD8217689
_publ_section_title
;
Structure prediction by ZEFSAII (Michael W. Deem and Ramdas Pophale) SiO2 
 PCOD8217689
Probable space group: P M N A
;
_chemical_formula_sum "Si O2"
_cell_formula_units_Z 64
_cell_length_a 9.015204
_cell_length_b 26.103840
_cell_length_c 18.056222
_cell_angle_alpha 90.000000
_cell_angle_beta 90.000000
_cell_angle_gamma 90.000000
_cell_volume 4249.196774
_symmetry_space_group_name_H-M "P M N A"
_symmetry_group_IT_number 53
_symmetry_cell_setting 'orthorhombic'
loop_
_space_group_symop_operation_xyz
x,y,z
1/2-x,-y,1/2+z
x,-y,-z
1/2-x,y,1/2-z
-x,-y,-z
1/2+x,y,1/2-z
-x,y,z
1/2+x,-y,1/2+z
loop_
_atom_site_type_symbol
_atom_site_label
_atom_site_fract_x
_atom_site_fract_y
_atom_site_fract_z
Si Si1 0.667732 0.949253 0.548616
Si Si2 0.325425 0.812135 0.326758
Si Si3 0.172155 0.604718 0.072313
Si Si4 0.173025 0.506908 0.171455
Si Si5 0.172126 0.994036 0.328337
Si Si6 0.327937 0.893325 0.075075
Si Si7 0.667146 0.550166 0.950011
Si Si8 0.827588 0.694741 0.174946
O O1 0.500000 0.930810 0.564837
O O2 0.751564 0.960233 0.625560
O O3 0.756605 0.905396 0.504733
O O4 0.666609 0.000000 0.500000
O O5 0.250000 0.829033 0.250000
O O6 0.500000 0.822686 0.320228
O O7 0.256896 0.844346 0.393312
O O8 0.288544 0.753165 0.344994
O O9 0.206919 0.560423 0.131354
O O10 0.224435 0.658607 0.107553
O O11 0.000000 0.604901 0.051038
O O12 0.262583 0.596881 0.996475
O O13 0.250000 0.508594 0.250000
O O14 0.239209 0.459745 0.124216
O O15 0.000000 0.497188 0.181939
O O16 0.250000 0.989365 0.250000
O O17 0.000000 0.007359 0.318209
O O18 0.194630 0.940356 0.369349
O O19 0.500000 0.880324 0.063866
O O20 0.500000 0.564730 0.927885
O O21 0.672946 0.500000 0.000000
O O22 0.750000 0.676868 0.250000
O O23 0.000000 0.687083 0.189562
#
# Coordination Sequence:
#
# PCOD8217689 Si02
#       8
#     8   8   8   8   8   8   8   8
#     4   9  17  29  44  61  82 108 138 172 209 249
#     4  10  19  30  43  60  83 111 143 178 213 246
#     4   9  17  29  43  59  81 110 141 172 209 248
#     4  10  18  27  41  60  83 110 139 171 206 246
#     4  10  19  29  42  61  85 112 142 174 208 247
#     4  10  19  30  44  61  83 112 144 176 210 248
#     4   9  17  28  41  58  80 106 137 171 205 244
#     4   9  18  30  43  60  83 110 141 177 212 246
#
# _framework density 15.061669999999999
#
# number of rings (size 3 to 8) (size 9 to 14) (size 15 to 20)
#    0.000    2.500    0.000    3.000    0.000    7.000 
#    0.000    0.000    0.000    0.000    0.000    0.000 
#    0.000    1.000    0.000    8.000    0.000    4.750 
#
# Total GULP energy -793666.030802 kJ/mol
# GULP energy per Si atom -12401.031731 kJ/mol
# Density = 1.502739 g / cm^3
# Si number density = 15.061670 Si / 1000 Ang^3
#
#
#
# Elastic Constant Matrix: (Units=GPa)
#
#
# Indices 1 2 3 4 5 6 
#
# 1 106.3954 35.4013 50.3178 0.0000 0.0000 0.0000
# 2 35.4013 56.9612 26.1215 0.0000 0.0000 0.0000
# 3 50.3178 26.1215 58.8872 0.0000 0.0000 0.0000
# 4 0.0000 0.0000 0.0000 23.8469 0.0000 0.0000
# 5 0.0000 0.0000 0.0000 0.0000 31.7592 0.0000
# 6 0.0000 0.0000 0.0000 0.0000 0.0000 17.6309
#
#
#
# Elastic Compliance Matrix: (Units=1/GPa)
#
#
# Indices 1 2 3 4 5 6 
#
# 1 0.016770 -0.004835 -0.012185 0.000000 0.000000 0.000000
# 2 -0.004835 0.023433 -0.006263 0.000000 0.000000 0.000000
# 3 -0.012185 -0.006263 0.030172 0.000000 0.000000 0.000000
# 4 0.000000 0.000000 0.000000 0.041934 0.000000 0.000000
# 5 0.000000 0.000000 0.000000 0.000000 0.031487 0.000000
# 6 0.000000 0.000000 0.000000 0.000000 0.000000 0.056719
#
#
# Mechanical properties :
#
#
# Convention : Reuss Voigt Hill
#
# Bulk Modulus (GPa) = 42.00170 49.54722 45.77446
# Shear Modulus (GPa) = 19.60646 22.00760 20.80703
#
# Velocity S-wave (km/s) = 3.61188 3.82667 3.72083
# Velocity P-wave (km/s) = 6.73360 7.24515 6.99405
#
# Compressibility (1/GPa) = 0.02380856
#
# Stress axis : x y z
#
# Youngs Moduli (GPa) = 59.62872 42.67517 33.14329
#
# Poissons Ratio (x) = 0.20633 0.40386
# Poissons Ratio (y) = 0.28829 0.20758
# Poissons Ratio (z) = 0.72660 0.26728
#
# Static dielectric constant tensor:
#      x y z
#    x 3.085370 0.000000 0.000000 
#    y 0.000000 2.769850 0.000000 
#    z 0.000000 0.000000 2.856370 
# 
# 
# High freq. dielectric constant tensor:
#      x y z
#    x 1.595460 0.000000 0.000000 
#    y 0.000000 1.542040 0.000000 
#    z 0.000000 0.000000 1.563490 
# 
# From -- ./inp_files/27028.got.cif
#   From: 2010.03.12/outbox.cif.g09.slc.cpg/sg53_14_cif.got.tgz:27028.got - 2010.04.16 14:36:59.
