data_PCOD8217650
_publ_section_title
;
Structure prediction by ZEFSAII (Michael W. Deem and Ramdas Pophale) SiO2 
 PCOD8217650
Probable space group: P M N A
;
_chemical_formula_sum "Si O2"
_cell_formula_units_Z 48
_cell_length_a 18.880727
_cell_length_b 9.468486
_cell_length_c 16.618346
_cell_angle_alpha 90.000000
_cell_angle_beta 90.000000
_cell_angle_gamma 90.000000
_cell_volume 2970.893277
_symmetry_space_group_name_H-M "P M N A"
_symmetry_group_IT_number 53
_symmetry_cell_setting 'orthorhombic'
loop_
_space_group_symop_operation_xyz
x,y,z
1/2-x,-y,1/2+z
x,-y,-z
1/2-x,y,1/2-z
-x,-y,-z
1/2+x,y,1/2-z
-x,y,z
1/2+x,-y,1/2+z
loop_
_atom_site_type_symbol
_atom_site_label
_atom_site_fract_x
_atom_site_fract_y
_atom_site_fract_z
Si Si1 0.920088 0.784426 0.361425
Si Si2 0.684138 0.550697 0.196743
Si Si3 0.581310 0.100108 0.183159
Si Si4 0.342069 0.843241 0.980045
Si Si5 0.735785 0.611202 0.562109
Si Si6 0.672203 0.716060 0.714379
O O1 0.869000 0.677639 0.316496
O O2 0.901421 0.802644 0.454957
O O3 0.000000 0.727283 0.356655
O O4 0.912508 0.931987 0.314962
O O5 0.750000 0.606897 0.250000
O O6 0.709742 0.483616 0.113162
O O7 0.643355 0.428289 0.245866
O O8 0.500000 0.148950 0.180079
O O9 0.622120 0.166014 0.107215
O O10 0.618135 0.158066 0.264786
O O11 0.277502 0.733693 0.985695
O O12 0.312766 0.000000 0.000000
O O13 0.699483 0.500000 0.500000
O O14 0.677642 0.689629 0.618234
O O15 0.750000 0.751490 0.750000
#
# Coordination Sequence:
#
# PCOD8217650 Si02
#       6
#     8   8   8   8   8   8
#     4  10  20  31  46  72 103 131 160 195 240 295
#     4   9  18  32  46  67  96 129 164 201 240 282
#     4  10  19  32  47  68 100 134 162 199 242 290
#     4  10  18  30  46  71 102 132 159 190 239 300
#     4  10  17  32  50  69  98 128 165 208 245 282
#     4   9  18  32  49  69  93 128 169 201 238 290
#
# _framework density 16.156756999999999
#
# number of rings (size 3 to 8) (size 9 to 14) (size 15 to 20)
#    0.000    2.667    5.000    0.500    0.000    3.333 
#    0.000    0.833    0.000    0.500    0.000    0.000 
#    0.000   11.333    0.000    0.000    0.000    0.000 
#
# Total GULP energy -594994.645180 kJ/mol
# GULP energy per Si atom -12395.721775 kJ/mol
# Density = 1.611998 g / cm^3
# Si number density = 16.156757 Si / 1000 Ang^3
#
#
#
# Elastic Constant Matrix: (Units=GPa)
#
#
# Indices 1 2 3 4 5 6 
#
# 1 51.7361 48.9261 34.8080 0.0000 0.0000 0.0000
# 2 48.9261 80.1070 40.8662 0.0000 0.0000 0.0000
# 3 34.8080 40.8662 74.2382 0.0000 0.0000 0.0000
# 4 0.0000 0.0000 0.0000 29.6855 0.0000 0.0000
# 5 0.0000 0.0000 0.0000 0.0000 20.2210 0.0000
# 6 0.0000 0.0000 0.0000 0.0000 0.0000 23.9981
#
#
#
# Elastic Compliance Matrix: (Units=1/GPa)
#
#
# Indices 1 2 3 4 5 6 
#
# 1 0.049907 -0.025785 -0.009206 0.000000 0.000000 0.000000
# 2 -0.025785 0.030680 -0.004799 0.000000 0.000000 0.000000
# 3 -0.009206 -0.004799 0.020428 0.000000 0.000000 0.000000
# 4 0.000000 0.000000 0.000000 0.033686 0.000000 0.000000
# 5 0.000000 0.000000 0.000000 0.000000 0.049454 0.000000
# 6 0.000000 0.000000 0.000000 0.000000 0.000000 0.041670
#
#
# Mechanical properties :
#
#
# Convention : Reuss Voigt Hill
#
# Bulk Modulus (GPa) = 46.65078 50.58686 48.61882
# Shear Modulus (GPa) = 15.99752 20.21297 18.10525
#
# Velocity S-wave (km/s) = 3.15007 3.54086 3.35117
# Velocity P-wave (km/s) = 6.49362 6.93505 6.71796
#
# Compressibility (1/GPa) = 0.02143587
#
# Stress axis : x y z
#
# Youngs Moduli (GPa) = 20.03735 32.59502 48.95219
#
# Poissons Ratio (x) = 0.84045 0.45065
# Poissons Ratio (y) = 0.51666 0.23491
# Poissons Ratio (z) = 0.18446 0.15641
#
# Static dielectric constant tensor:
#      x y z
#    x 2.790930 0.000000 0.000000 
#    y 0.000000 3.126700 0.000000 
#    z 0.000000 0.000000 3.052560 
# 
# 
# High freq. dielectric constant tensor:
#      x y z
#    x 1.585560 0.000000 0.000000 
#    y 0.000000 1.628360 0.000000 
#    z 0.000000 0.000000 1.610940 
# 
# From -- ./inp_files/28880.got.cif
#   From: 2010.03.12/outbox.cif.g09.slc.cpg/sg53_15_cif.got.tgz:28880.got - 2010.04.16 14:36:59.
