data_PCOD8217777
_publ_section_title
;
Structure prediction by ZEFSAII (Michael W. Deem and Ramdas Pophale) SiO2 
 PCOD8217777
Probable space group: P M N A
;
_chemical_formula_sum "Si O2"
_cell_formula_units_Z 56
_cell_length_a 9.026629
_cell_length_b 16.729386
_cell_length_c 21.905317
_cell_angle_alpha 90.000000
_cell_angle_beta 90.000000
_cell_angle_gamma 90.000000
_cell_volume 3307.921062
_symmetry_space_group_name_H-M "P M N A"
_symmetry_group_IT_number 53
_symmetry_cell_setting 'orthorhombic'
loop_
_space_group_symop_operation_xyz
x,y,z
1/2-x,-y,1/2+z
x,-y,-z
1/2-x,y,1/2-z
-x,-y,-z
1/2+x,y,1/2-z
-x,y,z
1/2+x,-y,1/2+z
loop_
_atom_site_type_symbol
_atom_site_label
_atom_site_fract_x
_atom_site_fract_y
_atom_site_fract_z
Si Si1 0.671814 0.446848 0.056975
Si Si2 0.171121 0.244747 0.161536
Si Si3 0.665209 0.134869 0.521137
Si Si4 0.834048 0.984643 0.909250
Si Si5 0.829603 0.091767 0.304968
Si Si6 0.174992 0.572959 0.813668
Si Si7 0.670079 0.263832 0.039691
O O1 0.500000 0.466039 0.070346
O O2 0.756513 0.461740 0.122178
O O3 0.692632 0.357925 0.030193
O O4 0.732206 0.500000 0.000000
O O5 0.268668 0.182260 0.198096
O O6 0.205753 0.332765 0.186283
O O7 0.218222 0.235154 0.091560
O O8 0.000000 0.222097 0.167073
O O9 0.500000 0.171293 0.523890
O O10 0.681247 0.071260 0.467419
O O11 0.780322 0.209577 0.518223
O O12 0.696555 0.079052 0.579787
O O13 0.704816 0.955553 0.865691
O O14 0.000000 0.974154 0.881822
O O15 0.750000 0.044416 0.250000
O O16 0.000000 0.096047 0.292526
O O17 0.250000 0.539719 0.750000
O O18 0.000000 0.552740 0.812696
O O19 0.500000 0.245046 0.056914
#
# Coordination Sequence:
#
# PCOD8217777 Si02
#       7
#     8   8   8   8   8   8   8
#     4   9  19  35  52  72 103 138 167 202 249 298
#     4  10  19  31  45  64  94 128 162 197 233 278
#     4   9  17  30  49  68  92 123 153 191 238 279
#     4   9  18  32  47  65  90 122 157 193 233 278
#     4  12  23  32  44  63  89 124 161 199 237 280
#     4  10  20  32  49  72  98 131 168 205 243 292
#     4  10  18  28  47  73  97 124 161 199 237 285
#
# _framework density 16.929061000000001
#
# number of rings (size 3 to 8) (size 9 to 14) (size 15 to 20)
#    0.000    2.143    1.429    3.857    0.000    4.286 
#    0.000    1.429    0.000    0.000    0.000    1.000 
#    0.000    6.857    0.000    0.000    0.000    0.000 
#
# Total GULP energy -693770.029468 kJ/mol
# GULP energy per Si atom -12388.750526 kJ/mol
# Density = 1.689053 g / cm^3
# Si number density = 16.929061 Si / 1000 Ang^3
#
#
#
# Elastic Constant Matrix: (Units=GPa)
#
#
# Indices 1 2 3 4 5 6 
#
# 1 108.1762 28.2578 46.4003 0.0000 0.0000 0.0000
# 2 28.2578 52.1569 31.8675 0.0000 0.0000 0.0000
# 3 46.4003 31.8675 85.0199 0.0000 0.0000 0.0000
# 4 0.0000 0.0000 0.0000 6.6639 0.0000 0.0000
# 5 0.0000 0.0000 0.0000 0.0000 22.2717 0.0000
# 6 0.0000 0.0000 0.0000 0.0000 0.0000 17.6791
#
#
#
# Elastic Compliance Matrix: (Units=1/GPa)
#
#
# Indices 1 2 3 4 5 6 
#
# 1 0.012513 -0.003381 -0.005562 0.000000 0.000000 0.000000
# 2 -0.003381 0.025782 -0.007818 0.000000 0.000000 0.000000
# 3 -0.005562 -0.007818 0.017728 0.000000 0.000000 0.000000
# 4 0.000000 0.000000 0.000000 0.150062 0.000000 0.000000
# 5 0.000000 0.000000 0.000000 0.000000 0.044900 0.000000
# 6 0.000000 0.000000 0.000000 0.000000 0.000000 0.056564
#
#
# Mechanical properties :
#
#
# Convention : Reuss Voigt Hill
#
# Bulk Modulus (GPa) = 44.44426 50.93381 47.68903
# Shear Modulus (GPa) = 14.34427 18.57809 16.46118
#
# Velocity S-wave (km/s) = 2.91403 3.31631 3.12166
# Velocity P-wave (km/s) = 6.13452 6.69446 6.42060
#
# Compressibility (1/GPa) = 0.02250009
#
# Stress axis : x y z
#
# Youngs Moduli (GPa) = 79.91671 38.78718 56.40859
#
# Poissons Ratio (x) = 0.13115 0.31373
# Poissons Ratio (y) = 0.27021 0.44102
# Poissons Ratio (z) = 0.44448 0.30325
#
# Static dielectric constant tensor:
#      x y z
#    x 3.217920 0.000000 0.000000 
#    y 0.000000 3.131880 0.000000 
#    z 0.000000 0.000000 3.046070 
# 
# 
# High freq. dielectric constant tensor:
#      x y z
#    x 1.660410 0.000000 0.000000 
#    y 0.000000 1.619520 0.000000 
#    z 0.000000 0.000000 1.637420 
# 
# From -- ./inp_files/31056.got.cif
#   From: 2010.03.12/outbox.cif.g09.slc.cpg/sg53_16_cif.got.tgz:31056.got - 2010.04.16 14:36:59.
