data_PCOD8217461
_publ_section_title
;
Structure prediction by ZEFSAII (Michael W. Deem and Ramdas Pophale) SiO2 
 PCOD8217461
Probable space group: P M N A
;
_chemical_formula_sum "Si O2"
_cell_formula_units_Z 56
_cell_length_a 8.905025
_cell_length_b 18.462746
_cell_length_c 18.492417
_cell_angle_alpha 90.000000
_cell_angle_beta 90.000000
_cell_angle_gamma 90.000000
_cell_volume 3040.360742
_symmetry_space_group_name_H-M "P M N A"
_symmetry_group_IT_number 53
_symmetry_cell_setting 'orthorhombic'
loop_
_space_group_symop_operation_xyz
x,y,z
1/2-x,-y,1/2+z
x,-y,-z
1/2-x,y,1/2-z
-x,-y,-z
1/2+x,y,1/2-z
-x,y,z
1/2+x,-y,1/2+z
loop_
_atom_site_type_symbol
_atom_site_label
_atom_site_fract_x
_atom_site_fract_y
_atom_site_fract_z
Si Si1 0.176540 0.864492 0.413382
Si Si2 0.177811 0.002021 0.327283
Si Si3 0.177995 0.566967 0.076711
Si Si4 0.333104 0.277095 0.588477
Si Si5 0.329750 0.282836 0.416222
Si Si6 0.677326 0.861950 0.922716
Si Si7 0.678531 0.426479 0.080249
O O1 0.225211 0.786083 0.381852
O O2 0.235476 0.874457 0.495297
O O3 0.000000 0.869091 0.412200
O O4 0.242130 0.928691 0.363799
O O5 0.250000 0.012635 0.250000
O O6 0.227707 0.068914 0.376951
O O7 0.000000 0.998847 0.319174
O O8 0.208023 0.642740 0.119856
O O9 0.245547 0.497214 0.119493
O O10 0.000000 0.558090 0.061639
O O11 0.268899 0.571331 0.002273
O O12 0.500000 0.254911 0.612361
O O13 0.321621 0.283888 0.502477
O O14 0.500000 0.286450 0.388054
O O15 0.253810 0.208965 0.387795
O O16 0.239830 0.352071 0.384150
O O17 0.500000 0.849909 0.921751
O O18 0.500000 0.429658 0.087071
#
# Coordination Sequence:
#
# PCOD8217461 Si02
#       7
#     8   8   8   8   8   8   8
#     4   9  17  30  49  69  90 119 155 193 231 272
#     4  10  21  35  50  70  95 122 151 187 233 280
#     4   9  15  23  33  49  79 116 150 185 226 269
#     4   8  15  25  38  58  84 114 148 186 227 270
#     4   9  16  26  39  58  85 115 148 186 229 273
#     4   9  17  31  50  69  90 118 155 195 231 271
#     4  10  16  21  32  52  79 114 153 186 221 267
#
# _framework density 18.418866999999999
#
# number of rings (size 3 to 8) (size 9 to 14) (size 15 to 20)
#    0.000    2.857    0.000    4.286    0.000    6.857 
#    0.000    0.000    0.000    4.286    0.000    0.000 
#    0.000    1.143    0.000    5.714    0.000    8.429 
#
# Total GULP energy -693928.066661 kJ/mol
# GULP energy per Si atom -12391.572619 kJ/mol
# Density = 1.837695 g / cm^3
# Si number density = 18.418867 Si / 1000 Ang^3
#
#
#
# Elastic Constant Matrix: (Units=GPa)
#
#
# Indices 1 2 3 4 5 6 
#
# 1 70.0702 51.2306 13.8114 0.0000 0.0000 0.0000
# 2 51.2306 160.3570 13.0874 0.0000 0.0000 0.0000
# 3 13.8114 13.0874 19.3453 0.0000 0.0000 0.0000
# 4 0.0000 0.0000 0.0000 1.1511 0.0000 0.0000
# 5 0.0000 0.0000 0.0000 0.0000 13.4051 0.0000
# 6 0.0000 0.0000 0.0000 0.0000 0.0000 35.4952
#
#
#
# Elastic Compliance Matrix: (Units=1/GPa)
#
#
# Indices 1 2 3 4 5 6 
#
# 1 0.020564 -0.005685 -0.010835 0.000000 0.000000 0.000000
# 2 -0.005685 0.008172 -0.001470 0.000000 0.000000 0.000000
# 3 -0.010835 -0.001470 0.060422 0.000000 0.000000 0.000000
# 4 0.000000 0.000000 0.000000 0.868755 0.000000 0.000000
# 5 0.000000 0.000000 0.000000 0.000000 0.074599 0.000000
# 6 0.000000 0.000000 0.000000 0.000000 0.000000 0.028173
#
#
# Mechanical properties :
#
#
# Convention : Reuss Voigt Hill
#
# Bulk Modulus (GPa) = 18.80483 45.11457 31.95970
# Shear Modulus (GPa) = 4.48675 21.45315 12.96995
#
# Velocity S-wave (km/s) = 1.56245 3.41653 2.65649
# Velocity P-wave (km/s) = 3.67242 6.33328 5.17673
#
# Compressibility (1/GPa) = 0.05317782
#
# Stress axis : x y z
#
# Youngs Moduli (GPa) = 48.62895 122.36296 16.55029
#
# Poissons Ratio (x) = 0.69569 0.17932
# Poissons Ratio (y) = 0.27648 0.02432
# Poissons Ratio (z) = 0.52690 0.17984
#
# Static dielectric constant tensor:
#      x y z
#    x 3.328500 0.000000 0.000000 
#    y 0.000000 4.292070 0.000000 
#    z 0.000000 0.000000 2.720130 
# 
# 
# High freq. dielectric constant tensor:
#      x y z
#    x 1.712070 0.000000 0.000000 
#    y 0.000000 1.748670 0.000000 
#    z 0.000000 0.000000 1.626520 
# 
# From -- ./inp_files/31069.got.cif
#   From: 2010.03.12/outbox.cif.g09.slc.cpg/sg53_16_cif.got.tgz:31069.got - 2010.04.16 14:36:59.
