data_PCOD8217222
_publ_section_title
;
Structure prediction by ZEFSAII (Michael W. Deem and Ramdas Pophale) SiO2 
 PCOD8217222
Probable space group: P N N A
;
_chemical_formula_sum "Si O2"
_cell_formula_units_Z 32
_cell_length_a 12.863454
_cell_length_b 17.223244
_cell_length_c 6.390366
_cell_angle_alpha 90.000000
_cell_angle_beta 90.000000
_cell_angle_gamma 90.000000
_cell_volume 1415.788188
_symmetry_space_group_name_H-M "P N N A"
_symmetry_group_IT_number 52
_symmetry_cell_setting 'orthorhombic'
loop_
_space_group_symop_operation_xyz
x,y,z
1/2-x,-y,z
x,1/2-y,1/2-z
1/2-x,1/2+y,1/2-z
-x,-y,-z
1/2+x,y,-z
-x,1/2+y,1/2+z
1/2+x,1/2-y,1/2+z
loop_
_atom_site_type_symbol
_atom_site_label
_atom_site_fract_x
_atom_site_fract_y
_atom_site_fract_z
Si Si1 0.305452 0.419303 0.956651
Si Si2 0.054240 0.829849 0.264619
Si Si3 0.517922 0.921107 0.125769
Si Si4 0.619706 0.177157 0.594897
O O1 0.250000 0.500000 0.995178
O O2 0.385651 0.404368 0.145791
O O3 0.223668 0.348589 0.970504
O O4 0.369333 0.421967 0.739588
O O5 0.122779 0.750000 0.250000
O O6 0.961067 0.801824 0.414750
O O7 0.015266 0.850913 0.036086
O O8 0.424337 0.899586 0.283555
O O9 0.500000 0.000000 0.000000
O O10 0.638935 0.250000 0.750000
#
# Coordination Sequence:
#
# PCOD8217222 Si02
#       4
#     8   8   8   8
#     4  11  25  42  66 104 138 180 242 290 345 422
#     4  11  23  44  68 100 141 183 229 288 357 423
#     4  11  24  44  71  97 143 190 230 286 357 416
#     4  11  23  45  70 103 139 181 235 291 353 421
#
# _framework density 22.602253000000001
#
# number of rings (size 3 to 8) (size 9 to 14) (size 15 to 20)
#    0.000    1.000    2.500    3.750    0.000    9.000 
#    4.500    0.000    0.000    0.000    0.000    0.000 
#    0.000    0.000    0.000    0.000    0.000    0.000 
#
# Total GULP energy -396537.775895 kJ/mol
# GULP energy per Si atom -12391.805497 kJ/mol
# Density = 2.255081 g / cm^3
# Si number density = 22.602253 Si / 1000 Ang^3
#
#
#
# Elastic Constant Matrix: (Units=GPa)
#
#
# Indices 1 2 3 4 5 6 
#
# 1 117.1223 49.0510 51.1008 0.0000 0.0000 0.0000
# 2 49.0510 129.6119 54.6950 0.0000 0.0000 0.0000
# 3 51.1008 54.6950 122.5403 0.0000 0.0000 0.0000
# 4 0.0000 0.0000 0.0000 40.5018 0.0000 0.0000
# 5 0.0000 0.0000 0.0000 0.0000 33.0180 0.0000
# 6 0.0000 0.0000 0.0000 0.0000 0.0000 37.1799
#
#
#
# Elastic Compliance Matrix: (Units=1/GPa)
#
#
# Indices 1 2 3 4 5 6 
#
# 1 0.011202 -0.002795 -0.003424 0.000000 0.000000 0.000000
# 2 -0.002795 0.010203 -0.003389 0.000000 0.000000 0.000000
# 3 -0.003424 -0.003389 0.011101 0.000000 0.000000 0.000000
# 4 0.000000 0.000000 0.000000 0.024690 0.000000 0.000000
# 5 0.000000 0.000000 0.000000 0.000000 0.030286 0.000000
# 6 0.000000 0.000000 0.000000 0.000000 0.000000 0.026896
#
#
# Mechanical properties :
#
#
# Convention : Reuss Voigt Hill
#
# Bulk Modulus (GPa) = 75.23572 75.44091 75.33832
# Shear Modulus (GPa) = 36.22542 36.43513 36.33028
#
# Velocity S-wave (km/s) = 4.00776 4.01934 4.01356
# Velocity P-wave (km/s) = 7.40103 7.41554 7.40829
#
# Compressibility (1/GPa) = 0.01329156
#
# Stress axis : x y z
#
# Youngs Moduli (GPa) = 89.26626 98.01155 90.08173
#
# Poissons Ratio (x) = 0.27389 0.30846
# Poissons Ratio (y) = 0.24945 0.30525
# Poissons Ratio (z) = 0.30567 0.33213
#
# Static dielectric constant tensor:
#      x y z
#    x 4.072880 0.000000 0.000000 
#    y 0.000000 4.069910 0.000000 
#    z 0.000000 0.000000 4.165850 
# 
# 
# High freq. dielectric constant tensor:
#      x y z
#    x 1.881360 0.000000 0.000000 
#    y 0.000000 1.910760 0.000000 
#    z 0.000000 0.000000 1.900110 
# 
# From -- ./inp_files/1027.got.cif
#   From: 2010.06.25/outbox.cif.g09.slc.cpg/sg52_1_cif.got.tgz:1027.got - 2010.06.26 19:32:48.
