data_PCOD8217339
_publ_section_title
;
Structure prediction by ZEFSAII (Michael W. Deem and Ramdas Pophale) SiO2 
 PCOD8217339
Probable space group: P N N A
;
_chemical_formula_sum "Si O2"
_cell_formula_units_Z 24
_cell_length_a 17.332643
_cell_length_b 10.747137
_cell_length_c 4.833118
_cell_angle_alpha 90.000000
_cell_angle_beta 90.000000
_cell_angle_gamma 90.000000
_cell_volume 900.295285
_symmetry_space_group_name_H-M "P N N A"
_symmetry_group_IT_number 52
_symmetry_cell_setting 'orthorhombic'
loop_
_space_group_symop_operation_xyz
x,y,z
1/2-x,-y,z
x,1/2-y,1/2-z
1/2-x,1/2+y,1/2-z
-x,-y,-z
1/2+x,y,-z
-x,1/2+y,1/2+z
1/2+x,1/2-y,1/2+z
loop_
_atom_site_type_symbol
_atom_site_label
_atom_site_fract_x
_atom_site_fract_y
_atom_site_fract_z
Si Si1 0.492600 0.750000 0.250000
Si Si2 0.379600 0.083140 0.493748
Si Si3 0.258336 0.250000 0.250000
Si Si4 0.870779 0.914467 0.003995
O O1 0.542122 0.852831 0.408095
O O2 0.439113 0.814021 0.016900
O O3 0.310712 0.183110 0.483431
O O4 0.392106 0.033498 0.183431
O O5 0.360040 0.963525 0.683886
O O6 0.209418 0.147035 0.087610
#
# Coordination Sequence:
#
# PCOD8217339 Si02
#       4
#     4   8   4   8
#     4  11  26  48  76 107 144 190 244 299 360 434
#     4  12  26  46  74 108 142 190 244 299 361 432
#     4  11  28  48  74 109 150 194 244 303 368 436
#     4  11  28  49  73 106 148 192 240 299 365 432
#
# _framework density 26.657917000000001
#
# number of rings (size 3 to 8) (size 9 to 14) (size 15 to 20)
#    0.000    0.667    0.000    5.000    0.000   24.000 
#    0.000    0.000    0.000    0.000    0.000    0.000 
#    0.000    0.000    0.000    0.000    0.000    0.000 
#
# Total GULP energy -297857.650831 kJ/mol
# GULP energy per Si atom -12410.735451 kJ/mol
# Density = 2.659724 g / cm^3
# Si number density = 26.657917 Si / 1000 Ang^3
#
#
#
# Elastic Constant Matrix: (Units=GPa)
#
#
# Indices 1 2 3 4 5 6 
#
# 1 155.3441 54.7442 35.1097 0.0000 0.0000 0.0000
# 2 54.7442 128.2124 32.0151 0.0000 0.0000 0.0000
# 3 35.1097 32.0151 76.1354 0.0000 0.0000 0.0000
# 4 0.0000 0.0000 0.0000 62.6726 0.0000 0.0000
# 5 0.0000 0.0000 0.0000 0.0000 9.9186 0.0000
# 6 0.0000 0.0000 0.0000 0.0000 0.0000 43.5367
#
#
#
# Elastic Compliance Matrix: (Units=1/GPa)
#
#
# Indices 1 2 3 4 5 6 
#
# 1 0.007986 -0.002782 -0.002513 0.000000 0.000000 0.000000
# 2 -0.002782 0.009684 -0.002789 0.000000 0.000000 0.000000
# 3 -0.002513 -0.002789 0.015466 0.000000 0.000000 0.000000
# 4 0.000000 0.000000 0.000000 0.015956 0.000000 0.000000
# 5 0.000000 0.000000 0.000000 0.000000 0.100820 0.000000
# 6 0.000000 0.000000 0.000000 0.000000 0.000000 0.022969
#
#
# Mechanical properties :
#
#
# Convention : Reuss Voigt Hill
#
# Bulk Modulus (GPa) = 58.93569 67.04777 62.99173
# Shear Modulus (GPa) = 25.67989 39.08046 32.38017
#
# Velocity S-wave (km/s) = 3.10709 3.83299 3.48897
# Velocity P-wave (km/s) = 5.91846 6.69289 6.31756
#
# Compressibility (1/GPa) = 0.01696765
#
# Stress axis : x y z
#
# Youngs Moduli (GPa) = 125.22355 103.26308 64.65798
#
# Poissons Ratio (x) = 0.28731 0.16246
# Poissons Ratio (y) = 0.34841 0.18034
# Poissons Ratio (z) = 0.31464 0.28801
#
# Static dielectric constant tensor:
#      x y z
#    x 4.912280 0.000000 0.000000 
#    y 0.000000 5.031460 0.000000 
#    z 0.000000 0.000000 4.681840 
# 
# 
# High freq. dielectric constant tensor:
#      x y z
#    x 2.082250 0.000000 0.000000 
#    y 0.000000 2.091690 0.000000 
#    z 0.000000 0.000000 2.064780 
# 
# From -- ./inp_files/2887.got.cif
#   From: 2010.06.25/outbox.cif.g09.slc.cpg/sg52_2_cif.got.tgz:2887.got - 2010.06.26 19:32:48.
