data_PCOD8217299
_publ_section_title
;
Structure prediction by ZEFSAII (Michael W. Deem and Ramdas Pophale) SiO2 
 PCOD8217299
Probable space group: P N N A
;
_chemical_formula_sum "Si O2"
_cell_formula_units_Z 48
_cell_length_a 12.840492
_cell_length_b 17.672478
_cell_length_c 9.600481
_cell_angle_alpha 90.000000
_cell_angle_beta 90.000000
_cell_angle_gamma 90.000000
_cell_volume 2178.572949
_symmetry_space_group_name_H-M "P N N A"
_symmetry_group_IT_number 52
_symmetry_cell_setting 'orthorhombic'
loop_
_space_group_symop_operation_xyz
x,y,z
1/2-x,-y,z
x,1/2-y,1/2-z
1/2-x,1/2+y,1/2-z
-x,-y,-z
1/2+x,y,-z
-x,1/2+y,1/2+z
1/2+x,1/2-y,1/2+z
loop_
_atom_site_type_symbol
_atom_site_label
_atom_site_fract_x
_atom_site_fract_y
_atom_site_fract_z
Si Si1 0.424382 0.334682 0.917685
Si Si2 0.102403 0.250000 0.250000
Si Si3 0.513148 0.600047 0.798206
Si Si4 0.106947 0.250000 0.750000
Si Si5 0.365123 0.468802 0.734298
Si Si6 0.748841 0.281305 0.500084
Si Si7 0.668002 0.937949 0.942817
O O1 0.528146 0.305854 0.838290
O O2 0.364631 0.385818 0.804797
O O3 0.355419 0.267730 0.987002
O O4 0.452055 0.389037 0.044332
O O5 0.184828 0.285920 0.356280
O O6 0.460561 0.674815 0.737036
O O7 0.441376 0.526709 0.809740
O O8 0.608899 0.586082 0.695201
O O9 0.176023 0.244083 0.614134
O O10 0.250000 0.500000 0.744548
O O11 0.402471 0.468127 0.571580
O O12 0.776175 0.368324 0.477384
O O13 0.750000 0.000000 0.892016
#
# Coordination Sequence:
#
# PCOD8217299 Si02
#       7
#     8   4   8   4   8   8   8
#     4  12  26  47  71 108 141 191 247 308 376 452
#     4  12  27  45  78 104 146 194 247 309 374 438
#     4  12  25  44  69 105 142 186 239 298 373 452
#     4  12  23  43  72  98 142 186 241 305 372 442
#     4  11  25  45  71 101 142 188 238 303 376 443
#     4  12  25  47  72 105 143 188 247 307 371 449
#     4  11  25  44  70 105 142 188 240 303 367 446
#
# _framework density 22.032772000000001
#
# number of rings (size 3 to 8) (size 9 to 14) (size 15 to 20)
#    0.000    0.333    1.667    8.500    4.667    0.667 
#    0.000    0.000    0.000    0.000    0.000    0.000 
#    0.000    0.000    0.000    0.000    0.000    0.000 
#
# Total GULP energy -594946.820277 kJ/mol
# GULP energy per Si atom -12394.725422 kJ/mol
# Density = 2.198262 g / cm^3
# Si number density = 22.032772 Si / 1000 Ang^3
#
#
#
# Elastic Constant Matrix: (Units=GPa)
#
#
# Indices 1 2 3 4 5 6 
#
# 1 88.8373 41.1491 48.9158 0.0000 0.0000 0.0000
# 2 41.1491 114.3523 18.9755 0.0000 0.0000 0.0000
# 3 48.9158 18.9755 131.9034 0.0000 0.0000 0.0000
# 4 0.0000 0.0000 0.0000 41.2681 0.0000 0.0000
# 5 0.0000 0.0000 0.0000 0.0000 44.2674 0.0000
# 6 0.0000 0.0000 0.0000 0.0000 0.0000 45.2385
#
#
#
# Elastic Compliance Matrix: (Units=1/GPa)
#
#
# Indices 1 2 3 4 5 6 
#
# 1 0.016591 -0.005070 -0.005423 0.000000 0.000000 0.000000
# 2 -0.005070 0.010508 0.000369 0.000000 0.000000 0.000000
# 3 -0.005423 0.000369 0.009540 0.000000 0.000000 0.000000
# 4 0.000000 0.000000 0.000000 0.024232 0.000000 0.000000
# 5 0.000000 0.000000 0.000000 0.000000 0.022590 0.000000
# 6 0.000000 0.000000 0.000000 0.000000 0.000000 0.022105
#
#
# Mechanical properties :
#
#
# Convention : Reuss Voigt Hill
#
# Bulk Modulus (GPa) = 61.01715 61.46375 61.24045
# Shear Modulus (GPa) = 38.08675 41.22498 39.65587
#
# Velocity S-wave (km/s) = 4.16220 4.33029 4.24708
# Velocity P-wave (km/s) = 7.13110 7.27729 7.20456
#
# Compressibility (1/GPa) = 0.01638883
#
# Stress axis : x y z
#
# Youngs Moduli (GPa) = 60.27239 95.16312 104.82700
#
# Poissons Ratio (x) = 0.48251 0.56852
# Poissons Ratio (y) = 0.30560 -0.03864
# Poissons Ratio (z) = 0.32688 -0.03508
#
# Static dielectric constant tensor:
#      x y z
#    x 4.031130 0.000000 0.000000 
#    y 0.000000 4.143060 0.000000 
#    z 0.000000 0.000000 4.131160 
# 
# 
# High freq. dielectric constant tensor:
#      x y z
#    x 1.869620 0.000000 0.000000 
#    y 0.000000 1.879140 0.000000 
#    z 0.000000 0.000000 1.887410 
# 
# From -- ./inp_files/10555.got.cif
#   From: 2010.06.25/outbox.cif.g09.slc.cpg/sg52_6_cif.got.tgz:10555.got - 2010.06.26 19:32:48.
