data_PCOD8217300
_publ_section_title
;
Structure prediction by ZEFSAII (Michael W. Deem and Ramdas Pophale) SiO2 
 PCOD8217300
Probable space group: P N N A
;
_chemical_formula_sum "Si O2"
_cell_formula_units_Z 32
_cell_length_a 17.000179
_cell_length_b 11.921265
_cell_length_c 6.837822
_cell_angle_alpha 90.000000
_cell_angle_beta 90.000000
_cell_angle_gamma 90.000000
_cell_volume 1385.777889
_symmetry_space_group_name_H-M "P N N A"
_symmetry_group_IT_number 52
_symmetry_cell_setting 'orthorhombic'
loop_
_space_group_symop_operation_xyz
x,y,z
1/2-x,-y,z
x,1/2-y,1/2-z
1/2-x,1/2+y,1/2-z
-x,-y,-z
1/2+x,y,-z
-x,1/2+y,1/2+z
1/2+x,1/2-y,1/2+z
loop_
_atom_site_type_symbol
_atom_site_label
_atom_site_fract_x
_atom_site_fract_y
_atom_site_fract_z
Si Si1 0.088935 0.250000 0.750000
Si Si2 0.132382 0.750000 0.750000
Si Si3 0.991984 0.620892 0.912366
Si Si4 0.311176 0.349113 0.382606
Si Si5 0.638507 0.404229 0.592115
O O1 0.033657 0.197620 0.589114
O O2 0.135634 0.348336 0.627220
O O3 0.193325 0.697795 0.599802
O O4 0.078238 0.653558 0.841615
O O5 0.931813 0.636940 0.731112
O O6 0.000000 0.500000 0.000000
O O7 0.349297 0.250000 0.250000
O O8 0.365830 0.459880 0.399519
O O9 0.222414 0.373181 0.310476
#
# Coordination Sequence:
#
# PCOD8217300 Si02
#       5
#     4   4   8   8   8
#     4  12  23  44  70  95 148 178 236 302 361 444
#     4  12  25  42  66 107 134 180 250 288 359 436
#     4  12  26  42  70 104 140 185 241 302 364 435
#     4  11  25  44  71 100 147 189 244 305 362 450
#     4  11  25  46  70 105 142 196 240 298 385 434
#
# _framework density 23.091723000000002
#
# number of rings (size 3 to 8) (size 9 to 14) (size 15 to 20)
#    0.000    0.500    2.500    5.250    5.250    2.000 
#    0.000    5.000    0.000    0.000    0.000    0.000 
#    0.000    0.000    0.000    0.000    0.000    0.000 
#
# Total GULP energy -396512.831367 kJ/mol
# GULP energy per Si atom -12391.025980 kJ/mol
# Density = 2.303917 g / cm^3
# Si number density = 23.091723 Si / 1000 Ang^3
#
#
#
# Elastic Constant Matrix: (Units=GPa)
#
#
# Indices 1 2 3 4 5 6 
#
# 1 63.3719 7.4265 18.0668 0.0000 0.0000 0.0000
# 2 7.4265 164.9348 62.9015 0.0000 0.0000 0.0000
# 3 18.0668 62.9015 135.9068 0.0000 0.0000 0.0000
# 4 0.0000 0.0000 0.0000 54.2975 0.0000 0.0000
# 5 0.0000 0.0000 0.0000 0.0000 35.3682 0.0000
# 6 0.0000 0.0000 0.0000 0.0000 0.0000 18.8204
#
#
#
# Elastic Compliance Matrix: (Units=1/GPa)
#
#
# Indices 1 2 3 4 5 6 
#
# 1 0.016403 0.000113 -0.002233 0.000000 0.000000 0.000000
# 2 0.000113 0.007363 -0.003423 0.000000 0.000000 0.000000
# 3 -0.002233 -0.003423 0.009239 0.000000 0.000000 0.000000
# 4 0.000000 0.000000 0.000000 0.018417 0.000000 0.000000
# 5 0.000000 0.000000 0.000000 0.000000 0.028274 0.000000
# 6 0.000000 0.000000 0.000000 0.000000 0.000000 0.053134
#
#
# Mechanical properties :
#
#
# Convention : Reuss Voigt Hill
#
# Bulk Modulus (GPa) = 45.62070 60.11146 52.86608
# Shear Modulus (GPa) = 33.06380 40.08512 36.57446
#
# Velocity S-wave (km/s) = 3.78808 4.17094 3.98411
# Velocity P-wave (km/s) = 6.23954 7.02024 6.64138
#
# Compressibility (1/GPa) = 0.02191987
#
# Stress axis : x y z
#
# Youngs Moduli (GPa) = 60.96372 135.80784 108.23616
#
# Poissons Ratio (x) = -0.01534 0.24167
# Poissons Ratio (y) = -0.00689 0.37049
# Poissons Ratio (z) = 0.13612 0.46487
#
# Static dielectric constant tensor:
#      x y z
#    x 4.013550 0.000000 0.000000 
#    y 0.000000 4.823410 0.000000 
#    z 0.000000 0.000000 4.478650 
# 
# 
# High freq. dielectric constant tensor:
#      x y z
#    x 1.902220 0.000000 0.000000 
#    y 0.000000 1.938210 0.000000 
#    z 0.000000 0.000000 1.916960 
# 
# From -- ./inp_files/3014.got.cif
#   From: 2010.06.25/outbox.cif.g09.slc.cpg/sg52_2_cif.got.tgz:3014.got - 2010.06.26 19:32:48.
