data_PCOD8217986
_publ_section_title
;
Structure prediction by ZEFSAII (Michael W. Deem and Ramdas Pophale) SiO2 
 PCOD8217986
Probable space group: P M N A
;
_chemical_formula_sum "Si O2"
_cell_formula_units_Z 64
_cell_length_a 9.310446
_cell_length_b 20.356410
_cell_length_c 20.225217
_cell_angle_alpha 90.000000
_cell_angle_beta 90.000000
_cell_angle_gamma 90.000000
_cell_volume 3833.229881
_symmetry_space_group_name_H-M "P M N A"
_symmetry_group_IT_number 53
_symmetry_cell_setting 'orthorhombic'
loop_
_space_group_symop_operation_xyz
x,y,z
1/2-x,-y,1/2+z
x,-y,-z
1/2-x,y,1/2-z
-x,-y,-z
1/2+x,y,1/2-z
-x,y,z
1/2+x,-y,1/2+z
loop_
_atom_site_type_symbol
_atom_site_label
_atom_site_fract_x
_atom_site_fract_y
_atom_site_fract_z
Si Si1 0.832641 0.535868 0.068453
Si Si2 0.671515 0.340500 0.968750
Si Si3 0.159988 0.920171 0.069918
Si Si4 0.668411 0.312052 0.397540
Si Si5 0.662379 0.063495 0.413575
Si Si6 0.335511 0.438463 0.315777
Si Si7 0.838260 0.815260 0.599290
Si Si8 0.342228 0.801721 0.057656
O O1 0.733161 0.600209 0.074903
O O2 0.784656 0.487813 0.126986
O O3 0.000000 0.555653 0.072658
O O4 0.799113 0.500000 0.000000
O O5 0.500000 0.346257 0.980237
O O6 0.709559 0.272993 0.929482
O O7 0.752167 0.341348 0.038752
O O8 0.246918 0.856420 0.094555
O O9 0.000000 0.910601 0.096604
O O10 0.220907 0.989188 0.099115
O O11 0.161327 0.923031 0.991241
O O12 0.500000 0.300862 0.414127
O O13 0.688776 0.363653 0.338550
O O14 0.741449 0.244403 0.373335
O O15 0.500000 0.071132 0.386311
O O16 0.766304 0.115906 0.377737
O O17 0.250000 0.454046 0.250000
O O18 0.500000 0.451322 0.299229
O O19 0.842470 0.811974 0.520681
O O20 0.000000 0.810888 0.628233
O O21 0.500000 0.811955 0.086974
#
# Coordination Sequence:
#
# PCOD8217986 Si02
#       8
#     8   8   8   8   8   8   8   8
#     4  10  19  35  53  71  95 122 156 194 235 286
#     4  10  19  29  44  69  92 115 151 194 235 275
#     4   8  13  20  31  46  67 100 144 180 213 262
#     4  10  18  31  47  63  87 120 151 187 233 278
#     4   8  13  21  31  46  69 101 140 181 219 262
#     4  10  22  37  53  72  95 124 155 192 238 287
#     4   9  16  24  35  55  78 104 143 187 224 265
#     4   8  15  24  32  49  79 107 137 178 225 268
#
# _framework density 16.696102
#
# number of rings (size 3 to 8) (size 9 to 14) (size 15 to 20)
#    0.000    2.875    1.250    2.625    0.000    5.750 
#    0.000    2.500    0.000    0.000    0.000    0.000 
#    0.000    0.000    0.000    1.125    0.000   17.000 
#
# Total GULP energy -793182.848351 kJ/mol
# GULP energy per Si atom -12393.482005 kJ/mol
# Density = 1.665810 g / cm^3
# Si number density = 16.696102 Si / 1000 Ang^3
#
#
#
# Elastic Constant Matrix: (Units=GPa)
#
#
# Indices 1 2 3 4 5 6 
#
# 1 100.2676 77.6182 29.5046 0.0000 0.0000 0.0000
# 2 77.6182 155.2693 34.8385 0.0000 0.0000 0.0000
# 3 29.5046 34.8385 47.1368 0.0000 0.0000 0.0000
# 4 0.0000 0.0000 0.0000 7.3866 0.0000 0.0000
# 5 0.0000 0.0000 0.0000 0.0000 13.8892 0.0000
# 6 0.0000 0.0000 0.0000 0.0000 0.0000 31.8300
#
#
#
# Elastic Compliance Matrix: (Units=1/GPa)
#
#
# Indices 1 2 3 4 5 6 
#
# 1 0.017316 -0.007462 -0.005324 0.000000 0.000000 0.000000
# 2 -0.007462 0.010936 -0.003412 0.000000 0.000000 0.000000
# 3 -0.005324 -0.003412 0.027069 0.000000 0.000000 0.000000
# 4 0.000000 0.000000 0.000000 0.135380 0.000000 0.000000
# 5 0.000000 0.000000 0.000000 0.000000 0.071998 0.000000
# 6 0.000000 0.000000 0.000000 0.000000 0.000000 0.031417
#
#
# Mechanical properties :
#
#
# Convention : Reuss Voigt Hill
#
# Bulk Modulus (GPa) = 43.61901 65.17737 54.39819
# Shear Modulus (GPa) = 14.96317 21.33533 18.14925
#
# Velocity S-wave (km/s) = 2.99692 3.57860 3.30060
# Velocity P-wave (km/s) = 6.17716 7.49649 6.86858
#
# Compressibility (1/GPa) = 0.02292578
#
# Stress axis : x y z
#
# Youngs Moduli (GPa) = 57.74994 91.44047 36.94226
#
# Poissons Ratio (x) = 0.68230 0.19668
# Poissons Ratio (y) = 0.43091 0.12606
# Poissons Ratio (z) = 0.30745 0.31202
#
# Static dielectric constant tensor:
#      x y z
#    x 3.308700 0.000000 0.000000 
#    y 0.000000 3.536100 0.000000 
#    z 0.000000 0.000000 2.435060 
# 
# 
# High freq. dielectric constant tensor:
#      x y z
#    x 1.650090 0.000000 0.000000 
#    y 0.000000 1.663360 0.000000 
#    z 0.000000 0.000000 1.557970 
# 
# From -- ./inp_files/27016.got.cif
#   From: 2010.03.12/outbox.cif.g09.slc.cpg/sg53_14_cif.got.tgz:27016.got - 2010.04.16 14:36:59.
