data_PCOD8217891
_publ_section_title
;
Structure prediction by ZEFSAII (Michael W. Deem and Ramdas Pophale) SiO2 
 PCOD8217891
Probable space group: P M N A
;
_chemical_formula_sum "Si O2"
_cell_formula_units_Z 48
_cell_length_a 8.683442
_cell_length_b 16.444299
_cell_length_c 18.517565
_cell_angle_alpha 90.000000
_cell_angle_beta 90.000000
_cell_angle_gamma 90.000000
_cell_volume 2644.180818
_symmetry_space_group_name_H-M "P M N A"
_symmetry_group_IT_number 53
_symmetry_cell_setting 'orthorhombic'
loop_
_space_group_symop_operation_xyz
x,y,z
1/2-x,-y,1/2+z
x,-y,-z
1/2-x,y,1/2-z
-x,-y,-z
1/2+x,y,1/2-z
-x,y,z
1/2+x,-y,1/2+z
loop_
_atom_site_type_symbol
_atom_site_label
_atom_site_fract_x
_atom_site_fract_y
_atom_site_fract_z
Si Si1 0.817323 0.165988 0.326461
Si Si2 0.817637 0.084124 0.470639
Si Si3 0.181358 0.752874 0.452480
Si Si4 0.683338 0.488657 0.171422
Si Si5 0.818833 0.342844 0.827932
Si Si6 0.182267 0.673554 0.598252
O O1 0.750000 0.137842 0.250000
O O2 0.759374 0.104259 0.389386
O O3 0.756540 0.256512 0.347155
O O4 0.000000 0.164632 0.321585
O O5 0.771327 0.155758 0.525730
O O6 0.000000 0.077261 0.467858
O O7 0.744064 0.000000 0.500000
O O8 0.275349 0.730330 0.381062
O O9 0.234440 0.692297 0.516640
O O10 0.000000 0.745459 0.437237
O O11 0.750000 0.472087 0.250000
O O12 0.500000 0.492970 0.174584
O O13 0.748012 0.573365 0.140500
O O14 0.743247 0.415183 0.120901
O O15 0.750000 0.322484 0.750000
O O16 0.000000 0.352345 0.820426
O O17 0.000000 0.676571 0.601723
#
# Coordination Sequence:
#
# PCOD8217891 Si02
#       6
#     8   8   8   8   8   8
#     4   9  16  28  47  72 100 128 159 193 234 284
#     4   8  15  30  53  76  98 128 163 196 235 288
#     4   9  17  33  54  73  94 124 162 199 237 284
#     4  10  18  30  47  68  95 128 165 200 237 279
#     4  11  22  36  51  69  94 125 163 203 244 285
#     4   8  16  29  47  70  96 128 161 192 232 288
#
# _framework density 18.153068999999999
#
# number of rings (size 3 to 8) (size 9 to 14) (size 15 to 20)
#    0.000    2.833    0.000    5.500    0.000    0.667 
#    0.000   10.000    0.000    4.000    0.000    0.000 
#    0.000    0.000    0.000    0.000    0.000    0.000 
#
# Total GULP energy -594992.998577 kJ/mol
# GULP energy per Si atom -12395.687470 kJ/mol
# Density = 1.811175 g / cm^3
# Si number density = 18.153069 Si / 1000 Ang^3
#
#
#
# Elastic Constant Matrix: (Units=GPa)
#
#
# Indices 1 2 3 4 5 6 
#
# 1 58.5295 29.9961 29.8747 0.0000 0.0000 0.0000
# 2 29.9961 130.0704 83.9115 0.0000 0.0000 0.0000
# 3 29.8747 83.9115 123.7442 0.0000 0.0000 0.0000
# 4 0.0000 0.0000 0.0000 27.6351 0.0000 0.0000
# 5 0.0000 0.0000 0.0000 0.0000 27.4782 0.0000
# 6 0.0000 0.0000 0.0000 0.0000 0.0000 20.1601
#
#
#
# Elastic Compliance Matrix: (Units=1/GPa)
#
#
# Indices 1 2 3 4 5 6 
#
# 1 0.019992 -0.002661 -0.003022 0.000000 0.000000 0.000000
# 2 -0.002661 0.014021 -0.008865 0.000000 0.000000 0.000000
# 3 -0.003022 -0.008865 0.014822 0.000000 0.000000 0.000000
# 4 0.000000 0.000000 0.000000 0.036186 0.000000 0.000000
# 5 0.000000 0.000000 0.000000 0.000000 0.036392 0.000000
# 6 0.000000 0.000000 0.000000 0.000000 0.000000 0.049603
#
#
# Mechanical properties :
#
#
# Convention : Reuss Voigt Hill
#
# Bulk Modulus (GPa) = 50.66221 66.65652 58.65936
# Shear Modulus (GPa) = 24.19055 26.29213 25.24134
#
# Velocity S-wave (km/s) = 3.65442 3.80986 3.73295
# Velocity P-wave (km/s) = 6.76575 7.49348 7.13889
#
# Compressibility (1/GPa) = 0.01973858
#
# Stress axis : x y z
#
# Youngs Moduli (GPa) = 50.02101 71.32185 67.46518
#
# Poissons Ratio (x) = 0.18976 0.20390
# Poissons Ratio (y) = 0.13309 0.59810
# Poissons Ratio (z) = 0.15118 0.63229
#
# Static dielectric constant tensor:
#      x y z
#    x 2.989100 0.000000 0.000000 
#    y 0.000000 3.720270 0.000000 
#    z 0.000000 0.000000 3.441870 
# 
# 
# High freq. dielectric constant tensor:
#      x y z
#    x 1.672310 0.000000 0.000000 
#    y 0.000000 1.697570 0.000000 
#    z 0.000000 0.000000 1.703130 
# 
# From -- ./inp_files/26399.got.cif
#   From: 2010.03.12/outbox.cif.g09.slc.cpg/sg53_14_cif.got.tgz:26399.got - 2010.04.16 14:36:59.
