data_PCOD8217140
_publ_section_title
;
Structure prediction by ZEFSAII (Michael W. Deem and Ramdas Pophale) SiO2 
 PCOD8217140
Probable space group: P N N A
;
_chemical_formula_sum "Si O2"
_cell_formula_units_Z 56
_cell_length_a 28.817869
_cell_length_b 15.888296
_cell_length_c 5.406914
_cell_angle_alpha 90.000000
_cell_angle_beta 90.000000
_cell_angle_gamma 90.000000
_cell_volume 2475.646588
_symmetry_space_group_name_H-M "P N N A"
_symmetry_group_IT_number 52
_symmetry_cell_setting 'orthorhombic'
loop_
_space_group_symop_operation_xyz
x,y,z
1/2-x,-y,z
x,1/2-y,1/2-z
1/2-x,1/2+y,1/2-z
-x,-y,-z
1/2+x,y,-z
-x,1/2+y,1/2+z
1/2+x,1/2-y,1/2+z
loop_
_atom_site_type_symbol
_atom_site_label
_atom_site_fract_x
_atom_site_fract_y
_atom_site_fract_z
Si Si1 0.416652 0.603223 0.869404
Si Si2 0.604663 0.709812 0.993708
Si Si3 0.183657 0.345152 0.786546
Si Si4 0.545420 0.542753 0.407482
Si Si5 0.886779 0.461256 0.801229
Si Si6 0.203768 0.446445 0.289646
Si Si7 0.004919 0.816607 0.567461
O O1 0.372494 0.659848 0.802369
O O2 0.419904 0.532171 0.663990
O O3 0.409824 0.550735 0.122821
O O4 0.464627 0.656700 0.876596
O O5 0.629639 0.750000 0.750000
O O6 0.617811 0.609956 0.014778
O O7 0.623057 0.750000 0.250000
O O8 0.549477 0.730039 0.954164
O O9 0.201954 0.250000 0.750000
O O10 0.201359 0.394185 0.544390
O O11 0.201497 0.387410 0.043022
O O12 0.500000 0.500000 0.500000
O O13 0.577141 0.587503 0.615701
O O14 0.529498 0.603072 0.190636
O O15 0.836370 0.483282 0.698802
O O16 0.250000 0.500000 0.279805
O O17 0.979824 0.750000 0.750000
#
# Coordination Sequence:
#
# PCOD8217140 Si02
#       7
#     8   8   8   8   8   8   8
#     4  11  23  38  61  93 129 181 230 281 339 419
#     4  11  24  40  59  89 129 174 223 281 336 391
#     4  11  25  46  75 108 147 178 229 299 367 416
#     4  12  21  37  63  90 130 182 231 284 327 412
#     4  11  22  41  66  90 128 177 233 281 347 418
#     4  11  25  48  76 106 138 185 234 289 361 441
#     4  11  23  38  57  91 134 184 234 285 339 401
#
# _framework density 22.620355
#
# number of rings (size 3 to 8) (size 9 to 14) (size 15 to 20)
#    0.000    0.857    4.286    3.857    0.000    4.000 
#    0.000    2.143    0.000    0.857    0.000    0.000 
#    0.000    0.000    0.000    0.000    0.000    0.000 
#
# Total GULP energy -693795.972582 kJ/mol
# GULP energy per Si atom -12389.213796 kJ/mol
# Density = 2.256887 g / cm^3
# Si number density = 22.620355 Si / 1000 Ang^3
#
#
#
# Elastic Constant Matrix: (Units=GPa)
#
#
# Indices 1 2 3 4 5 6 
#
# 1 99.6472 28.1034 30.2620 0.0000 0.0000 0.0000
# 2 28.1034 102.4413 44.5880 0.0000 0.0000 0.0000
# 3 30.2620 44.5880 141.2469 0.0000 0.0000 0.0000
# 4 0.0000 0.0000 0.0000 43.2527 0.0000 0.0000
# 5 0.0000 0.0000 0.0000 0.0000 27.3853 0.0000
# 6 0.0000 0.0000 0.0000 0.0000 0.0000 22.3031
#
#
#
# Elastic Compliance Matrix: (Units=1/GPa)
#
#
# Indices 1 2 3 4 5 6 
#
# 1 0.011202 -0.002352 -0.001658 0.000000 0.000000 0.000000
# 2 -0.002352 0.011810 -0.003224 0.000000 0.000000 0.000000
# 3 -0.001658 -0.003224 0.008453 0.000000 0.000000 0.000000
# 4 0.000000 0.000000 0.000000 0.023120 0.000000 0.000000
# 5 0.000000 0.000000 0.000000 0.000000 0.036516 0.000000
# 6 0.000000 0.000000 0.000000 0.000000 0.000000 0.044837
#
#
# Mechanical properties :
#
#
# Convention : Reuss Voigt Hill
#
# Bulk Modulus (GPa) = 58.83121 61.02690 59.92906
# Shear Modulus (GPa) = 32.03671 34.61370 33.32520
#
# Velocity S-wave (km/s) = 3.76743 3.91602 3.84244
# Velocity P-wave (km/s) = 6.70740 6.89089 6.79976
#
# Compressibility (1/GPa) = 0.01699778
#
# Stress axis : x y z
#
# Youngs Moduli (GPa) = 89.26934 84.67235 118.30397
#
# Poissons Ratio (x) = 0.19912 0.19611
# Poissons Ratio (y) = 0.20993 0.38145
# Poissons Ratio (z) = 0.14798 0.27301
#
# Static dielectric constant tensor:
#      x y z
#    x 3.819080 0.000000 0.000000 
#    y 0.000000 4.119890 0.000000 
#    z 0.000000 0.000000 3.725490 
# 
# 
# High freq. dielectric constant tensor:
#      x y z
#    x 1.858700 0.000000 0.000000 
#    y 0.000000 1.904120 0.000000 
#    z 0.000000 0.000000 1.901850 
# 
# From -- ./inp_files/6419.got.cif
#   From: 2010.06.25/outbox.cif.g09.slc.cpg/sg52_4_cif.got.tgz:6419.got - 2010.06.26 19:32:48.
