data_PCOD8217410
_publ_section_title
;
Structure prediction by ZEFSAII (Michael W. Deem and Ramdas Pophale) SiO2 
 PCOD8217410
Probable space group: P N N A
;
_chemical_formula_sum "Si O2"
_cell_formula_units_Z 32
_cell_length_a 14.261648
_cell_length_b 6.097225
_cell_length_c 13.940198
_cell_angle_alpha 90.000000
_cell_angle_beta 90.000000
_cell_angle_gamma 90.000000
_cell_volume 1212.190503
_symmetry_space_group_name_H-M "P N N A"
_symmetry_group_IT_number 52
_symmetry_cell_setting 'orthorhombic'
loop_
_space_group_symop_operation_xyz
x,y,z
1/2-x,-y,z
x,1/2-y,1/2-z
1/2-x,1/2+y,1/2-z
-x,-y,-z
1/2+x,y,-z
-x,1/2+y,1/2+z
1/2+x,1/2-y,1/2+z
loop_
_atom_site_type_symbol
_atom_site_label
_atom_site_fract_x
_atom_site_fract_y
_atom_site_fract_z
Si Si1 0.477964 0.898951 0.161949
Si Si2 0.105609 0.067228 0.476827
Si Si3 0.185481 0.686717 0.349883
Si Si4 0.158738 0.351364 0.644895
O O1 0.509957 0.750000 0.250000
O O2 0.406277 0.770131 0.093865
O O3 0.415653 0.107429 0.189753
O O4 0.573281 0.987595 0.113863
O O5 0.160740 0.146567 0.571727
O O6 0.169584 0.880477 0.426935
O O7 0.000000 0.000000 0.500000
O O8 0.250000 0.500000 0.400776
O O9 0.239284 0.750000 0.250000
O O10 0.250000 0.500000 0.640301
O O11 0.143386 0.250000 0.750000
#
# Coordination Sequence:
#
# PCOD8217410 Si02
#       4
#     8   8   8   8
#     4  12  24  50  84 120 164 210 272 342 424 502
#     4  12  27  52  83 116 162 218 277 340 414 500
#     4  12  27  51  80 125 166 211 268 343 424 502
#     4  12  28  55  81 121 167 223 285 346 408 494
#
# _framework density 26.398489999999999
#
# number of rings (size 3 to 8) (size 9 to 14) (size 15 to 20)
#    0.000    0.000    5.000    4.500    0.000    1.000 
#    9.000    0.000    0.000    0.000    0.000    0.000 
#    0.000    0.000    0.000    0.000    0.000    0.000 
#
# Total GULP energy -396762.087372 kJ/mol
# GULP energy per Si atom -12398.815230 kJ/mol
# Density = 2.633841 g / cm^3
# Si number density = 26.398490 Si / 1000 Ang^3
#
#
#
# Elastic Constant Matrix: (Units=GPa)
#
#
# Indices 1 2 3 4 5 6 
#
# 1 130.1557 76.6890 32.4527 0.0000 0.0000 0.0000
# 2 76.6890 166.1631 88.9904 0.0000 0.0000 0.0000
# 3 32.4527 88.9904 161.9519 0.0000 0.0000 0.0000
# 4 0.0000 0.0000 0.0000 54.5763 0.0000 0.0000
# 5 0.0000 0.0000 0.0000 0.0000 34.0277 0.0000
# 6 0.0000 0.0000 0.0000 0.0000 0.0000 78.0430
#
#
#
# Elastic Compliance Matrix: (Units=1/GPa)
#
#
# Indices 1 2 3 4 5 6 
#
# 1 0.010626 -0.005333 0.000801 0.000000 0.000000 0.000000
# 2 -0.005333 0.011205 -0.005088 0.000000 0.000000 0.000000
# 3 0.000801 -0.005088 0.008810 0.000000 0.000000 0.000000
# 4 0.000000 0.000000 0.000000 0.018323 0.000000 0.000000
# 5 0.000000 0.000000 0.000000 0.000000 0.029388 0.000000
# 6 0.000000 0.000000 0.000000 0.000000 0.000000 0.012813
#
#
# Mechanical properties :
#
#
# Convention : Reuss Voigt Hill
#
# Bulk Modulus (GPa) = 87.71742 94.94832 91.33287
# Shear Modulus (GPa) = 43.78113 50.67198 47.22655
#
# Velocity S-wave (km/s) = 4.07685 4.38597 4.23423
# Velocity P-wave (km/s) = 7.44723 7.85457 7.65361
#
# Compressibility (1/GPa) = 0.01140024
#
# Stress axis : x y z
#
# Youngs Moduli (GPa) = 94.11158 89.24924 113.50824
#
# Poissons Ratio (x) = 0.47598 -0.09095
# Poissons Ratio (y) = 0.50192 0.57754
# Poissons Ratio (z) = -0.07541 0.45411
#
# Static dielectric constant tensor:
#      x y z
#    x 4.793490 0.000000 0.000000 
#    y 0.000000 4.940800 0.000000 
#    z 0.000000 0.000000 4.880160 
# 
# 
# High freq. dielectric constant tensor:
#      x y z
#    x 2.078790 0.000000 0.000000 
#    y 0.000000 2.077430 0.000000 
#    z 0.000000 0.000000 2.056630 
# 
# From -- ./inp_files/32594.got.cif
#   From: 2010.06.25/outbox.cif.g09.slc.cpg/sg52_17_cif.got.tgz:32594.got - 2010.06.26 19:32:48.
