data_PCOD8217615
_publ_section_title
;
Structure prediction by ZEFSAII (Michael W. Deem and Ramdas Pophale) SiO2 
 PCOD8217615
Probable space group: P M N A
;
_chemical_formula_sum "Si O2"
_cell_formula_units_Z 64
_cell_length_a 18.629798
_cell_length_b 10.696587
_cell_length_c 19.954687
_cell_angle_alpha 90.000000
_cell_angle_beta 90.000000
_cell_angle_gamma 90.000000
_cell_volume 3976.475342
_symmetry_space_group_name_H-M "P M N A"
_symmetry_group_IT_number 53
_symmetry_cell_setting 'orthorhombic'
loop_
_space_group_symop_operation_xyz
x,y,z
1/2-x,-y,1/2+z
x,-y,-z
1/2-x,y,1/2-z
-x,-y,-z
1/2+x,y,1/2-z
-x,y,z
1/2+x,-y,1/2+z
loop_
_atom_site_type_symbol
_atom_site_label
_atom_site_fract_x
_atom_site_fract_y
_atom_site_fract_z
Si Si1 0.249363 0.274873 0.322678
Si Si2 0.685253 0.978339 0.698836
Si Si3 0.869701 0.879435 0.614694
Si Si4 0.714007 0.473877 0.072930
Si Si5 0.339363 0.270122 0.897046
Si Si6 0.579066 0.325762 0.024281
Si Si7 0.246531 0.049564 0.933471
Si Si8 0.081206 0.906066 0.298880
O O1 0.250000 0.343388 0.250000
O O2 0.172009 0.205808 0.330291
O O3 0.260278 0.375456 0.382739
O O4 0.313061 0.169911 0.320727
O O5 0.750000 0.007787 0.750000
O O6 0.694164 0.054252 0.630074
O O7 0.612909 0.034519 0.730573
O O8 0.920214 0.802086 0.565925
O O9 0.808178 0.945881 0.572397
O O10 0.920816 0.981088 0.648553
O O11 0.702425 0.599332 0.117024
O O12 0.635167 0.421344 0.056268
O O13 0.751930 0.500000 0.000000
O O14 0.282379 0.185667 0.937915
O O15 0.369289 0.206863 0.828570
O O16 0.405448 0.295805 0.946721
O O17 0.500000 0.385067 0.029662
O O18 0.204651 0.000000 0.000000
O O19 0.000000 0.858767 0.285717
#
# Coordination Sequence:
#
# PCOD8217615 Si02
#       8
#     8   8   8   8   8   8   8   8
#     4   9  15  31  51  65  89 122 159 197 244 273
#     4  10  17  32  52  69  95 123 157 199 255 293
#     4   9  16  27  44  69  91 121 151 197 233 283
#     4   9  20  31  44  66  95 129 169 202 230 274
#     4  10  19  30  42  67  99 130 161 193 232 288
#     4  10  18  28  42  61  96 138 166 190 224 275
#     4  10  17  29  49  67  92 119 153 198 249 287
#     4  11  20  30  47  72  99 127 160 203 246 298
#
# _framework density 16.094654999999999
#
# number of rings (size 3 to 8) (size 9 to 14) (size 15 to 20)
#    0.000    2.250    6.250    0.750    1.750    2.750 
#    2.250    1.875    0.000    0.375    0.000    0.000 
#    0.000    0.500    0.000    0.000    0.000    0.500 
#
# Total GULP energy -792853.967546 kJ/mol
# GULP energy per Si atom -12388.343243 kJ/mol
# Density = 1.605802 g / cm^3
# Si number density = 16.094655 Si / 1000 Ang^3
#
#
#
# Elastic Constant Matrix: (Units=GPa)
#
#
# Indices 1 2 3 4 5 6 
#
# 1 28.3072 19.4986 20.2492 0.0000 0.0000 0.0000
# 2 19.4986 85.5131 36.4398 0.0000 0.0000 0.0000
# 3 20.2492 36.4398 84.1873 0.0000 0.0000 0.0000
# 4 0.0000 0.0000 0.0000 26.0124 0.0000 0.0000
# 5 0.0000 0.0000 0.0000 0.0000 18.8119 0.0000
# 6 0.0000 0.0000 0.0000 0.0000 0.0000 7.3816
#
#
#
# Elastic Compliance Matrix: (Units=1/GPa)
#
#
# Indices 1 2 3 4 5 6 
#
# 1 0.045904 -0.007065 -0.007983 0.000000 0.000000 0.000000
# 2 -0.007065 0.015426 -0.004978 0.000000 0.000000 0.000000
# 3 -0.007983 -0.004978 0.015953 0.000000 0.000000 0.000000
# 4 0.000000 0.000000 0.000000 0.038443 0.000000 0.000000
# 5 0.000000 0.000000 0.000000 0.000000 0.053158 0.000000
# 6 0.000000 0.000000 0.000000 0.000000 0.000000 0.135473
#
#
# Mechanical properties :
#
#
# Convention : Reuss Voigt Hill
#
# Bulk Modulus (GPa) = 26.85911 38.93142 32.89526
# Shear Modulus (GPa) = 14.01270 18.56249 16.28760
#
# Velocity S-wave (km/s) = 2.95387 3.39976 3.18463
# Velocity P-wave (km/s) = 5.32524 6.29704 5.83142
#
# Compressibility (1/GPa) = 0.03723132
#
# Stress axis : x y z
#
# Youngs Moduli (GPa) = 21.78463 64.82431 62.68414
#
# Poissons Ratio (x) = 0.45800 0.50041
# Poissons Ratio (y) = 0.15391 0.31203
# Poissons Ratio (z) = 0.17391 0.32268
#
# Static dielectric constant tensor:
#      x y z
#    x 2.590250 0.000000 0.000000 
#    y 0.000000 3.224150 0.000000 
#    z 0.000000 0.000000 3.212980 
# 
# 
# High freq. dielectric constant tensor:
#      x y z
#    x 1.556930 0.000000 0.000000 
#    y 0.000000 1.623670 0.000000 
#    z 0.000000 0.000000 1.616930 
# 
# From -- ./inp_files/32869.got.cif
#   From: 2010.03.12/outbox.cif.g09.slc.cpg/sg53_17_cif.got.tgz:32869.got - 2010.04.16 14:36:59.
