data_PCOD8217417
_publ_section_title
;
Structure prediction by ZEFSAII (Michael W. Deem and Ramdas Pophale) SiO2 
 PCOD8217417
Probable space group: P N N A
;
_chemical_formula_sum "Si O2"
_cell_formula_units_Z 40
_cell_length_a 11.639061
_cell_length_b 16.067731
_cell_length_c 9.702310
_cell_angle_alpha 90.000000
_cell_angle_beta 90.000000
_cell_angle_gamma 90.000000
_cell_volume 1814.461023
_symmetry_space_group_name_H-M "P N N A"
_symmetry_group_IT_number 52
_symmetry_cell_setting 'orthorhombic'
loop_
_space_group_symop_operation_xyz
x,y,z
1/2-x,-y,z
x,1/2-y,1/2-z
1/2-x,1/2+y,1/2-z
-x,-y,-z
1/2+x,y,-z
-x,1/2+y,1/2+z
1/2+x,1/2-y,1/2+z
loop_
_atom_site_type_symbol
_atom_site_label
_atom_site_fract_x
_atom_site_fract_y
_atom_site_fract_z
Si Si1 0.217338 0.163618 0.454577
Si Si2 0.815887 0.912932 0.258725
Si Si3 0.050127 0.547513 0.373004
Si Si4 0.750000 0.500000 0.798777
Si Si5 0.849930 0.317477 0.443034
Si Si6 0.459883 0.750000 0.250000
O O1 0.168687 0.137801 0.601685
O O2 0.315638 0.230953 0.485680
O O3 0.117514 0.197597 0.355367
O O4 0.274652 0.082219 0.387937
O O5 0.755184 0.857166 0.142073
O O6 0.947294 0.927039 0.224082
O O7 0.750000 0.000000 0.277733
O O8 0.136789 0.486130 0.293393
O O9 0.120852 0.626673 0.425690
O O10 0.000000 0.500000 0.500000
O O11 0.958503 0.310013 0.340454
#
# Coordination Sequence:
#
# PCOD8217417 Si02
#       6
#     8   8   8   4   8   4
#     4  12  27  48  72 109 149 193 255 307 383 448
#     4  12  25  47  77 108 149 201 246 311 379 453
#     4  12  25  45  77 106 149 191 256 302 380 453
#     4  12  28  46  74 108 142 198 248 312 368 452
#     4  12  25  49  73 108 148 198 246 314 374 454
#     4  12  26  46  76 102 154 196 244 312 384 450
#
# _framework density 22.045114000000002
#
# number of rings (size 3 to 8) (size 9 to 14) (size 15 to 20)
#    0.000    0.000    5.000    4.800    2.800    0.800 
#    0.000    0.000    0.000    0.000    0.000    0.000 
#    0.000    0.000    0.000    0.000    0.000    0.000 
#
# Total GULP energy -496144.806304 kJ/mol
# GULP energy per Si atom -12403.620158 kJ/mol
# Density = 2.199494 g / cm^3
# Si number density = 22.045114 Si / 1000 Ang^3
#
#
#
# Elastic Constant Matrix: (Units=GPa)
#
#
# Indices 1 2 3 4 5 6 
#
# 1 140.2518 49.7106 69.8480 0.0000 0.0000 0.0000
# 2 49.7106 134.8637 59.2345 0.0000 0.0000 0.0000
# 3 69.8480 59.2345 99.6593 0.0000 0.0000 0.0000
# 4 0.0000 0.0000 0.0000 57.6289 0.0000 0.0000
# 5 0.0000 0.0000 0.0000 0.0000 1.9327 0.0000
# 6 0.0000 0.0000 0.0000 0.0000 0.0000 42.7752
#
#
#
# Elastic Compliance Matrix: (Units=1/GPa)
#
#
# Indices 1 2 3 4 5 6 
#
# 1 0.011035 -0.000907 -0.007194 0.000000 0.000000 0.000000
# 2 -0.000907 0.010109 -0.005373 0.000000 0.000000 0.000000
# 3 -0.007194 -0.005373 0.018270 0.000000 0.000000 0.000000
# 4 0.000000 0.000000 0.000000 0.017352 0.000000 0.000000
# 5 0.000000 0.000000 0.000000 0.000000 0.517410 0.000000
# 6 0.000000 0.000000 0.000000 0.000000 0.000000 0.023378
#
#
# Mechanical properties :
#
#
# Convention : Reuss Voigt Hill
#
# Bulk Modulus (GPa) = 80.22678 81.37345 80.80011
# Shear Modulus (GPa) = 7.95346 33.53280 20.74313
#
# Velocity S-wave (km/s) = 1.90148 3.90436 3.07080
# Velocity P-wave (km/s) = 6.42588 7.57085 7.02174
#
# Compressibility (1/GPa) = 0.01246467
#
# Stress axis : x y z
#
# Youngs Moduli (GPa) = 90.62370 98.92097 54.73502
#
# Poissons Ratio (x) = 0.08976 0.39379
# Poissons Ratio (y) = 0.08223 0.29407
# Poissons Ratio (z) = 0.65199 0.53146
#
# Static dielectric constant tensor:
#      x y z
#    x 3.945250 0.000000 0.000000 
#    y 0.000000 4.100500 0.000000 
#    z 0.000000 0.000000 4.164280 
# 
# 
# High freq. dielectric constant tensor:
#      x y z
#    x 1.871990 0.000000 0.000000 
#    y 0.000000 1.880080 0.000000 
#    z 0.000000 0.000000 1.888180 
# 
# From -- ./inp_files/8559.got.cif
#   From: 2010.06.25/outbox.cif.g09.slc.cpg/sg52_5_cif.got.tgz:8559.got - 2010.06.26 19:32:48.
