data_PCOD8217069
_publ_section_title
;
Structure prediction by ZEFSAII (Michael W. Deem and Ramdas Pophale) SiO2 
 PCOD8217069
Probable space group: P N N A
;
_chemical_formula_sum "Si O2"
_cell_formula_units_Z 48
_cell_length_a 16.595035
_cell_length_b 14.830533
_cell_length_c 10.243453
_cell_angle_alpha 90.000000
_cell_angle_beta 90.000000
_cell_angle_gamma 90.000000
_cell_volume 2521.049142
_symmetry_space_group_name_H-M "P N N A"
_symmetry_group_IT_number 52
_symmetry_cell_setting 'orthorhombic'
loop_
_space_group_symop_operation_xyz
x,y,z
1/2-x,-y,z
x,1/2-y,1/2-z
1/2-x,1/2+y,1/2-z
-x,-y,-z
1/2+x,y,-z
-x,1/2+y,1/2+z
1/2+x,1/2-y,1/2+z
loop_
_atom_site_type_symbol
_atom_site_label
_atom_site_fract_x
_atom_site_fract_y
_atom_site_fract_z
Si Si1 0.200704 0.409743 0.514840
Si Si2 0.950706 0.006326 0.631919
Si Si3 0.198931 0.409578 0.221794
Si Si4 0.849050 0.313587 0.867758
Si Si5 0.343176 0.196682 0.883846
Si Si6 0.440852 0.012857 0.881069
O O1 0.250000 0.500000 0.492763
O O2 0.178508 0.374673 0.368856
O O3 0.251707 0.335232 0.592262
O O4 0.124309 0.432978 0.604335
O O5 0.904114 0.099385 0.640984
O O6 0.015106 0.001005 0.745951
O O7 0.885114 0.925465 0.644836
O O8 0.000000 0.000000 0.500000
O O9 0.250000 0.500000 0.230560
O O10 0.253678 0.337031 0.144884
O O11 0.875910 0.250000 0.750000
O O12 0.868506 0.264848 0.002737
O O13 0.349290 0.250000 0.750000
O O14 0.402696 0.112016 0.884669
O O15 0.500000 0.000000 0.000000
#
# Coordination Sequence:
#
# PCOD8217069 Si02
#       6
#     8   8   8   8   8   8
#     4   9  18  36  61  83 108 157 206 232 283 371
#     4  11  23  39  60  91 126 159 194 246 311 363
#     4   9  18  36  61  83 109 155 205 234 280 370
#     4  11  21  39  64  87 115 158 209 254 292 350
#     4  11  23  39  59  91 123 153 202 266 307 338
#     4  11  21  39  65  86 119 168 203 236 300 387
#
# _framework density 19.039693
#
# number of rings (size 3 to 8) (size 9 to 14) (size 15 to 20)
#    0.000    1.667    3.333    2.000    0.000    1.333 
#    0.000   15.000    0.000    0.000    0.000    0.000 
#    0.000    0.000    0.000    0.000    0.000    0.000 
#
# Total GULP energy -595112.891637 kJ/mol
# GULP energy per Si atom -12398.185242 kJ/mol
# Density = 1.899636 g / cm^3
# Si number density = 19.039693 Si / 1000 Ang^3
#
#
#
# Elastic Constant Matrix: (Units=GPa)
#
#
# Indices 1 2 3 4 5 6 
#
# 1 129.6209 47.0500 72.1892 0.0000 0.0000 0.0000
# 2 47.0500 89.6548 53.1123 0.0000 0.0000 0.0000
# 3 72.1892 53.1123 173.9470 0.0000 0.0000 0.0000
# 4 0.0000 0.0000 0.0000 32.3934 0.0000 0.0000
# 5 0.0000 0.0000 0.0000 0.0000 43.1088 0.0000
# 6 0.0000 0.0000 0.0000 0.0000 0.0000 34.5781
#
#
#
# Elastic Compliance Matrix: (Units=1/GPa)
#
#
# Indices 1 2 3 4 5 6 
#
# 1 0.010971 -0.003736 -0.003412 0.000000 0.000000 0.000000
# 2 -0.003736 0.014889 -0.002996 0.000000 0.000000 0.000000
# 3 -0.003412 -0.002996 0.008080 0.000000 0.000000 0.000000
# 4 0.000000 0.000000 0.000000 0.030870 0.000000 0.000000
# 5 0.000000 0.000000 0.000000 0.000000 0.023197 0.000000
# 6 0.000000 0.000000 0.000000 0.000000 0.000000 0.028920
#
#
# Mechanical properties :
#
#
# Convention : Reuss Voigt Hill
#
# Bulk Modulus (GPa) = 73.24997 81.99175 77.62086
# Shear Modulus (GPa) = 35.26906 36.74081 36.00494
#
# Velocity S-wave (km/s) = 4.30862 4.39760 4.35333
# Velocity P-wave (km/s) = 7.95663 8.30314 8.13173
#
# Compressibility (1/GPa) = 0.01365188
#
# Stress axis : x y z
#
# Youngs Moduli (GPa) = 91.14581 67.16242 123.76609
#
# Poissons Ratio (x) = 0.25093 0.42234
# Poissons Ratio (y) = 0.34053 0.37077
# Poissons Ratio (z) = 0.31103 0.20120
#
# Static dielectric constant tensor:
#      x y z
#    x 3.795970 0.000000 0.000000 
#    y 0.000000 3.316620 0.000000 
#    z 0.000000 0.000000 3.512470 
# 
# 
# High freq. dielectric constant tensor:
#      x y z
#    x 1.742580 0.000000 0.000000 
#    y 0.000000 1.736280 0.000000 
#    z 0.000000 0.000000 1.744650 
# 
# From -- ./inp_files/12043.got.cif
#   From: 2010.06.25/outbox.cif.g09.slc.cpg/sg52_7_cif.got.tgz:12043.got - 2010.06.26 19:32:48.
