data_PCOD8217123
_publ_section_title
;
Structure prediction by ZEFSAII (Michael W. Deem and Ramdas Pophale) SiO2 
 PCOD8217123
Probable space group: P N N A
;
_chemical_formula_sum "Si O2"
_cell_formula_units_Z 28
_cell_length_a 7.675872
_cell_length_b 12.552893
_cell_length_c 13.875486
_cell_angle_alpha 90.000000
_cell_angle_beta 90.000000
_cell_angle_gamma 90.000000
_cell_volume 1336.964127
_symmetry_space_group_name_H-M "P N N A"
_symmetry_group_IT_number 52
_symmetry_cell_setting 'orthorhombic'
loop_
_space_group_symop_operation_xyz
x,y,z
1/2-x,-y,z
x,1/2-y,1/2-z
1/2-x,1/2+y,1/2-z
-x,-y,-z
1/2+x,y,-z
-x,1/2+y,1/2+z
1/2+x,1/2-y,1/2+z
loop_
_atom_site_type_symbol
_atom_site_label
_atom_site_fract_x
_atom_site_fract_y
_atom_site_fract_z
Si Si1 0.319022 0.205868 0.893036
Si Si2 0.598307 0.585992 0.212514
Si Si3 0.750000 0.500000 0.731561
Si Si4 0.462798 0.103036 0.068836
O O1 0.338430 0.329914 0.867314
O O2 0.431567 0.137400 0.817896
O O3 0.128233 0.156455 0.881896
O O4 0.379741 0.193700 0.002229
O O5 0.750000 0.500000 0.214863
O O6 0.402364 0.541187 0.195533
O O7 0.665646 0.585338 0.658260
O O8 0.500000 0.000000 0.000000
#
# Coordination Sequence:
#
# PCOD8217123 Si02
#       4
#     8   8   4   8
#     4  11  22  39  65  96 133 164 223 273 332 383
#     4  11  23  43  60  95 135 171 211 279 329 403
#     4  12  22  40  74  90 130 172 222 264 338 378
#     4  12  19  38  68  99 125 167 219 285 316 387
#
# _framework density 20.942971
#
# number of rings (size 3 to 8) (size 9 to 14) (size 15 to 20)
#    0.000    0.571    8.571    0.000    0.000    0.000 
#   15.429    1.429    0.000    0.000    0.000    0.000 
#    0.000    0.000    0.000    0.000    0.000    0.000 
#
# Total GULP energy -346936.194727 kJ/mol
# GULP energy per Si atom -12390.578383 kJ/mol
# Density = 2.089530 g / cm^3
# Si number density = 20.942971 Si / 1000 Ang^3
#
#
#
# Elastic Constant Matrix: (Units=GPa)
#
#
# Indices 1 2 3 4 5 6 
#
# 1 133.6114 43.1861 31.0326 0.0000 0.0000 0.0000
# 2 43.1861 110.3213 45.3451 0.0000 0.0000 0.0000
# 3 31.0326 45.3451 54.5312 0.0000 0.0000 0.0000
# 4 0.0000 0.0000 0.0000 35.3843 0.0000 0.0000
# 5 0.0000 0.0000 0.0000 0.0000 16.1383 0.0000
# 6 0.0000 0.0000 0.0000 0.0000 0.0000 31.4802
#
#
#
# Elastic Compliance Matrix: (Units=1/GPa)
#
#
# Indices 1 2 3 4 5 6 
#
# 1 0.008945 -0.002141 -0.003310 0.000000 0.000000 0.000000
# 2 -0.002141 0.014284 -0.010659 0.000000 0.000000 0.000000
# 3 -0.003310 -0.010659 0.029085 0.000000 0.000000 0.000000
# 4 0.000000 0.000000 0.000000 0.028261 0.000000 0.000000
# 5 0.000000 0.000000 0.000000 0.000000 0.061964 0.000000
# 6 0.000000 0.000000 0.000000 0.000000 0.000000 0.031766
#
#
# Mechanical properties :
#
#
# Convention : Reuss Voigt Hill
#
# Bulk Modulus (GPa) = 49.76690 59.73238 54.74964
# Shear Modulus (GPa) = 23.44946 28.52724 25.98835
#
# Velocity S-wave (km/s) = 3.34979 3.69472 3.52648
# Velocity P-wave (km/s) = 6.22705 6.83993 6.54067
#
# Compressibility (1/GPa) = 0.02009368
#
# Stress axis : x y z
#
# Youngs Moduli (GPa) = 111.79102 70.00947 34.38153
#
# Poissons Ratio (x) = 0.14990 0.11381
# Poissons Ratio (y) = 0.23936 0.36648
# Poissons Ratio (z) = 0.37004 0.74624
#
# Static dielectric constant tensor:
#      x y z
#    x 4.041290 0.000000 0.000000 
#    y 0.000000 3.692550 0.000000 
#    z 0.000000 0.000000 3.608440 
# 
# 
# High freq. dielectric constant tensor:
#      x y z
#    x 1.839730 0.000000 0.000000 
#    y 0.000000 1.801700 0.000000 
#    z 0.000000 0.000000 1.795450 
# 
# From -- ./inp_files/23987.got.cif
#   From: 2010.06.25/outbox.cif.g09.slc.cpg/sg52_12_cif.got.tgz:23987.got - 2010.06.26 19:32:48.
