data_PCOD8217171
_publ_section_title
;
Structure prediction by ZEFSAII (Michael W. Deem and Ramdas Pophale) SiO2 
 PCOD8217171
Probable space group: P N N A
;
_chemical_formula_sum "Si O2"
_cell_formula_units_Z 32
_cell_length_a 10.440892
_cell_length_b 6.808180
_cell_length_c 21.197512
_cell_angle_alpha 90.000000
_cell_angle_beta 90.000000
_cell_angle_gamma 90.000000
_cell_volume 1506.792753
_symmetry_space_group_name_H-M "P N N A"
_symmetry_group_IT_number 52
_symmetry_cell_setting 'orthorhombic'
loop_
_space_group_symop_operation_xyz
x,y,z
1/2-x,-y,z
x,1/2-y,1/2-z
1/2-x,1/2+y,1/2-z
-x,-y,-z
1/2+x,y,-z
-x,1/2+y,1/2+z
1/2+x,1/2-y,1/2+z
loop_
_atom_site_type_symbol
_atom_site_label
_atom_site_fract_x
_atom_site_fract_y
_atom_site_fract_z
Si Si1 0.439227 0.250000 0.250000
Si Si2 0.750000 0.500000 0.668794
Si Si3 0.886070 0.536779 0.149796
Si Si4 0.451287 0.690774 0.412869
Si Si5 0.130589 0.357248 0.548797
O O1 0.354988 0.403571 0.287315
O O2 0.523235 0.370947 0.201351
O O3 0.679763 0.334469 0.626642
O O4 0.750000 0.500000 0.184605
O O5 0.837922 0.680651 0.094743
O O6 0.956635 0.349241 0.119537
O O7 0.415473 0.747987 0.484394
O O8 0.519135 0.479182 0.416708
O O9 0.250000 0.500000 0.535108
#
# Coordination Sequence:
#
# PCOD8217171 Si02
#       5
#     4   4   8   8   8
#     4  12  28  46  68 102 140 192 242 274 344 420
#     4  12  24  48  68  98 140 184 232 296 340 418
#     4  12  26  45  71 103 140 185 235 289 345 419
#     4  11  24  43  74 103 137 181 229 293 358 412
#     4  11  22  45  70 106 142 175 231 291 358 419
#
# _framework density 21.237162000000001
#
# number of rings (size 3 to 8) (size 9 to 14) (size 15 to 20)
#    0.000    0.500    6.250    2.250    0.000    3.000 
#    4.500    0.000    0.000    0.000    0.000    0.000 
#    0.000    0.000    0.000    0.000    0.000    0.000 
#
# Total GULP energy -396801.500705 kJ/mol
# GULP energy per Si atom -12400.046897 kJ/mol
# Density = 2.118883 g / cm^3
# Si number density = 21.237162 Si / 1000 Ang^3
#
#
#
# Elastic Constant Matrix: (Units=GPa)
#
#
# Indices 1 2 3 4 5 6 
#
# 1 156.2678 52.7229 70.7240 0.0000 0.0000 0.0000
# 2 52.7229 83.0783 65.1429 0.0000 0.0000 0.0000
# 3 70.7240 65.1429 119.2942 0.0000 0.0000 0.0000
# 4 0.0000 0.0000 0.0000 35.4592 0.0000 0.0000
# 5 0.0000 0.0000 0.0000 0.0000 50.3862 0.0000
# 6 0.0000 0.0000 0.0000 0.0000 0.0000 42.3114
#
#
#
# Elastic Compliance Matrix: (Units=1/GPa)
#
#
# Indices 1 2 3 4 5 6 
#
# 1 0.009078 -0.002695 -0.003910 0.000000 0.000000 0.000000
# 2 -0.002695 0.021850 -0.010334 0.000000 0.000000 0.000000
# 3 -0.003910 -0.010334 0.016344 0.000000 0.000000 0.000000
# 4 0.000000 0.000000 0.000000 0.028201 0.000000 0.000000
# 5 0.000000 0.000000 0.000000 0.000000 0.019847 0.000000
# 6 0.000000 0.000000 0.000000 0.000000 0.000000 0.023634
#
#
# Mechanical properties :
#
#
# Convention : Reuss Voigt Hill
#
# Bulk Modulus (GPa) = 74.66219 81.75774 78.20996
# Shear Modulus (GPa) = 31.78676 36.96806 34.37741
#
# Velocity S-wave (km/s) = 3.87298 4.17673 4.02772
# Velocity P-wave (km/s) = 7.43187 7.86391 7.65094
#
# Compressibility (1/GPa) = 0.01339366
#
# Stress axis : x y z
#
# Youngs Moduli (GPa) = 110.15233 45.76637 61.18458
#
# Poissons Ratio (x) = 0.12334 0.23926
# Poissons Ratio (y) = 0.29686 0.63228
# Poissons Ratio (z) = 0.43075 0.47295
#
# Static dielectric constant tensor:
#      x y z
#    x 3.975610 0.000000 0.000000 
#    y 0.000000 3.696100 0.000000 
#    z 0.000000 0.000000 3.999970 
# 
# 
# High freq. dielectric constant tensor:
#      x y z
#    x 1.856810 0.000000 0.000000 
#    y 0.000000 1.827510 0.000000 
#    z 0.000000 0.000000 1.843910 
# 
# From -- ./inp_files/31905.got.cif
#   From: 2010.06.25/outbox.cif.g09.slc.cpg/sg52_16_cif.got.tgz:31905.got - 2010.06.26 19:32:48.
