data_PCOD8217007
_publ_section_title
;
Structure prediction by ZEFSAII (Michael W. Deem and Ramdas Pophale) SiO2 
 PCOD8217007
Probable space group: P N N A
;
_chemical_formula_sum "Si O2"
_cell_formula_units_Z 48
_cell_length_a 16.010817
_cell_length_b 8.897926
_cell_length_c 17.910882
_cell_angle_alpha 90.000000
_cell_angle_beta 90.000000
_cell_angle_gamma 90.000000
_cell_volume 2551.639144
_symmetry_space_group_name_H-M "P N N A"
_symmetry_group_IT_number 52
_symmetry_cell_setting 'orthorhombic'
loop_
_space_group_symop_operation_xyz
x,y,z
1/2-x,-y,z
x,1/2-y,1/2-z
1/2-x,1/2+y,1/2-z
-x,-y,-z
1/2+x,y,-z
-x,1/2+y,1/2+z
1/2+x,1/2-y,1/2+z
loop_
_atom_site_type_symbol
_atom_site_label
_atom_site_fract_x
_atom_site_fract_y
_atom_site_fract_z
Si Si1 0.167058 0.360030 0.608981
Si Si2 0.549559 0.869895 0.081153
Si Si3 0.750000 0.500000 0.260833
Si Si4 0.417168 0.097035 0.086141
Si Si5 0.524308 0.186586 0.329124
Si Si6 0.750000 0.500000 0.522986
Si Si7 0.416335 0.125774 0.689904
O O1 0.120774 0.519743 0.610766
O O2 0.224466 0.361219 0.683756
O O3 0.100410 0.224476 0.612911
O O4 0.217794 0.362009 0.530365
O O5 0.576366 0.706953 0.110449
O O6 0.461818 0.940328 0.111184
O O7 0.543412 0.854292 0.992563
O O8 0.674857 0.556086 0.207540
O O9 0.438371 0.233691 0.143244
O O10 0.318799 0.068913 0.078582
O O11 0.552028 0.250000 0.250000
O O12 0.515689 0.008037 0.318149
O O13 0.445165 0.250000 0.750000
#
# Coordination Sequence:
#
# PCOD8217007 Si02
#       7
#     8   8   4   8   8   4   8
#     4   9  18  33  55  86 121 149 184 225 296 358
#     4   9  18  36  54  79 113 158 193 229 280 358
#     4  11  20  30  52  82 129 144 182 230 285 366
#     4   9  19  37  59  80 108 149 203 242 286 345
#     4  11  21  36  56  84 118 155 190 237 291 358
#     4   9  18  34  68  86 107 150 196 250 291 342
#     4  12  23  32  51  83 121 162 191 228 288 354
#
# _framework density 18.811436
#
# number of rings (size 3 to 8) (size 9 to 14) (size 15 to 20)
#    0.000    2.000    3.333    2.000    2.333    0.667 
#    0.000    0.000    0.000    8.000    0.000    0.000 
#    0.000    0.000    0.000    0.000    0.000    0.000 
#
# Total GULP energy -594681.233271 kJ/mol
# GULP energy per Si atom -12389.192360 kJ/mol
# Density = 1.876862 g / cm^3
# Si number density = 18.811436 Si / 1000 Ang^3
#
#
#
# Elastic Constant Matrix: (Units=GPa)
#
#
# Indices 1 2 3 4 5 6 
#
# 1 106.5218 35.3621 31.6557 0.0000 0.0000 0.0000
# 2 35.3621 107.7014 29.9954 0.0000 0.0000 0.0000
# 3 31.6557 29.9954 50.3105 0.0000 0.0000 0.0000
# 4 0.0000 0.0000 0.0000 30.3586 0.0000 0.0000
# 5 0.0000 0.0000 0.0000 0.0000 25.7136 0.0000
# 6 0.0000 0.0000 0.0000 0.0000 0.0000 21.1978
#
#
#
# Elastic Compliance Matrix: (Units=1/GPa)
#
#
# Indices 1 2 3 4 5 6 
#
# 1 0.011965 -0.002197 -0.006219 0.000000 0.000000 0.000000
# 2 -0.002197 0.011537 -0.005496 0.000000 0.000000 0.000000
# 3 -0.006219 -0.005496 0.027066 0.000000 0.000000 0.000000
# 4 0.000000 0.000000 0.000000 0.032940 0.000000 0.000000
# 5 0.000000 0.000000 0.000000 0.000000 0.038890 0.000000
# 6 0.000000 0.000000 0.000000 0.000000 0.000000 0.047175
#
#
# Mechanical properties :
#
#
# Convention : Reuss Voigt Hill
#
# Bulk Modulus (GPa) = 43.96581 50.95113 47.45847
# Shear Modulus (GPa) = 24.39291 26.62204 25.50747
#
# Velocity S-wave (km/s) = 3.60489 3.76600 3.68633
# Velocity P-wave (km/s) = 6.38354 6.78634 6.58802
#
# Compressibility (1/GPa) = 0.02274494
#
# Stress axis : x y z
#
# Youngs Moduli (GPa) = 83.57687 86.67861 36.94615
#
# Poissons Ratio (x) = 0.19039 0.22976
# Poissons Ratio (y) = 0.18358 0.20307
# Poissons Ratio (z) = 0.51975 0.47641
#
# Static dielectric constant tensor:
#      x y z
#    x 3.429030 0.000000 0.000000 
#    y 0.000000 3.492230 0.000000 
#    z 0.000000 0.000000 3.516570 
# 
# 
# High freq. dielectric constant tensor:
#      x y z
#    x 1.710510 0.000000 0.000000 
#    y 0.000000 1.709040 0.000000 
#    z 0.000000 0.000000 1.716190 
# 
# From -- ./inp_files/33686.got.cif
#   From: 2010.06.25/outbox.cif.g09.slc.cpg/sg52_17_cif.got.tgz:33686.got - 2010.06.26 19:32:48.
