data_PCOD8217709
_publ_section_title
;
Structure prediction by ZEFSAII (Michael W. Deem and Ramdas Pophale) SiO2 
 PCOD8217709
Probable space group: P M N A
;
_chemical_formula_sum "Si O2"
_cell_formula_units_Z 64
_cell_length_a 9.104742
_cell_length_b 21.372799
_cell_length_c 18.150809
_cell_angle_alpha 90.000000
_cell_angle_beta 90.000000
_cell_angle_gamma 90.000000
_cell_volume 3532.035272
_symmetry_space_group_name_H-M "P M N A"
_symmetry_group_IT_number 53
_symmetry_cell_setting 'orthorhombic'
loop_
_space_group_symop_operation_xyz
x,y,z
1/2-x,-y,1/2+z
x,-y,-z
1/2-x,y,1/2-z
-x,-y,-z
1/2+x,y,1/2-z
-x,y,z
1/2+x,-y,1/2+z
loop_
_atom_site_type_symbol
_atom_site_label
_atom_site_fract_x
_atom_site_fract_y
_atom_site_fract_z
Si Si1 0.837740 0.999580 0.587787
Si Si2 0.674403 0.617383 0.325736
Si Si3 0.670750 0.567212 0.034428
Si Si4 0.172797 0.879464 0.915439
Si Si5 0.667612 0.674576 0.541127
Si Si6 0.665915 0.747318 0.393791
Si Si7 0.171529 0.760037 0.825494
Si Si8 0.672762 0.135464 0.929702
O O1 0.790671 0.069887 0.612257
O O2 0.000000 0.983270 0.618461
O O3 0.841198 0.000000 0.500000
O O4 0.724583 0.947006 0.616046
O O5 0.750000 0.596667 0.250000
O O6 0.500000 0.607689 0.321770
O O7 0.737355 0.573632 0.390322
O O8 0.715180 0.689703 0.342121
O O9 0.500000 0.578338 0.051935
O O10 0.700774 0.500000 0.000000
O O11 0.724050 0.617278 0.974182
O O12 0.219170 0.827916 0.855557
O O13 0.000000 0.880520 0.929555
O O14 0.249192 0.862284 0.991671
O O15 0.500000 0.649718 0.543735
O O16 0.680881 0.727209 0.478564
O O17 0.716740 0.706025 0.617235
O O18 0.500000 0.767204 0.375371
O O19 0.769688 0.807212 0.379448
O O20 0.250000 0.744437 0.750000
O O21 0.000000 0.758873 0.811160
O O22 0.500000 0.141941 0.942897
#
# Coordination Sequence:
#
# PCOD8217709 Si02
#       8
#     8   8   8   8   8   8   8   8
#     4   8  16  28  40  63  95 123 159 207 258 312
#     4  10  21  37  58  84 115 147 180 220 265 314
#     4  10  21  37  59  88 117 145 182 220 255 307
#     4  10  18  30  46  65  94 128 167 217 267 318
#     4   9  18  35  54  75 106 138 173 219 264 309
#     4   9  17  31  51  75 104 135 169 213 261 310
#     4  10  21  35  50  72 101 134 176 224 270 321
#     4  10  18  27  44  71 100 129 165 212 263 315
#
# _framework density 18.119862999999999
#
# number of rings (size 3 to 8) (size 9 to 14) (size 15 to 20)
#    0.000    2.500    1.250    3.000    0.000    7.750 
#    0.000    0.625    0.000    2.250    0.000    0.000 
#    0.000    0.000    0.000    0.000    0.000    0.000 
#
# Total GULP energy -793486.944112 kJ/mol
# GULP energy per Si atom -12398.233502 kJ/mol
# Density = 1.807862 g / cm^3
# Si number density = 18.119863 Si / 1000 Ang^3
#
#
#
# Elastic Constant Matrix: (Units=GPa)
#
#
# Indices 1 2 3 4 5 6 
#
# 1 92.4724 61.8909 43.3240 0.0000 0.0000 0.0000
# 2 61.8909 115.9657 41.7039 0.0000 0.0000 0.0000
# 3 43.3240 41.7039 91.1375 0.0000 0.0000 0.0000
# 4 0.0000 0.0000 0.0000 15.6400 0.0000 0.0000
# 5 0.0000 0.0000 0.0000 0.0000 25.4991 0.0000
# 6 0.0000 0.0000 0.0000 0.0000 0.0000 33.1337
#
#
#
# Elastic Compliance Matrix: (Units=1/GPa)
#
#
# Indices 1 2 3 4 5 6 
#
# 1 0.018652 -0.008099 -0.005161 0.000000 0.000000 0.000000
# 2 -0.008099 0.013838 -0.002482 0.000000 0.000000 0.000000
# 3 -0.005161 -0.002482 0.014562 0.000000 0.000000 0.000000
# 4 0.000000 0.000000 0.000000 0.063939 0.000000 0.000000
# 5 0.000000 0.000000 0.000000 0.000000 0.039217 0.000000
# 6 0.000000 0.000000 0.000000 0.000000 0.000000 0.030181
#
#
# Mechanical properties :
#
#
# Convention : Reuss Voigt Hill
#
# Bulk Modulus (GPa) = 64.23306 65.93478 65.08392
# Shear Modulus (GPa) = 23.03484 25.03167 24.03326
#
# Velocity S-wave (km/s) = 3.56932 3.72082 3.64586
# Velocity P-wave (km/s) = 7.24657 7.41124 7.32936
#
# Compressibility (1/GPa) = 0.01556831
#
# Stress axis : x y z
#
# Youngs Moduli (GPa) = 53.61241 72.26313 68.67355
#
# Poissons Ratio (x) = 0.58525 0.35441
# Poissons Ratio (y) = 0.43420 0.17047
# Poissons Ratio (z) = 0.27668 0.17938
#
# Static dielectric constant tensor:
#      x y z
#    x 3.374970 0.000000 0.000000 
#    y 0.000000 3.546270 0.000000 
#    z 0.000000 0.000000 3.028770 
# 
# 
# High freq. dielectric constant tensor:
#      x y z
#    x 1.707340 0.000000 0.000000 
#    y 0.000000 1.704760 0.000000 
#    z 0.000000 0.000000 1.665280 
# 
# From -- ./inp_files/27011.got.cif
#   From: 2010.03.12/outbox.cif.g09.slc.cpg/sg53_14_cif.got.tgz:27011.got - 2010.04.16 14:36:59.
