data_PCOD8217878
_publ_section_title
;
Structure prediction by ZEFSAII (Michael W. Deem and Ramdas Pophale) SiO2 
 PCOD8217878
Probable space group: P M N A
;
_chemical_formula_sum "Si O2"
_cell_formula_units_Z 64
_cell_length_a 9.289592
_cell_length_b 17.083691
_cell_length_c 26.573616
_cell_angle_alpha 90.000000
_cell_angle_beta 90.000000
_cell_angle_gamma 90.000000
_cell_volume 4217.246657
_symmetry_space_group_name_H-M "P M N A"
_symmetry_group_IT_number 53
_symmetry_cell_setting 'orthorhombic'
loop_
_space_group_symop_operation_xyz
x,y,z
1/2-x,-y,1/2+z
x,-y,-z
1/2-x,y,1/2-z
-x,-y,-z
1/2+x,y,1/2-z
-x,y,z
1/2+x,-y,1/2+z
loop_
_atom_site_type_symbol
_atom_site_label
_atom_site_fract_x
_atom_site_fract_y
_atom_site_fract_z
Si Si1 0.834906 0.487324 0.892812
Si Si2 0.664663 0.660102 0.449279
Si Si3 0.164572 0.410245 0.199007
Si Si4 0.337528 0.018969 0.941366
Si Si5 0.328733 0.392834 0.044340
Si Si6 0.163875 0.126510 0.075462
Si Si7 0.334330 0.835096 0.461541
Si Si8 0.335250 0.286380 0.381790
O O1 0.821191 0.392879 0.898420
O O2 0.785705 0.518941 0.838075
O O3 0.736787 0.526003 0.935765
O O4 0.000000 0.514611 0.901414
O O5 0.500000 0.657167 0.469770
O O6 0.773395 0.622315 0.488545
O O7 0.706437 0.750196 0.438707
O O8 0.250000 0.415773 0.250000
O O9 0.191961 0.325655 0.172651
O O10 0.000000 0.420574 0.213926
O O11 0.500000 0.026102 0.922043
O O12 0.258548 0.101096 0.931150
O O13 0.262237 0.948050 0.911361
O O14 0.327821 0.000000 0.000000
O O15 0.500000 0.398127 0.044401
O O16 0.276609 0.321944 0.079073
O O17 0.190627 0.192721 0.118227
O O18 0.000000 0.096913 0.075772
O O19 0.201541 0.163944 0.021043
O O20 0.500000 0.855847 0.452059
O O21 0.500000 0.303599 0.399234
#
# Coordination Sequence:
#
# PCOD8217878 Si02
#       8
#     8   8   8   8   8   8   8   8
#     4   9  19  33  47  60  79 111 148 178 210 257
#     4  10  18  30  45  59  80 114 151 182 210 247
#     4   9  18  32  49  66  85 109 138 175 219 263
#     4   9  17  26  36  54  83 114 141 170 208 248
#     4  11  20  27  39  61  89 114 140 177 218 254
#     4   9  15  26  43  59  78 106 146 183 203 236
#     4   9  16  26  41  58  77 109 149 180 207 238
#     4   9  17  31  47  63  83 113 150 180 211 254
#
# _framework density 15.175777999999999
#
# number of rings (size 3 to 8) (size 9 to 14) (size 15 to 20)
#    0.000    2.625    1.250    2.625    0.000    6.500 
#    0.000    0.000    0.000    0.000    0.000    0.000 
#    0.000    1.000    0.000    3.750    0.000    2.875 
#
# Total GULP energy -793246.439940 kJ/mol
# GULP energy per Si atom -12394.475624 kJ/mol
# Density = 1.514124 g / cm^3
# Si number density = 15.175778 Si / 1000 Ang^3
#
#
#
# Elastic Constant Matrix: (Units=GPa)
#
#
# Indices 1 2 3 4 5 6 
#
# 1 81.2559 56.3777 31.3017 0.0000 0.0000 0.0000
# 2 56.3777 139.0508 47.3366 0.0000 0.0000 0.0000
# 3 31.3017 47.3366 54.0817 0.0000 0.0000 0.0000
# 4 0.0000 0.0000 0.0000 11.7705 0.0000 0.0000
# 5 0.0000 0.0000 0.0000 0.0000 18.0086 0.0000
# 6 0.0000 0.0000 0.0000 0.0000 0.0000 11.0497
#
#
#
# Elastic Compliance Matrix: (Units=1/GPa)
#
#
# Indices 1 2 3 4 5 6 
#
# 1 0.018337 -0.005444 -0.005848 0.000000 0.000000 0.000000
# 2 -0.005444 0.011860 -0.007230 0.000000 0.000000 0.000000
# 3 -0.005848 -0.007230 0.028204 0.000000 0.000000 0.000000
# 4 0.000000 0.000000 0.000000 0.084958 0.000000 0.000000
# 5 0.000000 0.000000 0.000000 0.000000 0.055529 0.000000
# 6 0.000000 0.000000 0.000000 0.000000 0.000000 0.090500
#
#
# Mechanical properties :
#
#
# Convention : Reuss Voigt Hill
#
# Bulk Modulus (GPa) = 46.82436 60.49113 53.65774
# Shear Modulus (GPa) = 14.99022 17.45725 16.22373
#
# Velocity S-wave (km/s) = 3.14629 3.39534 3.27319
# Velocity P-wave (km/s) = 6.64233 7.43761 7.05119
#
# Compressibility (1/GPa) = 0.02135641
#
# Stress axis : x y z
#
# Youngs Moduli (GPa) = 54.53561 84.31666 35.45608
#
# Poissons Ratio (x) = 0.45899 0.20736
# Poissons Ratio (y) = 0.29687 0.25635
# Poissons Ratio (z) = 0.31894 0.60962
#
# Static dielectric constant tensor:
#      x y z
#    x 2.913120 0.000000 0.000000 
#    y 0.000000 3.088120 0.000000 
#    z 0.000000 0.000000 2.465240 
# 
# 
# High freq. dielectric constant tensor:
#      x y z
#    x 1.583020 0.000000 0.000000 
#    y 0.000000 1.588150 0.000000 
#    z 0.000000 0.000000 1.516520 
# 
# From -- ./inp_files/34473.got.cif
#   From: 2010.03.12/outbox.cif.g09.slc.cpg/sg53_18_cif.got.tgz:34473.got - 2010.04.16 14:36:59.
