data_PCOD8217256
_publ_section_title
;
Structure prediction by ZEFSAII (Michael W. Deem and Ramdas Pophale) SiO2 
 PCOD8217256
Probable space group: P N N A
;
_chemical_formula_sum "Si O2"
_cell_formula_units_Z 32
_cell_length_a 18.412234
_cell_length_b 5.316245
_cell_length_c 13.219140
_cell_angle_alpha 90.000000
_cell_angle_beta 90.000000
_cell_angle_gamma 90.000000
_cell_volume 1293.941598
_symmetry_space_group_name_H-M "P N N A"
_symmetry_group_IT_number 52
_symmetry_cell_setting 'orthorhombic'
loop_
_space_group_symop_operation_xyz
x,y,z
1/2-x,-y,z
x,1/2-y,1/2-z
1/2-x,1/2+y,1/2-z
-x,-y,-z
1/2+x,y,-z
-x,1/2+y,1/2+z
1/2+x,1/2-y,1/2+z
loop_
_atom_site_type_symbol
_atom_site_label
_atom_site_fract_x
_atom_site_fract_y
_atom_site_fract_z
Si Si1 0.625798 0.781731 0.633637
Si Si2 0.872571 0.250000 0.250000
Si Si3 0.250000 0.000000 0.870539
Si Si4 0.345075 0.764468 0.018459
Si Si5 0.042606 0.129855 0.642116
O O1 0.646430 0.750000 0.750000
O O2 0.648727 0.522969 0.581151
O O3 0.541962 0.857507 0.618873
O O4 0.668183 0.022462 0.589121
O O5 0.819542 0.451097 0.301249
O O6 0.924514 0.349644 0.158926
O O7 0.224757 0.228214 0.943745
O O8 0.418851 0.753670 0.953502
O O9 0.061783 0.250000 0.750000
#
# Coordination Sequence:
#
# PCOD8217256 Si02
#       5
#     8   4   4   8   8
#     4  11  27  46  76 103 145 189 255 308 355 412
#     4  12  24  46  70 114 150 192 226 302 382 442
#     4  12  26  44  74 102 158 194 244 282 364 460
#     4  12  25  47  70 110 143 200 239 295 360 437
#     4  11  24  42  73 111 148 181 234 307 381 438
#
# _framework density 24.730639
#
# number of rings (size 3 to 8) (size 9 to 14) (size 15 to 20)
#    0.000    0.500    2.500    5.250    7.000    3.000 
#    0.000    2.500    0.000    0.000    0.000    0.000 
#    0.000    0.000    0.000    0.000    0.000    0.000 
#
# Total GULP energy -396637.519223 kJ/mol
# GULP energy per Si atom -12394.922476 kJ/mol
# Density = 2.467435 g / cm^3
# Si number density = 24.730639 Si / 1000 Ang^3
#
#
#
# Elastic Constant Matrix: (Units=GPa)
#
#
# Indices 1 2 3 4 5 6 
#
# 1 50.5401 8.4772 13.3856 0.0000 0.0000 0.0000
# 2 8.4772 148.7167 49.8568 0.0000 0.0000 0.0000
# 3 13.3856 49.8568 112.6056 0.0000 0.0000 0.0000
# 4 0.0000 0.0000 0.0000 46.5848 0.0000 0.0000
# 5 0.0000 0.0000 0.0000 0.0000 30.8353 0.0000
# 6 0.0000 0.0000 0.0000 0.0000 0.0000 25.0788
#
#
#
# Elastic Compliance Matrix: (Units=1/GPa)
#
#
# Indices 1 2 3 4 5 6 
#
# 1 0.020451 -0.000412 -0.002249 0.000000 0.000000 0.000000
# 2 -0.000412 0.007905 -0.003451 0.000000 0.000000 0.000000
# 3 -0.002249 -0.003451 0.010676 0.000000 0.000000 0.000000
# 4 0.000000 0.000000 0.000000 0.021466 0.000000 0.000000
# 5 0.000000 0.000000 0.000000 0.000000 0.032430 0.000000
# 6 0.000000 0.000000 0.000000 0.000000 0.000000 0.039874
#
#
# Mechanical properties :
#
#
# Convention : Reuss Voigt Hill
#
# Bulk Modulus (GPa) = 37.30172 50.58908 43.94540
# Shear Modulus (GPa) = 32.47577 36.50930 34.49253
#
# Velocity S-wave (km/s) = 3.62771 3.84640 3.73866
# Velocity P-wave (km/s) = 5.71516 6.34247 6.03697
#
# Compressibility (1/GPa) = 0.02680841
#
# Stress axis : x y z
#
# Youngs Moduli (GPa) = 48.89761 126.50937 93.67042
#
# Poissons Ratio (x) = 0.05211 0.21063
# Poissons Ratio (y) = 0.02014 0.32324
# Poissons Ratio (z) = 0.10995 0.43656
#
# Static dielectric constant tensor:
#      x y z
#    x 4.386760 0.000000 0.000000 
#    y 0.000000 4.519800 0.000000 
#    z 0.000000 0.000000 5.005880 
# 
# 
# High freq. dielectric constant tensor:
#      x y z
#    x 1.988030 0.000000 0.000000 
#    y 0.000000 1.982800 0.000000 
#    z 0.000000 0.000000 2.002780 
# 
# From -- ./inp_files/27725.got.cif
#   From: 2010.06.25/outbox.cif.g09.slc.cpg/sg52_14_cif.got.tgz:27725.got - 2010.06.26 19:32:48.
