data_PCOD8217802
_publ_section_title
;
Structure prediction by ZEFSAII (Michael W. Deem and Ramdas Pophale) SiO2 
 PCOD8217802
Probable space group: P M N A
;
_chemical_formula_sum "Si O2"
_cell_formula_units_Z 64
_cell_length_a 27.464830
_cell_length_b 9.080825
_cell_length_c 14.492562
_cell_angle_alpha 90.000000
_cell_angle_beta 90.000000
_cell_angle_gamma 90.000000
_cell_volume 3614.493004
_symmetry_space_group_name_H-M "P M N A"
_symmetry_group_IT_number 53
_symmetry_cell_setting 'orthorhombic'
loop_
_space_group_symop_operation_xyz
x,y,z
1/2-x,-y,1/2+z
x,-y,-z
1/2-x,y,1/2-z
-x,-y,-z
1/2+x,y,1/2-z
-x,y,z
1/2+x,-y,1/2+z
loop_
_atom_site_type_symbol
_atom_site_label
_atom_site_fract_x
_atom_site_fract_y
_atom_site_fract_z
Si Si1 0.055816 0.580024 0.407160
Si Si2 0.861477 0.929339 0.270645
Si Si3 0.055229 0.075914 0.594865
Si Si4 0.633203 0.400092 0.761066
Si Si5 0.184495 0.555426 0.896811
Si Si6 0.282691 0.587024 0.089753
Si Si7 0.720363 0.913054 0.082188
Si Si8 0.708882 0.871376 0.671630
O O1 0.075041 0.500000 0.500000
O O2 0.063259 0.752509 0.423261
O O3 0.085930 0.537377 0.315333
O O4 0.000000 0.535921 0.388598
O O5 0.909091 0.984844 0.325670
O O6 0.873525 0.769301 0.225585
O O7 0.815391 0.898434 0.333682
O O8 0.842920 0.059995 0.204981
O O9 0.000000 0.039580 0.625046
O O10 0.069386 0.000000 0.500000
O O11 0.641997 0.502359 0.672338
O O12 0.676771 0.413261 0.833126
O O13 0.234978 0.483134 0.864917
O O14 0.192518 0.730386 0.887574
O O15 0.171253 0.500000 0.000000
O O16 0.266599 0.747693 0.052632
O O17 0.301509 0.500000 0.000000
O O18 0.768953 0.004202 0.105404
O O19 0.693199 0.000000 0.000000
O O20 0.750000 0.832661 0.750000
#
# Coordination Sequence:
#
# PCOD8217802 Si02
#       8
#     8   8   8   8   8   8   8   8
#     4   9  18  32  51  77 104 130 160 192 236 293
#     4   9  19  31  46  69  94 126 161 193 238 288
#     4   9  17  30  48  71 101 130 155 189 231 281
#     4  10  19  33  50  69  99 132 162 201 244 286
#     4  11  22  34  48  68  94 125 167 209 246 288
#     4  10  19  30  47  72  99 131 164 195 239 290
#     4  10  18  29  45  66  97 128 157 193 232 283
#     4  10  20  33  48  67  92 125 163 204 248 290
#
# _framework density 17.706493999999999
#
# number of rings (size 3 to 8) (size 9 to 14) (size 15 to 20)
#    0.000    2.250    0.000    4.125    0.000    4.000 
#    0.000    0.000    0.000    0.375    0.000    0.000 
#    0.000    4.500    0.000    0.000    0.000    0.000 
#
# Total GULP energy -793170.999597 kJ/mol
# GULP energy per Si atom -12393.296869 kJ/mol
# Density = 1.766619 g / cm^3
# Si number density = 17.706494 Si / 1000 Ang^3
#
#
#
# Elastic Constant Matrix: (Units=GPa)
#
#
# Indices 1 2 3 4 5 6 
#
# 1 81.2867 33.3130 35.1634 0.0000 0.0000 0.0000
# 2 33.3130 108.7957 48.5693 0.0000 0.0000 0.0000
# 3 35.1634 48.5693 83.8845 0.0000 0.0000 0.0000
# 4 0.0000 0.0000 0.0000 31.2204 0.0000 0.0000
# 5 0.0000 0.0000 0.0000 0.0000 60.5680 0.0000
# 6 0.0000 0.0000 0.0000 0.0000 0.0000 20.8131
#
#
#
# Elastic Compliance Matrix: (Units=1/GPa)
#
#
# Indices 1 2 3 4 5 6 
#
# 1 0.015512 -0.002491 -0.005060 0.000000 0.000000 0.000000
# 2 -0.002491 0.012795 -0.006365 0.000000 0.000000 0.000000
# 3 -0.005060 -0.006365 0.017727 0.000000 0.000000 0.000000
# 4 0.000000 0.000000 0.000000 0.032030 0.000000 0.000000
# 5 0.000000 0.000000 0.000000 0.000000 0.016510 0.000000
# 6 0.000000 0.000000 0.000000 0.000000 0.000000 0.048047
#
#
# Mechanical properties :
#
#
# Convention : Reuss Voigt Hill
#
# Bulk Modulus (GPa) = 54.93360 56.45092 55.69226
# Shear Modulus (GPa) = 28.32522 32.98172 30.65347
#
# Velocity S-wave (km/s) = 4.00397 4.32057 4.16528
# Velocity P-wave (km/s) = 7.24346 7.53926 7.39284
#
# Compressibility (1/GPa) = 0.01820380
#
# Stress axis : x y z
#
# Youngs Moduli (GPa) = 64.46674 78.15257 56.40966
#
# Poissons Ratio (x) = 0.19465 0.28545
# Poissons Ratio (y) = 0.16056 0.35902
# Poissons Ratio (z) = 0.32622 0.49741
#
# Static dielectric constant tensor:
#      x y z
#    x 3.273830 0.000000 0.000000 
#    y 0.000000 3.600220 0.000000 
#    z 0.000000 0.000000 3.222740 
# 
# 
# High freq. dielectric constant tensor:
#      x y z
#    x 1.661810 0.000000 0.000000 
#    y 0.000000 1.695510 0.000000 
#    z 0.000000 0.000000 1.666070 
# 
# From -- ./inp_files/25229.got.cif
#   From: 2010.03.12/outbox.cif.g09.slc.cpg/sg53_13_cif.got.tgz:25229.got - 2010.04.16 14:36:59.
