data_PCOD8217597
_publ_section_title
;
Structure prediction by ZEFSAII (Michael W. Deem and Ramdas Pophale) SiO2 
 PCOD8217597
Probable space group: P M N A
;
_chemical_formula_sum "Si O2"
_cell_formula_units_Z 56
_cell_length_a 9.057366
_cell_length_b 14.610902
_cell_length_c 26.326095
_cell_angle_alpha 90.000000
_cell_angle_beta 90.000000
_cell_angle_gamma 90.000000
_cell_volume 3483.897664
_symmetry_space_group_name_H-M "P M N A"
_symmetry_group_IT_number 53
_symmetry_cell_setting 'orthorhombic'
loop_
_space_group_symop_operation_xyz
x,y,z
1/2-x,-y,1/2+z
x,-y,-z
1/2-x,y,1/2-z
-x,-y,-z
1/2+x,y,1/2-z
-x,y,z
1/2+x,-y,1/2+z
loop_
_atom_site_type_symbol
_atom_site_label
_atom_site_fract_x
_atom_site_fract_y
_atom_site_fract_z
Si Si1 0.674031 0.615966 0.543511
Si Si2 0.830361 0.007198 0.108995
Si Si3 0.329062 0.813048 0.561004
Si Si4 0.324913 0.580122 0.429680
Si Si5 0.169019 0.123974 0.538514
Si Si6 0.174394 0.127081 0.803208
Si Si7 0.829254 0.733060 0.373198
O O1 0.500000 0.606554 0.543009
O O2 0.729007 0.709288 0.571709
O O3 0.730595 0.525848 0.573291
O O4 0.725906 0.618127 0.484806
O O5 0.734352 0.967407 0.063209
O O6 0.785485 0.961818 0.162499
O O7 0.000000 0.983375 0.097223
O O8 0.804627 0.117985 0.108942
O O9 0.500000 0.805953 0.546580
O O10 0.249737 0.855441 0.513164
O O11 0.500000 0.590981 0.421486
O O12 0.241080 0.634103 0.384925
O O13 0.191798 0.207876 0.576448
O O14 0.000000 0.104990 0.526295
O O15 0.250000 0.106929 0.750000
O O16 0.241741 0.219388 0.827127
O O17 0.000000 0.140068 0.796564
O O18 0.000000 0.722579 0.357521
#
# Coordination Sequence:
#
# PCOD8217597 Si02
#       7
#     8   8   8   8   8   8   8
#     4   8  15  25  42  64  89 121 159 195 222 255
#     4   9  19  31  45  64  86 115 150 184 223 270
#     4  10  17  28  44  62  87 122 158 189 218 260
#     4   9  15  27  44  64  88 121 159 193 227 261
#     4  10  19  28  39  60  91 123 153 185 221 261
#     4  10  20  35  52  70  90 113 144 186 232 280
#     4  10  19  30  45  67  93 122 153 187 228 274
#
# _framework density 16.07395
#
# number of rings (size 3 to 8) (size 9 to 14) (size 15 to 20)
#    0.000    2.571    1.429    2.571    0.000    4.000 
#    0.000    2.143    0.000    0.000    0.000    1.000 
#    0.000    2.286    0.000    0.000    0.000    0.000 
#
# Total GULP energy -694030.281762 kJ/mol
# GULP energy per Si atom -12393.397889 kJ/mol
# Density = 1.603737 g / cm^3
# Si number density = 16.073950 Si / 1000 Ang^3
#
#
#
# Elastic Constant Matrix: (Units=GPa)
#
#
# Indices 1 2 3 4 5 6 
#
# 1 58.3892 42.2848 30.5397 0.0000 0.0000 0.0000
# 2 42.2848 143.6002 52.7093 0.0000 0.0000 0.0000
# 3 30.5397 52.7093 64.8500 0.0000 0.0000 0.0000
# 4 0.0000 0.0000 0.0000 13.6800 0.0000 0.0000
# 5 0.0000 0.0000 0.0000 0.0000 22.2344 0.0000
# 6 0.0000 0.0000 0.0000 0.0000 0.0000 -23.2049
#
#
#
# Elastic Compliance Matrix: (Units=1/GPa)
#
#
# Indices 1 2 3 4 5 6 
#
# 1 0.024402 -0.004229 -0.008054 0.000000 0.000000 0.000000
# 2 -0.004229 0.010658 -0.006671 0.000000 0.000000 0.000000
# 3 -0.008054 -0.006671 0.024635 0.000000 0.000000 0.000000
# 4 0.000000 0.000000 0.000000 0.073099 0.000000 0.000000
# 5 0.000000 0.000000 0.000000 0.000000 0.044975 0.000000
# 6 0.000000 0.000000 0.000000 0.000000 0.000000 -0.043094
#
#
# Mechanical properties :
#
#
# Convention : Reuss Voigt Hill
#
# Bulk Modulus (GPa) = 45.90019 57.54525 51.72272
# Shear Modulus (GPa) = 27.80169 11.96226 19.88197
#
# Velocity S-wave (km/s) = 4.16337 2.73097 3.52078
# Velocity P-wave (km/s) = 7.19230 6.76921 6.98396
#
# Compressibility (1/GPa) = 0.02178640
#
# Stress axis : x y z
#
# Youngs Moduli (GPa) = 40.98070 93.82937 40.59250
#
# Poissons Ratio (x) = 0.39681 0.32694
# Poissons Ratio (y) = 0.17331 0.27079
# Poissons Ratio (z) = 0.33006 0.62592
#
# Static dielectric constant tensor:
#      x y z
#    x 2.975760 0.000000 0.000000 
#    y 0.000000 3.458730 0.000000 
#    z 0.000000 0.000000 2.773110 
# 
# 
# High freq. dielectric constant tensor:
#      x y z
#    x 1.612260 0.000000 0.000000 
#    y 0.000000 1.626610 0.000000 
#    z 0.000000 0.000000 1.570070 
# 
# From -- ./inp_files/38325.got.cif
#   From: 2010.03.12/outbox.cif.g09.slc.cpg/sg53_20_cif.got.tgz:38325.got - 2010.04.16 14:36:59.
