data_PCOD8217395
_publ_section_title
;
Structure prediction by ZEFSAII (Michael W. Deem and Ramdas Pophale) SiO2 
 PCOD8217395
Probable space group: P N N A
;
_chemical_formula_sum "Si O2"
_cell_formula_units_Z 56
_cell_length_a 15.263042
_cell_length_b 11.849775
_cell_length_c 13.254918
_cell_angle_alpha 90.000000
_cell_angle_beta 90.000000
_cell_angle_gamma 90.000000
_cell_volume 2397.332366
_symmetry_space_group_name_H-M "P N N A"
_symmetry_group_IT_number 52
_symmetry_cell_setting 'orthorhombic'
loop_
_space_group_symop_operation_xyz
x,y,z
1/2-x,-y,z
x,1/2-y,1/2-z
1/2-x,1/2+y,1/2-z
-x,-y,-z
1/2+x,y,-z
-x,1/2+y,1/2+z
1/2+x,1/2-y,1/2+z
loop_
_atom_site_type_symbol
_atom_site_label
_atom_site_fract_x
_atom_site_fract_y
_atom_site_fract_z
Si Si1 0.715918 0.379725 0.924641
Si Si2 0.832274 0.435293 0.358766
Si Si3 0.409838 0.561896 0.481603
Si Si4 0.634040 0.799763 0.442989
Si Si5 0.604340 0.125521 0.751266
Si Si6 0.945165 0.798990 0.458356
Si Si7 0.443303 0.496751 0.817569
O O1 0.750000 0.500000 0.956291
O O2 0.700884 0.368120 0.803079
O O3 0.788404 0.296989 0.973103
O O4 0.617659 0.365120 0.965689
O O5 0.750000 0.500000 0.307196
O O6 0.836527 0.478487 0.474337
O O7 0.838286 0.298644 0.362807
O O8 0.914852 0.485424 0.298195
O O9 0.500000 0.500000 0.500000
O O10 0.385968 0.585904 0.366028
O O11 0.405530 0.674177 0.552156
O O12 0.542013 0.778677 0.497636
O O13 0.623183 0.917682 0.382603
O O14 0.560856 0.250000 0.750000
O O15 0.543708 0.044422 0.682896
O O16 0.945043 0.873458 0.355982
#
# Coordination Sequence:
#
# PCOD8217395 Si02
#       7
#     8   8   8   8   8   8   8
#     4  12  25  44  74 114 146 193 258 320 384 459
#     4  12  28  46  71 110 155 203 252 320 392 475
#     4  12  24  50  74 103 149 203 255 308 394 471
#     4  12  24  47  76 108 154 200 252 321 392 465
#     4  12  24  47  78 107 144 203 255 312 386 472
#     4  12  24  46  78 103 151 195 251 325 383 463
#     4  12  24  44  76 112 145 200 262 315 399 461
#
# _framework density 23.359297999999999
#
# number of rings (size 3 to 8) (size 9 to 14) (size 15 to 20)
#    0.000    0.000    7.143    3.429    2.000    1.143 
#    2.571    0.000    0.000    0.000    0.000    0.000 
#    0.000    0.000    0.000    0.000    0.000    0.000 
#
# Total GULP energy -693770.605178 kJ/mol
# GULP energy per Si atom -12388.760807 kJ/mol
# Density = 2.330613 g / cm^3
# Si number density = 23.359298 Si / 1000 Ang^3
#
#
#
# Elastic Constant Matrix: (Units=GPa)
#
#
# Indices 1 2 3 4 5 6 
#
# 1 96.1472 10.0634 27.6822 0.0000 0.0000 0.0000
# 2 10.0634 118.5500 29.3594 0.0000 0.0000 0.0000
# 3 27.6822 29.3594 100.1683 0.0000 0.0000 0.0000
# 4 0.0000 0.0000 0.0000 42.8003 0.0000 0.0000
# 5 0.0000 0.0000 0.0000 0.0000 47.4911 0.0000
# 6 0.0000 0.0000 0.0000 0.0000 0.0000 31.0080
#
#
#
# Elastic Compliance Matrix: (Units=1/GPa)
#
#
# Indices 1 2 3 4 5 6 
#
# 1 0.011304 -0.000200 -0.003065 0.000000 0.000000 0.000000
# 2 -0.000200 0.009099 -0.002612 0.000000 0.000000 0.000000
# 3 -0.003065 -0.002612 0.011596 0.000000 0.000000 0.000000
# 4 0.000000 0.000000 0.000000 0.023364 0.000000 0.000000
# 5 0.000000 0.000000 0.000000 0.000000 0.021057 0.000000
# 6 0.000000 0.000000 0.000000 0.000000 0.000000 0.032250
#
#
# Mechanical properties :
#
#
# Convention : Reuss Voigt Hill
#
# Bulk Modulus (GPa) = 49.39611 49.89729 49.64670
# Shear Modulus (GPa) = 39.31674 40.77725 40.04700
#
# Velocity S-wave (km/s) = 4.10705 4.18264 4.14501
# Velocity P-wave (km/s) = 6.60928 6.68828 6.64890
#
# Compressibility (1/GPa) = 0.02024451
#
# Stress axis : x y z
#
# Youngs Moduli (GPa) = 88.46243 109.90172 86.23854
#
# Poissons Ratio (x) = 0.02203 0.26434
# Poissons Ratio (y) = 0.01773 0.22522
# Poissons Ratio (z) = 0.27116 0.28701
#
# Static dielectric constant tensor:
#      x y z
#    x 5.091490 0.000000 0.000000 
#    y 0.000000 4.396240 0.000000 
#    z 0.000000 0.000000 4.366630 
# 
# 
# High freq. dielectric constant tensor:
#      x y z
#    x 1.922120 0.000000 0.000000 
#    y 0.000000 1.929430 0.000000 
#    z 0.000000 0.000000 1.918710 
# 
# From -- ./inp_files/27275.got.cif
#   From: 2010.06.25/outbox.cif.g09.slc.cpg/sg52_14_cif.got.tgz:27275.got - 2010.06.26 19:32:48.
