data_PCOD8217857
_publ_section_title
;
Structure prediction by ZEFSAII (Michael W. Deem and Ramdas Pophale) SiO2 
 PCOD8217857
Probable space group: P M N A
;
_chemical_formula_sum "Si O2"
_cell_formula_units_Z 64
_cell_length_a 26.959275
_cell_length_b 6.775681
_cell_length_c 17.812689
_cell_angle_alpha 90.000000
_cell_angle_beta 90.000000
_cell_angle_gamma 90.000000
_cell_volume 3253.798431
_symmetry_space_group_name_H-M "P M N A"
_symmetry_group_IT_number 53
_symmetry_cell_setting 'orthorhombic'
loop_
_space_group_symop_operation_xyz
x,y,z
1/2-x,-y,1/2+z
x,-y,-z
1/2-x,y,1/2-z
-x,-y,-z
1/2+x,y,1/2-z
-x,y,z
1/2+x,-y,1/2+z
loop_
_atom_site_type_symbol
_atom_site_label
_atom_site_fract_x
_atom_site_fract_y
_atom_site_fract_z
Si Si1 0.117340 0.060268 0.583827
Si Si2 0.796519 0.410646 0.924409
Si Si3 0.875600 0.099565 0.926788
Si Si4 0.054147 0.940819 0.197847
Si Si5 0.113486 0.238934 0.284521
Si Si6 0.808082 0.202457 0.163289
Si Si7 0.057206 0.368840 0.670124
Si Si8 0.733366 0.947862 0.086805
O O1 0.085027 0.256345 0.601737
O O2 0.175548 0.097404 0.592555
O O3 0.102465 0.000000 0.500000
O O4 0.105915 0.879112 0.638624
O O5 0.846648 0.297937 0.947974
O O6 0.809014 0.572789 0.862865
O O7 0.757727 0.258594 0.888684
O O8 0.772767 0.500000 0.000000
O O9 0.919082 0.162530 0.871572
O O10 0.839906 0.940599 0.888526
O O11 0.899096 0.000000 0.000000
O O12 0.054190 0.786483 0.264105
O O13 0.000000 0.997430 0.170808
O O14 0.078805 0.147142 0.220602
O O15 0.169759 0.218403 0.248950
O O16 0.093413 0.456532 0.302700
O O17 0.752166 0.113292 0.148279
O O18 0.000000 0.434206 0.648817
O O19 0.748371 0.000000 0.000000
#
# Coordination Sequence:
#
# PCOD8217857 Si02
#       8
#     8   8   8   8   8   8   8   8
#     4  10  24  43  60  84 115 144 179 239 302 360
#     4  11  17  30  54  81 109 152 197 230 269 319
#     4  10  18  29  48  79 115 150 197 240 271 320
#     4   9  19  35  55  78 110 150 188 234 287 339
#     4  10  21  38  60  83 111 148 188 234 291 345
#     4  10  19  33  54  82 114 154 196 234 272 332
#     4  10  21  41  65  87 110 144 193 243 299 362
#     4  10  20  36  55  82 117 155 194 228 278 344
#
# _framework density 19.669318000000001
#
# number of rings (size 3 to 8) (size 9 to 14) (size 15 to 20)
#    0.000    2.000    2.500    1.875    0.000    4.000 
#    0.000    0.625    0.000    0.375    0.000    0.000 
#    0.000    0.000    0.000    0.000    0.000    0.000 
#
# Total GULP energy -792974.874554 kJ/mol
# GULP energy per Si atom -12390.232415 kJ/mol
# Density = 1.962455 g / cm^3
# Si number density = 19.669318 Si / 1000 Ang^3
#
#
#
# Elastic Constant Matrix: (Units=GPa)
#
#
# Indices 1 2 3 4 5 6 
#
# 1 92.0323 25.9342 34.6219 0.0000 0.0000 0.0000
# 2 25.9342 103.9300 21.6363 0.0000 0.0000 0.0000
# 3 34.6219 21.6363 63.8745 0.0000 0.0000 0.0000
# 4 0.0000 0.0000 0.0000 20.9711 0.0000 0.0000
# 5 0.0000 0.0000 0.0000 0.0000 25.9524 0.0000
# 6 0.0000 0.0000 0.0000 0.0000 0.0000 16.1938
#
#
#
# Elastic Compliance Matrix: (Units=1/GPa)
#
#
# Indices 1 2 3 4 5 6 
#
# 1 0.014050 -0.002066 -0.006915 0.000000 0.000000 0.000000
# 2 -0.002066 0.010656 -0.002489 0.000000 0.000000 0.000000
# 3 -0.006915 -0.002489 0.020247 0.000000 0.000000 0.000000
# 4 0.000000 0.000000 0.000000 0.047685 0.000000 0.000000
# 5 0.000000 0.000000 0.000000 0.000000 0.038532 0.000000
# 6 0.000000 0.000000 0.000000 0.000000 0.000000 0.061752
#
#
# Mechanical properties :
#
#
# Convention : Reuss Voigt Hill
#
# Bulk Modulus (GPa) = 45.43302 47.13574 46.28438
# Shear Modulus (GPa) = 22.40142 24.46642 23.43392
#
# Velocity S-wave (km/s) = 3.37842 3.53071 3.45540
# Velocity P-wave (km/s) = 6.19410 6.37474 6.28507
#
# Compressibility (1/GPa) = 0.02201042
#
# Stress axis : x y z
#
# Youngs Moduli (GPa) = 71.17688 93.84635 49.38933
#
# Poissons Ratio (x) = 0.19391 0.34155
# Poissons Ratio (y) = 0.14707 0.12295
# Poissons Ratio (z) = 0.49221 0.23363
#
# Static dielectric constant tensor:
#      x y z
#    x 3.848970 0.000000 0.000000 
#    y 0.000000 3.565480 0.000000 
#    z 0.000000 0.000000 3.587950 
# 
# 
# High freq. dielectric constant tensor:
#      x y z
#    x 1.761740 0.000000 0.000000 
#    y 0.000000 1.767810 0.000000 
#    z 0.000000 0.000000 1.758320 
# 
# From -- ./inp_files/29834.got.cif
#   From: 2010.03.12/outbox.cif.g09.slc.cpg/sg53_15_cif.got.tgz:29834.got - 2010.04.16 14:36:59.
