data_PCOD8217847
_publ_section_title
;
Structure prediction by ZEFSAII (Michael W. Deem and Ramdas Pophale) SiO2 
 PCOD8217847
Probable space group: P M N A
;
_chemical_formula_sum "Si O2"
_cell_formula_units_Z 48
_cell_length_a 21.232909
_cell_length_b 5.169728
_cell_length_c 21.149719
_cell_angle_alpha 90.000000
_cell_angle_beta 90.000000
_cell_angle_gamma 90.000000
_cell_volume 2321.570057
_symmetry_space_group_name_H-M "P M N A"
_symmetry_group_IT_number 53
_symmetry_cell_setting 'orthorhombic'
loop_
_space_group_symop_operation_xyz
x,y,z
1/2-x,-y,1/2+z
x,-y,-z
1/2-x,y,1/2-z
-x,-y,-z
1/2+x,y,1/2-z
-x,y,z
1/2+x,-y,1/2+z
loop_
_atom_site_type_symbol
_atom_site_label
_atom_site_fract_x
_atom_site_fract_y
_atom_site_fract_z
Si Si1 0.071975 0.023373 0.636073
Si Si2 0.575331 0.522084 0.928721
Si Si3 0.114452 0.026918 0.226200
Si Si4 0.150152 0.533990 0.930991
Si Si5 0.570641 0.964641 0.406649
Si Si6 0.690719 0.473380 0.705794
O O1 0.104639 0.281343 0.609505
O O2 0.075564 0.018522 0.710840
O O3 0.000000 0.025597 0.614293
O O4 0.104991 0.777122 0.603295
O O5 0.500000 0.527047 0.924214
O O6 0.599069 0.500000 0.000000
O O7 0.066424 0.984352 0.169099
O O8 0.171336 0.821158 0.220473
O O9 0.138127 0.321594 0.226588
O O10 0.096475 0.316346 0.925216
O O11 0.199133 0.509230 0.871242
O O12 0.116702 0.813720 0.932894
O O13 0.184242 0.500000 0.000000
O O14 0.500000 0.996219 0.433904
O O15 0.750000 0.537933 0.750000
#
# Coordination Sequence:
#
# PCOD8217847 Si02
#       6
#     8   8   8   8   8   8
#     4  10  18  29  48  72 101 134 164 204 255 310
#     4   9  17  28  43  65  94 133 174 203 237 291
#     4  10  20  34  53  79 103 131 174 215 259 314
#     4  10  21  35  54  80 107 142 184 218 259 320
#     4  10  20  33  51  79 117 149 172 208 255 311
#     4  10  21  38  58  76  99 133 175 226 270 306
#
# _framework density 20.675664999999999
#
# number of rings (size 3 to 8) (size 9 to 14) (size 15 to 20)
#    0.000    2.167    0.000    3.500    0.000    4.000 
#    0.000    5.000    0.000    6.000    0.000    0.000 
#    0.000    0.000    0.000    0.000    0.000    0.000 
#
# Total GULP energy -594892.693985 kJ/mol
# GULP energy per Si atom -12393.597791 kJ/mol
# Density = 2.062861 g / cm^3
# Si number density = 20.675665 Si / 1000 Ang^3
#
#
#
# Elastic Constant Matrix: (Units=GPa)
#
#
# Indices 1 2 3 4 5 6 
#
# 1 33.4447 0.7798 15.5331 0.0000 0.0000 0.0000
# 2 0.7798 121.1002 24.1255 0.0000 0.0000 0.0000
# 3 15.5331 24.1255 136.4784 0.0000 0.0000 0.0000
# 4 0.0000 0.0000 0.0000 26.8723 0.0000 0.0000
# 5 0.0000 0.0000 0.0000 0.0000 12.8322 0.0000
# 6 0.0000 0.0000 0.0000 0.0000 0.0000 11.1979
#
#
#
# Elastic Compliance Matrix: (Units=1/GPa)
#
#
# Indices 1 2 3 4 5 6 
#
# 1 0.031602 0.000532 -0.003691 0.000000 0.000000 0.000000
# 2 0.000532 0.008568 -0.001575 0.000000 0.000000 0.000000
# 3 -0.003691 -0.001575 0.008026 0.000000 0.000000 0.000000
# 4 0.000000 0.000000 0.000000 0.037213 0.000000 0.000000
# 5 0.000000 0.000000 0.000000 0.000000 0.077929 0.000000
# 6 0.000000 0.000000 0.000000 0.000000 0.000000 0.089303
#
#
# Mechanical properties :
#
#
# Convention : Reuss Voigt Hill
#
# Bulk Modulus (GPa) = 25.82152 41.32223 33.57187
# Shear Modulus (GPa) = 18.18067 26.88614 22.53340
#
# Velocity S-wave (km/s) = 2.96856 3.60998 3.30487
# Velocity P-wave (km/s) = 4.92603 6.11599 5.55298
#
# Compressibility (1/GPa) = 0.03872739
#
# Stress axis : x y z
#
# Youngs Moduli (GPa) = 31.64372 116.71347 124.60040
#
# Poissons Ratio (x) = -0.06207 0.45987
# Poissons Ratio (y) = -0.01683 0.19626
# Poissons Ratio (z) = 0.11679 0.18384
#
# Static dielectric constant tensor:
#      x y z
#    x 2.969520 0.000000 0.000000 
#    y 0.000000 4.101580 0.000000 
#    z 0.000000 0.000000 4.095880 
# 
# 
# High freq. dielectric constant tensor:
#      x y z
#    x 1.731940 0.000000 0.000000 
#    y 0.000000 1.835930 0.000000 
#    z 0.000000 0.000000 1.831860 
# 
# From -- ./inp_files/29511.got.cif
#   From: 2010.03.12/outbox.cif.g09.slc.cpg/sg53_15_cif.got.tgz:29511.got - 2010.04.16 14:36:59.
