data_PCOD8217557
_publ_section_title
;
Structure prediction by ZEFSAII (Michael W. Deem and Ramdas Pophale) SiO2 
 PCOD8217557
Probable space group: P M N A
;
_chemical_formula_sum "Si O2"
_cell_formula_units_Z 60
_cell_length_a 14.197313
_cell_length_b 10.952324
_cell_length_c 19.398872
_cell_angle_alpha 90.000000
_cell_angle_beta 90.000000
_cell_angle_gamma 90.000000
_cell_volume 3016.399898
_symmetry_space_group_name_H-M "P M N A"
_symmetry_group_IT_number 53
_symmetry_cell_setting 'orthorhombic'
loop_
_space_group_symop_operation_xyz
x,y,z
1/2-x,-y,1/2+z
x,-y,-z
1/2-x,y,1/2-z
-x,-y,-z
1/2+x,y,1/2-z
-x,y,z
1/2+x,-y,1/2+z
loop_
_atom_site_type_symbol
_atom_site_label
_atom_site_fract_x
_atom_site_fract_y
_atom_site_fract_z
Si Si1 0.607329 0.814611 0.893012
Si Si2 0.350242 0.810246 0.229095
Si Si3 0.390744 0.769595 0.737905
Si Si4 0.794273 0.943674 0.400723
Si Si5 0.392581 0.722154 0.032945
Si Si6 0.104307 0.428599 0.658798
Si Si7 0.750000 0.422380 0.250000
Si Si8 0.396863 0.014601 0.656186
O O1 0.500000 0.855970 0.884540
O O2 0.643523 0.774845 0.818034
O O3 0.661546 0.929785 0.925873
O O4 0.618429 0.704103 0.949584
O O5 0.250000 0.752086 0.250000
O O6 0.331138 0.921387 0.176606
O O7 0.410373 0.702293 0.195737
O O8 0.404412 0.868933 0.293231
O O9 0.500000 0.734260 0.730759
O O10 0.325785 0.660578 0.707624
O O11 0.367289 0.894309 0.698920
O O12 0.821223 0.830097 0.447843
O O13 0.680579 0.959222 0.402206
O O14 0.500000 0.763015 0.049081
O O15 0.370132 0.600237 0.077994
O O16 0.189483 0.501166 0.694129
O O17 0.000000 0.494016 0.663789
O O18 0.500000 0.997158 0.621961
#
# Coordination Sequence:
#
# PCOD8217557 Si02
#       8
#     8   8   8   8   8   8   4   8
#     4  10  18  31  52  78 106 139 172 208 258 316
#     4   9  16  28  47  75 104 134 159 203 258 309
#     4  10  21  34  52  78 106 138 173 216 263 309
#     4  10  17  26  48  76 110 142 170 204 251 314
#     4   9  19  33  51  77 108 140 173 207 254 316
#     4  10  20  34  52  75 105 137 168 210 258 309
#     4  12  22  36  52  72 104 140 172 218 258 310
#     4  10  19  31  49  77 110 138 170 212 264 314
#
# _framework density 19.891261
#
# number of rings (size 3 to 8) (size 9 to 14) (size 15 to 20)
#    0.000    2.133    2.000    2.400    0.933    2.133 
#    0.000    0.667    0.000    4.800    0.000    0.000 
#    0.000    6.400    0.000    0.000    0.000    0.000 
#
# Total GULP energy -743418.275309 kJ/mol
# GULP energy per Si atom -12390.304588 kJ/mol
# Density = 1.984599 g / cm^3
# Si number density = 19.891261 Si / 1000 Ang^3
#
#
#
# Elastic Constant Matrix: (Units=GPa)
#
#
# Indices 1 2 3 4 5 6 
#
# 1 112.7680 32.5244 26.6799 0.0000 0.0000 0.0000
# 2 32.5244 54.0363 0.2984 0.0000 0.0000 0.0000
# 3 26.6799 0.2984 44.5611 0.0000 0.0000 0.0000
# 4 0.0000 0.0000 0.0000 11.3377 0.0000 0.0000
# 5 0.0000 0.0000 0.0000 0.0000 17.2649 0.0000
# 6 0.0000 0.0000 0.0000 0.0000 0.0000 27.6810
#
#
#
# Elastic Compliance Matrix: (Units=1/GPa)
#
#
# Indices 1 2 3 4 5 6 
#
# 1 0.012915 -0.007731 -0.007681 0.000000 0.000000 0.000000
# 2 -0.007731 0.023135 0.004474 0.000000 0.000000 0.000000
# 3 -0.007681 0.004474 0.027010 0.000000 0.000000 0.000000
# 4 0.000000 0.000000 0.000000 0.088202 0.000000 0.000000
# 5 0.000000 0.000000 0.000000 0.000000 0.057921 0.000000
# 6 0.000000 0.000000 0.000000 0.000000 0.000000 0.036126
#
#
# Mechanical properties :
#
#
# Convention : Reuss Voigt Hill
#
# Bulk Modulus (GPa) = 24.28157 36.70787 30.49472
# Shear Modulus (GPa) = 17.79926 21.38089 19.59008
#
# Velocity S-wave (km/s) = 2.99461 3.28211 3.14165
# Velocity P-wave (km/s) = 4.91839 5.73213 5.34078
#
# Compressibility (1/GPa) = 0.04118350
#
# Stress axis : x y z
#
# Youngs Moduli (GPa) = 77.43151 43.22531 37.02378
#
# Poissons Ratio (x) = 0.33417 0.28436
# Poissons Ratio (y) = 0.59861 -0.16563
# Poissons Ratio (z) = 0.59472 -0.19338
#
# Static dielectric constant tensor:
#      x y z
#    x 3.655130 0.000000 0.000000 
#    y 0.000000 3.441860 0.000000 
#    z 0.000000 0.000000 3.541170 
# 
# 
# High freq. dielectric constant tensor:
#      x y z
#    x 1.777790 0.000000 0.000000 
#    y 0.000000 1.762980 0.000000 
#    z 0.000000 0.000000 1.746940 
# 
# From -- ./inp_files/32603.got.cif
#   From: 2010.03.12/outbox.cif.g09.slc.cpg/sg53_17_cif.got.tgz:32603.got - 2010.04.16 14:36:59.
