data_PCOD8217334
_publ_section_title
;
Structure prediction by ZEFSAII (Michael W. Deem and Ramdas Pophale) SiO2 
 PCOD8217334
Probable space group: P N N A
;
_chemical_formula_sum "Si O2"
_cell_formula_units_Z 36
_cell_length_a 10.506849
_cell_length_b 11.297714
_cell_length_c 13.018445
_cell_angle_alpha 90.000000
_cell_angle_beta 90.000000
_cell_angle_gamma 90.000000
_cell_volume 1545.333359
_symmetry_space_group_name_H-M "P N N A"
_symmetry_group_IT_number 52
_symmetry_cell_setting 'orthorhombic'
loop_
_space_group_symop_operation_xyz
x,y,z
1/2-x,-y,z
x,1/2-y,1/2-z
1/2-x,1/2+y,1/2-z
-x,-y,-z
1/2+x,y,-z
-x,1/2+y,1/2+z
1/2+x,1/2-y,1/2+z
loop_
_atom_site_type_symbol
_atom_site_label
_atom_site_fract_x
_atom_site_fract_y
_atom_site_fract_z
Si Si1 0.471228 0.533029 0.331876
Si Si2 0.296652 0.310929 0.999825
Si Si3 0.750000 0.000000 0.671769
Si Si4 0.050295 0.334920 0.533250
Si Si5 0.808523 0.375108 0.219010
O O1 0.370708 0.505281 0.244299
O O2 0.409865 0.585195 0.435341
O O3 0.546867 0.413152 0.363085
O O4 0.562337 0.632811 0.284771
O O5 0.266820 0.385153 0.101182
O O6 0.408774 0.219095 0.023202
O O7 0.163864 0.257702 0.958128
O O8 0.339992 0.389098 0.902329
O O9 0.750000 0.500000 0.255115
O O10 0.737528 0.250000 0.250000
#
# Coordination Sequence:
#
# PCOD8217334 Si02
#       5
#     8   8   4   8   8
#     4  11  26  46  74 103 150 198 252 309 390 460
#     4  12  26  46  73 107 150 196 253 317 383 463
#     4  12  28  46  70 110 154 196 248 330 406 448
#     4  11  26  48  74 106 146 199 257 310 380 471
#     4  12  25  46  75 110 149 200 252 313 376 459
#
# _framework density 23.295946000000001
#
# number of rings (size 3 to 8) (size 9 to 14) (size 15 to 20)
#    0.000    0.444    3.333    4.000    3.111    6.222 
#    0.000    0.000    0.000    0.000    0.000    0.000 
#    0.000    0.000    0.000    0.000    0.000    0.000 
#
# Total GULP energy -446159.281196 kJ/mol
# GULP energy per Si atom -12393.313367 kJ/mol
# Density = 2.324292 g / cm^3
# Si number density = 23.295946 Si / 1000 Ang^3
#
#
#
# Elastic Constant Matrix: (Units=GPa)
#
#
# Indices 1 2 3 4 5 6 
#
# 1 96.4355 47.5177 46.2125 0.0000 0.0000 0.0000
# 2 47.5177 138.7949 55.3984 0.0000 0.0000 0.0000
# 3 46.2125 55.3984 163.2764 0.0000 0.0000 0.0000
# 4 0.0000 0.0000 0.0000 40.9532 0.0000 0.0000
# 5 0.0000 0.0000 0.0000 0.0000 39.6724 0.0000
# 6 0.0000 0.0000 0.0000 0.0000 0.0000 34.4230
#
#
#
# Elastic Compliance Matrix: (Units=1/GPa)
#
#
# Indices 1 2 3 4 5 6 
#
# 1 0.013350 -0.003542 -0.002577 0.000000 0.000000 0.000000
# 2 -0.003542 0.009273 -0.002144 0.000000 0.000000 0.000000
# 3 -0.002577 -0.002144 0.007581 0.000000 0.000000 0.000000
# 4 0.000000 0.000000 0.000000 0.024418 0.000000 0.000000
# 5 0.000000 0.000000 0.000000 0.000000 0.025206 0.000000
# 6 0.000000 0.000000 0.000000 0.000000 0.000000 0.029050
#
#
# Mechanical properties :
#
#
# Convention : Reuss Voigt Hill
#
# Bulk Modulus (GPa) = 73.10342 77.41822 75.26082
# Shear Modulus (GPa) = 38.47236 39.63494 39.05365
#
# Velocity S-wave (km/s) = 4.06823 4.12924 4.09885
# Velocity P-wave (km/s) = 7.31544 7.48590 7.40117
#
# Compressibility (1/GPa) = 0.01367925
#
# Stress axis : x y z
#
# Youngs Moduli (GPa) = 74.90857 107.83799 131.90462
#
# Poissons Ratio (x) = 0.38195 0.33987
# Poissons Ratio (y) = 0.26532 0.28278
# Poissons Ratio (z) = 0.19301 0.23119
#
# Static dielectric constant tensor:
#      x y z
#    x 3.329670 0.000000 0.000000 
#    y 0.000000 4.398460 0.000000 
#    z 0.000000 0.000000 4.400130 
# 
# 
# High freq. dielectric constant tensor:
#      x y z
#    x 1.911620 0.000000 0.000000 
#    y 0.000000 1.926080 0.000000 
#    z 0.000000 0.000000 1.948380 
# 
# From -- ./inp_files/17781.got.cif
#   From: 2010.06.25/outbox.cif.g09.slc.cpg/sg52_9_cif.got.tgz:17781.got - 2010.06.26 19:32:48.
