data_PCOD8217681
_publ_section_title
;
Structure prediction by ZEFSAII (Michael W. Deem and Ramdas Pophale) SiO2 
 PCOD8217681
Probable space group: P M N A
;
_chemical_formula_sum "Si O2"
_cell_formula_units_Z 64
_cell_length_a 9.068270
_cell_length_b 18.378898
_cell_length_c 26.082769
_cell_angle_alpha 90.000000
_cell_angle_beta 90.000000
_cell_angle_gamma 90.000000
_cell_volume 4347.079723
_symmetry_space_group_name_H-M "P M N A"
_symmetry_group_IT_number 53
_symmetry_cell_setting 'orthorhombic'
loop_
_space_group_symop_operation_xyz
x,y,z
1/2-x,-y,1/2+z
x,-y,-z
1/2-x,y,1/2-z
-x,-y,-z
1/2+x,y,1/2-z
-x,y,z
1/2+x,-y,1/2+z
loop_
_atom_site_type_symbol
_atom_site_label
_atom_site_fract_x
_atom_site_fract_y
_atom_site_fract_z
Si Si1 0.171880 0.169858 0.698994
Si Si2 0.326900 0.414743 0.603584
Si Si3 0.166085 0.540963 0.553584
Si Si4 0.337277 0.037193 0.444873
Si Si5 0.826575 0.829377 0.004964
Si Si6 0.174508 0.336997 0.697482
Si Si7 0.828645 0.336047 0.002080
Si Si8 0.673617 0.090897 0.903012
O O1 0.250000 0.140845 0.750000
O O2 0.215496 0.253029 0.687054
O O3 0.224733 0.119774 0.652192
O O4 0.000000 0.162648 0.708581
O O5 0.500000 0.419253 0.615351
O O6 0.265111 0.495749 0.593511
O O7 0.240836 0.383680 0.651791
O O8 0.293031 0.363007 0.555239
O O9 0.165734 0.500000 0.500000
O O10 0.237205 0.620164 0.544859
O O11 0.000000 0.549536 0.574967
O O12 0.500000 0.035544 0.419714
O O13 0.285614 0.120533 0.455347
O O14 0.342094 0.000000 0.500000
O O15 0.226690 0.992890 0.408315
O O16 0.000000 0.835365 0.016939
O O17 0.778997 0.747421 0.992700
O O18 0.742407 0.856015 0.055094
O O19 0.250000 0.363486 0.750000
O O20 0.000000 0.349522 0.700847
O O21 0.000000 0.347290 0.014409
O O22 0.500000 0.093496 0.909812
#
# Coordination Sequence:
#
# PCOD8217681 Si02
#       8
#     8   8   8   8   8   8   8   8
#     4   9  19  31  42  58  80 106 136 171 206 240
#     4  10  18  28  43  61  81 108 140 169 202 241
#     4   9  17  28  41  58  81 108 136 167 202 239
#     4   8  15  27  40  55  77 106 137 165 196 238
#     4   9  17  28  41  58  81 109 139 167 198 240
#     4  10  19  31  44  59  81 107 137 172 207 240
#     4   9  17  28  42  60  82 108 138 171 202 237
#     4  10  18  27  40  59  81 105 136 171 205 238
#
# _framework density 14.722528000000001
#
# number of rings (size 3 to 8) (size 9 to 14) (size 15 to 20)
#    0.000    2.750    0.000    3.000    0.000    6.250 
#    0.000    0.000    0.000    0.000    0.000    0.000 
#    0.000    1.000    0.000    6.500    0.000    5.500 
#
# Total GULP energy -793468.943494 kJ/mol
# GULP energy per Si atom -12397.952242 kJ/mol
# Density = 1.468902 g / cm^3
# Si number density = 14.722528 Si / 1000 Ang^3
#
#
#
# Elastic Constant Matrix: (Units=GPa)
#
#
# Indices 1 2 3 4 5 6 
#
# 1 72.6216 46.9353 44.0995 0.0000 0.0000 0.0000
# 2 46.9353 116.5320 54.4713 0.0000 0.0000 0.0000
# 3 44.0995 54.4713 77.3967 0.0000 0.0000 0.0000
# 4 0.0000 0.0000 0.0000 21.9324 0.0000 0.0000
# 5 0.0000 0.0000 0.0000 0.0000 24.9972 0.0000
# 6 0.0000 0.0000 0.0000 0.0000 0.0000 19.8575
#
#
#
# Elastic Compliance Matrix: (Units=1/GPa)
#
#
# Indices 1 2 3 4 5 6 
#
# 1 0.022593 -0.004593 -0.009640 0.000000 0.000000 0.000000
# 2 -0.004593 0.013722 -0.007040 0.000000 0.000000 0.000000
# 3 -0.009640 -0.007040 0.023368 0.000000 0.000000 0.000000
# 4 0.000000 0.000000 0.000000 0.045595 0.000000 0.000000
# 5 0.000000 0.000000 0.000000 0.000000 0.040005 0.000000
# 6 0.000000 0.000000 0.000000 0.000000 0.000000 0.050359
#
#
# Mechanical properties :
#
#
# Convention : Reuss Voigt Hill
#
# Bulk Modulus (GPa) = 58.35912 61.95140 60.15526
# Shear Modulus (GPa) = 20.50009 21.42702 20.96356
#
# Velocity S-wave (km/s) = 3.73558 3.81910 3.77757
# Velocity P-wave (km/s) = 7.63750 7.84971 7.74433
#
# Compressibility (1/GPa) = 0.01713528
#
# Stress axis : x y z
#
# Youngs Moduli (GPa) = 44.26195 72.87353 42.79297
#
# Poissons Ratio (x) = 0.33474 0.41253
# Poissons Ratio (y) = 0.20332 0.30128
# Poissons Ratio (z) = 0.42669 0.51306
#
# Static dielectric constant tensor:
#      x y z
#    x 2.944740 0.000000 0.000000 
#    y 0.000000 3.067180 0.000000 
#    z 0.000000 0.000000 2.659080 
# 
# 
# High freq. dielectric constant tensor:
#      x y z
#    x 1.574060 0.000000 0.000000 
#    y 0.000000 1.555430 0.000000 
#    z 0.000000 0.000000 1.527270 
# 
# From -- ./inp_files/34537.got.cif
#   From: 2010.03.12/outbox.cif.g09.slc.cpg/sg53_18_cif.got.tgz:34537.got - 2010.04.16 14:36:59.
