data_PCOD8217050
_publ_section_title
;
Structure prediction by ZEFSAII (Michael W. Deem and Ramdas Pophale) SiO2 
 PCOD8217050
Probable space group: P N N A
;
_chemical_formula_sum "Si O2"
_cell_formula_units_Z 64
_cell_length_a 22.636199
_cell_length_b 9.261834
_cell_length_c 17.682213
_cell_angle_alpha 90.000000
_cell_angle_beta 90.000000
_cell_angle_gamma 90.000000
_cell_volume 3707.124007
_symmetry_space_group_name_H-M "P N N A"
_symmetry_group_IT_number 52
_symmetry_cell_setting 'orthorhombic'
loop_
_space_group_symop_operation_xyz
x,y,z
1/2-x,-y,z
x,1/2-y,1/2-z
1/2-x,1/2+y,1/2-z
-x,-y,-z
1/2+x,y,-z
-x,1/2+y,1/2+z
1/2+x,1/2-y,1/2+z
loop_
_atom_site_type_symbol
_atom_site_label
_atom_site_fract_x
_atom_site_fract_y
_atom_site_fract_z
Si Si1 0.885107 0.776428 0.397503
Si Si2 0.990964 0.826045 0.672460
Si Si3 0.185007 0.974747 0.649662
Si Si4 0.989757 0.327961 0.827699
Si Si5 0.885193 0.283736 0.389988
Si Si6 0.683747 0.036235 0.174529
Si Si7 0.061547 0.339818 0.458176
Si Si8 0.437798 0.162188 0.042165
O O1 0.833250 0.697403 0.350305
O O2 0.889665 0.717136 0.482771
O O3 0.946885 0.768290 0.353521
O O4 0.863218 0.941381 0.401096
O O5 0.972602 0.750000 0.750000
O O6 0.942934 0.772151 0.611216
O O7 0.056032 0.772854 0.650499
O O8 0.988659 0.999172 0.679496
O O9 0.170516 0.807185 0.639332
O O10 0.179930 0.022249 0.736113
O O11 0.250000 0.000000 0.617414
O O12 0.973065 0.250000 0.750000
O O13 0.940906 0.275011 0.888667
O O14 0.869048 0.444486 0.363739
O O15 0.890226 0.280797 0.481068
O O16 0.750000 0.000000 0.145685
O O17 0.078894 0.500571 0.429233
O O18 0.999428 0.346293 0.499522
#
# Coordination Sequence:
#
# PCOD8217050 Si02
#       8
#     8   8   8   8   8   8   8   8
#     4  11  21  34  53  72 102 142 176 210 256 299
#     4  11  22  33  53  78 105 134 169 207 253 311
#     4  11  22  34  49  74 105 137 178 223 250 286
#     4  11  22  33  53  78 105 134 169 207 253 311
#     4  11  21  34  53  72 102 142 176 210 256 299
#     4  11  22  36  51  72 101 139 182 219 252 290
#     4   9  19  34  51  72 100 133 171 211 252 302
#     4   9  19  34  51  72 100 133 171 211 252 302
#
# _framework density 17.264057999999999
#
# number of rings (size 3 to 8) (size 9 to 14) (size 15 to 20)
#    0.000    1.500    2.500    3.750    5.250    3.500 
#    0.000    0.000    0.000    0.000    0.000    0.000 
#    0.000    6.000    0.000    0.000    0.000    0.000 
#
# Total GULP energy -793557.419486 kJ/mol
# GULP energy per Si atom -12399.334679 kJ/mol
# Density = 1.722476 g / cm^3
# Si number density = 17.264058 Si / 1000 Ang^3
#
#
#
# Elastic Constant Matrix: (Units=GPa)
#
#
# Indices 1 2 3 4 5 6 
#
# 1 44.2828 13.2140 30.7512 0.0000 0.0000 0.0000
# 2 13.2140 89.0083 48.8125 0.0000 0.0000 0.0000
# 3 30.7512 48.8125 97.9707 0.0000 0.0000 0.0000
# 4 0.0000 0.0000 0.0000 34.0392 0.0000 0.0000
# 5 0.0000 0.0000 0.0000 0.0000 20.4295 0.0000
# 6 0.0000 0.0000 0.0000 0.0000 0.0000 17.8101
#
#
#
# Elastic Compliance Matrix: (Units=1/GPa)
#
#
# Indices 1 2 3 4 5 6 
#
# 1 0.028934 0.000943 -0.009551 0.000000 0.000000 0.000000
# 2 0.000943 0.015489 -0.008013 0.000000 0.000000 0.000000
# 3 -0.009551 -0.008013 0.017198 0.000000 0.000000 0.000000
# 4 0.000000 0.000000 0.000000 0.029378 0.000000 0.000000
# 5 0.000000 0.000000 0.000000 0.000000 0.048949 0.000000
# 6 0.000000 0.000000 0.000000 0.000000 0.000000 0.056148
#
#
# Mechanical properties :
#
#
# Convention : Reuss Voigt Hill
#
# Bulk Modulus (GPa) = 35.24029 46.31303 40.77666
# Shear Modulus (GPa) = 20.93819 23.68804 22.31311
#
# Velocity S-wave (km/s) = 3.48633 3.70821 3.59898
# Velocity P-wave (km/s) = 6.05499 6.72450 6.39851
#
# Compressibility (1/GPa) = 0.02837661
#
# Stress axis : x y z
#
# Youngs Moduli (GPa) = 34.56191 64.55998 58.14762
#
# Poissons Ratio (x) = -0.06085 0.55539
# Poissons Ratio (y) = -0.03258 0.46595
# Poissons Ratio (z) = 0.33011 0.51734
#
# Static dielectric constant tensor:
#      x y z
#    x 3.001070 0.000000 0.000000 
#    y 0.000000 3.390250 0.000000 
#    z 0.000000 0.000000 3.264370 
# 
# 
# High freq. dielectric constant tensor:
#      x y z
#    x 1.624530 0.000000 0.000000 
#    y 0.000000 1.689890 0.000000 
#    z 0.000000 0.000000 1.654150 
# 
# From -- ./inp_files/31664.got.cif
#   From: 2010.06.25/outbox.cif.g09.slc.cpg/sg52_16_cif.got.tgz:31664.got - 2010.06.26 19:32:48.
