data_PCOD8217628
_publ_section_title
;
Structure prediction by ZEFSAII (Michael W. Deem and Ramdas Pophale) SiO2 
 PCOD8217628
Probable space group: P M N A
;
_chemical_formula_sum "Si O2"
_cell_formula_units_Z 60
_cell_length_a 19.673615
_cell_length_b 12.638394
_cell_length_c 14.395506
_cell_angle_alpha 90.000000
_cell_angle_beta 90.000000
_cell_angle_gamma 90.000000
_cell_volume 3579.340327
_symmetry_space_group_name_H-M "P M N A"
_symmetry_group_IT_number 53
_symmetry_cell_setting 'orthorhombic'
loop_
_space_group_symop_operation_xyz
x,y,z
1/2-x,-y,1/2+z
x,-y,-z
1/2-x,y,1/2-z
-x,-y,-z
1/2+x,y,1/2-z
-x,y,z
1/2+x,-y,1/2+z
loop_
_atom_site_type_symbol
_atom_site_label
_atom_site_fract_x
_atom_site_fract_y
_atom_site_fract_z
Si Si1 0.580651 0.270022 0.302080
Si Si2 0.268677 0.880327 1.000000
Si Si3 0.616211 0.500000 0.500000
Si Si4 0.925542 0.500000 0.800180
Si Si5 0.580651 0.729977 0.302079
Si Si6 0.681102 0.878208 0.200615
Si Si7 0.318898 0.878209 0.799384
Si Si8 0.140897 0.729864 1.000000
O O1 0.500000 0.263449 0.287217
O O2 0.609487 0.387980 0.272729
O O3 0.616557 0.186701 0.235408
O O4 0.596724 0.243179 0.409099
O O5 0.314861 0.861630 0.909787
O O6 0.314860 0.861629 0.090213
O O7 0.207548 0.799435 0.999999
O O8 0.239074 0.000000 0.000000
O O9 0.566818 0.500001 0.411781
O O10 0.662973 0.605788 0.500000
O O11 0.890513 0.387980 0.772728
O O12 0.000000 0.500001 0.755623
O O13 0.500000 0.736550 0.287219
O O14 0.616557 0.813298 0.235407
O O15 0.596725 0.756821 0.409099
O O16 0.750000 0.836939 0.250000
O O17 0.669036 0.999999 0.227636
O O18 0.250000 0.836940 0.750000
#
# Coordination Sequence:
#
# PCOD8217628 Si02
#       8
#     8   8   4   8   8   8   8   8
#     4  10  19  32  52  78 105 133 167 208 252 297
#     4  10  20  35  54  71  97 137 173 199 244 307
#     4   8  15  24  42  72 104 134 159 194 244 298
#     4   8  15  28  46  70 103 137 163 194 247 306
#     4  10  19  32  52  78 105 133 167 208 252 297
#     4  10  20  35  53  73 100 134 169 206 250 301
#     4  10  20  35  53  73 100 134 169 206 250 301
#     4  10  17  30  50  77 106 132 163 203 251 302
#
# _framework density 16.762865999999999
#
# number of rings (size 3 to 8) (size 9 to 14) (size 15 to 20)
#    0.000    2.400    2.667    0.600    0.000    3.733 
#    0.000    2.667    0.000    4.800    0.000    2.800 
#    0.000    0.000    0.000    0.000    0.000    0.000 
#
# Total GULP energy -743477.075707 kJ/mol
# GULP energy per Si atom -12391.284595 kJ/mol
# Density = 1.672471 g / cm^3
# Si number density = 16.762866 Si / 1000 Ang^3
#
#
#
# Elastic Constant Matrix: (Units=GPa)
#
#
# Indices 1 2 3 4 5 6 
#
# 1 80.4550 62.7804 38.1268 0.0000 0.0000 0.0000
# 2 62.7804 108.1252 47.8219 0.0000 0.0000 0.0000
# 3 38.1268 47.8219 95.0801 0.0000 0.0000 0.0000
# 4 0.0000 0.0000 0.0000 22.2274 0.0000 0.0000
# 5 0.0000 0.0000 0.0000 0.0000 18.3863 0.0000
# 6 0.0000 0.0000 0.0000 0.0000 0.0000 25.1640
#
#
#
# Elastic Compliance Matrix: (Units=1/GPa)
#
#
# Indices 1 2 3 4 5 6 
#
# 1 0.023501 -0.012189 -0.003293 0.000000 0.000000 0.000000
# 2 -0.012189 0.018216 -0.004274 0.000000 0.000000 0.000000
# 3 -0.003293 -0.004274 0.013988 0.000000 0.000000 0.000000
# 4 0.000000 0.000000 0.000000 0.044989 0.000000 0.000000
# 5 0.000000 0.000000 0.000000 0.000000 0.054388 0.000000
# 6 0.000000 0.000000 0.000000 0.000000 0.000000 0.039739
#
#
# Mechanical properties :
#
#
# Convention : Reuss Voigt Hill
#
# Bulk Modulus (GPa) = 61.75841 64.56874 63.16358
# Shear Modulus (GPa) = 20.85654 22.15095 21.50375
#
# Velocity S-wave (km/s) = 3.53116 3.63909 3.58553
# Velocity P-wave (km/s) = 7.31764 7.50066 7.40971
#
# Compressibility (1/GPa) = 0.01619213
#
# Stress axis : x y z
#
# Youngs Moduli (GPa) = 42.55121 54.89625 71.49013
#
# Poissons Ratio (x) = 0.66912 0.23544
# Poissons Ratio (y) = 0.51865 0.30558
# Poissons Ratio (z) = 0.14014 0.23465
#
# Static dielectric constant tensor:
#      x y z
#    x 2.774130 0.000000 0.000000 
#    y 0.000000 3.454280 0.000000 
#    z 0.000000 0.000000 3.191210 
# 
# 
# High freq. dielectric constant tensor:
#      x y z
#    x 1.612330 0.000000 0.000000 
#    y 0.000000 1.661070 0.000000 
#    z 0.000000 0.000000 1.634530 
# 
# From -- ./inp_files/24472.got.cif
#   From: 2010.03.12/outbox.cif.g09.slc.cpg/sg53_13_cif.got.tgz:24472.got - 2010.04.16 14:36:59.
