data_PCOD8217786
_publ_section_title
;
Structure prediction by ZEFSAII (Michael W. Deem and Ramdas Pophale) SiO2 
 PCOD8217786
Probable space group: P M N A
;
_chemical_formula_sum "Si O2"
_cell_formula_units_Z 56
_cell_length_a 9.131793
_cell_length_b 13.658812
_cell_length_c 28.051816
_cell_angle_alpha 90.000000
_cell_angle_beta 90.000000
_cell_angle_gamma 90.000000
_cell_volume 3498.887408
_symmetry_space_group_name_H-M "P M N A"
_symmetry_group_IT_number 53
_symmetry_cell_setting 'orthorhombic'
loop_
_space_group_symop_operation_xyz
x,y,z
1/2-x,-y,1/2+z
x,-y,-z
1/2-x,y,1/2-z
-x,-y,-z
1/2+x,y,1/2-z
-x,y,z
1/2+x,-y,1/2+z
loop_
_atom_site_type_symbol
_atom_site_label
_atom_site_fract_x
_atom_site_fract_y
_atom_site_fract_z
Si Si1 0.833161 0.703711 0.972093
Si Si2 0.669739 0.483280 0.703131
Si Si3 0.832139 0.605500 0.446560
Si Si4 0.671423 0.898404 0.477534
Si Si5 0.668268 0.562549 0.605542
Si Si6 0.670584 0.802894 0.108826
Si Si7 0.173287 0.256420 0.799018
O O1 0.812444 0.672625 0.916252
O O2 0.000000 0.684657 0.988183
O O3 0.730549 0.632917 0.002189
O O4 0.793058 0.816780 0.981986
O O5 0.750000 0.521287 0.750000
O O6 0.500000 0.495807 0.713416
O O7 0.725194 0.552823 0.659823
O O8 0.708476 0.370620 0.691351
O O9 0.752845 0.510172 0.428379
O O10 0.807309 0.693582 0.409979
O O11 0.000000 0.579389 0.453333
O O12 0.500000 0.901280 0.464656
O O13 0.759970 0.878715 0.428939
O O14 0.725462 0.000000 0.500000
O O15 0.500000 0.529045 0.605351
O O16 0.500000 0.828903 0.116129
O O17 0.756371 0.808995 0.158921
O O18 0.250000 0.223155 0.750000
O O19 0.000000 0.236672 0.796192
#
# Coordination Sequence:
#
# PCOD8217786 Si02
#       7
#     8   8   8   8   8   8   8
#     4   9  18  30  45  63  86 115 148 184 222 270
#     4   9  18  29  42  60  85 118 154 186 215 254
#     4  10  19  28  40  61  91 121 150 181 215 256
#     4   9  18  33  51  69  89 115 151 194 239 285
#     4  10  18  29  43  61  86 119 152 180 216 260
#     4  10  19  30  45  67  93 123 155 187 228 275
#     4  10  18  29  45  65  92 124 157 190 222 263
#
# _framework density 16.005088000000001
#
# number of rings (size 3 to 8) (size 9 to 14) (size 15 to 20)
#    0.000    2.429    1.429    1.714    0.000    4.857 
#    0.000    0.000    0.000    0.000    0.000    1.000 
#    0.000    2.286    0.000    0.000    0.000    0.000 
#
# Total GULP energy -694203.168120 kJ/mol
# GULP energy per Si atom -12396.485145 kJ/mol
# Density = 1.596866 g / cm^3
# Si number density = 16.005088 Si / 1000 Ang^3
#
#
#
# Elastic Constant Matrix: (Units=GPa)
#
#
# Indices 1 2 3 4 5 6 
#
# 1 61.2028 31.9859 48.9486 0.0000 0.0000 0.0000
# 2 31.9859 69.0219 63.1911 0.0000 0.0000 0.0000
# 3 48.9486 63.1911 128.2855 0.0000 0.0000 0.0000
# 4 0.0000 0.0000 0.0000 17.0542 0.0000 0.0000
# 5 0.0000 0.0000 0.0000 0.0000 27.8401 0.0000
# 6 0.0000 0.0000 0.0000 0.0000 0.0000 15.0172
#
#
#
# Elastic Compliance Matrix: (Units=1/GPa)
#
#
# Indices 1 2 3 4 5 6 
#
# 1 0.024456 -0.005082 -0.006828 0.000000 0.000000 0.000000
# 2 -0.005082 0.027445 -0.011580 0.000000 0.000000 0.000000
# 3 -0.006828 -0.011580 0.016104 0.000000 0.000000 0.000000
# 4 0.000000 0.000000 0.000000 0.058637 0.000000 0.000000
# 5 0.000000 0.000000 0.000000 0.000000 0.035919 0.000000
# 6 0.000000 0.000000 0.000000 0.000000 0.000000 0.066590
#
#
# Mechanical properties :
#
#
# Convention : Reuss Voigt Hill
#
# Bulk Modulus (GPa) = 47.56133 60.75125 54.15629
# Shear Modulus (GPa) = 17.65914 19.60795 18.63354
#
# Velocity S-wave (km/s) = 3.32527 3.50395 3.41578
# Velocity P-wave (km/s) = 6.67264 7.37632 7.03328
#
# Compressibility (1/GPa) = 0.02102548
#
# Stress axis : x y z
#
# Youngs Moduli (GPa) = 40.88964 36.43691 62.09501
#
# Poissons Ratio (x) = 0.18518 0.42399
# Poissons Ratio (y) = 0.20780 0.71904
# Poissons Ratio (z) = 0.27920 0.42193
#
# Static dielectric constant tensor:
#      x y z
#    x 3.088780 0.000000 0.000000 
#    y 0.000000 2.840910 0.000000 
#    z 0.000000 0.000000 3.139980 
# 
# 
# High freq. dielectric constant tensor:
#      x y z
#    x 1.622550 0.000000 0.000000 
#    y 0.000000 1.569460 0.000000 
#    z 0.000000 0.000000 1.615750 
# 
# From -- ./inp_files/38318.got.cif
#   From: 2010.03.12/outbox.cif.g09.slc.cpg/sg53_20_cif.got.tgz:38318.got - 2010.04.16 14:36:59.
