data_PCOD8217863
_publ_section_title
;
Structure prediction by ZEFSAII (Michael W. Deem and Ramdas Pophale) SiO2 
 PCOD8217863
Probable space group: P M N A
;
_chemical_formula_sum "Si O2"
_cell_formula_units_Z 64
_cell_length_a 19.718460
_cell_length_b 9.172592
_cell_length_c 20.472046
_cell_angle_alpha 90.000000
_cell_angle_beta 90.000000
_cell_angle_gamma 90.000000
_cell_volume 3702.766440
_symmetry_space_group_name_H-M "P M N A"
_symmetry_group_IT_number 53
_symmetry_cell_setting 'orthorhombic'
loop_
_space_group_symop_operation_xyz
x,y,z
1/2-x,-y,1/2+z
x,-y,-z
1/2-x,y,1/2-z
-x,-y,-z
1/2+x,y,1/2-z
-x,y,z
1/2+x,-y,1/2+z
loop_
_atom_site_type_symbol
_atom_site_label
_atom_site_fract_x
_atom_site_fract_y
_atom_site_fract_z
Si Si1 0.215315 0.559064 0.678356
Si Si2 0.707626 0.415404 0.564760
Si Si3 0.924282 0.846696 0.172831
Si Si4 0.138100 0.931237 0.742953
Si Si5 0.576622 0.368224 0.231380
Si Si6 0.177849 0.082559 0.938020
Si Si7 0.751669 0.879274 0.847849
Si Si8 0.075848 0.473830 0.861066
O O1 0.250000 0.546987 0.750000
O O2 0.242672 0.437515 0.627598
O O3 0.133740 0.546352 0.688797
O O4 0.231193 0.711429 0.642031
O O5 0.732975 0.500000 0.500000
O O6 0.707213 0.243725 0.548030
O O7 0.632423 0.477759 0.582302
O O8 0.881958 0.907755 0.113139
O O9 0.916006 0.674357 0.180780
O O10 0.000000 0.894561 0.157207
O O11 0.900774 0.919635 0.240589
O O12 0.085507 0.805056 0.722702
O O13 0.189912 0.967009 0.685126
O O14 0.181004 0.874148 0.804369
O O15 0.500000 0.412849 0.209201
O O16 0.586918 0.399011 0.308627
O O17 0.236172 0.970842 0.913595
O O18 0.146421 0.000000 0.000000
O O19 0.000000 0.482880 0.892585
#
# Coordination Sequence:
#
# PCOD8217863 Si02
#       8
#     8   8   8   8   8   8   8   8
#     4  11  18  34  54  77 105 134 169 213 255 303
#     4  11  22  35  52  74 102 139 177 215 258 305
#     4   9  18  30  45  66  98 133 167 203 244 291
#     4   9  15  27  45  70  96 125 162 201 249 292
#     4  10  18  29  50  77 105 132 166 206 253 302
#     4  10  21  34  48  70  99 134 173 210 248 299
#     4   9  16  30  48  70  97 128 161 209 251 291
#     4   9  18  32  47  70 102 137 172 211 250 296
#
# _framework density 17.284372999999999
#
# number of rings (size 3 to 8) (size 9 to 14) (size 15 to 20)
#    0.000    2.250    3.750    1.125    0.000    2.500 
#    2.250    0.000    0.000    0.375    0.000    0.000 
#    0.000   17.000    0.000    0.000    0.000    0.000 
#
# Total GULP energy -793106.669098 kJ/mol
# GULP energy per Si atom -12392.291705 kJ/mol
# Density = 1.724503 g / cm^3
# Si number density = 17.284373 Si / 1000 Ang^3
#
#
#
# Elastic Constant Matrix: (Units=GPa)
#
#
# Indices 1 2 3 4 5 6 
#
# 1 91.5539 23.5529 27.2871 0.0000 0.0000 0.0000
# 2 23.5529 45.0026 13.7179 0.0000 0.0000 0.0000
# 3 27.2871 13.7179 45.6310 0.0000 0.0000 0.0000
# 4 0.0000 0.0000 0.0000 29.2054 0.0000 0.0000
# 5 0.0000 0.0000 0.0000 0.0000 13.3549 0.0000
# 6 0.0000 0.0000 0.0000 0.0000 0.0000 21.2202
#
#
#
# Elastic Compliance Matrix: (Units=1/GPa)
#
#
# Indices 1 2 3 4 5 6 
#
# 1 0.014394 -0.005405 -0.006983 0.000000 0.000000 0.000000
# 2 -0.005405 0.026492 -0.004732 0.000000 0.000000 0.000000
# 3 -0.006983 -0.004732 0.027513 0.000000 0.000000 0.000000
# 4 0.000000 0.000000 0.000000 0.034240 0.000000 0.000000
# 5 0.000000 0.000000 0.000000 0.000000 0.074879 0.000000
# 6 0.000000 0.000000 0.000000 0.000000 0.000000 0.047125
#
#
# Mechanical properties :
#
#
# Convention : Reuss Voigt Hill
#
# Bulk Modulus (GPa) = 29.27411 34.58925 31.93168
# Shear Modulus (GPa) = 18.50002 20.59807 19.54904
#
# Velocity S-wave (km/s) = 3.27514 3.45587 3.36672
# Velocity P-wave (km/s) = 5.59246 5.99828 5.79892
#
# Compressibility (1/GPa) = 0.03415988
#
# Stress axis : x y z
#
# Youngs Moduli (GPa) = 69.47258 37.74706 36.34618
#
# Poissons Ratio (x) = 0.20402 0.25380
# Poissons Ratio (y) = 0.37549 0.17199
# Poissons Ratio (z) = 0.48511 0.17862
#
# Static dielectric constant tensor:
#      x y z
#    x 3.336060 0.000000 0.000000 
#    y 0.000000 3.346190 0.000000 
#    z 0.000000 0.000000 2.971670 
# 
# 
# High freq. dielectric constant tensor:
#      x y z
#    x 1.660890 0.000000 0.000000 
#    y 0.000000 1.669860 0.000000 
#    z 0.000000 0.000000 1.630420 
# 
# From -- ./inp_files/33078.got.cif
#   From: 2010.03.12/outbox.cif.g09.slc.cpg/sg53_17_cif.got.tgz:33078.got - 2010.04.16 14:36:59.
