data_PCOD8217349
_publ_section_title
;
Structure prediction by ZEFSAII (Michael W. Deem and Ramdas Pophale) SiO2 
 PCOD8217349
Probable space group: P N N A
;
_chemical_formula_sum "Si O2"
_cell_formula_units_Z 36
_cell_length_a 12.596918
_cell_length_b 5.215008
_cell_length_c 24.574635
_cell_angle_alpha 90.000000
_cell_angle_beta 90.000000
_cell_angle_gamma 90.000000
_cell_volume 1614.382189
_symmetry_space_group_name_H-M "P N N A"
_symmetry_group_IT_number 52
_symmetry_cell_setting 'orthorhombic'
loop_
_space_group_symop_operation_xyz
x,y,z
1/2-x,-y,z
x,1/2-y,1/2-z
1/2-x,1/2+y,1/2-z
-x,-y,-z
1/2+x,y,-z
-x,1/2+y,1/2+z
1/2+x,1/2-y,1/2+z
loop_
_atom_site_type_symbol
_atom_site_label
_atom_site_fract_x
_atom_site_fract_y
_atom_site_fract_z
Si Si1 0.250000 0.500000 0.381767
Si Si2 0.639321 0.360386 0.805917
Si Si3 0.508920 0.059376 0.392456
Si Si4 0.345416 0.330977 0.026603
Si Si5 0.131918 0.928664 0.917518
O O1 0.342781 0.621829 0.345828
O O2 0.304615 0.285281 0.417347
O O3 0.750000 0.500000 0.792119
O O4 0.589761 0.250000 0.750000
O O5 0.558537 0.552718 0.836385
O O6 0.443867 0.002765 0.449309
O O7 0.556614 0.342402 0.398500
O O8 0.598166 0.838462 0.389209
O O9 0.250000 0.500000 0.000157
O O10 0.375489 0.112546 0.983086
O O11 0.250000 0.000000 0.898970
#
# Coordination Sequence:
#
# PCOD8217349 Si02
#       5
#     4   8   8   8   8
#     4  12  20  40  64 100 150 180 216 270 356 434
#     4  12  25  42  71 103 140 179 218 294 372 438
#     4  12  25  44  68 101 138 184 241 285 346 417
#     4  12  23  39  66 102 147 186 228 277 355 434
#     4  12  27  44  65  96 141 195 241 286 331 400
#
# _framework density 22.29955
#
# number of rings (size 3 to 8) (size 9 to 14) (size 15 to 20)
#    0.000    0.000    6.667    4.667    0.000    0.000 
#    0.000    0.000    0.000    2.667    0.000    0.000 
#    0.000    0.000    0.000    0.000    0.000    0.000 
#
# Total GULP energy -446380.995405 kJ/mol
# GULP energy per Si atom -12399.472095 kJ/mol
# Density = 2.224880 g / cm^3
# Si number density = 22.299550 Si / 1000 Ang^3
#
#
#
# Elastic Constant Matrix: (Units=GPa)
#
#
# Indices 1 2 3 4 5 6 
#
# 1 94.9870 41.8587 40.3448 0.0000 0.0000 0.0000
# 2 41.8587 129.6440 48.8952 0.0000 0.0000 0.0000
# 3 40.3448 48.8952 137.6034 0.0000 0.0000 0.0000
# 4 0.0000 0.0000 0.0000 68.7513 0.0000 0.0000
# 5 0.0000 0.0000 0.0000 0.0000 -3.7915 0.0000
# 6 0.0000 0.0000 0.0000 0.0000 0.0000 47.2364
#
#
#
# Elastic Compliance Matrix: (Units=1/GPa)
#
#
# Indices 1 2 3 4 5 6 
#
# 1 0.013087 -0.003208 -0.002697 0.000000 0.000000 0.000000
# 2 -0.003208 0.009694 -0.002504 0.000000 0.000000 0.000000
# 3 -0.002697 -0.002504 0.008948 0.000000 0.000000 0.000000
# 4 0.000000 0.000000 0.000000 0.014545 0.000000 0.000000
# 5 0.000000 0.000000 0.000000 0.000000 -0.263748 0.000000
# 6 0.000000 0.000000 0.000000 0.000000 0.000000 0.021170
#
#
# Mechanical properties :
#
#
# Convention : Reuss Voigt Hill
#
# Bulk Modulus (GPa) = 67.06865 69.38133 68.22499
# Shear Modulus (GPa) = -28.65063 37.84829 4.59883
#
# Velocity S-wave (km/s) = -3.58831 4.12426 1.43763
# Velocity P-wave (km/s) = 3.60188 7.33895 5.78074
#
# Compressibility (1/GPa) = 0.01491010
#
# Stress axis : x y z
#
# Youngs Moduli (GPa) = 76.41089 103.16065 111.76019
#
# Poissons Ratio (x) = 0.33097 0.30143
# Poissons Ratio (y) = 0.24515 0.27983
# Poissons Ratio (z) = 0.20609 0.25830
#
# Static dielectric constant tensor:
#      x y z
#    x 4.290310 0.000000 0.000000 
#    y 0.000000 3.969260 0.000000 
#    z 0.000000 0.000000 3.818470 
# 
# 
# High freq. dielectric constant tensor:
#      x y z
#    x 1.870940 0.000000 0.000000 
#    y 0.000000 1.894260 0.000000 
#    z 0.000000 0.000000 1.852180 
# 
# From -- ./inp_files/39893.got.cif
#   From: 2010.06.25/outbox.cif.g09.slc.cpg/sg52_20_cif.got.tgz:39893.got - 2010.06.26 19:32:48.
