data_PCOD8217835
_publ_section_title
;
Structure prediction by ZEFSAII (Michael W. Deem and Ramdas Pophale) SiO2 
 PCOD8217835
Probable space group: P M N A
;
_chemical_formula_sum "Si O2"
_cell_formula_units_Z 48
_cell_length_a 9.079640
_cell_length_b 15.199595
_cell_length_c 19.961173
_cell_angle_alpha 90.000000
_cell_angle_beta 90.000000
_cell_angle_gamma 90.000000
_cell_volume 2754.778623
_symmetry_space_group_name_H-M "P M N A"
_symmetry_group_IT_number 53
_symmetry_cell_setting 'orthorhombic'
loop_
_space_group_symop_operation_xyz
x,y,z
1/2-x,-y,1/2+z
x,-y,-z
1/2-x,y,1/2-z
-x,-y,-z
1/2+x,y,1/2-z
-x,y,z
1/2+x,-y,1/2+z
loop_
_atom_site_type_symbol
_atom_site_label
_atom_site_fract_x
_atom_site_fract_y
_atom_site_fract_z
Si Si1 0.670599 0.243749 0.893795
Si Si2 0.834800 0.923351 0.090471
Si Si3 0.827407 0.459630 0.072470
Si Si4 0.667390 0.113005 0.433689
Si Si5 0.326142 0.717813 0.955372
Si Si6 0.325656 0.418229 0.819918
O O1 0.500000 0.224612 0.896782
O O2 0.742747 0.151448 0.871025
O O3 0.712478 0.318069 0.840152
O O4 0.722998 0.276066 0.967018
O O5 0.000000 0.915519 0.117312
O O6 0.778049 0.023470 0.103905
O O7 0.826834 0.904779 0.012169
O O8 0.761726 0.362203 0.077341
O O9 0.740804 0.517312 0.125557
O O10 0.000000 0.457778 0.089604
O O11 0.796387 0.500000 0.000000
O O12 0.500000 0.136072 0.412315
O O13 0.775802 0.193689 0.416132
O O14 0.500000 0.703785 0.946748
O O15 0.250000 0.439835 0.750000
O O16 0.500000 0.433333 0.815404
#
# Coordination Sequence:
#
# PCOD8217835 Si02
#       6
#     8   8   8   8   8   8
#     4   9  18  30  46  69  99 132 166 207 255 304
#     4   8  14  24  41  63  93 130 165 200 242 294
#     4  11  22  35  54  78 102 135 177 219 265 319
#     4   8  14  25  39  63  97 130 163 203 247 295
#     4  10  18  29  47  72 101 134 169 210 260 309
#     4  11  23  39  55  75 105 138 175 219 265 315
#
# _framework density 17.424268999999999
#
# number of rings (size 3 to 8) (size 9 to 14) (size 15 to 20)
#    0.000    2.500    1.667    2.500    0.000    3.333 
#    0.000    3.333    0.000    0.000    0.000    1.167 
#    0.000    5.333    0.000    0.000    0.000    0.000 
#
# Total GULP energy -594988.469879 kJ/mol
# GULP energy per Si atom -12395.593122 kJ/mol
# Density = 1.738461 g / cm^3
# Si number density = 17.424269 Si / 1000 Ang^3
#
#
#
# Elastic Constant Matrix: (Units=GPa)
#
#
# Indices 1 2 3 4 5 6 
#
# 1 83.6516 70.9367 37.7679 0.0000 0.0000 0.0000
# 2 70.9367 142.4501 38.8772 0.0000 0.0000 0.0000
# 3 37.7679 38.8772 56.4771 0.0000 0.0000 0.0000
# 4 0.0000 0.0000 0.0000 9.7551 0.0000 0.0000
# 5 0.0000 0.0000 0.0000 0.0000 16.9343 0.0000
# 6 0.0000 0.0000 0.0000 0.0000 0.0000 37.3868
#
#
#
# Elastic Compliance Matrix: (Units=1/GPa)
#
#
# Indices 1 2 3 4 5 6 
#
# 1 0.024427 -0.009488 -0.009803 0.000000 0.000000 0.000000
# 2 -0.009488 0.012330 -0.002142 0.000000 0.000000 0.000000
# 3 -0.009803 -0.002142 0.025737 0.000000 0.000000 0.000000
# 4 0.000000 0.000000 0.000000 0.102510 0.000000 0.000000
# 5 0.000000 0.000000 0.000000 0.000000 0.059052 0.000000
# 6 0.000000 0.000000 0.000000 0.000000 0.000000 0.026747
#
#
# Mechanical properties :
#
#
# Convention : Reuss Voigt Hill
#
# Bulk Modulus (GPa) = 50.95491 64.19361 57.57426
# Shear Modulus (GPa) = 16.65492 21.81504 19.23498
#
# Velocity S-wave (km/s) = 3.09503 3.54219 3.32613
# Velocity P-wave (km/s) = 6.48686 7.32468 6.91847
#
# Compressibility (1/GPa) = 0.01962520
#
# Stress axis : x y z
#
# Youngs Moduli (GPa) = 40.93907 81.10542 38.85511
#
# Poissons Ratio (x) = 0.76956 0.38091
# Poissons Ratio (y) = 0.38844 0.08324
# Poissons Ratio (z) = 0.40134 0.17375
#
# Static dielectric constant tensor:
#      x y z
#    x 3.303530 0.000000 0.000000 
#    y 0.000000 3.513210 0.000000 
#    z 0.000000 0.000000 2.692550 
# 
# 
# High freq. dielectric constant tensor:
#      x y z
#    x 1.678280 0.000000 0.000000 
#    y 0.000000 1.692740 0.000000 
#    z 0.000000 0.000000 1.609450 
# 
# From -- ./inp_files/26256.got.cif
#   From: 2010.03.12/outbox.cif.g09.slc.cpg/sg53_14_cif.got.tgz:26256.got - 2010.04.16 14:36:59.
