data_PCOD8217875
_publ_section_title
;
Structure prediction by ZEFSAII (Michael W. Deem and Ramdas Pophale) SiO2 
 PCOD8217875
Probable space group: P M N A
;
_chemical_formula_sum "Si O2"
_cell_formula_units_Z 56
_cell_length_a 9.192726
_cell_length_b 13.773643
_cell_length_c 28.367511
_cell_angle_alpha 90.000000
_cell_angle_beta 90.000000
_cell_angle_gamma 90.000000
_cell_volume 3591.818392
_symmetry_space_group_name_H-M "P M N A"
_symmetry_group_IT_number 53
_symmetry_cell_setting 'orthorhombic'
loop_
_space_group_symop_operation_xyz
x,y,z
1/2-x,-y,1/2+z
x,-y,-z
1/2-x,y,1/2-z
-x,-y,-z
1/2+x,y,1/2-z
-x,y,z
1/2+x,-y,1/2+z
loop_
_atom_site_type_symbol
_atom_site_label
_atom_site_fract_x
_atom_site_fract_y
_atom_site_fract_z
Si Si1 0.832017 0.701043 0.029204
Si Si2 0.668828 0.484389 0.295720
Si Si3 0.667132 0.738446 0.704893
Si Si4 0.831596 0.781353 0.896848
Si Si5 0.669470 0.102476 0.486123
Si Si6 0.832823 0.444141 0.895448
Si Si7 0.672793 0.611214 0.945961
O O1 0.817132 0.665865 0.083692
O O2 0.000000 0.696471 0.012484
O O3 0.772390 0.810673 0.020242
O O4 0.740199 0.626693 0.997553
O O5 0.750000 0.526308 0.250000
O O6 0.500000 0.492173 0.284815
O O7 0.715212 0.372748 0.305580
O O8 0.712885 0.550719 0.340603
O O9 0.750000 0.782205 0.750000
O O10 0.500000 0.742502 0.718620
O O11 0.700077 0.803738 0.658327
O O12 0.799145 0.873275 0.930894
O O13 0.726400 0.694656 0.910963
O O14 0.000000 0.748211 0.902532
O O15 0.500000 0.091459 0.495561
O O16 0.746163 0.000000 0.500000
O O17 0.726427 0.509348 0.926166
O O18 0.000000 0.480585 0.900580
O O19 0.500000 0.611484 0.949510
#
# Coordination Sequence:
#
# PCOD8217875 Si02
#       7
#     8   8   8   8   8   8   8
#     4   9  18  30  45  61  82 113 143 171 209 256
#     4   9  17  28  41  57  80 109 144 178 204 240
#     4   9  16  26  40  58  82 111 142 174 205 243
#     4   9  16  29  45  61  85 117 145 170 211 259
#     4   8  14  26  46  69  86 101 133 180 218 249
#     4  10  18  30  44  58  81 116 149 171 201 248
#     4  11  20  27  39  61  89 115 142 175 207 239
#
# _framework density 15.590989
#
# number of rings (size 3 to 8) (size 9 to 14) (size 15 to 20)
#    0.000    2.714    1.429    2.571    0.000    3.429 
#    0.000    0.000    0.000    6.857    0.000    1.000 
#    0.000    0.000    0.000    0.000    0.000    0.000 
#
# Total GULP energy -693906.109674 kJ/mol
# GULP energy per Si atom -12391.180530 kJ/mol
# Density = 1.555550 g / cm^3
# Si number density = 15.590989 Si / 1000 Ang^3
#
#
#
# Elastic Constant Matrix: (Units=GPa)
#
#
# Indices 1 2 3 4 5 6 
#
# 1 49.8385 24.5191 32.7558 0.0000 0.0000 0.0000
# 2 24.5191 73.5628 63.7016 0.0000 0.0000 0.0000
# 3 32.7558 63.7016 135.0404 0.0000 0.0000 0.0000
# 4 0.0000 0.0000 0.0000 16.6959 0.0000 0.0000
# 5 0.0000 0.0000 0.0000 0.0000 21.9938 0.0000
# 6 0.0000 0.0000 0.0000 0.0000 0.0000 4.8955
#
#
#
# Elastic Compliance Matrix: (Units=1/GPa)
#
#
# Indices 1 2 3 4 5 6 
#
# 1 0.024998 -0.005209 -0.003606 0.000000 0.000000 0.000000
# 2 -0.005209 0.024067 -0.010089 0.000000 0.000000 0.000000
# 3 -0.003606 -0.010089 0.013039 0.000000 0.000000 0.000000
# 4 0.000000 0.000000 0.000000 0.059895 0.000000 0.000000
# 5 0.000000 0.000000 0.000000 0.000000 0.045467 0.000000
# 6 0.000000 0.000000 0.000000 0.000000 0.000000 0.204267
#
#
# Mechanical properties :
#
#
# Convention : Reuss Voigt Hill
#
# Bulk Modulus (GPa) = 41.16163 55.59941 48.38052
# Shear Modulus (GPa) = 11.97199 17.88138 14.92669
#
# Velocity S-wave (km/s) = 2.77407 3.39027 3.09753
# Velocity P-wave (km/s) = 6.05961 7.14590 6.62506
#
# Compressibility (1/GPa) = 0.02429447
#
# Stress axis : x y z
#
# Youngs Moduli (GPa) = 40.00364 41.55071 76.69108
#
# Poissons Ratio (x) = 0.21644 0.27657
# Poissons Ratio (y) = 0.20838 0.77377
# Poissons Ratio (z) = 0.14426 0.41922
#
# Static dielectric constant tensor:
#      x y z
#    x 2.800450 0.000000 0.000000 
#    y 0.000000 2.868000 0.000000 
#    z 0.000000 0.000000 3.138940 
# 
# 
# High freq. dielectric constant tensor:
#      x y z
#    x 1.580800 0.000000 0.000000 
#    y 0.000000 1.551340 0.000000 
#    z 0.000000 0.000000 1.601620 
# 
# From -- ./inp_files/38349.got.cif
#   From: 2010.03.12/outbox.cif.g09.slc.cpg/sg53_20_cif.got.tgz:38349.got - 2010.04.16 14:36:59.
