data_PCOD8217268
_publ_section_title
;
Structure prediction by ZEFSAII (Michael W. Deem and Ramdas Pophale) SiO2 
 PCOD8217268
Probable space group: P N N A
;
_chemical_formula_sum "Si O2"
_cell_formula_units_Z 40
_cell_length_a 9.467878
_cell_length_b 21.654094
_cell_length_c 8.932171
_cell_angle_alpha 90.000000
_cell_angle_beta 90.000000
_cell_angle_gamma 90.000000
_cell_volume 1831.258694
_symmetry_space_group_name_H-M "P N N A"
_symmetry_group_IT_number 52
_symmetry_cell_setting 'orthorhombic'
loop_
_space_group_symop_operation_xyz
x,y,z
1/2-x,-y,z
x,1/2-y,1/2-z
1/2-x,1/2+y,1/2-z
-x,-y,-z
1/2+x,y,-z
-x,1/2+y,1/2+z
1/2+x,1/2-y,1/2+z
loop_
_atom_site_type_symbol
_atom_site_label
_atom_site_fract_x
_atom_site_fract_y
_atom_site_fract_z
Si Si1 0.119588 0.757062 0.581962
Si Si2 0.698159 0.434196 0.615651
Si Si3 0.901724 0.671224 0.098606
Si Si4 0.622879 0.043302 0.553796
Si Si5 0.478035 0.361044 0.410161
O O1 0.064455 0.750000 0.750000
O O2 0.282855 0.776852 0.573668
O O3 0.094825 0.691110 0.509166
O O4 0.035595 0.811110 0.500372
O O5 0.750000 0.500000 0.550406
O O6 0.611961 0.439786 0.770620
O O7 0.593107 0.401621 0.499121
O O8 0.845100 0.399526 0.649476
O O9 0.940662 0.670602 0.273153
O O10 0.855350 0.603626 0.047357
O O11 0.750000 0.000000 0.518488
O O12 0.500000 0.000000 0.500000
#
# Coordination Sequence:
#
# PCOD8217268 Si02
#       5
#     8   8   8   8   8
#     4  12  25  43  65  94 131 175 220 270 333 398
#     4  11  24  44  68 100 137 179 224 278 340 406
#     4  12  25  43  67  97 130 172 221 275 331 396
#     4  11  24  44  67  96 132 175 222 273 335 405
#     4  12  25  44  69 101 137 175 226 282 338 405
#
# _framework density 21.842901000000001
#
# number of rings (size 3 to 8) (size 9 to 14) (size 15 to 20)
#    0.000    0.400    0.000   10.800    0.000    4.000 
#    0.000    0.000    0.000    0.000    0.000    0.000 
#    0.000    0.000    0.000    0.000    0.000    0.000 
#
# Total GULP energy -496073.376148 kJ/mol
# GULP energy per Si atom -12401.834404 kJ/mol
# Density = 2.179319 g / cm^3
# Si number density = 21.842901 Si / 1000 Ang^3
#
#
#
# Elastic Constant Matrix: (Units=GPa)
#
#
# Indices 1 2 3 4 5 6 
#
# 1 130.2065 41.3475 79.3565 0.0000 0.0000 0.0000
# 2 41.3475 123.9917 58.8106 0.0000 0.0000 0.0000
# 3 79.3565 58.8106 136.0184 0.0000 0.0000 0.0000
# 4 0.0000 0.0000 0.0000 45.9588 0.0000 0.0000
# 5 0.0000 0.0000 0.0000 0.0000 37.3441 0.0000
# 6 0.0000 0.0000 0.0000 0.0000 0.0000 45.9345
#
#
#
# Elastic Compliance Matrix: (Units=1/GPa)
#
#
# Indices 1 2 3 4 5 6 
#
# 1 0.011990 -0.000856 -0.006625 0.000000 0.000000 0.000000
# 2 -0.000856 0.010207 -0.003914 0.000000 0.000000 0.000000
# 3 -0.006625 -0.003914 0.012909 0.000000 0.000000 0.000000
# 4 0.000000 0.000000 0.000000 0.021759 0.000000 0.000000
# 5 0.000000 0.000000 0.000000 0.000000 0.026778 0.000000
# 6 0.000000 0.000000 0.000000 0.000000 0.000000 0.021770
#
#
# Mechanical properties :
#
#
# Convention : Reuss Voigt Hill
#
# Bulk Modulus (GPa) = 81.19221 83.24954 82.22088
# Shear Modulus (GPa) = 37.79080 39.89426 38.84253
#
# Velocity S-wave (km/s) = 4.16398 4.27830 4.22153
# Velocity P-wave (km/s) = 7.76981 7.91206 7.84126
#
# Compressibility (1/GPa) = 0.01231645
#
# Stress axis : x y z
#
# Youngs Moduli (GPa) = 83.40578 97.97360 77.46331
#
# Poissons Ratio (x) = 0.08385 0.51319
# Poissons Ratio (y) = 0.07138 0.30318
# Poissons Ratio (z) = 0.55256 0.38345
#
# Static dielectric constant tensor:
#      x y z
#    x 4.021530 0.000000 0.000000 
#    y 0.000000 4.251150 0.000000 
#    z 0.000000 0.000000 4.080350 
# 
# 
# High freq. dielectric constant tensor:
#      x y z
#    x 1.873520 0.000000 0.000000 
#    y 0.000000 1.884440 0.000000 
#    z 0.000000 0.000000 1.865950 
# 
# From -- ./inp_files/7403.got.cif
#   From: 2010.06.25/outbox.cif.g09.slc.cpg/sg52_4_cif.got.tgz:7403.got - 2010.06.26 19:32:48.
