data_PCOD8217278
_publ_section_title
;
Structure prediction by ZEFSAII (Michael W. Deem and Ramdas Pophale) SiO2 
 PCOD8217278
Probable space group: P N N A
;
_chemical_formula_sum "Si O2"
_cell_formula_units_Z 40
_cell_length_a 18.285941
_cell_length_b 8.483886
_cell_length_c 11.542219
_cell_angle_alpha 90.000000
_cell_angle_beta 90.000000
_cell_angle_gamma 90.000000
_cell_volume 1790.611827
_symmetry_space_group_name_H-M "P N N A"
_symmetry_group_IT_number 52
_symmetry_cell_setting 'orthorhombic'
loop_
_space_group_symop_operation_xyz
x,y,z
1/2-x,-y,z
x,1/2-y,1/2-z
1/2-x,1/2+y,1/2-z
-x,-y,-z
1/2+x,y,-z
-x,1/2+y,1/2+z
1/2+x,1/2-y,1/2+z
loop_
_atom_site_type_symbol
_atom_site_label
_atom_site_fract_x
_atom_site_fract_y
_atom_site_fract_z
Si Si1 0.679406 0.906577 0.320057
Si Si2 0.399647 0.431450 0.273707
Si Si3 0.324684 0.914174 0.013910
Si Si4 0.175954 0.453135 0.063881
Si Si5 0.933951 0.582414 0.307304
O O1 0.693514 0.750000 0.250000
O O2 0.750000 0.000000 0.276133
O O3 0.674355 0.916108 0.459969
O O4 0.599334 0.964352 0.285124
O O5 0.379680 0.250000 0.250000
O O6 0.343745 0.509241 0.363058
O O7 0.392180 0.523920 0.150871
O O8 0.480724 0.452760 0.324410
O O9 0.317997 0.725217 0.018298
O O10 0.250000 0.000000 0.970638
O O11 0.391176 0.946641 0.926626
O O12 0.250000 0.500000 0.133813
O O13 0.920705 0.750000 0.250000
#
# Coordination Sequence:
#
# PCOD8217278 Si02
#       5
#     8   8   8   8   8
#     4  11  25  41  69 102 143 182 237 291 352 419
#     4  11  26  46  69 102 144 186 238 287 356 428
#     4  12  25  45  77 101 142 183 238 300 352 423
#     4  11  25  45  70 107 134 188 239 292 359 419
#     4  11  24  46  68 104 138 186 230 289 355 424
#
# _framework density 22.338735
#
# number of rings (size 3 to 8) (size 9 to 14) (size 15 to 20)
#    0.000    0.800    2.000    4.200   11.200    2.400 
#    0.000    0.000    0.000    0.000    0.000    0.000 
#    0.000    0.000    0.000    0.000    0.000    0.000 
#
# Total GULP energy -495653.881343 kJ/mol
# GULP energy per Si atom -12391.347034 kJ/mol
# Density = 2.228789 g / cm^3
# Si number density = 22.338735 Si / 1000 Ang^3
#
#
#
# Elastic Constant Matrix: (Units=GPa)
#
#
# Indices 1 2 3 4 5 6 
#
# 1 99.0946 51.7182 62.7822 0.0000 0.0000 0.0000
# 2 51.7182 88.5272 52.0122 0.0000 0.0000 0.0000
# 3 62.7822 52.0122 131.4295 0.0000 0.0000 0.0000
# 4 0.0000 0.0000 0.0000 37.2596 0.0000 0.0000
# 5 0.0000 0.0000 0.0000 0.0000 41.9497 0.0000
# 6 0.0000 0.0000 0.0000 0.0000 0.0000 31.0276
#
#
#
# Elastic Compliance Matrix: (Units=1/GPa)
#
#
# Indices 1 2 3 4 5 6 
#
# 1 0.017101 -0.006764 -0.005492 0.000000 0.000000 0.000000
# 2 -0.006764 0.017393 -0.003652 0.000000 0.000000 0.000000
# 3 -0.005492 -0.003652 0.011678 0.000000 0.000000 0.000000
# 4 0.000000 0.000000 0.000000 0.026839 0.000000 0.000000
# 5 0.000000 0.000000 0.000000 0.000000 0.023838 0.000000
# 6 0.000000 0.000000 0.000000 0.000000 0.000000 0.032229
#
#
# Mechanical properties :
#
#
# Convention : Reuss Voigt Hill
#
# Bulk Modulus (GPa) = 69.66058 72.45295 71.05676
# Shear Modulus (GPa) = 30.17872 32.21662 31.19767
#
# Velocity S-wave (km/s) = 3.67953 3.80173 3.74113
# Velocity P-wave (km/s) = 7.02163 7.19549 7.10909
#
# Compressibility (1/GPa) = 0.01435532
#
# Stress axis : x y z
#
# Youngs Moduli (GPa) = 58.47585 57.49381 85.63404
#
# Poissons Ratio (x) = 0.38887 0.47033
# Poissons Ratio (y) = 0.39551 0.31276
# Poissons Ratio (z) = 0.32117 0.20998
#
# Static dielectric constant tensor:
#      x y z
#    x 4.156500 0.000000 0.000000 
#    y 0.000000 3.989910 0.000000 
#    z 0.000000 0.000000 4.006480 
# 
# 
# High freq. dielectric constant tensor:
#      x y z
#    x 1.885970 0.000000 0.000000 
#    y 0.000000 1.881890 0.000000 
#    z 0.000000 0.000000 1.888990 
# 
# From -- ./inp_files/20341.got.cif
#   From: 2010.06.25/outbox.cif.g09.slc.cpg/sg52_11_cif.got.tgz:20341.got - 2010.06.26 19:32:48.
