data_PCOD8217224
_publ_section_title
;
Structure prediction by ZEFSAII (Michael W. Deem and Ramdas Pophale) SiO2 
 PCOD8217224
Probable space group: P N N A
;
_chemical_formula_sum "Si O2"
_cell_formula_units_Z 40
_cell_length_a 10.059499
_cell_length_b 21.253541
_cell_length_c 8.303551
_cell_angle_alpha 90.000000
_cell_angle_beta 90.000000
_cell_angle_gamma 90.000000
_cell_volume 1775.298992
_symmetry_space_group_name_H-M "P N N A"
_symmetry_group_IT_number 52
_symmetry_cell_setting 'orthorhombic'
loop_
_space_group_symop_operation_xyz
x,y,z
1/2-x,-y,z
x,1/2-y,1/2-z
1/2-x,1/2+y,1/2-z
-x,-y,-z
1/2+x,y,-z
-x,1/2+y,1/2+z
1/2+x,1/2-y,1/2+z
loop_
_atom_site_type_symbol
_atom_site_label
_atom_site_fract_x
_atom_site_fract_y
_atom_site_fract_z
Si Si1 0.869008 0.681331 0.981951
Si Si2 0.886780 0.248309 0.931128
Si Si3 0.484149 0.144861 0.819609
Si Si4 0.262125 0.928651 0.669250
Si Si5 0.127063 0.457477 0.497893
O O1 0.735275 0.719542 0.024493
O O2 0.934287 0.688777 0.803860
O O3 0.837801 0.609267 0.029072
O O4 0.982818 0.709412 0.094844
O O5 0.829786 0.250000 0.750000
O O6 0.919596 0.184036 0.030755
O O7 0.376975 0.103306 0.722149
O O8 0.602916 0.100893 0.881974
O O9 0.353604 0.929465 0.825690
O O10 0.250000 0.000000 0.603600
O O11 0.250000 0.500000 0.438426
O O12 0.000000 0.500000 0.500000
#
# Coordination Sequence:
#
# PCOD8217224 Si02
#       5
#     8   8   8   8   8
#     4  12  28  47  72 108 143 199 244 308 381 449
#     4  12  28  46  74 106 146 193 251 305 383 447
#     4  12  26  49  73 108 157 189 255 317 373 458
#     4  11  25  48  73 107 152 193 249 312 376 441
#     4  11  23  44  75 108 144 199 254 304 378 445
#
# _framework density 22.531414999999999
#
# number of rings (size 3 to 8) (size 9 to 14) (size 15 to 20)
#    0.000    0.400    6.000    3.000    8.400    3.200 
#    0.000    0.000    0.000    0.000    0.000    0.000 
#    0.000    0.000    0.000    0.000    0.000    0.000 
#
# Total GULP energy -495624.054697 kJ/mol
# GULP energy per Si atom -12390.601367 kJ/mol
# Density = 2.248013 g / cm^3
# Si number density = 22.531415 Si / 1000 Ang^3
#
#
#
# Elastic Constant Matrix: (Units=GPa)
#
#
# Indices 1 2 3 4 5 6 
#
# 1 160.9984 55.8313 18.4124 0.0000 0.0000 0.0000
# 2 55.8313 117.1815 27.2314 0.0000 0.0000 0.0000
# 3 18.4124 27.2314 65.9229 0.0000 0.0000 0.0000
# 4 0.0000 0.0000 0.0000 42.0255 0.0000 0.0000
# 5 0.0000 0.0000 0.0000 0.0000 33.9425 0.0000
# 6 0.0000 0.0000 0.0000 0.0000 0.0000 47.9011
#
#
#
# Elastic Compliance Matrix: (Units=1/GPa)
#
#
# Indices 1 2 3 4 5 6 
#
# 1 0.007468 -0.003400 -0.000681 0.000000 0.000000 0.000000
# 2 -0.003400 0.010988 -0.003589 0.000000 0.000000 0.000000
# 3 -0.000681 -0.003589 0.016842 0.000000 0.000000 0.000000
# 4 0.000000 0.000000 0.000000 0.023795 0.000000 0.000000
# 5 0.000000 0.000000 0.000000 0.000000 0.029462 0.000000
# 6 0.000000 0.000000 0.000000 0.000000 0.000000 0.020876
#
#
# Mechanical properties :
#
#
# Convention : Reuss Voigt Hill
#
# Bulk Modulus (GPa) = 50.10764 60.78364 55.44564
# Shear Modulus (GPa) = 38.04463 40.94899 39.49681
#
# Velocity S-wave (km/s) = 4.11361 4.26774 4.19139
# Velocity P-wave (km/s) = 6.69699 7.16385 6.93435
#
# Compressibility (1/GPa) = 0.01995704
#
# Stress axis : x y z
#
# Youngs Moduli (GPa) = 133.90131 91.01072 59.37463
#
# Poissons Ratio (x) = 0.30942 0.04046
# Poissons Ratio (y) = 0.45525 0.21311
# Poissons Ratio (z) = 0.09125 0.32666
#
# Static dielectric constant tensor:
#      x y z
#    x 3.256870 0.000000 0.000000 
#    y 0.000000 5.575410 0.000000 
#    z 0.000000 0.000000 3.882950 
# 
# 
# High freq. dielectric constant tensor:
#      x y z
#    x 1.908050 0.000000 0.000000 
#    y 0.000000 1.896590 0.000000 
#    z 0.000000 0.000000 1.879740 
# 
# From -- ./inp_files/7444.got.cif
#   From: 2010.06.25/outbox.cif.g09.slc.cpg/sg52_4_cif.got.tgz:7444.got - 2010.06.26 19:32:48.
