data_PCOD8217175
_publ_section_title
;
Structure prediction by ZEFSAII (Michael W. Deem and Ramdas Pophale) SiO2 
 PCOD8217175
Probable space group: P N N A
;
_chemical_formula_sum "Si O2"
_cell_formula_units_Z 48
_cell_length_a 9.704889
_cell_length_b 9.269178
_cell_length_c 29.959226
_cell_angle_alpha 90.000000
_cell_angle_beta 90.000000
_cell_angle_gamma 90.000000
_cell_volume 2695.022428
_symmetry_space_group_name_H-M "P N N A"
_symmetry_group_IT_number 52
_symmetry_cell_setting 'orthorhombic'
loop_
_space_group_symop_operation_xyz
x,y,z
1/2-x,-y,z
x,1/2-y,1/2-z
1/2-x,1/2+y,1/2-z
-x,-y,-z
1/2+x,y,-z
-x,1/2+y,1/2+z
1/2+x,1/2-y,1/2+z
loop_
_atom_site_type_symbol
_atom_site_label
_atom_site_fract_x
_atom_site_fract_y
_atom_site_fract_z
Si Si1 0.909138 0.489355 0.635754
Si Si2 0.907087 0.006026 0.456914
Si Si3 0.411334 0.234607 0.616943
Si Si4 0.094153 0.264476 0.885077
Si Si5 0.387142 0.418317 0.261304
Si Si6 0.406623 0.992375 0.688330
O O1 0.750000 0.500000 0.620829
O O2 0.922146 0.449424 0.687523
O O3 0.981705 0.637488 0.622774
O O4 0.988973 0.366659 0.608317
O O5 0.940098 0.151273 0.429327
O O6 0.750000 0.000000 0.472919
O O7 0.935543 0.868291 0.426324
O O8 0.000000 0.000000 0.500000
O O9 0.252935 0.289030 0.616458
O O10 0.441213 0.129721 0.658229
O O11 0.062011 0.346965 0.839056
O O12 0.250000 0.500000 0.246541
O O13 0.372056 0.250000 0.250000
O O14 0.507295 0.492853 0.233327
O O15 0.250000 0.000000 0.703832
#
# Coordination Sequence:
#
# PCOD8217175 Si02
#       6
#     8   8   8   8   8   8
#     4  11  23  35  52  81 111 147 190 228 272 325
#     4   9  19  37  62  88 111 139 177 221 278 339
#     4   9  20  36  58  81 109 144 181 224 280 324
#     4   9  18  38  57  79 111 143 179 228 276 327
#     4  11  24  38  52  76 115 150 187 232 284 324
#     4   9  19  36  57  77 101 143 192 229 265 323
#
# _framework density 17.810613
#
# number of rings (size 3 to 8) (size 9 to 14) (size 15 to 20)
#    0.000    2.333    1.667    2.500    4.667    2.667 
#    0.000    4.167    0.000    0.000    0.000    0.000 
#    0.000    0.000    0.000    0.000    0.000    0.000 
#
# Total GULP energy -595145.800785 kJ/mol
# GULP energy per Si atom -12398.870850 kJ/mol
# Density = 1.777007 g / cm^3
# Si number density = 17.810613 Si / 1000 Ang^3
#
#
#
# Elastic Constant Matrix: (Units=GPa)
#
#
# Indices 1 2 3 4 5 6 
#
# 1 135.4912 88.3162 62.6669 0.0000 0.0000 0.0000
# 2 88.3162 124.7265 42.2779 0.0000 0.0000 0.0000
# 3 62.6669 42.2779 80.3578 0.0000 0.0000 0.0000
# 4 0.0000 0.0000 0.0000 13.6505 0.0000 0.0000
# 5 0.0000 0.0000 0.0000 0.0000 37.2962 0.0000
# 6 0.0000 0.0000 0.0000 0.0000 0.0000 36.8528
#
#
#
# Elastic Compliance Matrix: (Units=1/GPa)
#
#
# Indices 1 2 3 4 5 6 
#
# 1 0.017627 -0.009519 -0.008738 0.000000 0.000000 0.000000
# 2 -0.009519 0.014899 -0.000415 0.000000 0.000000 0.000000
# 3 -0.008738 -0.000415 0.019477 0.000000 0.000000 0.000000
# 4 0.000000 0.000000 0.000000 0.073257 0.000000 0.000000
# 5 0.000000 0.000000 0.000000 0.000000 0.026812 0.000000
# 6 0.000000 0.000000 0.000000 0.000000 0.000000 0.027135
#
#
# Mechanical properties :
#
#
# Convention : Reuss Voigt Hill
#
# Bulk Modulus (GPa) = 68.22169 80.78860 74.50514
# Shear Modulus (GPa) = 22.57971 27.38088 24.98029
#
# Velocity S-wave (km/s) = 3.56443 3.92514 3.74913
# Velocity P-wave (km/s) = 7.43824 8.12407 7.78871
#
# Compressibility (1/GPa) = 0.01465810
#
# Stress axis : x y z
#
# Youngs Moduli (GPa) = 56.73119 67.12029 51.34292
#
# Poissons Ratio (x) = 0.63895 0.44864
# Poissons Ratio (y) = 0.54005 0.02130
# Poissons Ratio (z) = 0.49572 0.02784
#
# Static dielectric constant tensor:
#      x y z
#    x 3.298810 0.000000 0.000000 
#    y 0.000000 3.225560 0.000000 
#    z 0.000000 0.000000 3.120020 
# 
# 
# High freq. dielectric constant tensor:
#      x y z
#    x 1.696360 0.000000 0.000000 
#    y 0.000000 1.693890 0.000000 
#    z 0.000000 0.000000 1.675410 
# 
# From -- ./inp_files/44360.got.cif
#   From: 2010.06.25/outbox.cif.g09.slc.cpg/sg52_23_cif.got.tgz:44360.got - 2010.06.26 19:32:48.
