data_PCOD8217024
_publ_section_title
;
Structure prediction by ZEFSAII (Michael W. Deem and Ramdas Pophale) SiO2 
 PCOD8217024
Probable space group: P N N A
;
_chemical_formula_sum "Si O2"
_cell_formula_units_Z 44
_cell_length_a 10.961405
_cell_length_b 11.566292
_cell_length_c 19.129389
_cell_angle_alpha 90.000000
_cell_angle_beta 90.000000
_cell_angle_gamma 90.000000
_cell_volume 2425.277709
_symmetry_space_group_name_H-M "P N N A"
_symmetry_group_IT_number 52
_symmetry_cell_setting 'orthorhombic'
loop_
_space_group_symop_operation_xyz
x,y,z
1/2-x,-y,z
x,1/2-y,1/2-z
1/2-x,1/2+y,1/2-z
-x,-y,-z
1/2+x,y,-z
-x,1/2+y,1/2+z
1/2+x,1/2-y,1/2+z
loop_
_atom_site_type_symbol
_atom_site_label
_atom_site_fract_x
_atom_site_fract_y
_atom_site_fract_z
Si Si1 0.608250 0.772660 0.356516
Si Si2 0.250000 0.000000 0.352883
Si Si3 0.063958 0.105943 0.459841
Si Si4 0.038727 0.874644 0.284758
Si Si5 0.332252 0.617726 0.899937
Si Si6 0.384335 0.441872 0.728903
O O1 0.533639 0.806528 0.426207
O O2 0.752863 0.779682 0.368558
O O3 0.591919 0.637639 0.338723
O O4 0.579705 0.861857 0.294632
O O5 0.155946 0.070642 0.399420
O O6 0.323345 0.090859 0.304577
O O7 0.138071 0.164844 0.522476
O O8 0.000000 0.000000 0.500000
O O9 0.038709 0.750000 0.250000
O O10 0.953938 0.893937 0.353480
O O11 0.984636 0.957581 0.224762
O O12 0.250000 0.500000 0.900980
O O13 0.250000 0.500000 0.735182
#
# Coordination Sequence:
#
# PCOD8217024 Si02
#       6
#     8   4   8   8   8   8
#     4  11  21  34  62  90 116 149 189 252 300 343
#     4  12  22  36  54  88 122 148 190 236 298 350
#     4  12  20  36  59  89 120 146 192 251 299 343
#     4  12  24  38  59  87 123 159 192 239 295 358
#     4  12  19  34  60  93 118 142 194 247 299 341
#     4  11  20  37  60  88 118 150 195 243 295 349
#
# _framework density 18.142251000000002
#
# number of rings (size 3 to 8) (size 9 to 14) (size 15 to 20)
#    0.000    0.364   10.000    1.091    0.000    1.455 
#    0.000    0.000    0.000    4.364    0.000    0.000 
#    0.000    0.000    0.000    0.000    0.000    0.000 
#
# Total GULP energy -545229.038068 kJ/mol
# GULP energy per Si atom -12391.569047 kJ/mol
# Density = 1.810096 g / cm^3
# Si number density = 18.142251 Si / 1000 Ang^3
#
#
#
# Elastic Constant Matrix: (Units=GPa)
#
#
# Indices 1 2 3 4 5 6 
#
# 1 106.1265 51.7169 40.4248 0.0000 0.0000 0.0000
# 2 51.7169 121.3188 58.8689 0.0000 0.0000 0.0000
# 3 40.4248 58.8689 85.2973 0.0000 0.0000 0.0000
# 4 0.0000 0.0000 0.0000 27.3551 0.0000 0.0000
# 5 0.0000 0.0000 0.0000 0.0000 31.1709 0.0000
# 6 0.0000 0.0000 0.0000 0.0000 0.0000 13.5778
#
#
#
# Elastic Compliance Matrix: (Units=1/GPa)
#
#
# Indices 1 2 3 4 5 6 
#
# 1 0.012510 -0.003692 -0.003380 0.000000 0.000000 0.000000
# 2 -0.003692 0.013483 -0.007556 0.000000 0.000000 0.000000
# 3 -0.003380 -0.007556 0.018540 0.000000 0.000000 0.000000
# 4 0.000000 0.000000 0.000000 0.036556 0.000000 0.000000
# 5 0.000000 0.000000 0.000000 0.000000 0.032081 0.000000
# 6 0.000000 0.000000 0.000000 0.000000 0.000000 0.073650
#
#
# Mechanical properties :
#
#
# Convention : Reuss Voigt Hill
#
# Bulk Modulus (GPa) = 65.46038 68.30710 66.88374
# Shear Modulus (GPa) = 22.60715 25.20289 23.90502
#
# Velocity S-wave (km/s) = 3.53385 3.73122 3.63387
# Velocity P-wave (km/s) = 7.26711 7.50301 7.38600
#
# Compressibility (1/GPa) = 0.01527642
#
# Stress axis : x y z
#
# Youngs Moduli (GPa) = 79.93787 74.16716 53.93677
#
# Poissons Ratio (x) = 0.27386 0.18232
# Poissons Ratio (y) = 0.29517 0.40752
# Poissons Ratio (z) = 0.27021 0.56037
#
# Static dielectric constant tensor:
#      x y z
#    x 3.751710 0.000000 0.000000 
#    y 0.000000 3.228580 0.000000 
#    z 0.000000 0.000000 3.839790 
# 
# 
# High freq. dielectric constant tensor:
#      x y z
#    x 1.713870 0.000000 0.000000 
#    y 0.000000 1.675250 0.000000 
#    z 0.000000 0.000000 1.695870 
# 
# From -- ./inp_files/36731.got.cif
#   From: 2010.06.25/outbox.cif.g09.slc.cpg/sg52_19_cif.got.tgz:36731.got - 2010.06.26 19:32:48.
