data_PCOD8217190
_publ_section_title
;
Structure prediction by ZEFSAII (Michael W. Deem and Ramdas Pophale) SiO2 
 PCOD8217190
Probable space group: P N N A
;
_chemical_formula_sum "Si O2"
_cell_formula_units_Z 56
_cell_length_a 13.950126
_cell_length_b 15.530643
_cell_length_c 11.334459
_cell_angle_alpha 90.000000
_cell_angle_beta 90.000000
_cell_angle_gamma 90.000000
_cell_volume 2455.660717
_symmetry_space_group_name_H-M "P N N A"
_symmetry_group_IT_number 52
_symmetry_cell_setting 'orthorhombic'
loop_
_space_group_symop_operation_xyz
x,y,z
1/2-x,-y,z
x,1/2-y,1/2-z
1/2-x,1/2+y,1/2-z
-x,-y,-z
1/2+x,y,-z
-x,1/2+y,1/2+z
1/2+x,1/2-y,1/2+z
loop_
_atom_site_type_symbol
_atom_site_label
_atom_site_fract_x
_atom_site_fract_y
_atom_site_fract_z
Si Si1 0.144007 0.928881 0.129533
Si Si2 0.565673 0.660708 0.289861
Si Si3 0.235768 0.095602 0.730334
Si Si4 0.012115 0.699362 0.467231
Si Si5 0.563520 0.027056 0.670262
Si Si6 0.669350 0.405969 0.498646
Si Si7 0.068116 0.381689 0.935342
O O1 0.247053 0.887424 0.096022
O O2 0.058904 0.856712 0.138960
O O3 0.146519 0.975905 0.258179
O O4 0.122663 0.000993 0.028486
O O5 0.517240 0.750000 0.250000
O O6 0.665043 0.647262 0.219885
O O7 0.586000 0.673687 0.428657
O O8 0.491874 0.584086 0.266953
O O9 0.158307 0.143777 0.647270
O O10 0.250000 0.000000 0.678558
O O11 0.204418 0.089851 0.865070
O O12 0.906414 0.670550 0.506972
O O13 0.004993 0.800707 0.441023
O O14 0.603936 0.088365 0.565805
O O15 0.486999 0.960762 0.620363
#
# Coordination Sequence:
#
# PCOD8217190 Si02
#       7
#     8   8   8   8   8   8   8
#     4  11  23  42  74 107 139 185 246 303 358 436
#     4  12  24  43  74 101 140 194 240 301 359 432
#     4  12  23  43  69 105 141 182 246 297 359 439
#     4  12  24  43  74 107 145 184 243 310 369 425
#     4  11  24  48  70  98 147 198 233 291 377 436
#     4  11  23  40  72 110 135 180 245 309 365 423
#     4  11  27  45  69 105 149 194 235 294 376 455
#
# _framework density 22.804452000000001
#
# number of rings (size 3 to 8) (size 9 to 14) (size 15 to 20)
#    0.000    0.571    7.143    1.286    2.000    1.714 
#    2.571    0.000    9.429    0.000    0.000    0.000 
#    0.000    0.000    0.000    0.000    0.000    0.000 
#
# Total GULP energy -694183.649489 kJ/mol
# GULP energy per Si atom -12396.136598 kJ/mol
# Density = 2.275255 g / cm^3
# Si number density = 22.804452 Si / 1000 Ang^3
#
#
#
# Elastic Constant Matrix: (Units=GPa)
#
#
# Indices 1 2 3 4 5 6 
#
# 1 95.3025 29.1396 29.6912 0.0000 0.0000 0.0000
# 2 29.1396 118.4000 25.9441 0.0000 0.0000 0.0000
# 3 29.6912 25.9441 104.0303 0.0000 0.0000 0.0000
# 4 0.0000 0.0000 0.0000 25.8365 0.0000 0.0000
# 5 0.0000 0.0000 0.0000 0.0000 34.6652 0.0000
# 6 0.0000 0.0000 0.0000 0.0000 0.0000 30.9231
#
#
#
# Elastic Compliance Matrix: (Units=1/GPa)
#
#
# Indices 1 2 3 4 5 6 
#
# 1 0.012105 -0.002351 -0.002869 0.000000 0.000000 0.000000
# 2 -0.002351 0.009391 -0.001671 0.000000 0.000000 0.000000
# 3 -0.002869 -0.001671 0.010848 0.000000 0.000000 0.000000
# 4 0.000000 0.000000 0.000000 0.038705 0.000000 0.000000
# 5 0.000000 0.000000 0.000000 0.000000 0.028847 0.000000
# 6 0.000000 0.000000 0.000000 0.000000 0.000000 0.032338
#
#
# Mechanical properties :
#
#
# Convention : Reuss Voigt Hill
#
# Bulk Modulus (GPa) = 53.87000 54.14253 54.00626
# Shear Modulus (GPa) = 32.85077 33.81547 33.33312
#
# Velocity S-wave (km/s) = 3.79956 3.85495 3.82736
# Velocity P-wave (km/s) = 6.55155 6.60362 6.57764
#
# Compressibility (1/GPa) = 0.01856321
#
# Stress axis : x y z
#
# Youngs Moduli (GPa) = 82.60781 106.48905 92.18206
#
# Poissons Ratio (x) = 0.25032 0.26445
# Poissons Ratio (y) = 0.19418 0.15404
# Poissons Ratio (z) = 0.23698 0.17795
#
# Static dielectric constant tensor:
#      x y z
#    x 3.983540 0.000000 0.000000 
#    y 0.000000 4.109660 0.000000 
#    z 0.000000 0.000000 4.311220 
# 
# 
# High freq. dielectric constant tensor:
#      x y z
#    x 1.882180 0.000000 0.000000 
#    y 0.000000 1.900870 0.000000 
#    z 0.000000 0.000000 1.899830 
# 
# From -- ./inp_files/19610.got.cif
#   From: 2010.06.25/outbox.cif.g09.slc.cpg/sg52_10_cif.got.tgz:19610.got - 2010.06.26 19:32:48.
