data_PCOD8217707
_publ_section_title
;
Structure prediction by ZEFSAII (Michael W. Deem and Ramdas Pophale) SiO2 
 PCOD8217707
Probable space group: P M N A
;
_chemical_formula_sum "Si O2"
_cell_formula_units_Z 64
_cell_length_a 9.026528
_cell_length_b 31.215908
_cell_length_c 14.153855
_cell_angle_alpha 90.000000
_cell_angle_beta 90.000000
_cell_angle_gamma 90.000000
_cell_volume 3988.149665
_symmetry_space_group_name_H-M "P M N A"
_symmetry_group_IT_number 53
_symmetry_cell_setting 'orthorhombic'
loop_
_space_group_symop_operation_xyz
x,y,z
1/2-x,-y,1/2+z
x,-y,-z
1/2-x,y,1/2-z
-x,-y,-z
1/2+x,y,1/2-z
-x,y,z
1/2+x,-y,1/2+z
loop_
_atom_site_type_symbol
_atom_site_label
_atom_site_fract_x
_atom_site_fract_y
_atom_site_fract_z
Si Si1 0.328674 0.928361 0.653436
Si Si2 0.826451 0.480620 0.150326
Si Si3 0.170358 0.732211 0.347532
Si Si4 0.828471 0.971769 0.153013
Si Si5 0.826819 0.824407 0.350434
Si Si6 0.825348 0.361017 0.647846
Si Si7 0.823917 0.096076 0.526772
Si Si8 0.825715 0.434951 0.960517
O O1 0.250000 0.916534 0.750000
O O2 0.500000 0.915152 0.657628
O O3 0.242657 0.899932 0.577306
O O4 0.310694 0.978409 0.629757
O O5 0.750000 0.469908 0.250000
O O6 0.780075 0.527275 0.111719
O O7 0.000000 0.478783 0.168441
O O8 0.781616 0.446566 0.068637
O O9 0.250000 0.734804 0.250000
O O10 0.207718 0.777510 0.399775
O O11 0.211748 0.686616 0.395709
O O12 0.000000 0.730828 0.322065
O O13 0.750000 0.959045 0.250000
O O14 0.746824 0.946182 0.071379
O O15 0.000000 0.958322 0.158726
O O16 0.750000 0.829826 0.250000
O O17 0.769540 0.861404 0.419361
O O18 0.000000 0.829959 0.332354
O O19 0.750000 0.368008 0.750000
O O20 0.762924 0.393036 0.569675
O O21 0.000000 0.368626 0.660511
O O22 0.000000 0.091385 0.523669
O O23 0.000000 0.426384 0.953878
#
# Coordination Sequence:
#
# PCOD8217707 Si02
#       8
#     8   8   8   8   8   8   8   8
#     4  10  21  36  51  66  87 116 150 187 224 261
#     4   9  18  31  45  61  86 120 152 184 223 262
#     4   8  15  28  43  61  88 118 146 176 213 258
#     4  10  20  33  48  67  92 121 150 181 218 259
#     4   9  18  31  46  66  93 122 148 176 213 259
#     4  10  18  27  43  66  90 118 150 183 219 259
#     4  11  21  31  47  70  93 119 150 182 219 262
#     4   9  18  31  44  62  89 118 149 185 223 262
#
# _framework density 16.047542
#
# number of rings (size 3 to 8) (size 9 to 14) (size 15 to 20)
#    0.000    2.500    0.000    3.375    0.000    7.500 
#    0.000    1.250    0.000    0.000    0.000    0.875 
#    0.000    2.000    0.000    0.000    0.000    0.000 
#
# Total GULP energy -793104.327760 kJ/mol
# GULP energy per Si atom -12392.255121 kJ/mol
# Density = 1.601102 g / cm^3
# Si number density = 16.047542 Si / 1000 Ang^3
#
#
#
# Elastic Constant Matrix: (Units=GPa)
#
#
# Indices 1 2 3 4 5 6 
#
# 1 70.0621 42.2495 47.1381 0.0000 0.0000 0.0000
# 2 42.2495 92.2554 62.9298 0.0000 0.0000 0.0000
# 3 47.1381 62.9298 108.5227 0.0000 0.0000 0.0000
# 4 0.0000 0.0000 0.0000 18.4264 0.0000 0.0000
# 5 0.0000 0.0000 0.0000 0.0000 29.5913 0.0000
# 6 0.0000 0.0000 0.0000 0.0000 0.0000 21.7042
#
#
#
# Elastic Compliance Matrix: (Units=1/GPa)
#
#
# Indices 1 2 3 4 5 6 
#
# 1 0.021931 -0.005866 -0.006124 0.000000 0.000000 0.000000
# 2 -0.005866 0.019502 -0.008761 0.000000 0.000000 0.000000
# 3 -0.006124 -0.008761 0.016955 0.000000 0.000000 0.000000
# 4 0.000000 0.000000 0.000000 0.054270 0.000000 0.000000
# 5 0.000000 0.000000 0.000000 0.000000 0.033794 0.000000
# 6 0.000000 0.000000 0.000000 0.000000 0.000000 0.046074
#
#
# Mechanical properties :
#
#
# Convention : Reuss Voigt Hill
#
# Bulk Modulus (GPa) = 59.22207 63.94167 61.58187
# Shear Modulus (GPa) = 20.86325 21.84590 21.35457
#
# Velocity S-wave (km/s) = 3.60959 3.69361 3.65184
# Velocity P-wave (km/s) = 7.37268 7.62378 7.49928
#
# Compressibility (1/GPa) = 0.01688560
#
# Stress axis : x y z
#
# Youngs Moduli (GPa) = 45.59769 51.27747 58.97968
#
# Poissons Ratio (x) = 0.30079 0.36122
# Poissons Ratio (y) = 0.26747 0.51670
# Poissons Ratio (z) = 0.27926 0.44923
#
# Static dielectric constant tensor:
#      x y z
#    x 3.054760 0.000000 0.000000 
#    y 0.000000 3.440440 0.000000 
#    z 0.000000 0.000000 2.866180 
# 
# 
# High freq. dielectric constant tensor:
#      x y z
#    x 1.627190 0.000000 0.000000 
#    y 0.000000 1.611780 0.000000 
#    z 0.000000 0.000000 1.592410 
# 
# From -- ./inp_files/21071.got.cif
#   From: 2010.03.12/outbox.cif.g09.slc.cpg/sg53_11_cif.got.tgz:21071.got - 2010.04.16 14:36:59.
