data_PCOD8217901
_publ_section_title
;
Structure prediction by ZEFSAII (Michael W. Deem and Ramdas Pophale) SiO2 
 PCOD8217901
Probable space group: P M N A
;
_chemical_formula_sum "Si O2"
_cell_formula_units_Z 64
_cell_length_a 9.106607
_cell_length_b 21.607315
_cell_length_c 18.011765
_cell_angle_alpha 90.000000
_cell_angle_beta 90.000000
_cell_angle_gamma 90.000000
_cell_volume 3544.162860
_symmetry_space_group_name_H-M "P M N A"
_symmetry_group_IT_number 53
_symmetry_cell_setting 'orthorhombic'
loop_
_space_group_symop_operation_xyz
x,y,z
1/2-x,-y,1/2+z
x,-y,-z
1/2-x,y,1/2-z
-x,-y,-z
1/2+x,y,1/2-z
-x,y,z
1/2+x,-y,1/2+z
loop_
_atom_site_type_symbol
_atom_site_label
_atom_site_fract_x
_atom_site_fract_y
_atom_site_fract_z
Si Si1 0.671342 0.767854 0.326042
Si Si2 0.671010 0.744161 0.904628
Si Si3 0.670724 0.120280 0.906667
Si Si4 0.828646 0.563812 0.963499
Si Si5 0.834514 0.998660 0.911662
Si Si6 0.325703 0.621444 0.826497
Si Si7 0.166808 0.310963 0.962988
Si Si8 0.168429 0.120781 0.418746
O O1 0.750000 0.750918 0.250000
O O2 0.500000 0.780837 0.312620
O O3 0.741675 0.828153 0.362262
O O4 0.696974 0.707890 0.378130
O O5 0.500000 0.738086 0.918359
O O6 0.722342 0.692366 0.845452
O O7 0.710264 0.814060 0.878494
O O8 0.739538 0.733006 0.984701
O O9 0.500000 0.123151 0.885270
O O10 0.735166 0.054163 0.880389
O O11 0.696396 0.129633 0.993859
O O12 0.733690 0.575650 0.889854
O O13 0.000000 0.561620 0.941361
O O14 0.776198 0.500000 0.000000
O O15 0.795469 0.616926 0.024417
O O16 0.000000 0.005116 0.881286
O O17 0.768734 0.933093 0.884182
O O18 0.831117 0.000000 0.000000
O O19 0.250000 0.602265 0.750000
O O20 0.500000 0.614168 0.819679
O O21 0.000000 0.297615 0.985350
O O22 0.000000 0.102425 0.404326
#
# Coordination Sequence:
#
# PCOD8217901 Si02
#       8
#     8   8   8   8   8   8   8   8
#     4  11  22  34  49  70  98 132 173 216 263 315
#     4   9  17  30  50  75 101 133 169 211 259 309
#     4  10  18  30  48  67  93 127 165 212 265 314
#     4   9  18  35  59  84 111 143 177 215 259 307
#     4   9  17  27  41  65  96 126 160 205 255 306
#     4  10  20  34  54  80 112 144 178 216 258 308
#     4   9  18  32  51  75 102 132 168 211 256 304
#     4   9  16  27  45  70  97 125 163 209 261 313
#
# _framework density 18.057860000000002
#
# number of rings (size 3 to 8) (size 9 to 14) (size 15 to 20)
#    0.000    2.500    1.250    1.500    0.000    3.750 
#    0.000    0.625    0.000    2.250    0.000    3.500 
#    0.000    0.000    0.000    0.000    0.000    0.000 
#
# Total GULP energy -793483.353081 kJ/mol
# GULP energy per Si atom -12398.177392 kJ/mol
# Density = 1.801676 g / cm^3
# Si number density = 18.057860 Si / 1000 Ang^3
#
#
#
# Elastic Constant Matrix: (Units=GPa)
#
#
# Indices 1 2 3 4 5 6 
#
# 1 89.6061 52.0678 44.8446 0.0000 0.0000 0.0000
# 2 52.0678 126.9069 49.4044 0.0000 0.0000 0.0000
# 3 44.8446 49.4044 78.7951 0.0000 0.0000 0.0000
# 4 0.0000 0.0000 0.0000 14.9475 0.0000 0.0000
# 5 0.0000 0.0000 0.0000 0.0000 23.9554 0.0000
# 6 0.0000 0.0000 0.0000 0.0000 0.0000 26.9170
#
#
#
# Elastic Compliance Matrix: (Units=1/GPa)
#
#
# Indices 1 2 3 4 5 6 
#
# 1 0.017210 -0.004297 -0.007101 0.000000 0.000000 0.000000
# 2 -0.004297 0.011497 -0.004763 0.000000 0.000000 0.000000
# 3 -0.007101 -0.004763 0.019719 0.000000 0.000000 0.000000
# 4 0.000000 0.000000 0.000000 0.066901 0.000000 0.000000
# 5 0.000000 0.000000 0.000000 0.000000 0.041744 0.000000
# 6 0.000000 0.000000 0.000000 0.000000 0.000000 0.037151
#
#
# Mechanical properties :
#
#
# Convention : Reuss Voigt Hill
#
# Bulk Modulus (GPa) = 62.09368 65.32688 63.71028
# Shear Modulus (GPa) = 21.55985 23.09673 22.32829
#
# Velocity S-wave (km/s) = 3.45908 3.58025 3.52018
# Velocity P-wave (km/s) = 7.10030 7.30382 7.20278
#
# Compressibility (1/GPa) = 0.01610470
#
# Stress axis : x y z
#
# Youngs Moduli (GPa) = 58.10422 86.97933 50.71267
#
# Poissons Ratio (x) = 0.37373 0.36010
# Poissons Ratio (y) = 0.24966 0.24155
# Poissons Ratio (z) = 0.41259 0.41430
#
# Static dielectric constant tensor:
#      x y z
#    x 3.415620 0.000000 0.000000 
#    y 0.000000 3.534600 0.000000 
#    z 0.000000 0.000000 3.075630 
# 
# 
# High freq. dielectric constant tensor:
#      x y z
#    x 1.707130 0.000000 0.000000 
#    y 0.000000 1.702700 0.000000 
#    z 0.000000 0.000000 1.661380 
# 
# From -- ./inp_files/26780.got.cif
#   From: 2010.03.12/outbox.cif.g09.slc.cpg/sg53_14_cif.got.tgz:26780.got - 2010.04.16 14:36:59.
