data_PCOD8217331
_publ_section_title
;
Structure prediction by ZEFSAII (Michael W. Deem and Ramdas Pophale) SiO2 
 PCOD8217331
Probable space group: P N N A
;
_chemical_formula_sum "Si O2"
_cell_formula_units_Z 32
_cell_length_a 22.669773
_cell_length_b 10.904119
_cell_length_c 5.015524
_cell_angle_alpha 90.000000
_cell_angle_beta 90.000000
_cell_angle_gamma 90.000000
_cell_volume 1239.806951
_symmetry_space_group_name_H-M "P N N A"
_symmetry_group_IT_number 52
_symmetry_cell_setting 'orthorhombic'
loop_
_space_group_symop_operation_xyz
x,y,z
1/2-x,-y,z
x,1/2-y,1/2-z
1/2-x,1/2+y,1/2-z
-x,-y,-z
1/2+x,y,-z
-x,1/2+y,1/2+z
1/2+x,1/2-y,1/2+z
loop_
_atom_site_type_symbol
_atom_site_label
_atom_site_fract_x
_atom_site_fract_y
_atom_site_fract_z
Si Si1 0.587859 0.902615 0.004691
Si Si2 0.183676 0.750000 0.250000
Si Si3 0.269451 0.873403 0.595379
Si Si4 0.598827 0.434483 0.995021
Si Si5 0.488360 0.750000 0.750000
O O1 0.641849 0.807816 0.977092
O O2 0.526705 0.834028 0.947410
O O3 0.592673 0.018469 0.806245
O O4 0.589521 0.950260 0.307468
O O5 0.225275 0.863022 0.343186
O O6 0.254309 0.750000 0.750000
O O7 0.337510 0.872410 0.519367
O O8 0.250000 0.000000 0.744867
O O9 0.550801 0.331492 0.052721
#
# Coordination Sequence:
#
# PCOD8217331 Si02
#       5
#     8   4   8   8   4
#     4  11  27  48  75 106 155 197 257 318 391 466
#     4  11  26  44  74 110 150 209 250 316 398 461
#     4  12  26  46  76 110 158 203 258 322 385 473
#     4  12  26  48  72 113 147 199 257 320 388 460
#     4  11  26  48  78 108 146 201 258 324 388 459
#
# _framework density 25.810471
#
# number of rings (size 3 to 8) (size 9 to 14) (size 15 to 20)
#    0.000    0.500    3.750    3.000    3.500    7.000 
#    0.000    0.000    0.000    0.000    0.000    0.000 
#    0.000    0.000    0.000    0.000    0.000    0.000 
#
# Total GULP energy -396915.934126 kJ/mol
# GULP energy per Si atom -12403.622941 kJ/mol
# Density = 2.575172 g / cm^3
# Si number density = 25.810471 Si / 1000 Ang^3
#
#
#
# Elastic Constant Matrix: (Units=GPa)
#
#
# Indices 1 2 3 4 5 6 
#
# 1 183.5075 52.3393 -0.8206 0.0000 0.0000 0.0000
# 2 52.3393 148.7628 11.3526 0.0000 0.0000 0.0000
# 3 -0.8206 11.3526 42.5644 0.0000 0.0000 0.0000
# 4 0.0000 0.0000 0.0000 36.1724 0.0000 0.0000
# 5 0.0000 0.0000 0.0000 0.0000 24.6534 0.0000
# 6 0.0000 0.0000 0.0000 0.0000 0.0000 27.8660
#
#
#
# Elastic Compliance Matrix: (Units=1/GPa)
#
#
# Indices 1 2 3 4 5 6 
#
# 1 0.006078 -0.002192 0.000702 0.000000 0.000000 0.000000
# 2 -0.002192 0.007652 -0.002083 0.000000 0.000000 0.000000
# 3 0.000702 -0.002083 0.024063 0.000000 0.000000 0.000000
# 4 0.000000 0.000000 0.000000 0.027645 0.000000 0.000000
# 5 0.000000 0.000000 0.000000 0.000000 0.040562 0.000000
# 6 0.000000 0.000000 0.000000 0.000000 0.000000 0.035886
#
#
# Mechanical properties :
#
#
# Convention : Reuss Voigt Hill
#
# Bulk Modulus (GPa) = 32.63043 55.61971 44.12507
# Shear Modulus (GPa) = 31.39743 38.53592 34.96668
#
# Velocity S-wave (km/s) = 3.49156 3.86817 3.68468
# Velocity P-wave (km/s) = 5.37815 6.44565 5.93594
#
# Compressibility (1/GPa) = 0.03064624
#
# Stress axis : x y z
#
# Youngs Moduli (GPa) = 164.53696 130.68045 41.55765
#
# Poissons Ratio (x) = 0.28643 -0.02916
# Poissons Ratio (y) = 0.36064 0.08657
# Poissons Ratio (z) = -0.11547 0.27224
#
# Static dielectric constant tensor:
#      x y z
#    x 4.966570 0.000000 0.000000 
#    y 0.000000 5.192290 0.000000 
#    z 0.000000 0.000000 4.350790 
# 
# 
# High freq. dielectric constant tensor:
#      x y z
#    x 2.062670 0.000000 0.000000 
#    y 0.000000 2.050700 0.000000 
#    z 0.000000 0.000000 2.007910 
# 
# From -- ./inp_files/3947.got.cif
#   From: 2010.06.25/outbox.cif.g09.slc.cpg/sg52_2_cif.got.tgz:3947.got - 2010.06.26 19:32:48.
