data_PCOD8217625
_publ_section_title
;
Structure prediction by ZEFSAII (Michael W. Deem and Ramdas Pophale) SiO2 
 PCOD8217625
Probable space group: P M N A
;
_chemical_formula_sum "Si O2"
_cell_formula_units_Z 64
_cell_length_a 8.963440
_cell_length_b 15.029858
_cell_length_c 29.797349
_cell_angle_alpha 90.000000
_cell_angle_beta 90.000000
_cell_angle_gamma 90.000000
_cell_volume 4014.275925
_symmetry_space_group_name_H-M "P M N A"
_symmetry_group_IT_number 53
_symmetry_cell_setting 'orthorhombic'
loop_
_space_group_symop_operation_xyz
x,y,z
1/2-x,-y,1/2+z
x,-y,-z
1/2-x,y,1/2-z
-x,-y,-z
1/2+x,y,1/2-z
-x,y,z
1/2+x,-y,1/2+z
loop_
_atom_site_type_symbol
_atom_site_label
_atom_site_fract_x
_atom_site_fract_y
_atom_site_fract_z
Si Si1 0.824570 0.948905 0.438059
Si Si2 0.173573 0.527618 0.606879
Si Si3 0.322816 0.366312 0.556408
Si Si4 0.676215 0.216237 0.886676
Si Si5 0.674749 0.672074 0.965388
Si Si6 0.825305 0.292432 0.706082
Si Si7 0.326593 0.496475 0.794231
Si Si8 0.823060 0.130111 0.469159
O O1 0.783729 0.887990 0.395188
O O2 0.762332 0.898489 0.482033
O O3 0.000000 0.955113 0.444477
O O4 0.766085 0.051593 0.434822
O O5 0.270045 0.448577 0.586371
O O6 0.205364 0.618248 0.580239
O O7 0.218639 0.544707 0.659085
O O8 0.000000 0.498899 0.604282
O O9 0.500000 0.364606 0.555268
O O10 0.261179 0.275134 0.576933
O O11 0.260923 0.376104 0.505928
O O12 0.500000 0.234905 0.892158
O O13 0.732763 0.238467 0.836962
O O14 0.500000 0.672244 0.977701
O O15 0.739141 0.771935 0.957056
O O16 0.750000 0.250051 0.750000
O O17 0.775423 0.394341 0.700162
O O18 0.000000 0.282835 0.711625
O O19 0.250000 0.539457 0.750000
O O20 0.500000 0.504379 0.785104
O O21 0.000000 0.137330 0.468077
#
# Coordination Sequence:
#
# PCOD8217625 Si02
#       8
#     8   8   8   8   8   8   8   8
#     4   8  13  22  43  69  90 108 139 183 221 255
#     4  10  20  34  49  65  86 120 158 187 218 264
#     4  12  23  31  42  64  95 125 153 186 219 259
#     4  10  17  30  49  66  88 121 154 181 216 267
#     4  10  19  32  50  65  87 122 157 189 222 259
#     4   9  17  28  44  63  86 113 143 182 221 263
#     4   9  17  30  46  65  87 110 144 185 224 264
#     4   8  13  23  42  70  90 107 140 186 225 250
#
# _framework density 15.943099999999999
#
# number of rings (size 3 to 8) (size 9 to 14) (size 15 to 20)
#    0.000    2.500    2.500    2.250    0.000    3.000 
#    0.000    0.000    0.000    1.500    0.000    0.875 
#    0.000    0.000    0.000    0.000    0.000    0.000 
#
# Total GULP energy -793117.877254 kJ/mol
# GULP energy per Si atom -12392.466832 kJ/mol
# Density = 1.590681 g / cm^3
# Si number density = 15.943100 Si / 1000 Ang^3
#
#
#
# Elastic Constant Matrix: (Units=GPa)
#
#
# Indices 1 2 3 4 5 6 
#
# 1 39.6643 22.1322 33.8229 0.0000 0.0000 0.0000
# 2 22.1322 79.1595 48.3972 0.0000 0.0000 0.0000
# 3 33.8229 48.3972 131.6084 0.0000 0.0000 0.0000
# 4 0.0000 0.0000 0.0000 21.1949 0.0000 0.0000
# 5 0.0000 0.0000 0.0000 0.0000 20.3048 0.0000
# 6 0.0000 0.0000 0.0000 0.0000 0.0000 5.3489
#
#
#
# Elastic Compliance Matrix: (Units=1/GPa)
#
#
# Indices 1 2 3 4 5 6 
#
# 1 0.033967 -0.005366 -0.006756 0.000000 0.000000 0.000000
# 2 -0.005366 0.017145 -0.004926 0.000000 0.000000 0.000000
# 3 -0.006756 -0.004926 0.011146 0.000000 0.000000 0.000000
# 4 0.000000 0.000000 0.000000 0.047181 0.000000 0.000000
# 5 0.000000 0.000000 0.000000 0.000000 0.049249 0.000000
# 6 0.000000 0.000000 0.000000 0.000000 0.000000 0.186953
#
#
# Mechanical properties :
#
#
# Convention : Reuss Voigt Hill
#
# Bulk Modulus (GPa) = 35.50924 51.01520 43.26222
# Shear Modulus (GPa) = 12.84938 19.10840 15.97889
#
# Velocity S-wave (km/s) = 2.84201 3.46575 3.16926
# Velocity P-wave (km/s) = 5.75241 6.93419 6.37076
#
# Compressibility (1/GPa) = 0.02816168
#
# Stress axis : x y z
#
# Youngs Moduli (GPa) = 29.44036 58.32773 89.71929
#
# Poissons Ratio (x) = 0.31300 0.60615
# Poissons Ratio (y) = 0.15798 0.44192
# Poissons Ratio (z) = 0.19890 0.28730
#
# Static dielectric constant tensor:
#      x y z
#    x 2.755920 0.000000 0.000000 
#    y 0.000000 3.207320 0.000000 
#    z 0.000000 0.000000 3.127870 
# 
# 
# High freq. dielectric constant tensor:
#      x y z
#    x 1.582870 0.000000 0.000000 
#    y 0.000000 1.596730 0.000000 
#    z 0.000000 0.000000 1.602380 
# 
# From -- ./inp_files/38510.got.cif
#   From: 2010.03.12/outbox.cif.g09.slc.cpg/sg53_20_cif.got.tgz:38510.got - 2010.04.16 14:36:59.
