data_PCOD8217263
_publ_section_title
;
Structure prediction by ZEFSAII (Michael W. Deem and Ramdas Pophale) SiO2 
 PCOD8217263
Probable space group: P N N A
;
_chemical_formula_sum "Si O2"
_cell_formula_units_Z 36
_cell_length_a 10.134249
_cell_length_b 8.721730
_cell_length_c 19.198452
_cell_angle_alpha 90.000000
_cell_angle_beta 90.000000
_cell_angle_gamma 90.000000
_cell_volume 1696.916299
_symmetry_space_group_name_H-M "P N N A"
_symmetry_group_IT_number 52
_symmetry_cell_setting 'orthorhombic'
loop_
_space_group_symop_operation_xyz
x,y,z
1/2-x,-y,z
x,1/2-y,1/2-z
1/2-x,1/2+y,1/2-z
-x,-y,-z
1/2+x,y,-z
-x,1/2+y,1/2+z
1/2+x,1/2-y,1/2+z
loop_
_atom_site_type_symbol
_atom_site_label
_atom_site_fract_x
_atom_site_fract_y
_atom_site_fract_z
Si Si1 0.626276 0.890506 0.504368
Si Si2 0.025696 0.762940 0.135252
Si Si3 0.083322 0.750000 0.750000
Si Si4 0.766938 0.177170 0.111677
Si Si5 0.095599 0.526357 0.252398
O O1 0.620040 0.778698 0.571117
O O2 0.638515 0.775229 0.438957
O O3 0.750000 0.000000 0.512709
O O4 0.500000 0.000000 0.500000
O O5 0.056170 0.656391 0.199593
O O6 0.054769 0.932696 0.167150
O O7 0.875975 0.744097 0.109847
O O8 0.176403 0.812249 0.810858
O O9 0.985967 0.617646 0.775411
O O10 0.750000 0.000000 0.088162
O O11 0.250000 0.500000 0.248835
#
# Coordination Sequence:
#
# PCOD8217263 Si02
#       5
#     8   8   4   8   8
#     4  12  26  47  74 103 142 190 239 293 357 435
#     4  11  24  46  68 100 143 182 235 292 354 428
#     4  12  24  42  74 102 136 180 240 294 356 428
#     4  12  27  46  71 106 139 189 240 298 364 421
#     4  11  24  43  71 103 139 182 231 294 362 425
#
# _framework density 21.214953000000001
#
# number of rings (size 3 to 8) (size 9 to 14) (size 15 to 20)
#    0.000    0.444    4.444    4.667    0.000    3.556 
#    0.000    0.000    0.000    0.000    0.000    0.000 
#    0.000    0.000    0.000    0.000    0.000    0.000 
#
# Total GULP energy -446405.137119 kJ/mol
# GULP energy per Si atom -12400.142698 kJ/mol
# Density = 2.116667 g / cm^3
# Si number density = 21.214953 Si / 1000 Ang^3
#
#
#
# Elastic Constant Matrix: (Units=GPa)
#
#
# Indices 1 2 3 4 5 6 
#
# 1 128.4423 55.7440 36.6469 0.0000 0.0000 0.0000
# 2 55.7440 91.1297 49.3824 0.0000 0.0000 0.0000
# 3 36.6469 49.3824 110.9316 0.0000 0.0000 0.0000
# 4 0.0000 0.0000 0.0000 40.4205 0.0000 0.0000
# 5 0.0000 0.0000 0.0000 0.0000 37.2015 0.0000
# 6 0.0000 0.0000 0.0000 0.0000 0.0000 50.6921
#
#
#
# Elastic Compliance Matrix: (Units=1/GPa)
#
#
# Indices 1 2 3 4 5 6 
#
# 1 0.010655 -0.006076 -0.000815 0.000000 0.000000 0.000000
# 2 -0.006076 0.017927 -0.005973 0.000000 0.000000 0.000000
# 3 -0.000815 -0.005973 0.011943 0.000000 0.000000 0.000000
# 4 0.000000 0.000000 0.000000 0.024740 0.000000 0.000000
# 5 0.000000 0.000000 0.000000 0.000000 0.026881 0.000000
# 6 0.000000 0.000000 0.000000 0.000000 0.000000 0.019727
#
#
# Mechanical properties :
#
#
# Convention : Reuss Voigt Hill
#
# Bulk Modulus (GPa) = 67.58457 68.22780 67.90619
# Shear Modulus (GPa) = 35.07959 38.24483 36.66221
#
# Velocity S-wave (km/s) = 4.07078 4.25046 4.16159
# Velocity P-wave (km/s) = 7.34991 7.50457 7.42764
#
# Compressibility (1/GPa) = 0.01479628
#
# Stress axis : x y z
#
# Youngs Moduli (GPa) = 93.85113 55.78235 83.73211
#
# Poissons Ratio (x) = 0.33893 0.06826
# Poissons Ratio (y) = 0.57024 0.50014
# Poissons Ratio (z) = 0.07651 0.33319
#
# Static dielectric constant tensor:
#      x y z
#    x 4.328870 0.000000 0.000000 
#    y 0.000000 4.259270 0.000000 
#    z 0.000000 0.000000 3.716230 
# 
# 
# High freq. dielectric constant tensor:
#      x y z
#    x 1.844490 0.000000 0.000000 
#    y 0.000000 1.844200 0.000000 
#    z 0.000000 0.000000 1.832660 
# 
# From -- ./inp_files/35543.got.cif
#   From: 2010.06.25/outbox.cif.g09.slc.cpg/sg52_18_cif.got.tgz:35543.got - 2010.06.26 19:32:48.
