data_PCOD8217310
_publ_section_title
;
Structure prediction by ZEFSAII (Michael W. Deem and Ramdas Pophale) SiO2 
 PCOD8217310
Probable space group: P N N A
;
_chemical_formula_sum "Si O2"
_cell_formula_units_Z 48
_cell_length_a 28.870326
_cell_length_b 8.265237
_cell_length_c 8.749298
_cell_angle_alpha 90.000000
_cell_angle_beta 90.000000
_cell_angle_gamma 90.000000
_cell_volume 2087.758247
_symmetry_space_group_name_H-M "P N N A"
_symmetry_group_IT_number 52
_symmetry_cell_setting 'orthorhombic'
loop_
_space_group_symop_operation_xyz
x,y,z
1/2-x,-y,z
x,1/2-y,1/2-z
1/2-x,1/2+y,1/2-z
-x,-y,-z
1/2+x,y,-z
-x,1/2+y,1/2+z
1/2+x,1/2-y,1/2+z
loop_
_atom_site_type_symbol
_atom_site_label
_atom_site_fract_x
_atom_site_fract_y
_atom_site_fract_z
Si Si1 0.785073 0.864872 0.628025
Si Si2 0.637495 0.921869 0.304382
Si Si3 0.366088 0.078706 0.331020
Si Si4 0.052268 0.081080 0.830677
Si Si5 0.786834 0.629997 0.365595
Si Si6 0.453893 0.575608 0.317063
O O1 0.758540 0.750000 0.750000
O O2 0.805544 0.745761 0.499594
O O3 0.750000 0.000000 0.560132
O O4 0.826845 0.951494 0.720765
O O5 0.655881 0.750000 0.250000
O O6 0.639071 0.916699 0.486741
O O7 0.585096 0.947965 0.246776
O O8 0.669867 0.056557 0.226537
O O9 0.356903 0.250000 0.250000
O O10 0.416120 0.014375 0.285003
O O11 0.062461 0.250000 0.750000
O O12 0.064068 0.092367 0.010034
O O13 0.999329 0.033265 0.805499
O O14 0.750000 0.500000 0.428375
O O15 0.759624 0.750000 0.250000
O O16 0.465347 0.750000 0.250000
#
# Coordination Sequence:
#
# PCOD8217310 Si02
#       6
#     8   8   8   8   8   8
#     4  12  28  48  73 108 148 196 249 308 374 444
#     4  12  27  44  73 109 142 194 250 302 370 440
#     4  12  27  46  73 104 148 194 244 304 372 438
#     4  11  25  45  73 106 146 189 246 298 362 443
#     4  12  26  47  76 106 148 193 250 308 370 441
#     4  11  25  45  72 106 147 193 237 301 371 434
#
# _framework density 22.991167000000001
#
# number of rings (size 3 to 8) (size 9 to 14) (size 15 to 20)
#    0.000    0.333    1.667    6.000    9.333    5.333 
#    0.000    0.000    0.000    0.000    0.000    0.000 
#    0.000    0.000    0.000    0.000    0.000    0.000 
#
# Total GULP energy -595244.864368 kJ/mol
# GULP energy per Si atom -12400.934674 kJ/mol
# Density = 2.293884 g / cm^3
# Si number density = 22.991167 Si / 1000 Ang^3
#
#
#
# Elastic Constant Matrix: (Units=GPa)
#
#
# Indices 1 2 3 4 5 6 
#
# 1 100.8555 37.5560 39.3618 0.0000 0.0000 0.0000
# 2 37.5560 142.8822 66.9406 0.0000 0.0000 0.0000
# 3 39.3618 66.9406 139.6347 0.0000 0.0000 0.0000
# 4 0.0000 0.0000 0.0000 50.8714 0.0000 0.0000
# 5 0.0000 0.0000 0.0000 0.0000 137.6739 0.0000
# 6 0.0000 0.0000 0.0000 0.0000 0.0000 53.7373
#
#
#
# Elastic Compliance Matrix: (Units=1/GPa)
#
#
# Indices 1 2 3 4 5 6 
#
# 1 0.011546 -0.001947 -0.002321 0.000000 0.000000 0.000000
# 2 -0.001947 0.009354 -0.003936 0.000000 0.000000 0.000000
# 3 -0.002321 -0.003936 0.009703 0.000000 0.000000 0.000000
# 4 0.000000 0.000000 0.000000 0.019657 0.000000 0.000000
# 5 0.000000 0.000000 0.000000 0.000000 0.007264 0.000000
# 6 0.000000 0.000000 0.000000 0.000000 0.000000 0.018609
#
#
# Mechanical properties :
#
#
# Convention : Reuss Voigt Hill
#
# Bulk Modulus (GPa) = 70.44754 74.56546 72.50650
# Shear Modulus (GPa) = 51.40158 64.42410 57.91284
#
# Velocity S-wave (km/s) = 4.73346 5.29925 5.02433
# Velocity P-wave (km/s) = 7.78343 8.36334 8.07859
#
# Compressibility (1/GPa) = 0.01419496
#
# Stress axis : x y z
#
# Youngs Moduli (GPa) = 86.60816 106.90098 103.06552
#
# Poissons Ratio (x) = 0.20818 0.23924
# Poissons Ratio (y) = 0.16866 0.40562
# Poissons Ratio (z) = 0.20104 0.42071
#
# Static dielectric constant tensor:
#      x y z
#    x 3.990690 0.000000 0.000000 
#    y 0.000000 4.719610 0.000000 
#    z 0.000000 0.000000 4.291020 
# 
# 
# High freq. dielectric constant tensor:
#      x y z
#    x 1.908120 0.000000 0.000000 
#    y 0.000000 1.931980 0.000000 
#    z 0.000000 0.000000 1.920960 
# 
# From -- ./inp_files/15510.got.cif
#   From: 2010.06.25/outbox.cif.g09.slc.cpg/sg52_8_cif.got.tgz:15510.got - 2010.06.26 19:32:48.
