data_PCOD8217090
_publ_section_title
;
Structure prediction by ZEFSAII (Michael W. Deem and Ramdas Pophale) SiO2 
 PCOD8217090
Probable space group: P N N A
;
_chemical_formula_sum "Si O2"
_cell_formula_units_Z 60
_cell_length_a 18.448763
_cell_length_b 22.653041
_cell_length_c 6.395128
_cell_angle_alpha 90.000000
_cell_angle_beta 90.000000
_cell_angle_gamma 90.000000
_cell_volume 2672.655633
_symmetry_space_group_name_H-M "P N N A"
_symmetry_group_IT_number 52
_symmetry_cell_setting 'orthorhombic'
loop_
_space_group_symop_operation_xyz
x,y,z
1/2-x,-y,z
x,1/2-y,1/2-z
1/2-x,1/2+y,1/2-z
-x,-y,-z
1/2+x,y,-z
-x,1/2+y,1/2+z
1/2+x,1/2-y,1/2+z
loop_
_atom_site_type_symbol
_atom_site_label
_atom_site_fract_x
_atom_site_fract_y
_atom_site_fract_z
Si Si1 0.609181 0.479367 0.044711
Si Si2 0.750000 0.500000 0.852929
Si Si3 0.786567 0.410424 0.549481
Si Si4 0.134703 0.094588 0.905885
Si Si5 0.648956 0.303530 0.099685
Si Si6 0.294718 0.192123 0.354173
Si Si7 0.048954 0.375121 0.199864
Si Si8 0.387604 0.109704 0.653976
O O1 0.591487 0.456147 0.279331
O O2 0.595934 0.549461 0.026825
O O3 0.694259 0.462984 0.997924
O O4 0.559617 0.442048 0.885685
O O5 0.807274 0.458308 0.726242
O O6 0.705746 0.435048 0.503397
O O7 0.777408 0.346860 0.652427
O O8 0.840903 0.408375 0.356154
O O9 0.167683 0.142036 0.746663
O O10 0.082514 0.127051 0.069341
O O11 0.623792 0.250000 0.250000
O O12 0.721038 0.287720 0.969737
O O13 0.584394 0.323845 0.943308
O O14 0.331771 0.250000 0.250000
O O15 0.347980 0.158485 0.512775
O O16 0.963733 0.361570 0.220957
#
# Coordination Sequence:
#
# PCOD8217090 Si02
#       8
#     8   4   8   8   8   8   8   8
#     4  11  23  41  68 100 145 184 230 290 346 419
#     4  12  20  40  70 106 134 182 250 292 336 412
#     4  12  22  41  68 100 138 180 233 291 342 412
#     4  11  21  42  68  99 133 183 239 277 340 412
#     4  11  24  45  75 101 131 181 241 290 341 412
#     4  12  26  45  74 103 135 182 238 295 351 418
#     4  11  26  45  68 105 143 183 231 286 353 432
#     4  12  27  44  67 106 147 182 227 285 365 423
#
# _framework density 22.449583000000001
#
# number of rings (size 3 to 8) (size 9 to 14) (size 15 to 20)
#    0.000    0.533    5.333    3.600    0.000    3.200 
#    0.000    1.333    0.000    0.000    0.000    0.000 
#    0.000    0.000    0.000    0.000    0.000    0.000 
#
# Total GULP energy -743751.226654 kJ/mol
# GULP energy per Si atom -12395.853778 kJ/mol
# Density = 2.239849 g / cm^3
# Si number density = 22.449583 Si / 1000 Ang^3
#
#
#
# Elastic Constant Matrix: (Units=GPa)
#
#
# Indices 1 2 3 4 5 6 
#
# 1 124.9481 16.0641 28.7361 0.0000 0.0000 0.0000
# 2 16.0641 112.4037 34.5979 0.0000 0.0000 0.0000
# 3 28.7361 34.5979 89.9882 0.0000 0.0000 0.0000
# 4 0.0000 0.0000 0.0000 41.9533 0.0000 0.0000
# 5 0.0000 0.0000 0.0000 0.0000 26.4469 0.0000
# 6 0.0000 0.0000 0.0000 0.0000 0.0000 18.5327
#
#
#
# Elastic Compliance Matrix: (Units=1/GPa)
#
#
# Indices 1 2 3 4 5 6 
#
# 1 0.008657 -0.000438 -0.002596 0.000000 0.000000 0.000000
# 2 -0.000438 0.010113 -0.003748 0.000000 0.000000 0.000000
# 3 -0.002596 -0.003748 0.013383 0.000000 0.000000 0.000000
# 4 0.000000 0.000000 0.000000 0.023836 0.000000 0.000000
# 5 0.000000 0.000000 0.000000 0.000000 0.037812 0.000000
# 6 0.000000 0.000000 0.000000 0.000000 0.000000 0.053959
#
#
# Mechanical properties :
#
#
# Convention : Reuss Voigt Hill
#
# Bulk Modulus (GPa) = 53.79920 54.01513 53.90717
# Shear Modulus (GPa) = 29.84741 33.91604 31.88173
#
# Velocity S-wave (km/s) = 3.65023 3.89107 3.77257
# Velocity P-wave (km/s) = 6.46390 6.65583 6.56057
#
# Compressibility (1/GPa) = 0.01858764
#
# Stress axis : x y z
#
# Youngs Moduli (GPa) = 115.51787 98.88448 74.72396
#
# Poissons Ratio (x) = 0.04333 0.19398
# Poissons Ratio (y) = 0.05061 0.28008
# Poissons Ratio (z) = 0.29987 0.37064
#
# Static dielectric constant tensor:
#      x y z
#    x 3.759530 0.000000 0.000000 
#    y 0.000000 4.036170 0.000000 
#    z 0.000000 0.000000 4.307570 
# 
# 
# High freq. dielectric constant tensor:
#      x y z
#    x 1.860990 0.000000 0.000000 
#    y 0.000000 1.884280 0.000000 
#    z 0.000000 0.000000 1.902220 
# 
# From -- ./inp_files/4567.got.cif
#   From: 2010.06.25/outbox.cif.g09.slc.cpg/sg52_3_cif.got.tgz:4567.got - 2010.06.26 19:32:48.
