data_PCOD8217351
_publ_section_title
;
Structure prediction by ZEFSAII (Michael W. Deem and Ramdas Pophale) SiO2 
 PCOD8217351
Probable space group: P N N A
;
_chemical_formula_sum "Si O2"
_cell_formula_units_Z 40
_cell_length_a 17.387377
_cell_length_b 10.075486
_cell_length_c 9.108510
_cell_angle_alpha 90.000000
_cell_angle_beta 90.000000
_cell_angle_gamma 90.000000
_cell_volume 1595.685924
_symmetry_space_group_name_H-M "P N N A"
_symmetry_group_IT_number 52
_symmetry_cell_setting 'orthorhombic'
loop_
_space_group_symop_operation_xyz
x,y,z
1/2-x,-y,z
x,1/2-y,1/2-z
1/2-x,1/2+y,1/2-z
-x,-y,-z
1/2+x,y,-z
-x,1/2+y,1/2+z
1/2+x,1/2-y,1/2+z
loop_
_atom_site_type_symbol
_atom_site_label
_atom_site_fract_x
_atom_site_fract_y
_atom_site_fract_z
Si Si1 0.602112 0.166017 0.396266
Si Si2 0.265947 0.291495 0.001312
Si Si3 0.750000 0.000000 0.070639
Si Si4 0.865322 0.250000 0.750000
Si Si5 0.877066 0.090889 0.265993
Si Si6 0.027411 0.649703 0.499491
O O1 0.615625 0.250000 0.250000
O O2 0.682766 0.142210 0.482385
O O3 0.540293 0.241507 0.497130
O O4 0.572684 0.014853 0.361612
O O5 0.320344 0.315386 0.860443
O O6 0.254695 0.133148 0.025661
O O7 0.310419 0.342683 0.147176
O O8 0.825798 0.988631 0.170644
O O9 0.918726 0.337617 0.643489
O O10 0.928385 0.320185 0.347459
O O11 0.000000 0.500000 0.500000
#
# Coordination Sequence:
#
# PCOD8217351 Si02
#       6
#     8   8   4   4   8   8
#     4  12  22  45  77 111 148 205 261 314 395 484
#     4  12  26  47  75 109 147 202 268 322 383 472
#     4  12  20  40  78 100 138 196 264 302 380 462
#     4  12  28  46  70 112 154 196 266 332 384 470
#     4  12  23  45  80 109 148 208 268 322 389 490
#     4  12  24  46  75 112 161 205 254 322 410 474
#
# _framework density 25.067589999999999
#
# number of rings (size 3 to 8) (size 9 to 14) (size 15 to 20)
#    0.000    0.000    9.000    0.600    0.000    0.000 
#    3.600    8.000    0.000    0.000    0.000    0.000 
#    0.000    0.000    0.000    0.000    0.000    0.000 
#
# Total GULP energy -495773.012965 kJ/mol
# GULP energy per Si atom -12394.325324 kJ/mol
# Density = 2.501053 g / cm^3
# Si number density = 25.067590 Si / 1000 Ang^3
#
#
#
# Elastic Constant Matrix: (Units=GPa)
#
#
# Indices 1 2 3 4 5 6 
#
# 1 172.9137 47.1015 93.9068 0.0000 0.0000 0.0000
# 2 47.1015 134.8075 42.6146 0.0000 0.0000 0.0000
# 3 93.9068 42.6146 157.4231 0.0000 0.0000 0.0000
# 4 0.0000 0.0000 0.0000 33.4351 0.0000 0.0000
# 5 0.0000 0.0000 0.0000 0.0000 20.4878 0.0000
# 6 0.0000 0.0000 0.0000 0.0000 0.0000 38.9601
#
#
#
# Elastic Compliance Matrix: (Units=1/GPa)
#
#
# Indices 1 2 3 4 5 6 
#
# 1 0.008843 -0.001555 -0.004854 0.000000 0.000000 0.000000
# 2 -0.001555 0.008386 -0.001342 0.000000 0.000000 0.000000
# 3 -0.004854 -0.001342 0.009611 0.000000 0.000000 0.000000
# 4 0.000000 0.000000 0.000000 0.029909 0.000000 0.000000
# 5 0.000000 0.000000 0.000000 0.000000 0.048810 0.000000
# 6 0.000000 0.000000 0.000000 0.000000 0.000000 0.025667
#
#
# Mechanical properties :
#
#
# Convention : Reuss Voigt Hill
#
# Bulk Modulus (GPa) = 88.20872 92.48778 90.34825
# Shear Modulus (GPa) = 33.22086 37.34468 35.28277
#
# Velocity S-wave (km/s) = 3.64435 3.86393 3.75574
# Velocity P-wave (km/s) = 7.27826 7.54202 7.41131
#
# Compressibility (1/GPa) = 0.01133675
#
# Stress axis : x y z
#
# Youngs Moduli (GPa) = 113.08274 119.25053 104.04484
#
# Poissons Ratio (x) = 0.18547 0.50504
# Poissons Ratio (y) = 0.17588 0.13965
# Poissons Ratio (z) = 0.54891 0.16006
#
# Static dielectric constant tensor:
#      x y z
#    x 4.926730 0.000000 0.000000 
#    y 0.000000 4.550100 0.000000 
#    z 0.000000 0.000000 4.671990 
# 
# 
# High freq. dielectric constant tensor:
#      x y z
#    x 2.005390 0.000000 0.000000 
#    y 0.000000 2.009560 0.000000 
#    z 0.000000 0.000000 1.986070 
# 
# From -- ./inp_files/20380.got.cif
#   From: 2010.06.25/outbox.cif.g09.slc.cpg/sg52_11_cif.got.tgz:20380.got - 2010.06.26 19:32:48.
