data_PCOD8217634
_publ_section_title
;
Structure prediction by ZEFSAII (Michael W. Deem and Ramdas Pophale) SiO2 
 PCOD8217634
Probable space group: P M N A
;
_chemical_formula_sum "Si O2"
_cell_formula_units_Z 36
_cell_length_a 19.084639
_cell_length_b 11.331959
_cell_length_c 9.229192
_cell_angle_alpha 90.000000
_cell_angle_beta 90.000000
_cell_angle_gamma 90.000000
_cell_volume 1995.963637
_symmetry_space_group_name_H-M "P M N A"
_symmetry_group_IT_number 53
_symmetry_cell_setting 'orthorhombic'
loop_
_space_group_symop_operation_xyz
x,y,z
1/2-x,-y,1/2+z
x,-y,-z
1/2-x,y,1/2-z
-x,-y,-z
1/2+x,y,1/2-z
-x,y,z
1/2+x,-y,1/2+z
loop_
_atom_site_type_symbol
_atom_site_label
_atom_site_fract_x
_atom_site_fract_y
_atom_site_fract_z
Si Si1 0.117918 0.500000 0.000000
Si Si2 0.575835 0.316450 0.728116
Si Si3 0.300273 0.706224 0.614705
Si Si4 0.419763 0.136771 0.490155
Si Si5 0.292246 0.607998 0.108795
O O1 0.072842 0.413369 0.900888
O O2 0.166118 0.574816 0.888095
O O3 0.500000 0.317946 0.805084
O O4 0.589109 0.190925 0.650966
O O5 0.632629 0.338837 0.850842
O O6 0.250000 0.726600 0.750000
O O7 0.362603 0.802890 0.616295
O O8 0.252586 0.712092 0.468911
O O9 0.500000 0.156923 0.433514
O O10 0.401576 0.000000 0.500000
O O11 0.250000 0.565822 0.250000
O O12 0.305051 0.500000 0.000000
#
# Coordination Sequence:
#
# PCOD8217634 Si02
#       5
#     4   8   8   8   8
#     4  10  17  30  54  74 109 140 180 212 263 326
#     4  10  20  33  52  79 109 143 181 223 270 327
#     4  11  21  35  55  84 110 146 182 226 275 329
#     4   9  19  38  60  80 106 147 192 232 274 326
#     4  12  20  34  53  80 115 148 181 222 282 333
#
# _framework density 18.036401000000001
#
# number of rings (size 3 to 8) (size 9 to 14) (size 15 to 20)
#    0.000    1.556    5.556    2.333    0.000    1.333 
#    4.000    1.111    0.000    0.000    0.000    4.667 
#    0.000    0.000    0.000    0.000    0.000    0.000 
#
# Total GULP energy -446135.874002 kJ/mol
# GULP energy per Si atom -12392.663167 kJ/mol
# Density = 1.799535 g / cm^3
# Si number density = 18.036401 Si / 1000 Ang^3
#
#
#
# Elastic Constant Matrix: (Units=GPa)
#
#
# Indices 1 2 3 4 5 6 
#
# 1 151.8483 62.5705 56.1597 0.0000 0.0000 0.0000
# 2 62.5705 119.8515 38.2005 0.0000 0.0000 0.0000
# 3 56.1597 38.2005 88.8322 0.0000 0.0000 0.0000
# 4 0.0000 0.0000 0.0000 12.7557 0.0000 0.0000
# 5 0.0000 0.0000 0.0000 0.0000 31.7741 0.0000
# 6 0.0000 0.0000 0.0000 0.0000 0.0000 -11.0444
#
#
#
# Elastic Compliance Matrix: (Units=1/GPa)
#
#
# Indices 1 2 3 4 5 6 
#
# 1 0.009797 -0.003639 -0.004629 0.000000 0.000000 0.000000
# 2 -0.003639 0.011021 -0.002438 0.000000 0.000000 0.000000
# 3 -0.004629 -0.002438 0.015232 0.000000 0.000000 0.000000
# 4 0.000000 0.000000 0.000000 0.078396 0.000000 0.000000
# 5 0.000000 0.000000 0.000000 0.000000 0.031472 0.000000
# 6 0.000000 0.000000 0.000000 0.000000 0.000000 -0.090543
#
#
# Mechanical properties :
#
#
# Convention : Reuss Voigt Hill
#
# Bulk Modulus (GPa) = 68.32047 74.93263 71.62655
# Shear Modulus (GPa) = 61.22418 20.27049 40.74733
#
# Velocity S-wave (km/s) = 5.83254 3.35605 4.75823
# Velocity P-wave (km/s) = 9.12795 7.52681 8.36577
#
# Compressibility (1/GPa) = 0.01463690
#
# Stress axis : x y z
#
# Youngs Moduli (GPa) = 102.07174 90.73669 65.65121
#
# Poissons Ratio (x) = 0.33023 0.30387
# Poissons Ratio (y) = 0.37148 0.16009
# Poissons Ratio (z) = 0.47245 0.22126
#
# Static dielectric constant tensor:
#      x y z
#    x 3.613200 0.000000 0.000000 
#    y 0.000000 3.261730 0.000000 
#    z 0.000000 0.000000 4.149880 
# 
# 
# High freq. dielectric constant tensor:
#      x y z
#    x 1.721650 0.000000 0.000000 
#    y 0.000000 1.677240 0.000000 
#    z 0.000000 0.000000 1.668680 
# 
# From -- ./inp_files/10706.got.cif
#   From: 2010.03.12/outbox.cif.g09.slc.cpg/sg53_6_cif.got.tgz:10706.got - 2010.04.16 14:36:59.
