data_PCOD8217610
_publ_section_title
;
Structure prediction by ZEFSAII (Michael W. Deem and Ramdas Pophale) SiO2 
 PCOD8217610
Probable space group: P M N A
;
_chemical_formula_sum "Si O2"
_cell_formula_units_Z 64
_cell_length_a 9.212795
_cell_length_b 14.981230
_cell_length_c 29.513674
_cell_angle_alpha 90.000000
_cell_angle_beta 90.000000
_cell_angle_gamma 90.000000
_cell_volume 4073.447797
_symmetry_space_group_name_H-M "P M N A"
_symmetry_group_IT_number 53
_symmetry_cell_setting 'orthorhombic'
loop_
_space_group_symop_operation_xyz
x,y,z
1/2-x,-y,1/2+z
x,-y,-z
1/2-x,y,1/2-z
-x,-y,-z
1/2+x,y,1/2-z
-x,y,z
1/2+x,-y,1/2+z
loop_
_atom_site_type_symbol
_atom_site_label
_atom_site_fract_x
_atom_site_fract_y
_atom_site_fract_z
Si Si1 0.829199 0.534908 0.886739
Si Si2 0.329336 0.215428 0.885730
Si Si3 0.831963 0.315154 0.041982
Si Si4 0.669623 0.052448 0.939373
Si Si5 0.330667 0.360059 0.558506
Si Si6 0.670284 0.501125 0.795646
Si Si7 0.328417 0.133676 0.032526
Si Si8 0.167057 0.292226 0.706742
O O1 0.789841 0.620521 0.916757
O O2 0.777592 0.448465 0.915247
O O3 0.741619 0.545694 0.839857
O O4 0.000000 0.529237 0.875880
O O5 0.500000 0.235215 0.888772
O O6 0.292750 0.111000 0.894945
O O7 0.254288 0.274850 0.923556
O O8 0.269420 0.239604 0.836294
O O9 0.745481 0.223931 0.049030
O O10 0.000000 0.290203 0.043169
O O11 0.795430 0.366627 0.995020
O O12 0.500000 0.047310 0.948431
O O13 0.722036 0.949615 0.934968
O O14 0.731051 0.105679 0.982949
O O15 0.500000 0.345234 0.567136
O O16 0.750000 0.536009 0.750000
O O17 0.500000 0.525077 0.792908
O O18 0.696827 0.396108 0.800785
O O19 0.500000 0.150452 0.033821
O O20 0.250000 0.254512 0.750000
O O21 0.000000 0.271269 0.714536
#
# Coordination Sequence:
#
# PCOD8217610 Si02
#       8
#     8   8   8   8   8   8   8   8
#     4  10  20  33  47  64  92 129 161 191 230 275
#     4  10  17  29  47  67  91 120 153 189 226 270
#     4  10  20  32  45  65  94 127 160 195 234 270
#     4   8  15  27  46  67  89 116 149 187 230 274
#     4  10  19  30  44  64  92 127 161 189 222 271
#     4  10  19  32  49  70  93 118 153 193 234 277
#     4   9  16  29  47  66  87 118 154 190 229 271
#     4   9  18  29  44  65  90 118 147 183 225 269
#
# _framework density 15.711506
#
# number of rings (size 3 to 8) (size 9 to 14) (size 15 to 20)
#    0.000    2.500    2.500    1.500    0.000    3.000 
#    0.000    1.875    0.000    2.250    0.000    0.875 
#    0.000    4.000    0.000    0.000    0.000    0.000 
#
# Total GULP energy -793291.461845 kJ/mol
# GULP energy per Si atom -12395.179091 kJ/mol
# Density = 1.567575 g / cm^3
# Si number density = 15.711506 Si / 1000 Ang^3
#
#
#
# Elastic Constant Matrix: (Units=GPa)
#
#
# Indices 1 2 3 4 5 6 
#
# 1 44.9999 34.0942 45.6770 0.0000 0.0000 0.0000
# 2 34.0942 92.7240 50.8169 0.0000 0.0000 0.0000
# 3 45.6770 50.8169 123.5720 0.0000 0.0000 0.0000
# 4 0.0000 0.0000 0.0000 21.7963 0.0000 0.0000
# 5 0.0000 0.0000 0.0000 0.0000 24.3451 0.0000
# 6 0.0000 0.0000 0.0000 0.0000 0.0000 20.9065
#
#
#
# Elastic Compliance Matrix: (Units=1/GPa)
#
#
# Indices 1 2 3 4 5 6 
#
# 1 0.040238 -0.008577 -0.011346 0.000000 0.000000 0.000000
# 2 -0.008577 0.015751 -0.003307 0.000000 0.000000 0.000000
# 3 -0.011346 -0.003307 0.013646 0.000000 0.000000 0.000000
# 4 0.000000 0.000000 0.000000 0.045879 0.000000 0.000000
# 5 0.000000 0.000000 0.000000 0.000000 0.041076 0.000000
# 6 0.000000 0.000000 0.000000 0.000000 0.000000 0.047832
#
#
# Mechanical properties :
#
#
# Convention : Reuss Voigt Hill
#
# Bulk Modulus (GPa) = 43.15073 58.05245 50.60159
# Shear Modulus (GPa) = 19.33436 22.12343 20.72889
#
# Velocity S-wave (km/s) = 3.51178 3.75654 3.63622
# Velocity P-wave (km/s) = 6.63080 7.47293 7.06442
#
# Compressibility (1/GPa) = 0.02317458
#
# Stress axis : x y z
#
# Youngs Moduli (GPa) = 24.85237 63.48937 73.27967
#
# Poissons Ratio (x) = 0.54454 0.83145
# Poissons Ratio (y) = 0.21316 0.24232
# Poissons Ratio (z) = 0.28198 0.20995
#
# Static dielectric constant tensor:
#      x y z
#    x 2.862570 0.000000 0.000000 
#    y 0.000000 2.989970 0.000000 
#    z 0.000000 0.000000 3.031810 
# 
# 
# High freq. dielectric constant tensor:
#      x y z
#    x 1.591980 0.000000 0.000000 
#    y 0.000000 1.586530 0.000000 
#    z 0.000000 0.000000 1.593610 
# 
# From -- ./inp_files/38410.got.cif
#   From: 2010.03.12/outbox.cif.g09.slc.cpg/sg53_20_cif.got.tgz:38410.got - 2010.04.16 14:36:59.
