data_PCOD8217106
_publ_section_title
;
Structure prediction by ZEFSAII (Michael W. Deem and Ramdas Pophale) SiO2 
 PCOD8217106
Probable space group: P N N A
;
_chemical_formula_sum "Si O2"
_cell_formula_units_Z 32
_cell_length_a 35.986309
_cell_length_b 8.307451
_cell_length_c 5.125201
_cell_angle_alpha 90.000000
_cell_angle_beta 90.000000
_cell_angle_gamma 90.000000
_cell_volume 1532.201896
_symmetry_space_group_name_H-M "P N N A"
_symmetry_group_IT_number 52
_symmetry_cell_setting 'orthorhombic'
loop_
_space_group_symop_operation_xyz
x,y,z
1/2-x,-y,z
x,1/2-y,1/2-z
1/2-x,1/2+y,1/2-z
-x,-y,-z
1/2+x,y,-z
-x,1/2+y,1/2+z
1/2+x,1/2-y,1/2+z
loop_
_atom_site_type_symbol
_atom_site_label
_atom_site_fract_x
_atom_site_fract_y
_atom_site_fract_z
Si Si1 0.643803 0.069313 0.220977
Si Si2 0.521254 0.439379 0.752848
Si Si3 0.276214 0.646372 0.514460
Si Si4 0.394748 0.942598 0.271794
O O1 0.628584 0.250000 0.250000
O O2 0.687329 0.071198 0.151321
O O3 0.631287 0.987584 0.493660
O O4 0.622392 0.979302 0.989008
O O5 0.522426 0.250000 0.750000
O O6 0.500000 0.500000 0.500000
O O7 0.563114 0.505895 0.783135
O O8 0.500000 0.500000 0.000000
O O9 0.250000 0.500000 0.428337
O O10 0.257304 0.750000 0.750000
O O11 0.285069 0.750000 0.250000
O O12 0.392257 0.750000 0.250000
#
# Coordination Sequence:
#
# PCOD8217106 Si02
#       4
#     8   8   8   8
#     4   9  16  30  52  79 105 137 187 236 270 314
#     4  11  22  37  58  85 115 149 187 234 288 343
#     4  11  22  37  59  87 117 151 189 238 291 344
#     4   9  17  30  52  79 104 137 187 236 269 315
#
# _framework density 20.884976000000002
#
# number of rings (size 3 to 8) (size 9 to 14) (size 15 to 20)
#    0.000    2.000    0.000    6.750    0.000    4.000 
#    0.000    0.000    0.000   15.000    0.000    0.000 
#    0.000    0.000    0.000    0.000    0.000    0.000 
#
# Total GULP energy -396445.562326 kJ/mol
# GULP energy per Si atom -12388.923823 kJ/mol
# Density = 2.083744 g / cm^3
# Si number density = 20.884976 Si / 1000 Ang^3
#
#
#
# Elastic Constant Matrix: (Units=GPa)
#
#
# Indices 1 2 3 4 5 6 
#
# 1 147.8470 35.1057 86.4859 0.0000 0.0000 0.0000
# 2 35.1057 31.8754 19.9646 0.0000 0.0000 0.0000
# 3 86.4859 19.9646 197.3651 0.0000 0.0000 0.0000
# 4 0.0000 0.0000 0.0000 23.8197 0.0000 0.0000
# 5 0.0000 0.0000 0.0000 0.0000 43.4622 0.0000
# 6 0.0000 0.0000 0.0000 0.0000 0.0000 25.0703
#
#
#
# Elastic Compliance Matrix: (Units=1/GPa)
#
#
# Indices 1 2 3 4 5 6 
#
# 1 0.011537 -0.010185 -0.004025 0.000000 0.000000 0.000000
# 2 -0.010185 0.042486 0.000165 0.000000 0.000000 0.000000
# 3 -0.004025 0.000165 0.006814 0.000000 0.000000 0.000000
# 4 0.000000 0.000000 0.000000 0.041982 0.000000 0.000000
# 5 0.000000 0.000000 0.000000 0.000000 0.023009 0.000000
# 6 0.000000 0.000000 0.000000 0.000000 0.000000 0.039888
#
#
# Mechanical properties :
#
#
# Convention : Reuss Voigt Hill
#
# Bulk Modulus (GPa) = 30.53721 73.35554 51.94638
# Shear Modulus (GPa) = 24.42370 34.17253 29.29811
#
# Velocity S-wave (km/s) = 3.42342 4.04942 3.74950
# Velocity P-wave (km/s) = 5.50270 7.55404 6.60845
#
# Compressibility (1/GPa) = 0.03274693
#
# Stress axis : x y z
#
# Youngs Moduli (GPa) = 86.68019 23.53744 146.75966
#
# Poissons Ratio (x) = 0.23972 0.59073
# Poissons Ratio (y) = 0.88281 -0.02426
# Poissons Ratio (z) = 0.34890 -0.00389
#
# Static dielectric constant tensor:
#      x y z
#    x 3.832260 0.000000 0.000000 
#    y 0.000000 3.257120 0.000000 
#    z 0.000000 0.000000 4.352590 
# 
# 
# High freq. dielectric constant tensor:
#      x y z
#    x 1.823420 0.000000 0.000000 
#    y 0.000000 1.755540 0.000000 
#    z 0.000000 0.000000 1.849920 
# 
# From -- ./inp_files/6225.got.cif
#   From: 2010.06.25/outbox.cif.g09.slc.cpg/sg52_4_cif.got.tgz:6225.got - 2010.06.26 19:32:48.
