data_PCOD8217727
_publ_section_title
;
Structure prediction by ZEFSAII (Michael W. Deem and Ramdas Pophale) SiO2 
 PCOD8217727
Probable space group: P M N A
;
_chemical_formula_sum "Si O2"
_cell_formula_units_Z 64
_cell_length_a 8.862272
_cell_length_b 18.374835
_cell_length_c 26.169357
_cell_angle_alpha 90.000000
_cell_angle_beta 90.000000
_cell_angle_gamma 90.000000
_cell_volume 4261.490995
_symmetry_space_group_name_H-M "P M N A"
_symmetry_group_IT_number 53
_symmetry_cell_setting 'orthorhombic'
loop_
_space_group_symop_operation_xyz
x,y,z
1/2-x,-y,1/2+z
x,-y,-z
1/2-x,y,1/2-z
-x,-y,-z
1/2+x,y,1/2-z
-x,y,z
1/2+x,-y,1/2+z
loop_
_atom_site_type_symbol
_atom_site_label
_atom_site_fract_x
_atom_site_fract_y
_atom_site_fract_z
Si Si1 0.321439 0.672296 0.003766
Si Si2 0.334302 0.463773 0.054843
Si Si3 0.176863 0.094966 0.595458
Si Si4 0.821206 0.337441 0.696986
Si Si5 0.676231 0.828883 0.198282
Si Si6 0.833787 0.963791 0.944953
Si Si7 0.322292 0.593881 0.400653
Si Si8 0.321433 0.825236 0.498809
O O1 0.500000 0.673856 0.013766
O O2 0.280547 0.619092 0.956034
O O3 0.243432 0.646437 0.055897
O O4 0.261426 0.750760 0.987764
O O5 0.500000 0.465049 0.081305
O O6 0.216083 0.508829 0.088885
O O7 0.348857 0.500000 0.000000
O O8 0.228010 0.120764 0.651414
O O9 0.265161 0.144280 0.555212
O O10 0.000000 0.105973 0.586372
O O11 0.218597 0.009351 0.590248
O O12 0.750000 0.364790 0.750000
O O13 0.773602 0.253848 0.687002
O O14 0.751227 0.386347 0.652916
O O15 0.000000 0.347628 0.698305
O O16 0.750000 0.859188 0.250000
O O17 0.500000 0.833043 0.206666
O O18 0.000000 0.965283 0.919366
O O19 0.779913 0.880766 0.954780
O O20 0.843718 0.000000 0.000000
O O21 0.500000 0.604301 0.398320
O O22 0.500000 0.813635 0.494994
#
# Coordination Sequence:
#
# PCOD8217727 Si02
#       8
#     8   8   8   8   8   8   8   8
#     4  10  19  30  44  62  85 113 144 176 212 251
#     4   8  16  30  44  59  82 111 140 173 211 248
#     4  10  18  28  43  62  83 110 144 175 207 248
#     4  10  19  32  46  61  85 113 144 181 216 249
#     4   9  19  31  43  60  81 107 139 175 210 244
#     4   8  16  29  41  57  82 110 139 171 207 246
#     4  11  20  29  44  64  85 113 146 175 210 253
#     4  10  19  29  42  61  85 112 142 174 209 250
#
# _framework density 15.018217999999999
#
# number of rings (size 3 to 8) (size 9 to 14) (size 15 to 20)
#    0.000    2.500    0.000    4.875    0.000    8.000 
#    0.000    0.000    0.000    0.000    0.000    0.000 
#    0.000    1.000    0.000    9.000    0.000    6.750 
#
# Total GULP energy -793377.272414 kJ/mol
# GULP energy per Si atom -12396.519881 kJ/mol
# Density = 1.498404 g / cm^3
# Si number density = 15.018218 Si / 1000 Ang^3
#
#
#
# Elastic Constant Matrix: (Units=GPa)
#
#
# Indices 1 2 3 4 5 6 
#
# 1 77.0273 39.9195 38.0799 0.0000 0.0000 0.0000
# 2 39.9195 106.3096 47.4537 0.0000 0.0000 0.0000
# 3 38.0799 47.4537 76.6270 0.0000 0.0000 0.0000
# 4 0.0000 0.0000 0.0000 20.8806 0.0000 0.0000
# 5 0.0000 0.0000 0.0000 0.0000 23.2719 0.0000
# 6 0.0000 0.0000 0.0000 0.0000 0.0000 14.4820
#
#
#
# Elastic Compliance Matrix: (Units=1/GPa)
#
#
# Indices 1 2 3 4 5 6 
#
# 1 0.018304 -0.003887 -0.006689 0.000000 0.000000 0.000000
# 2 -0.003887 0.013826 -0.006630 0.000000 0.000000 0.000000
# 3 -0.006689 -0.006630 0.020480 0.000000 0.000000 0.000000
# 4 0.000000 0.000000 0.000000 0.047891 0.000000 0.000000
# 5 0.000000 0.000000 0.000000 0.000000 0.042970 0.000000
# 6 0.000000 0.000000 0.000000 0.000000 0.000000 0.069051
#
#
# Mechanical properties :
#
#
# Convention : Reuss Voigt Hill
#
# Bulk Modulus (GPa) = 54.95386 56.76332 55.85859
# Shear Modulus (GPa) = 19.76279 20.69428 20.22853
#
# Velocity S-wave (km/s) = 3.63150 3.71610 3.67404
# Velocity P-wave (km/s) = 7.36577 7.50272 7.43456
#
# Compressibility (1/GPa) = 0.01819708
#
# Stress axis : x y z
#
# Youngs Moduli (GPa) = 54.63362 72.32871 48.82794
#
# Poissons Ratio (x) = 0.28118 0.32659
# Poissons Ratio (y) = 0.21239 0.32374
# Poissons Ratio (z) = 0.36542 0.47955
#
# Static dielectric constant tensor:
#      x y z
#    x 2.976720 0.000000 0.000000 
#    y 0.000000 3.288730 0.000000 
#    z 0.000000 0.000000 2.720780 
# 
# 
# High freq. dielectric constant tensor:
#      x y z
#    x 1.587470 0.000000 0.000000 
#    y 0.000000 1.568240 0.000000 
#    z 0.000000 0.000000 1.537760 
# 
# From -- ./inp_files/34515.got.cif
#   From: 2010.03.12/outbox.cif.g09.slc.cpg/sg53_18_cif.got.tgz:34515.got - 2010.04.16 14:36:59.
