data_PCOD8217426
_publ_section_title
;
Structure prediction by ZEFSAII (Michael W. Deem and Ramdas Pophale) SiO2 
 PCOD8217426
Probable space group: P N N A
;
_chemical_formula_sum "Si O2"
_cell_formula_units_Z 36
_cell_length_a 8.022699
_cell_length_b 8.758478
_cell_length_c 22.361113
_cell_angle_alpha 90.000000
_cell_angle_beta 90.000000
_cell_angle_gamma 90.000000
_cell_volume 1571.240114
_symmetry_space_group_name_H-M "P N N A"
_symmetry_group_IT_number 52
_symmetry_cell_setting 'orthorhombic'
loop_
_space_group_symop_operation_xyz
x,y,z
1/2-x,-y,z
x,1/2-y,1/2-z
1/2-x,1/2+y,1/2-z
-x,-y,-z
1/2+x,y,-z
-x,1/2+y,1/2+z
1/2+x,1/2-y,1/2+z
loop_
_atom_site_type_symbol
_atom_site_label
_atom_site_fract_x
_atom_site_fract_y
_atom_site_fract_z
Si Si1 0.557742 0.750000 0.250000
Si Si2 0.768288 0.837526 0.939172
Si Si3 0.396056 0.696797 0.563974
Si Si4 0.750000 0.000000 0.168373
Si Si5 0.250000 0.000000 0.596146
Si Si6 0.912917 0.599631 0.856699
O O1 0.665994 0.629011 0.289231
O O2 0.425174 0.663323 0.209443
O O3 0.589378 0.753032 0.939495
O O4 0.903968 0.734323 0.905505
O O5 0.750000 0.000000 0.905035
O O6 0.844952 0.887971 0.003244
O O7 0.371667 0.593952 0.623594
O O8 0.276613 0.846303 0.558569
O O9 0.084084 0.993346 0.636059
O O10 0.750000 0.500000 0.862905
#
# Coordination Sequence:
#
# PCOD8217426 Si02
#       6
#     4   8   8   4   4   8
#     4  12  28  48  76 108 154 200 268 312 372 458
#     4  12  26  45  75 116 154 196 250 316 385 463
#     4  12  26  45  78 111 159 198 252 316 391 455
#     4  12  27  48  78 112 150 215 250 318 382 450
#     4  12  25  50  74 110 150 197 246 312 380 452
#     4  12  27  51  74 111 151 202 256 312 380 452
#
# _framework density 22.911840000000002
#
# number of rings (size 3 to 8) (size 9 to 14) (size 15 to 20)
#    0.000    0.000    5.556    4.000    1.556    4.444 
#    0.000    0.000    0.000    0.000    0.000    0.000 
#    0.000    0.000    0.000    0.000    0.000    0.000 
#
# Total GULP energy -446133.248787 kJ/mol
# GULP energy per Si atom -12392.590244 kJ/mol
# Density = 2.285969 g / cm^3
# Si number density = 22.911840 Si / 1000 Ang^3
#
#
#
# Elastic Constant Matrix: (Units=GPa)
#
#
# Indices 1 2 3 4 5 6 
#
# 1 144.8232 35.7154 45.4719 0.0000 0.0000 0.0000
# 2 35.7154 97.7497 41.7892 0.0000 0.0000 0.0000
# 3 45.4719 41.7892 139.3176 0.0000 0.0000 0.0000
# 4 0.0000 0.0000 0.0000 18.4437 0.0000 0.0000
# 5 0.0000 0.0000 0.0000 0.0000 30.7258 0.0000
# 6 0.0000 0.0000 0.0000 0.0000 0.0000 30.5194
#
#
#
# Elastic Compliance Matrix: (Units=1/GPa)
#
#
# Indices 1 2 3 4 5 6 
#
# 1 0.008047 -0.002085 -0.002001 0.000000 0.000000 0.000000
# 2 -0.002085 0.012275 -0.003002 0.000000 0.000000 0.000000
# 3 -0.002001 -0.003002 0.008731 0.000000 0.000000 0.000000
# 4 0.000000 0.000000 0.000000 0.054219 0.000000 0.000000
# 5 0.000000 0.000000 0.000000 0.000000 0.032546 0.000000
# 6 0.000000 0.000000 0.000000 0.000000 0.000000 0.032766
#
#
# Mechanical properties :
#
#
# Convention : Reuss Voigt Hill
#
# Bulk Modulus (GPa) = 67.20989 69.76041 68.48515
# Shear Modulus (GPa) = 29.81165 33.19873 31.50519
#
# Velocity S-wave (km/s) = 3.61105 3.81067 3.71221
# Velocity P-wave (km/s) = 6.83989 7.06223 6.95195
#
# Compressibility (1/GPa) = 0.01487876
#
# Stress axis : x y z
#
# Youngs Moduli (GPa) = 124.26266 81.46547 114.52947
#
# Poissons Ratio (x) = 0.16984 0.22920
# Poissons Ratio (y) = 0.25906 0.34377
# Poissons Ratio (z) = 0.24868 0.24452
#
# Static dielectric constant tensor:
#      x y z
#    x 4.157790 0.000000 0.000000 
#    y 0.000000 4.383670 0.000000 
#    z 0.000000 0.000000 4.085730 
# 
# 
# High freq. dielectric constant tensor:
#      x y z
#    x 1.915000 0.000000 0.000000 
#    y 0.000000 1.922540 0.000000 
#    z 0.000000 0.000000 1.896350 
# 
# From -- ./inp_files/35609.got.cif
#   From: 2010.06.25/outbox.cif.g09.slc.cpg/sg52_18_cif.got.tgz:35609.got - 2010.06.26 19:32:48.
