data_PCOD8217242
_publ_section_title
;
Structure prediction by ZEFSAII (Michael W. Deem and Ramdas Pophale) SiO2 
 PCOD8217242
Probable space group: P N N A
;
_chemical_formula_sum "Si O2"
_cell_formula_units_Z 36
_cell_length_a 12.754043
_cell_length_b 23.905663
_cell_length_c 5.394983
_cell_angle_alpha 90.000000
_cell_angle_beta 90.000000
_cell_angle_gamma 90.000000
_cell_volume 1644.897158
_symmetry_space_group_name_H-M "P N N A"
_symmetry_group_IT_number 52
_symmetry_cell_setting 'orthorhombic'
loop_
_space_group_symop_operation_xyz
x,y,z
1/2-x,-y,z
x,1/2-y,1/2-z
1/2-x,1/2+y,1/2-z
-x,-y,-z
1/2+x,y,-z
-x,1/2+y,1/2+z
1/2+x,1/2-y,1/2+z
loop_
_atom_site_type_symbol
_atom_site_label
_atom_site_fract_x
_atom_site_fract_y
_atom_site_fract_z
Si Si1 0.461867 0.812991 0.302438
Si Si2 0.250000 0.000000 0.539927
Si Si3 0.072170 0.042286 0.853545
Si Si4 0.783132 0.893334 0.772504
Si Si5 0.057533 0.855002 0.212715
O O1 0.425663 0.750000 0.250000
O O2 0.360482 0.850648 0.368777
O O3 0.537524 0.815558 0.545654
O O4 0.512860 0.833489 0.047169
O O5 0.360360 0.998255 0.681369
O O6 0.240028 0.942841 0.394196
O O7 0.994942 0.085290 0.714746
O O8 0.157214 0.078756 0.000024
O O9 0.000000 0.000000 0.000000
O O10 0.680607 0.858732 0.848635
#
# Coordination Sequence:
#
# PCOD8217242 Si02
#       5
#     8   4   8   8   8
#     4  11  26  48  71 100 137 184 241 301 356 417
#     4  12  22  40  70 100 142 182 230 276 356 426
#     4  11  24  41  65 104 147 187 225 284 350 431
#     4  11  26  42  68 106 139 184 238 288 352 429
#     4  11  25  45  71 101 137 184 233 290 354 420
#
# _framework density 21.885867000000001
#
# number of rings (size 3 to 8) (size 9 to 14) (size 15 to 20)
#    0.000    0.889    2.222    4.000    9.333    3.556 
#    0.000    0.000    0.000    0.000    0.000    0.000 
#    0.000    0.000    0.000    0.000    0.000    0.000 
#
# Total GULP energy -446186.845701 kJ/mol
# GULP energy per Si atom -12394.079047 kJ/mol
# Density = 2.183605 g / cm^3
# Si number density = 21.885867 Si / 1000 Ang^3
#
#
#
# Elastic Constant Matrix: (Units=GPa)
#
#
# Indices 1 2 3 4 5 6 
#
# 1 127.7846 33.6299 32.2181 0.0000 0.0000 0.0000
# 2 33.6299 97.9173 21.9825 0.0000 0.0000 0.0000
# 3 32.2181 21.9825 106.9511 0.0000 0.0000 0.0000
# 4 0.0000 0.0000 0.0000 36.4284 0.0000 0.0000
# 5 0.0000 0.0000 0.0000 0.0000 33.8068 0.0000
# 6 0.0000 0.0000 0.0000 0.0000 0.0000 20.8666
#
#
#
# Elastic Compliance Matrix: (Units=1/GPa)
#
#
# Indices 1 2 3 4 5 6 
#
# 1 0.009069 -0.002622 -0.002193 0.000000 0.000000 0.000000
# 2 -0.002622 0.011465 -0.001567 0.000000 0.000000 0.000000
# 3 -0.002193 -0.001567 0.010333 0.000000 0.000000 0.000000
# 4 0.000000 0.000000 0.000000 0.027451 0.000000 0.000000
# 5 0.000000 0.000000 0.000000 0.000000 0.029580 0.000000
# 6 0.000000 0.000000 0.000000 0.000000 0.000000 0.047923
#
#
# Mechanical properties :
#
#
# Convention : Reuss Voigt Hill
#
# Bulk Modulus (GPa) = 55.24000 56.47937 55.85969
# Shear Modulus (GPa) = 32.33764 34.54186 33.43975
#
# Velocity S-wave (km/s) = 3.84807 3.97706 3.91310
# Velocity P-wave (km/s) = 6.71106 6.85213 6.78196
#
# Compressibility (1/GPa) = 0.01810282
#
# Stress axis : x y z
#
# Youngs Moduli (GPa) = 110.26943 87.22166 96.78074
#
# Poissons Ratio (x) = 0.22873 0.21223
# Poissons Ratio (y) = 0.28917 0.15161
# Poissons Ratio (z) = 0.24181 0.13664
#
# Static dielectric constant tensor:
#      x y z
#    x 3.357480 0.000000 0.000000 
#    y 0.000000 4.104000 0.000000 
#    z 0.000000 0.000000 3.920780 
# 
# 
# High freq. dielectric constant tensor:
#      x y z
#    x 1.875520 0.000000 0.000000 
#    y 0.000000 1.863980 0.000000 
#    z 0.000000 0.000000 1.856240 
# 
# From -- ./inp_files/1203.got.cif
#   From: 2010.06.25/outbox.cif.g09.slc.cpg/sg52_1_cif.got.tgz:1203.got - 2010.06.26 19:32:48.
