data_PCOD8217566
_publ_section_title
;
Structure prediction by ZEFSAII (Michael W. Deem and Ramdas Pophale) SiO2 
 PCOD8217566
Probable space group: P M N A
;
_chemical_formula_sum "Si O2"
_cell_formula_units_Z 64
_cell_length_a 17.929387
_cell_length_b 12.036471
_cell_length_c 17.505642
_cell_angle_alpha 90.000000
_cell_angle_beta 90.000000
_cell_angle_gamma 90.000000
_cell_volume 3777.832147
_symmetry_space_group_name_H-M "P M N A"
_symmetry_group_IT_number 53
_symmetry_cell_setting 'orthorhombic'
loop_
_space_group_symop_operation_xyz
x,y,z
1/2-x,-y,1/2+z
x,-y,-z
1/2-x,y,1/2-z
-x,-y,-z
1/2+x,y,1/2-z
-x,y,z
1/2+x,-y,1/2+z
loop_
_atom_site_type_symbol
_atom_site_label
_atom_site_fract_x
_atom_site_fract_y
_atom_site_fract_z
Si Si1 0.412123 0.117208 0.725262
Si Si2 0.412410 0.362875 0.695418
Si Si3 0.666005 0.993353 0.590774
Si Si4 0.846524 0.738427 0.891756
Si Si5 0.588090 0.620546 0.472590
Si Si6 0.300438 0.736700 0.825303
Si Si7 0.195297 0.018962 0.321145
Si Si8 0.912600 0.599833 0.753990
O O1 0.500000 0.096433 0.730175
O O2 0.391937 0.247634 0.736485
O O3 0.385277 0.075786 0.641428
O O4 0.373816 0.059594 0.798772
O O5 0.500000 0.377263 0.685497
O O6 0.377712 0.360973 0.610900
O O7 0.383538 0.472556 0.739234
O O8 0.647587 0.870377 0.623446
O O9 0.753804 0.022240 0.607008
O O10 0.649012 0.000000 0.500000
O O11 0.876579 0.715538 0.975532
O O12 0.758619 0.703728 0.891266
O O13 0.895585 0.670694 0.830231
O O14 0.613713 0.500000 0.500000
O O15 0.500000 0.634188 0.475956
O O16 0.250000 0.736911 0.750000
O O17 0.336308 0.858169 0.838966
O O18 0.368075 0.649780 0.818353
O O19 0.250000 0.022268 0.250000
O O20 0.000000 0.606222 0.736639
#
# Coordination Sequence:
#
# PCOD8217566 Si02
#       8
#     8   8   8   8   8   8   8   8
#     4  10  19  31  48  70  96 123 157 197 235 279
#     4   9  18  29  42  65  95 122 149 184 223 269
#     4  10  20  33  49  68  95 128 158 192 235 284
#     4  10  18  29  45  64  91 120 146 188 226 262
#     4  10  17  27  43  64  92 128 154 173 217 280
#     4   8  16  28  42  63  87 113 146 191 226 257
#     4   8  16  32  48  64  91 127 156 187 238 286
#     4  10  17  28  46  65  89 121 151 180 225 273
#
# _framework density 16.940933999999999
#
# number of rings (size 3 to 8) (size 9 to 14) (size 15 to 20)
#    0.000    2.625    1.250    3.375    0.000    2.750 
#    0.000    5.625    0.000    0.375    0.000    0.000 
#    0.000    0.500    0.000    0.500    0.000    0.000 
#
# Total GULP energy -793025.338685 kJ/mol
# GULP energy per Si atom -12391.020917 kJ/mol
# Density = 1.690238 g / cm^3
# Si number density = 16.940934 Si / 1000 Ang^3
#
#
#
# Elastic Constant Matrix: (Units=GPa)
#
#
# Indices 1 2 3 4 5 6 
#
# 1 70.1279 49.7147 13.3918 0.0000 0.0000 0.0000
# 2 49.7147 105.4360 15.2755 0.0000 0.0000 0.0000
# 3 13.3918 15.2755 14.9414 0.0000 0.0000 0.0000
# 4 0.0000 0.0000 0.0000 20.9447 0.0000 0.0000
# 5 0.0000 0.0000 0.0000 0.0000 24.0341 0.0000
# 6 0.0000 0.0000 0.0000 0.0000 0.0000 18.8076
#
#
#
# Elastic Compliance Matrix: (Units=1/GPa)
#
#
# Indices 1 2 3 4 5 6 
#
# 1 0.022895 -0.009183 -0.011133 0.000000 0.000000 0.000000
# 2 -0.009183 0.014816 -0.006917 0.000000 0.000000 0.000000
# 3 -0.011133 -0.006917 0.083978 0.000000 0.000000 0.000000
# 4 0.000000 0.000000 0.000000 0.047745 0.000000 0.000000
# 5 0.000000 0.000000 0.000000 0.000000 0.041608 0.000000
# 6 0.000000 0.000000 0.000000 0.000000 0.000000 0.053170
#
#
# Mechanical properties :
#
#
# Convention : Reuss Voigt Hill
#
# Bulk Modulus (GPa) = 14.87559 38.58548 26.73053
# Shear Modulus (GPa) = 14.65907 20.23219 17.44563
#
# Velocity S-wave (km/s) = 2.94480 3.45958 3.21252
# Velocity P-wave (km/s) = 4.51247 6.22770 5.43813
#
# Compressibility (1/GPa) = 0.06722423
#
# Stress axis : x y z
#
# Youngs Moduli (GPa) = 43.67714 67.49320 11.90785
#
# Poissons Ratio (x) = 0.61976 0.13257
# Poissons Ratio (y) = 0.40107 0.08237
# Poissons Ratio (z) = 0.48625 0.46687
#
# Static dielectric constant tensor:
#      x y z
#    x 3.202260 0.000000 0.000000 
#    y 0.000000 3.373290 0.000000 
#    z 0.000000 0.000000 3.144690 
# 
# 
# High freq. dielectric constant tensor:
#      x y z
#    x 1.632340 0.000000 0.000000 
#    y 0.000000 1.665260 0.000000 
#    z 0.000000 0.000000 1.613730 
# 
# From -- ./inp_files/29439.got.cif
#   From: 2010.03.12/outbox.cif.g09.slc.cpg/sg53_15_cif.got.tgz:29439.got - 2010.04.16 14:36:59.
