data_PCOD8217933
_publ_section_title
;
Structure prediction by ZEFSAII (Michael W. Deem and Ramdas Pophale) SiO2 
 PCOD8217933
Probable space group: P M N A
;
_chemical_formula_sum "Si O2"
_cell_formula_units_Z 56
_cell_length_a 26.579099
_cell_length_b 15.548876
_cell_length_c 7.670533
_cell_angle_alpha 90.000000
_cell_angle_beta 90.000000
_cell_angle_gamma 90.000000
_cell_volume 3170.040404
_symmetry_space_group_name_H-M "P M N A"
_symmetry_group_IT_number 53
_symmetry_cell_setting 'orthorhombic'
loop_
_space_group_symop_operation_xyz
x,y,z
1/2-x,-y,1/2+z
x,-y,-z
1/2-x,y,1/2-z
-x,-y,-z
1/2+x,y,1/2-z
-x,y,z
1/2+x,-y,1/2+z
loop_
_atom_site_type_symbol
_atom_site_label
_atom_site_fract_x
_atom_site_fract_y
_atom_site_fract_z
Si Si1 0.807401 1.000000 0.702974
Si Si2 0.872789 0.844372 0.300787
Si Si3 0.627211 0.155628 0.199212
Si Si4 0.192633 0.500000 0.203324
Si Si5 0.308492 0.686301 0.705590
Si Si6 0.440891 0.898938 0.500000
Si Si7 0.308492 0.686301 0.294411
O O1 0.750000 0.000000 0.750000
O O2 0.833665 0.085503 0.776006
O O3 0.814291 0.000000 0.500000
O O4 0.833665 0.914496 0.776005
O O5 0.890085 0.863170 0.500000
O O6 0.844947 0.753087 0.299456
O O7 0.920567 0.850563 0.173171
O O8 0.655053 0.246913 0.200543
O O9 0.579433 0.149437 0.326828
O O10 0.250000 0.500000 0.250000
O O11 0.172088 0.408257 0.274762
O O12 0.172088 0.591743 0.274762
O O13 0.184094 0.500000 0.000000
O O14 0.250000 0.703137 0.750000
O O15 0.315340 0.695030 0.500000
O O16 0.500000 0.885709 0.500000
O O17 0.426623 0.000000 0.500000
O O18 0.250000 0.703137 0.250000
#
# Coordination Sequence:
#
# PCOD8217933 Si02
#       7
#     8   8   8   8   8   8   8
#     4  10  22  32  48  75 109 146 176 210 257 316
#     4  11  22  37  54  81 111 140 182 226 272 331
#     4  11  22  37  54  81 111 140 182 226 272 331
#     4   8  16  28  44  70 108 149 190 225 257 309
#     4  10  18  30  49  77 114 154 188 223 267 322
#     4  11  24  42  64  81 103 143 185 236 286 325
#     4  10  18  30  49  77 114 154 188 223 267 322
#
# _framework density 17.665391
#
# number of rings (size 3 to 8) (size 9 to 14) (size 15 to 20)
#    0.000    1.857    2.857    1.714    2.000    4.000 
#    0.000    1.429    0.000    0.000    0.000    2.000 
#    0.000    2.286    0.000    0.000    0.000    0.000 
#
# Total GULP energy -693846.100546 kJ/mol
# GULP energy per Si atom -12390.108938 kJ/mol
# Density = 1.762518 g / cm^3
# Si number density = 17.665391 Si / 1000 Ang^3
#
#
#
# Elastic Constant Matrix: (Units=GPa)
#
#
# Indices 1 2 3 4 5 6 
#
# 1 84.1499 47.3354 35.6912 0.0000 0.0000 0.0000
# 2 47.3354 143.5632 25.3610 0.0000 0.0000 0.0000
# 3 35.6912 25.3610 83.7501 0.0000 0.0000 0.0000
# 4 0.0000 0.0000 0.0000 73.6328 0.0000 0.0000
# 5 0.0000 0.0000 0.0000 0.0000 23.8590 0.0000
# 6 0.0000 0.0000 0.0000 0.0000 0.0000 12.7889
#
#
#
# Elastic Compliance Matrix: (Units=1/GPa)
#
#
# Indices 1 2 3 4 5 6 
#
# 1 0.016915 -0.004547 -0.005832 0.000000 0.000000 0.000000
# 2 -0.004547 0.008582 -0.000661 0.000000 0.000000 0.000000
# 3 -0.005832 -0.000661 0.014626 0.000000 0.000000 0.000000
# 4 0.000000 0.000000 0.000000 0.013581 0.000000 0.000000
# 5 0.000000 0.000000 0.000000 0.000000 0.041913 0.000000
# 6 0.000000 0.000000 0.000000 0.000000 0.000000 0.078193
#
#
# Mechanical properties :
#
#
# Convention : Reuss Voigt Hill
#
# Bulk Modulus (GPa) = 55.42287 58.69315 57.05801
# Shear Modulus (GPa) = 24.76457 35.59452 30.17955
#
# Velocity S-wave (km/s) = 3.74822 4.49367 4.13776
# Velocity P-wave (km/s) = 7.08336 7.76023 7.42951
#
# Compressibility (1/GPa) = 0.01804309
#
# Stress axis : x y z
#
# Youngs Moduli (GPa) = 59.12055 116.52954 68.37325
#
# Poissons Ratio (x) = 0.52985 0.39872
# Poissons Ratio (y) = 0.26881 0.04519
# Poissons Ratio (z) = 0.34476 0.07702
#
# Static dielectric constant tensor:
#      x y z
#    x 2.799980 0.000000 0.000000 
#    y 0.000000 4.011750 0.000000 
#    z 0.000000 0.000000 3.789300 
# 
# 
# High freq. dielectric constant tensor:
#      x y z
#    x 1.628150 0.000000 0.000000 
#    y 0.000000 1.699700 0.000000 
#    z 0.000000 0.000000 1.694830 
# 
# From -- ./inp_files/11092.got.cif
#   From: 2010.03.12/outbox.cif.g09.slc.cpg/sg53_6_cif.got.tgz:11092.got - 2010.04.16 14:36:59.
