data_PCOD8217821
_publ_section_title
;
Structure prediction by ZEFSAII (Michael W. Deem and Ramdas Pophale) SiO2 
 PCOD8217821
Probable space group: P M N A
;
_chemical_formula_sum "Si O2"
_cell_formula_units_Z 64
_cell_length_a 8.350976
_cell_length_b 21.926419
_cell_length_c 19.079646
_cell_angle_alpha 90.000000
_cell_angle_beta 90.000000
_cell_angle_gamma 90.000000
_cell_volume 3493.616718
_symmetry_space_group_name_H-M "P M N A"
_symmetry_group_IT_number 53
_symmetry_cell_setting 'orthorhombic'
loop_
_space_group_symop_operation_xyz
x,y,z
1/2-x,-y,1/2+z
x,-y,-z
1/2-x,y,1/2-z
-x,-y,-z
1/2+x,y,1/2-z
-x,y,z
1/2+x,-y,1/2+z
loop_
_atom_site_type_symbol
_atom_site_label
_atom_site_fract_x
_atom_site_fract_y
_atom_site_fract_z
Si Si1 0.810705 0.383713 0.822402
Si Si2 0.191145 0.191536 0.070577
Si Si3 0.686997 0.909116 0.672478
Si Si4 0.316683 0.685233 0.525247
Si Si5 0.187759 0.014909 0.578163
Si Si6 0.808593 0.563118 0.029955
Si Si7 0.186770 0.268381 0.615738
Si Si8 0.810557 0.853206 0.081703
O O1 0.750000 0.415193 0.750000
O O2 0.754357 0.424523 0.889529
O O3 0.727522 0.316670 0.823249
O O4 0.000000 0.376876 0.822191
O O5 0.262287 0.150120 0.132954
O O6 0.258216 0.262157 0.076401
O O7 0.000000 0.193799 0.072003
O O8 0.245789 0.161508 0.997514
O O9 0.750000 0.912603 0.750000
O O10 0.500000 0.900266 0.674650
O O11 0.726674 0.970475 0.632113
O O12 0.500000 0.676857 0.545911
O O13 0.239776 0.617186 0.521685
O O14 0.303071 0.712452 0.447595
O O15 0.233014 0.082624 0.602250
O O16 0.000000 0.004190 0.583193
O O17 0.251396 0.000000 0.500000
O O18 0.000000 0.562483 0.026888
O O19 0.736860 0.500000 0.000000
O O20 0.237753 0.198689 0.633869
O O21 0.000000 0.271766 0.595856
O O22 0.000000 0.857091 0.090332
#
# Coordination Sequence:
#
# PCOD8217821 Si02
#       8
#     8   8   8   8   8   8   8   8
#     4  10  19  32  50  72 101 137 177 216 259 311
#     4   8  15  28  49  72  94 124 164 208 253 302
#     4  11  22  37  53  72  99 134 173 215 270 322
#     4   8  14  27  47  72  98 127 165 207 249 298
#     4  11  22  35  53  79 106 132 172 219 264 313
#     4   8  14  26  48  77 105 133 172 217 255 295
#     4  10  18  29  46  72 102 129 160 203 254 300
#     4  10  18  32  53  76 100 130 169 209 253 304
#
# _framework density 18.319123999999999
#
# number of rings (size 3 to 8) (size 9 to 14) (size 15 to 20)
#    0.000    2.500    1.250    4.125    0.000    0.500 
#    0.000    1.250    0.000   10.125    0.000    0.000 
#    0.000    0.000    0.000    0.000    0.000    0.500 
#
# Total GULP energy -792859.893538 kJ/mol
# GULP energy per Si atom -12388.435837 kJ/mol
# Density = 1.827743 g / cm^3
# Si number density = 18.319124 Si / 1000 Ang^3
#
#
#
# Elastic Constant Matrix: (Units=GPa)
#
#
# Indices 1 2 3 4 5 6 
#
# 1 30.6692 2.2624 9.2594 0.0000 0.0000 0.0000
# 2 2.2624 159.6428 57.0894 0.0000 0.0000 0.0000
# 3 9.2594 57.0894 91.6340 0.0000 0.0000 0.0000
# 4 0.0000 0.0000 0.0000 22.0935 0.0000 0.0000
# 5 0.0000 0.0000 0.0000 0.0000 11.1262 0.0000
# 6 0.0000 0.0000 0.0000 0.0000 0.0000 13.1435
#
#
#
# Elastic Compliance Matrix: (Units=1/GPa)
#
#
# Indices 1 2 3 4 5 6 
#
# 1 0.033745 0.000954 -0.004004 0.000000 0.000000 0.000000
# 2 0.000954 0.008087 -0.005134 0.000000 0.000000 0.000000
# 3 -0.004004 -0.005134 0.014516 0.000000 0.000000 0.000000
# 4 0.000000 0.000000 0.000000 0.045262 0.000000 0.000000
# 5 0.000000 0.000000 0.000000 0.000000 0.089878 0.000000
# 6 0.000000 0.000000 0.000000 0.000000 0.000000 0.076083
#
#
# Mechanical properties :
#
#
# Convention : Reuss Voigt Hill
#
# Bulk Modulus (GPa) = 25.01375 46.57428 35.79402
# Shear Modulus (GPa) = 16.81994 23.49496 20.15745
#
# Velocity S-wave (km/s) = 3.03341 3.58514 3.32075
# Velocity P-wave (km/s) = 5.09439 6.52814 5.85532
#
# Compressibility (1/GPa) = 0.03997800
#
# Stress axis : x y z
#
# Youngs Moduli (GPa) = 29.63444 123.66176 68.88763
#
# Poissons Ratio (x) = -0.11793 0.27582
# Poissons Ratio (y) = -0.02826 0.35370
# Poissons Ratio (z) = 0.11865 0.63493
#
# Static dielectric constant tensor:
#      x y z
#    x 3.116010 0.000000 0.000000 
#    y 0.000000 3.909790 0.000000 
#    z 0.000000 0.000000 3.253840 
# 
# 
# High freq. dielectric constant tensor:
#      x y z
#    x 1.692340 0.000000 0.000000 
#    y 0.000000 1.719600 0.000000 
#    z 0.000000 0.000000 1.669920 
# 
# From -- ./inp_files/27060.got.cif
#   From: 2010.03.12/outbox.cif.g09.slc.cpg/sg53_14_cif.got.tgz:27060.got - 2010.04.16 14:36:59.
