data_PCOD8217230
_publ_section_title
;
Structure prediction by ZEFSAII (Michael W. Deem and Ramdas Pophale) SiO2 
 PCOD8217230
Probable space group: P N N A
;
_chemical_formula_sum "Si O2"
_cell_formula_units_Z 40
_cell_length_a 9.445118
_cell_length_b 8.217261
_cell_length_c 21.802645
_cell_angle_alpha 90.000000
_cell_angle_beta 90.000000
_cell_angle_gamma 90.000000
_cell_volume 1692.168682
_symmetry_space_group_name_H-M "P N N A"
_symmetry_group_IT_number 52
_symmetry_cell_setting 'orthorhombic'
loop_
_space_group_symop_operation_xyz
x,y,z
1/2-x,-y,z
x,1/2-y,1/2-z
1/2-x,1/2+y,1/2-z
-x,-y,-z
1/2+x,y,-z
-x,1/2+y,1/2+z
1/2+x,1/2-y,1/2+z
loop_
_atom_site_type_symbol
_atom_site_label
_atom_site_fract_x
_atom_site_fract_y
_atom_site_fract_z
Si Si1 0.322916 0.345996 0.499563
Si Si2 0.094565 0.565861 0.727581
Si Si3 0.396587 0.076357 0.132573
Si Si4 0.399824 0.052686 0.330270
Si Si5 0.058912 0.136450 0.455365
O O1 0.250000 0.500000 0.533497
O O2 0.406142 0.423582 0.441288
O O3 0.209563 0.208237 0.477922
O O4 0.437071 0.273650 0.546576
O O5 0.250000 0.500000 0.719082
O O6 0.091826 0.750000 0.750000
O O7 0.017241 0.537131 0.662390
O O8 0.020449 0.461874 0.780185
O O9 0.405863 0.260800 0.152905
O O10 0.250000 0.000000 0.154954
O O11 0.424201 0.935812 0.388218
O O12 0.250000 0.000000 0.300817
O O13 0.000000 0.000000 0.500000
#
# Coordination Sequence:
#
# PCOD8217230 Si02
#       5
#     8   8   8   8   8
#     4  11  25  45  73 108 150 201 247 304 364 444
#     4  12  28  49  73 110 145 185 243 312 383 440
#     4  11  23  46  74 104 143 192 248 299 360 444
#     4  12  23  45  75 105 144 195 246 297 363 447
#     4  12  23  46  72 110 150 194 248 300 369 439
#
# _framework density 23.638304999999999
#
# number of rings (size 3 to 8) (size 9 to 14) (size 15 to 20)
#    0.000    0.400    4.000    4.800    2.800    1.600 
#    3.600    0.000    0.000    0.000    0.000    0.000 
#    0.000    0.000    0.000    0.000    0.000    0.000 
#
# Total GULP energy -496055.670741 kJ/mol
# GULP energy per Si atom -12401.391769 kJ/mol
# Density = 2.358450 g / cm^3
# Si number density = 23.638305 Si / 1000 Ang^3
#
#
#
# Elastic Constant Matrix: (Units=GPa)
#
#
# Indices 1 2 3 4 5 6 
#
# 1 155.3821 48.6537 48.0811 0.0000 0.0000 0.0000
# 2 48.6537 139.1156 28.7214 0.0000 0.0000 0.0000
# 3 48.0811 28.7214 67.0352 0.0000 0.0000 0.0000
# 4 0.0000 0.0000 0.0000 59.7990 0.0000 0.0000
# 5 0.0000 0.0000 0.0000 0.0000 28.0939 0.0000
# 6 0.0000 0.0000 0.0000 0.0000 0.0000 49.9640
#
#
#
# Elastic Compliance Matrix: (Units=1/GPa)
#
#
# Indices 1 2 3 4 5 6 
#
# 1 0.008719 -0.001929 -0.005427 0.000000 0.000000 0.000000
# 2 -0.001929 0.008313 -0.002178 0.000000 0.000000 0.000000
# 3 -0.005427 -0.002178 0.019744 0.000000 0.000000 0.000000
# 4 0.000000 0.000000 0.000000 0.016723 0.000000 0.000000
# 5 0.000000 0.000000 0.000000 0.000000 0.035595 0.000000
# 6 0.000000 0.000000 0.000000 0.000000 0.000000 0.020014
#
#
# Mechanical properties :
#
#
# Convention : Reuss Voigt Hill
#
# Bulk Modulus (GPa) = 56.47610 68.04949 62.26280
# Shear Modulus (GPa) = 37.29170 43.30982 40.30076
#
# Velocity S-wave (km/s) = 3.97621 4.28505 4.13351
# Velocity P-wave (km/s) = 6.70999 7.30291 7.01272
#
# Compressibility (1/GPa) = 0.01770660
#
# Stress axis : x y z
#
# Youngs Moduli (GPa) = 114.68988 120.30027 50.64948
#
# Poissons Ratio (x) = 0.23204 0.27490
# Poissons Ratio (y) = 0.22122 0.11032
# Poissons Ratio (z) = 0.62247 0.26202
#
# Static dielectric constant tensor:
#      x y z
#    x 4.431270 0.000000 0.000000 
#    y 0.000000 4.910810 0.000000 
#    z 0.000000 0.000000 4.367780 
# 
# 
# High freq. dielectric constant tensor:
#      x y z
#    x 1.945380 0.000000 0.000000 
#    y 0.000000 1.969200 0.000000 
#    z 0.000000 0.000000 1.925170 
# 
# From -- ./inp_files/39208.got.cif
#   From: 2010.06.25/outbox.cif.g09.slc.cpg/sg52_20_cif.got.tgz:39208.got - 2010.06.26 19:32:48.
