data_PCOD8217511
_publ_section_title
;
Structure prediction by ZEFSAII (Michael W. Deem and Ramdas Pophale) SiO2 
 PCOD8217511
Probable space group: P M N A
;
_chemical_formula_sum "Si O2"
_cell_formula_units_Z 48
_cell_length_a 8.843561
_cell_length_b 9.462337
_cell_length_c 31.863717
_cell_angle_alpha 90.000000
_cell_angle_beta 90.000000
_cell_angle_gamma 90.000000
_cell_volume 2666.379879
_symmetry_space_group_name_H-M "P M N A"
_symmetry_group_IT_number 53
_symmetry_cell_setting 'orthorhombic'
loop_
_space_group_symop_operation_xyz
x,y,z
1/2-x,-y,1/2+z
x,-y,-z
1/2-x,y,1/2-z
-x,-y,-z
1/2+x,y,1/2-z
-x,y,z
1/2+x,-y,1/2+z
loop_
_atom_site_type_symbol
_atom_site_label
_atom_site_fract_x
_atom_site_fract_y
_atom_site_fract_z
Si Si1 0.678035 0.096868 0.960502
Si Si2 0.680272 0.599876 0.120599
Si Si3 0.677197 0.599003 0.460983
Si Si4 0.332286 0.575087 0.209885
Si Si5 0.679212 0.093143 0.623218
Si Si6 0.327887 0.087332 0.792076
O O1 0.500000 0.114829 0.953261
O O2 0.750095 0.249120 0.969788
O O3 0.750836 0.022453 0.918935
O O4 0.716415 0.000000 0.000000
O O5 0.500000 0.627633 0.119403
O O6 0.741163 0.521211 0.079039
O O7 0.723661 0.518329 0.164111
O O8 0.771315 0.745311 0.120041
O O9 0.711255 0.500000 0.500000
O O10 0.500000 0.616383 0.452159
O O11 0.250000 0.508407 0.250000
O O12 0.500000 0.523865 0.217200
O O13 0.317222 0.743677 0.208382
O O14 0.500000 0.076352 0.623639
O O15 0.744939 0.026520 0.666376
O O16 0.250000 0.026346 0.750000
O O17 0.500000 0.035285 0.792903
#
# Coordination Sequence:
#
# PCOD8217511 Si02
#       6
#     8   8   8   8   8   8
#     4  10  20  33  49  68  90 119 155 192 230 272
#     4   9  16  26  39  56  80 111 146 181 218 262
#     4  10  20  32  47  68  92 119 152 188 228 274
#     4   8  14  21  31  49  73 103 137 171 208 253
#     4  10  17  25  39  58  82 113 145 179 223 269
#     4   9  15  23  34  51  77 108 143 179 216 262
#
# _framework density 18.001933999999999
#
# number of rings (size 3 to 8) (size 9 to 14) (size 15 to 20)
#    0.000    2.667    0.000    6.500    0.000    7.333 
#    0.000    0.000    0.000    0.000    0.000    0.000 
#    0.000    1.333    0.000   12.000    0.000   14.667 
#
# Total GULP energy -594628.027701 kJ/mol
# GULP energy per Si atom -12388.083910 kJ/mol
# Density = 1.796096 g / cm^3
# Si number density = 18.001934 Si / 1000 Ang^3
#
#
#
# Elastic Constant Matrix: (Units=GPa)
#
#
# Indices 1 2 3 4 5 6 
#
# 1 132.8134 21.2288 100.0307 0.0000 0.0000 0.0000
# 2 21.2288 20.5900 32.5909 0.0000 0.0000 0.0000
# 3 100.0307 32.5909 227.4403 0.0000 0.0000 0.0000
# 4 0.0000 0.0000 0.0000 14.7245 0.0000 0.0000
# 5 0.0000 0.0000 0.0000 0.0000 36.3734 0.0000
# 6 0.0000 0.0000 0.0000 0.0000 0.0000 -1.4548
#
#
#
# Elastic Compliance Matrix: (Units=1/GPa)
#
#
# Indices 1 2 3 4 5 6 
#
# 1 0.011651 -0.005046 -0.004401 0.000000 0.000000 0.000000
# 2 -0.005046 0.065000 -0.007095 0.000000 0.000000 0.000000
# 3 -0.004401 -0.007095 0.007349 0.000000 0.000000 0.000000
# 4 0.000000 0.000000 0.000000 0.067914 0.000000 0.000000
# 5 0.000000 0.000000 0.000000 0.000000 0.027493 0.000000
# 6 0.000000 0.000000 0.000000 0.000000 0.000000 -0.687402
#
#
# Mechanical properties :
#
#
# Convention : Reuss Voigt Hill
#
# Bulk Modulus (GPa) = 19.64023 76.50494 48.07259
# Shear Modulus (GPa) = -10.91845 25.06152 7.07154
#
# Velocity S-wave (km/s) = -2.46542 3.73521 1.98412
# Velocity P-wave (km/s) = 1.68206 7.82258 5.65783
#
# Compressibility (1/GPa) = 0.05091589
#
# Stress axis : x y z
#
# Youngs Moduli (GPa) = 85.83265 15.38466 136.07264
#
# Poissons Ratio (x) = 0.07763 0.59886
# Poissons Ratio (y) = 0.43310 0.96542
# Poissons Ratio (z) = 0.37775 0.10915
#
# Static dielectric constant tensor:
#      x y z
#    x 3.452490 0.000000 0.000000 
#    y 0.000000 2.507260 0.000000 
#    z 0.000000 0.000000 4.356140 
# 
# 
# High freq. dielectric constant tensor:
#      x y z
#    x 1.712180 0.000000 0.000000 
#    y 0.000000 1.595320 0.000000 
#    z 0.000000 0.000000 1.736560 
# 
# From -- ./inp_files/37912.got.cif
#   From: 2010.03.12/outbox.cif.g09.slc.cpg/sg53_19_cif.got.tgz:37912.got - 2010.04.16 14:36:59.
