data_PCOD8217716
_publ_section_title
;
Structure prediction by ZEFSAII (Michael W. Deem and Ramdas Pophale) SiO2 
 PCOD8217716
Probable space group: P M N A
;
_chemical_formula_sum "Si O2"
_cell_formula_units_Z 56
_cell_length_a 9.055544
_cell_length_b 13.618325
_cell_length_c 28.252219
_cell_angle_alpha 90.000000
_cell_angle_beta 90.000000
_cell_angle_gamma 90.000000
_cell_volume 3484.101540
_symmetry_space_group_name_H-M "P M N A"
_symmetry_group_IT_number 53
_symmetry_cell_setting 'orthorhombic'
loop_
_space_group_symop_operation_xyz
x,y,z
1/2-x,-y,1/2+z
x,-y,-z
1/2-x,y,1/2-z
-x,-y,-z
1/2+x,y,1/2-z
-x,y,z
1/2+x,-y,1/2+z
loop_
_atom_site_type_symbol
_atom_site_label
_atom_site_fract_x
_atom_site_fract_y
_atom_site_fract_z
Si Si1 0.325120 0.101361 0.020896
Si Si2 0.831130 0.396046 0.052445
Si Si3 0.831714 0.805905 0.895789
Si Si4 0.826791 0.483398 0.296606
Si Si5 0.324016 0.275382 0.297776
Si Si6 0.167955 0.435937 0.605274
Si Si7 0.830180 0.296475 0.527310
O O1 0.500000 0.096488 0.023509
O O2 0.267168 0.117789 0.074447
O O3 0.267621 0.188259 0.985645
O O4 0.260782 0.000000 0.000000
O O5 0.804276 0.303202 0.085716
O O6 0.776242 0.490345 0.079741
O O7 0.000000 0.411868 0.039524
O O8 0.747407 0.381453 0.003046
O O9 0.789499 0.801907 0.840058
O O10 0.000000 0.839093 0.902690
O O11 0.750000 0.528680 0.250000
O O12 0.749330 0.380398 0.309477
O O13 0.800389 0.562447 0.338551
O O14 0.000000 0.464776 0.287463
O O15 0.250000 0.232290 0.250000
O O16 0.500000 0.289535 0.291844
O O17 0.192377 0.326560 0.582712
O O18 0.000000 0.470462 0.595861
O O19 0.000000 0.297095 0.512644
#
# Coordination Sequence:
#
# PCOD8217716 Si02
#       7
#     8   8   8   8   8   8   8
#     4   9  18  32  50  69  87 110 146 189 229 270
#     4  10  18  28  41  61  90 119 148 179 210 247
#     4   9  18  30  44  64  91 121 148 177 220 266
#     4  10  19  29  42  60  84 117 154 184 215 252
#     4  10  18  29  43  63  90 120 152 183 216 255
#     4  10  19  29  42  60  85 119 150 175 212 257
#     4   9  18  31  44  61  87 114 144 180 217 264
#
# _framework density 16.073011000000001
#
# number of rings (size 3 to 8) (size 9 to 14) (size 15 to 20)
#    0.000    2.429    1.429    2.571    0.000    4.857 
#    0.000    0.000    0.000    0.000    0.000    1.000 
#    0.000    4.571    0.000    0.000    0.000    0.000 
#
# Total GULP energy -694032.727444 kJ/mol
# GULP energy per Si atom -12393.441561 kJ/mol
# Density = 1.603643 g / cm^3
# Si number density = 16.073011 Si / 1000 Ang^3
#
#
#
# Elastic Constant Matrix: (Units=GPa)
#
#
# Indices 1 2 3 4 5 6 
#
# 1 57.8507 26.8230 39.5960 0.0000 0.0000 0.0000
# 2 26.8230 59.7717 54.2133 0.0000 0.0000 0.0000
# 3 39.5960 54.2133 131.2401 0.0000 0.0000 0.0000
# 4 0.0000 0.0000 0.0000 21.2418 0.0000 0.0000
# 5 0.0000 0.0000 0.0000 0.0000 25.0277 0.0000
# 6 0.0000 0.0000 0.0000 0.0000 0.0000 12.8593
#
#
#
# Elastic Compliance Matrix: (Units=1/GPa)
#
#
# Indices 1 2 3 4 5 6 
#
# 1 0.023270 -0.006516 -0.004329 0.000000 0.000000 0.000000
# 2 -0.006516 0.028579 -0.009840 0.000000 0.000000 0.000000
# 3 -0.004329 -0.009840 0.012990 0.000000 0.000000 0.000000
# 4 0.000000 0.000000 0.000000 0.047077 0.000000 0.000000
# 5 0.000000 0.000000 0.000000 0.000000 0.039956 0.000000
# 6 0.000000 0.000000 0.000000 0.000000 0.000000 0.077765
#
#
# Mechanical properties :
#
#
# Convention : Reuss Voigt Hill
#
# Bulk Modulus (GPa) = 42.60775 54.45858 48.53316
# Shear Modulus (GPa) = 17.93207 20.37443 19.15325
#
# Velocity S-wave (km/s) = 3.34378 3.56422 3.45576
# Velocity P-wave (km/s) = 6.44005 7.13399 6.79588
#
# Compressibility (1/GPa) = 0.02346991
#
# Stress axis : x y z
#
# Youngs Moduli (GPa) = 42.97343 34.99059 76.98037
#
# Poissons Ratio (x) = 0.22801 0.33325
# Poissons Ratio (y) = 0.28002 0.75746
# Poissons Ratio (z) = 0.18603 0.34429
#
# Static dielectric constant tensor:
#      x y z
#    x 3.100700 0.000000 0.000000 
#    y 0.000000 2.837030 0.000000 
#    z 0.000000 0.000000 3.449520 
# 
# 
# High freq. dielectric constant tensor:
#      x y z
#    x 1.625510 0.000000 0.000000 
#    y 0.000000 1.568310 0.000000 
#    z 0.000000 0.000000 1.622150 
# 
# From -- ./inp_files/38347.got.cif
#   From: 2010.03.12/outbox.cif.g09.slc.cpg/sg53_20_cif.got.tgz:38347.got - 2010.04.16 14:36:59.
