data_PCOD8217894
_publ_section_title
;
Structure prediction by ZEFSAII (Michael W. Deem and Ramdas Pophale) SiO2 
 PCOD8217894
Probable space group: P M N A
;
_chemical_formula_sum "Si O2"
_cell_formula_units_Z 64
_cell_length_a 8.975178
_cell_length_b 12.586472
_cell_length_c 33.851419
_cell_angle_alpha 90.000000
_cell_angle_beta 90.000000
_cell_angle_gamma 90.000000
_cell_volume 3824.053529
_symmetry_space_group_name_H-M "P M N A"
_symmetry_group_IT_number 53
_symmetry_cell_setting 'orthorhombic'
loop_
_space_group_symop_operation_xyz
x,y,z
1/2-x,-y,1/2+z
x,-y,-z
1/2-x,y,1/2-z
-x,-y,-z
1/2+x,y,1/2-z
-x,y,z
1/2+x,-y,1/2+z
loop_
_atom_site_type_symbol
_atom_site_label
_atom_site_fract_x
_atom_site_fract_y
_atom_site_fract_z
Si Si1 0.168650 0.873811 0.997339
Si Si2 0.826972 0.610868 0.209638
Si Si3 0.827194 0.894331 0.579794
Si Si4 0.674555 0.206119 0.652206
Si Si5 0.824206 0.631933 0.791387
Si Si6 0.823828 0.816017 0.665836
Si Si7 0.676622 0.011482 0.708545
Si Si8 0.325171 0.138249 0.924441
O O1 0.239339 0.836898 0.955783
O O2 0.000000 0.833534 0.998998
O O3 0.256236 0.822256 0.034094
O O4 0.181709 0.000000 0.000000
O O5 0.750000 0.645450 0.250000
O O6 0.772276 0.688038 0.174883
O O7 0.788969 0.490100 0.197886
O O8 0.000000 0.627155 0.217314
O O9 0.785524 0.836505 0.620253
O O10 0.000000 0.885964 0.569424
O O11 0.779122 0.016782 0.584019
O O12 0.500000 0.207257 0.643266
O O13 0.718949 0.103219 0.677650
O O14 0.760486 0.208488 0.610891
O O15 0.750000 0.663503 0.750000
O O16 0.745575 0.701344 0.825027
O O17 0.000000 0.654720 0.789340
O O18 0.000000 0.818814 0.673740
O O19 0.745362 0.901468 0.693778
O O20 0.750000 0.043013 0.750000
O O21 0.500000 0.999216 0.713670
O O22 0.500000 0.154468 0.926655
#
# Coordination Sequence:
#
# PCOD8217894 Si02
#       8
#     8   8   8   8   8   8   8   8
#     4   9  17  28  45  68  95 128 162 196 234 280
#     4   9  19  35  53  72  95 124 162 208 251 290
#     4   9  18  31  46  67  96 129 161 196 236 283
#     4  10  20  33  49  71  98 128 161 200 243 288
#     4  10  20  35  53  72  94 124 164 208 251 290
#     4  11  21  34  50  70  98 129 163 200 242 287
#     4  11  22  33  47  67  96 130 163 196 237 290
#     4  10  18  30  47  69  98 131 163 196 235 284
#
# _framework density 16.736166999999998
#
# number of rings (size 3 to 8) (size 9 to 14) (size 15 to 20)
#    0.000    2.125    1.250    2.625    0.000    4.500 
#    0.000    0.000    0.000    0.000    0.000    0.875 
#    0.000    7.000    0.000    0.000    0.000    0.000 
#
# Total GULP energy -793773.172963 kJ/mol
# GULP energy per Si atom -12402.705828 kJ/mol
# Density = 1.669807 g / cm^3
# Si number density = 16.736167 Si / 1000 Ang^3
#
#
#
# Elastic Constant Matrix: (Units=GPa)
#
#
# Indices 1 2 3 4 5 6 
#
# 1 77.5120 29.9221 55.4483 0.0000 0.0000 0.0000
# 2 29.9221 63.2108 41.4238 0.0000 0.0000 0.0000
# 3 55.4483 41.4238 124.4945 0.0000 0.0000 0.0000
# 4 0.0000 0.0000 0.0000 19.2276 0.0000 0.0000
# 5 0.0000 0.0000 0.0000 0.0000 35.7558 0.0000
# 6 0.0000 0.0000 0.0000 0.0000 0.0000 16.3386
#
#
#
# Elastic Compliance Matrix: (Units=1/GPa)
#
#
# Indices 1 2 3 4 5 6 
#
# 1 0.019939 -0.004628 -0.007341 0.000000 0.000000 0.000000
# 2 -0.004628 0.021306 -0.005028 0.000000 0.000000 0.000000
# 3 -0.007341 -0.005028 0.012975 0.000000 0.000000 0.000000
# 4 0.000000 0.000000 0.000000 0.052009 0.000000 0.000000
# 5 0.000000 0.000000 0.000000 0.000000 0.027968 0.000000
# 6 0.000000 0.000000 0.000000 0.000000 0.000000 0.061205
#
#
# Mechanical properties :
#
#
# Convention : Reuss Voigt Hill
#
# Bulk Modulus (GPa) = 49.44020 57.64507 53.54264
# Shear Modulus (GPa) = 21.17426 23.49260 22.33343
#
# Velocity S-wave (km/s) = 3.56080 3.75067 3.65696
# Velocity P-wave (km/s) = 6.81988 7.29896 7.06348
#
# Compressibility (1/GPa) = 0.02022645
#
# Stress axis : x y z
#
# Youngs Moduli (GPa) = 50.15319 46.93561 77.07185
#
# Poissons Ratio (x) = 0.21722 0.56576
# Poissons Ratio (y) = 0.23211 0.38751
# Poissons Ratio (z) = 0.36816 0.23599
#
# Static dielectric constant tensor:
#      x y z
#    x 3.202360 0.000000 0.000000 
#    y 0.000000 2.958240 0.000000 
#    z 0.000000 0.000000 3.234740 
# 
# 
# High freq. dielectric constant tensor:
#      x y z
#    x 1.656980 0.000000 0.000000 
#    y 0.000000 1.608530 0.000000 
#    z 0.000000 0.000000 1.650220 
# 
# From -- ./inp_files/38284.got.cif
#   From: 2010.03.12/outbox.cif.g09.slc.cpg/sg53_20_cif.got.tgz:38284.got - 2010.04.16 14:36:59.
