data_PCOD8217529
_publ_section_title
;
Structure prediction by ZEFSAII (Michael W. Deem and Ramdas Pophale) SiO2 
 PCOD8217529
Probable space group: P M N A
;
_chemical_formula_sum "Si O2"
_cell_formula_units_Z 56
_cell_length_a 9.043935
_cell_length_b 17.738278
_cell_length_c 22.243159
_cell_angle_alpha 90.000000
_cell_angle_beta 90.000000
_cell_angle_gamma 90.000000
_cell_volume 3568.332830
_symmetry_space_group_name_H-M "P M N A"
_symmetry_group_IT_number 53
_symmetry_cell_setting 'orthorhombic'
loop_
_space_group_symop_operation_xyz
x,y,z
1/2-x,-y,1/2+z
x,-y,-z
1/2-x,y,1/2-z
-x,-y,-z
1/2+x,y,1/2-z
-x,y,z
1/2+x,-y,1/2+z
loop_
_atom_site_type_symbol
_atom_site_label
_atom_site_fract_x
_atom_site_fract_y
_atom_site_fract_z
Si Si1 0.823864 0.319652 0.470406
Si Si2 0.172987 0.167700 0.037576
Si Si3 0.323548 0.367808 0.896732
Si Si4 0.328882 0.119137 0.596493
Si Si5 0.661541 0.524999 0.931718
Si Si6 0.674756 0.251280 0.686585
Si Si7 0.832794 0.024078 0.431080
O O1 0.746133 0.246409 0.442830
O O2 0.780875 0.328092 0.540476
O O3 0.760784 0.392403 0.432532
O O4 0.000000 0.313421 0.463554
O O5 0.242250 0.101289 0.078151
O O6 0.000000 0.170906 0.050194
O O7 0.211069 0.154184 0.967925
O O8 0.500000 0.365798 0.887161
O O9 0.262089 0.455002 0.896518
O O10 0.240908 0.326445 0.842834
O O11 0.500000 0.097451 0.599408
O O12 0.283362 0.179226 0.646545
O O13 0.237863 0.042620 0.608728
O O14 0.500000 0.535876 0.902782
O O15 0.641580 0.500000 0.000000
O O16 0.750000 0.237558 0.750000
O O17 0.500000 0.261094 0.693570
O O18 0.000000 0.037273 0.409733
O O19 0.823845 0.000000 0.500000
#
# Coordination Sequence:
#
# PCOD8217529 Si02
#       7
#     8   8   8   8   8   8   8
#     4   9  15  24  41  63  87 114 146 177 207 252
#     4  10  17  26  40  60  88 117 143 172 213 257
#     4   9  16  28  45  61  82 113 146 181 220 255
#     4   9  18  31  43  56  81 113 142 177 220 258
#     4   7  12  23  39  60  83 110 142 174 210 254
#     4  11  22  34  46  63  85 113 151 188 222 257
#     4   9  17  27  41  61  81 106 143 177 209 255
#
# _framework density 15.693604000000001
#
# number of rings (size 3 to 8) (size 9 to 14) (size 15 to 20)
#    0.000    2.857    1.429    3.000    0.000    3.429 
#    0.000    0.714    0.000    2.571    0.000    0.000 
#    0.000    1.143    0.000    8.286    0.000    4.000 
#
# Total GULP energy -693938.985451 kJ/mol
# GULP energy per Si atom -12391.767597 kJ/mol
# Density = 1.565788 g / cm^3
# Si number density = 15.693604 Si / 1000 Ang^3
#
#
#
# Elastic Constant Matrix: (Units=GPa)
#
#
# Indices 1 2 3 4 5 6 
#
# 1 63.3881 59.4784 22.6912 0.0000 0.0000 0.0000
# 2 59.4784 159.5636 36.7918 0.0000 0.0000 0.0000
# 3 22.6912 36.7918 42.5429 0.0000 0.0000 0.0000
# 4 0.0000 0.0000 0.0000 15.5551 0.0000 0.0000
# 5 0.0000 0.0000 0.0000 0.0000 10.6764 0.0000
# 6 0.0000 0.0000 0.0000 0.0000 0.0000 21.7213
#
#
#
# Elastic Compliance Matrix: (Units=1/GPa)
#
#
# Indices 1 2 3 4 5 6 
#
# 1 0.025739 -0.008030 -0.006784 0.000000 0.000000 0.000000
# 2 -0.008030 0.010333 -0.004653 0.000000 0.000000 0.000000
# 3 -0.006784 -0.004653 0.031148 0.000000 0.000000 0.000000
# 4 0.000000 0.000000 0.000000 0.064287 0.000000 0.000000
# 5 0.000000 0.000000 0.000000 0.000000 0.093665 0.000000
# 6 0.000000 0.000000 0.000000 0.000000 0.000000 0.046038
#
#
# Mechanical properties :
#
#
# Convention : Reuss Voigt Hill
#
# Bulk Modulus (GPa) = 35.35330 55.93529 45.64429
# Shear Modulus (GPa) = 15.64580 19.35944 17.50262
#
# Velocity S-wave (km/s) = 3.16088 3.51606 3.34319
# Velocity P-wave (km/s) = 5.99147 7.22517 6.63704
#
# Compressibility (1/GPa) = 0.02828591
#
# Stress axis : x y z
#
# Youngs Moduli (GPa) = 38.85113 96.77363 32.10447
#
# Poissons Ratio (x) = 0.77712 0.21779
# Poissons Ratio (y) = 0.31199 0.14939
# Poissons Ratio (z) = 0.26356 0.45032
#
# Static dielectric constant tensor:
#      x y z
#    x 2.870460 0.000000 0.000000 
#    y 0.000000 3.345220 0.000000 
#    z 0.000000 0.000000 2.505790 
# 
# 
# High freq. dielectric constant tensor:
#      x y z
#    x 1.594700 0.000000 0.000000 
#    y 0.000000 1.622290 0.000000 
#    z 0.000000 0.000000 1.531660 
# 
# From -- ./inp_files/34368.got.cif
#   From: 2010.03.12/outbox.cif.g09.slc.cpg/sg53_18_cif.got.tgz:34368.got - 2010.04.16 14:36:59.
