data_PCOD8217386
_publ_section_title
;
Structure prediction by ZEFSAII (Michael W. Deem and Ramdas Pophale) SiO2 
 PCOD8217386
Probable space group: P N N A
;
_chemical_formula_sum "Si O2"
_cell_formula_units_Z 40
_cell_length_a 9.614198
_cell_length_b 25.290016
_cell_length_c 7.491344
_cell_angle_alpha 90.000000
_cell_angle_beta 90.000000
_cell_angle_gamma 90.000000
_cell_volume 1821.469512
_symmetry_space_group_name_H-M "P N N A"
_symmetry_group_IT_number 52
_symmetry_cell_setting 'orthorhombic'
loop_
_space_group_symop_operation_xyz
x,y,z
1/2-x,-y,z
x,1/2-y,1/2-z
1/2-x,1/2+y,1/2-z
-x,-y,-z
1/2+x,y,-z
-x,1/2+y,1/2+z
1/2+x,1/2-y,1/2+z
loop_
_atom_site_type_symbol
_atom_site_label
_atom_site_fract_x
_atom_site_fract_y
_atom_site_fract_z
Si Si1 0.160054 0.189050 0.207482
Si Si2 0.555532 0.554398 0.919006
Si Si3 0.128495 0.536130 0.469321
Si Si4 0.641821 0.651909 0.397795
Si Si5 0.211638 0.123061 0.565156
O O1 0.173653 0.250000 0.250000
O O2 0.185408 0.155469 0.385485
O O3 0.008263 0.178591 0.125216
O O4 0.281701 0.175295 0.069526
O O5 0.644805 0.546677 0.740427
O O6 0.428603 0.593653 0.877560
O O7 0.500000 0.500000 0.000000
O O8 0.663485 0.580898 0.053549
O O9 0.250000 0.500000 0.545771
O O10 0.118564 0.589485 0.580847
O O11 0.000000 0.500000 0.500000
O O12 0.740496 0.662219 0.225177
#
# Coordination Sequence:
#
# PCOD8217386 Si02
#       5
#     8   8   8   8   8
#     4  12  30  51  78 108 144 196 253 313 374 435
#     4  12  24  41  70 106 155 199 241 298 365 448
#     4  12  24  42  71 109 149 195 243 294 372 447
#     4  12  27  51  76 111 150 193 247 309 372 446
#     4  12  25  48  71 109 150 191 250 306 367 441
#
# _framework density 21.960291999999999
#
# number of rings (size 3 to 8) (size 9 to 14) (size 15 to 20)
#    0.000    0.000    4.000    6.600    2.800    0.000 
#    0.000    0.000    0.000    0.000    0.000    0.000 
#    0.000    0.000    0.000    0.000    0.000    0.000 
#
# Total GULP energy -496146.340995 kJ/mol
# GULP energy per Si atom -12403.658525 kJ/mol
# Density = 2.191031 g / cm^3
# Si number density = 21.960292 Si / 1000 Ang^3
#
#
#
# Elastic Constant Matrix: (Units=GPa)
#
#
# Indices 1 2 3 4 5 6 
#
# 1 138.4981 53.6624 24.3992 0.0000 0.0000 0.0000
# 2 53.6624 126.8616 35.6002 0.0000 0.0000 0.0000
# 3 24.3992 35.6002 112.0333 0.0000 0.0000 0.0000
# 4 0.0000 0.0000 0.0000 26.5339 0.0000 0.0000
# 5 0.0000 0.0000 0.0000 0.0000 44.4164 0.0000
# 6 0.0000 0.0000 0.0000 0.0000 0.0000 35.3642
#
#
#
# Elastic Compliance Matrix: (Units=1/GPa)
#
#
# Indices 1 2 3 4 5 6 
#
# 1 0.008700 -0.003457 -0.000796 0.000000 0.000000 0.000000
# 2 -0.003457 0.010028 -0.002434 0.000000 0.000000 0.000000
# 3 -0.000796 -0.002434 0.009873 0.000000 0.000000 0.000000
# 4 0.000000 0.000000 0.000000 0.037688 0.000000 0.000000
# 5 0.000000 0.000000 0.000000 0.000000 0.022514 0.000000
# 6 0.000000 0.000000 0.000000 0.000000 0.000000 0.028277
#
#
# Mechanical properties :
#
#
# Convention : Reuss Voigt Hill
#
# Bulk Modulus (GPa) = 65.67230 67.19075 66.43152
# Shear Modulus (GPa) = 36.89273 38.84498 37.86886
#
# Velocity S-wave (km/s) = 4.10320 4.21036 4.15712
# Velocity P-wave (km/s) = 7.24004 7.36879 7.30470
#
# Compressibility (1/GPa) = 0.01522712
#
# Stress axis : x y z
#
# Youngs Moduli (GPa) = 114.94398 99.72401 101.28966
#
# Poissons Ratio (x) = 0.34470 0.08066
# Poissons Ratio (y) = 0.39731 0.24650
# Poissons Ratio (z) = 0.09153 0.24269
#
# Static dielectric constant tensor:
#      x y z
#    x 4.104420 0.000000 0.000000 
#    y 0.000000 4.176950 0.000000 
#    z 0.000000 0.000000 4.069270 
# 
# 
# High freq. dielectric constant tensor:
#      x y z
#    x 1.882840 0.000000 0.000000 
#    y 0.000000 1.858710 0.000000 
#    z 0.000000 0.000000 1.884420 
# 
# From -- ./inp_files/7417.got.cif
#   From: 2010.06.25/outbox.cif.g09.slc.cpg/sg52_4_cif.got.tgz:7417.got - 2010.06.26 19:32:48.
