data_PCOD8217312
_publ_section_title
;
Structure prediction by ZEFSAII (Michael W. Deem and Ramdas Pophale) SiO2 
 PCOD8217312
Probable space group: P N N A
;
_chemical_formula_sum "Si O2"
_cell_formula_units_Z 24
_cell_length_a 14.092407
_cell_length_b 4.856128
_cell_length_c 12.928144
_cell_angle_alpha 90.000000
_cell_angle_beta 90.000000
_cell_angle_gamma 90.000000
_cell_volume 884.731487
_symmetry_space_group_name_H-M "P N N A"
_symmetry_group_IT_number 52
_symmetry_cell_setting 'orthorhombic'
loop_
_space_group_symop_operation_xyz
x,y,z
1/2-x,-y,z
x,1/2-y,1/2-z
1/2-x,1/2+y,1/2-z
-x,-y,-z
1/2+x,y,-z
-x,1/2+y,1/2+z
1/2+x,1/2-y,1/2+z
loop_
_atom_site_type_symbol
_atom_site_label
_atom_site_fract_x
_atom_site_fract_y
_atom_site_fract_z
Si Si1 0.950423 0.051603 0.845489
Si Si2 0.159571 0.346209 0.638358
Si Si3 0.857508 0.968968 0.562521
O O1 0.918651 0.250000 0.750000
O O2 0.914621 0.240416 0.940959
O O3 0.062408 0.985002 0.844561
O O4 0.902385 0.752346 0.856324
O O5 0.250000 0.500000 0.587665
O O6 0.196329 0.250000 0.750000
O O7 0.135427 0.105106 0.558315
O O8 0.750000 0.000000 0.600554
#
# Coordination Sequence:
#
# PCOD8217312 Si02
#       3
#     8   8   8
#     4  11  26  47  74 103 141 186 234 287 347 414
#     4  11  25  45  73 107 141 182 233 292 353 416
#     4  12  25  46  72 104 142 186 232 287 347 414
#
# _framework density 27.126874999999998
#
# number of rings (size 3 to 8) (size 9 to 14) (size 15 to 20)
#    0.000    0.667    0.000    7.000    0.000   10.667 
#    0.000    1.667    0.000    0.000    0.000    0.000 
#    0.000    0.000    0.000    0.000    0.000    0.000 
#
# Total GULP energy -297525.410809 kJ/mol
# GULP energy per Si atom -12396.892117 kJ/mol
# Density = 2.706513 g / cm^3
# Si number density = 27.126875 Si / 1000 Ang^3
#
#
#
# Elastic Constant Matrix: (Units=GPa)
#
#
# Indices 1 2 3 4 5 6 
#
# 1 187.7426 50.1198 9.0057 0.0000 0.0000 0.0000
# 2 50.1198 107.4032 -33.9500 0.0000 0.0000 0.0000
# 3 9.0057 -33.9500 50.1342 0.0000 0.0000 0.0000
# 4 0.0000 0.0000 0.0000 25.8127 0.0000 0.0000
# 5 0.0000 0.0000 0.0000 0.0000 86.8848 0.0000
# 6 0.0000 0.0000 0.0000 0.0000 0.0000 43.2438
#
#
#
# Elastic Compliance Matrix: (Units=1/GPa)
#
#
# Indices 1 2 3 4 5 6 
#
# 1 0.006726 -0.004479 -0.004241 0.000000 0.000000 0.000000
# 2 -0.004479 0.014830 0.010847 0.000000 0.000000 0.000000
# 3 -0.004241 0.010847 0.028054 0.000000 0.000000 0.000000
# 4 0.000000 0.000000 0.000000 0.038741 0.000000 0.000000
# 5 0.000000 0.000000 0.000000 0.000000 0.011509 0.000000
# 6 0.000000 0.000000 0.000000 0.000000 0.000000 0.023125
#
#
# Mechanical properties :
#
#
# Convention : Reuss Voigt Hill
#
# Bulk Modulus (GPa) = 18.56602 43.95900 31.26251
# Shear Modulus (GPa) = 36.58039 52.52854 44.55446
#
# Velocity S-wave (km/s) = 3.67617 4.40523 4.05711
# Velocity P-wave (km/s) = 4.98778 6.48960 5.78761
#
# Compressibility (1/GPa) = 0.05386185
#
# Stress axis : x y z
#
# Youngs Moduli (GPa) = 148.68387 67.43232 35.64582
#
# Poissons Ratio (x) = 0.30205 0.15119
# Poissons Ratio (y) = 0.66599 -0.38665
# Poissons Ratio (z) = 0.63063 -0.73144
#
# Static dielectric constant tensor:
#      x y z
#    x 5.066970 0.000000 0.000000 
#    y 0.000000 5.018730 0.000000 
#    z 0.000000 0.000000 4.985000 
# 
# 
# High freq. dielectric constant tensor:
#      x y z
#    x 2.106920 0.000000 0.000000 
#    y 0.000000 2.084570 0.000000 
#    z 0.000000 0.000000 2.106500 
# 
# From -- ./inp_files/26468.got.cif
#   From: 2010.06.25/outbox.cif.g09.slc.cpg/sg52_14_cif.got.tgz:26468.got - 2010.06.26 19:32:48.
