data_PCOD8217119
_publ_section_title
;
Structure prediction by ZEFSAII (Michael W. Deem and Ramdas Pophale) SiO2 
 PCOD8217119
Probable space group: P N N A
;
_chemical_formula_sum "Si O2"
_cell_formula_units_Z 32
_cell_length_a 17.150636
_cell_length_b 17.128276
_cell_length_c 4.854189
_cell_angle_alpha 90.000000
_cell_angle_beta 90.000000
_cell_angle_gamma 90.000000
_cell_volume 1425.970575
_symmetry_space_group_name_H-M "P N N A"
_symmetry_group_IT_number 52
_symmetry_cell_setting 'orthorhombic'
loop_
_space_group_symop_operation_xyz
x,y,z
1/2-x,-y,z
x,1/2-y,1/2-z
1/2-x,1/2+y,1/2-z
-x,-y,-z
1/2+x,y,-z
-x,1/2+y,1/2+z
1/2+x,1/2-y,1/2+z
loop_
_atom_site_type_symbol
_atom_site_label
_atom_site_fract_x
_atom_site_fract_y
_atom_site_fract_z
Si Si1 0.812834 0.894034 0.064992
Si Si2 0.858200 0.432879 0.396970
Si Si3 0.109232 0.327585 0.064444
Si Si4 0.038778 0.581650 0.080755
O O1 0.838520 0.826886 0.284202
O O2 0.720091 0.888015 0.012943
O O3 0.854655 0.891361 0.769076
O O4 0.839202 0.977648 0.178701
O O5 0.888599 0.396647 0.112871
O O6 0.928864 0.421798 0.610618
O O7 0.110575 0.250000 0.250000
O O8 0.023333 0.348720 0.955988
O O9 0.000000 0.500000 0.000000
#
# Coordination Sequence:
#
# PCOD8217119 Si02
#       4
#     8   8   8   8
#     4  11  22  41  63  95 127 167 218 274 323 395
#     4  11  22  38  67  97 124 161 225 280 326 370
#     4  12  25  41  63  92 133 177 213 261 339 408
#     4  12  21  39  64  97 130 166 215 283 327 386
#
# _framework density 22.440857000000001
#
# number of rings (size 3 to 8) (size 9 to 14) (size 15 to 20)
#    0.000    0.500    5.000    4.500    0.000    4.000 
#    0.000    5.000    0.000    0.000    0.000    0.000 
#    0.000    0.000    0.000    0.000    0.000    0.000 
#
# Total GULP energy -396707.570756 kJ/mol
# GULP energy per Si atom -12397.111586 kJ/mol
# Density = 2.238978 g / cm^3
# Si number density = 22.440857 Si / 1000 Ang^3
#
#
#
# Elastic Constant Matrix: (Units=GPa)
#
#
# Indices 1 2 3 4 5 6 
#
# 1 132.8553 28.9788 30.9244 0.0000 0.0000 0.0000
# 2 28.9788 46.0637 7.3002 0.0000 0.0000 0.0000
# 3 30.9244 7.3002 105.7962 0.0000 0.0000 0.0000
# 4 0.0000 0.0000 0.0000 33.6459 0.0000 0.0000
# 5 0.0000 0.0000 0.0000 0.0000 46.2929 0.0000
# 6 0.0000 0.0000 0.0000 0.0000 0.0000 15.9202
#
#
#
# Elastic Compliance Matrix: (Units=1/GPa)
#
#
# Indices 1 2 3 4 5 6 
#
# 1 0.009259 -0.005456 -0.002330 0.000000 0.000000 0.000000
# 2 -0.005456 0.025164 -0.000142 0.000000 0.000000 0.000000
# 3 -0.002330 -0.000142 0.010143 0.000000 0.000000 0.000000
# 4 0.000000 0.000000 0.000000 0.029721 0.000000 0.000000
# 5 0.000000 0.000000 0.000000 0.000000 0.021602 0.000000
# 6 0.000000 0.000000 0.000000 0.000000 0.000000 0.062813
#
#
# Mechanical properties :
#
#
# Convention : Reuss Voigt Hill
#
# Bulk Modulus (GPa) = 34.82969 46.56911 40.69940
# Shear Modulus (GPa) = 27.15506 33.67259 30.41382
#
# Velocity S-wave (km/s) = 3.48238 3.87784 3.68542
# Velocity P-wave (km/s) = 5.63238 6.39118 6.02374
#
# Compressibility (1/GPa) = 0.02871114
#
# Stress axis : x y z
#
# Youngs Moduli (GPa) = 107.99845 39.73964 98.59020
#
# Poissons Ratio (x) = 0.21681 0.22972
# Poissons Ratio (y) = 0.58922 0.01396
# Poissons Ratio (z) = 0.25164 0.00563
#
# Static dielectric constant tensor:
#      x y z
#    x 4.273300 0.000000 0.000000 
#    y 0.000000 3.689190 0.000000 
#    z 0.000000 0.000000 4.188470 
# 
# 
# High freq. dielectric constant tensor:
#      x y z
#    x 1.896260 0.000000 0.000000 
#    y 0.000000 1.847710 0.000000 
#    z 0.000000 0.000000 1.904220 
# 
# From -- ./inp_files/1924.got.cif
#   From: 2010.06.25/outbox.cif.g09.slc.cpg/sg52_1_cif.got.tgz:1924.got - 2010.06.26 19:32:48.
