data_PCOD8217598
_publ_section_title
;
Structure prediction by ZEFSAII (Michael W. Deem and Ramdas Pophale) SiO2 
 PCOD8217598
Probable space group: P M N A
;
_chemical_formula_sum "Si O2"
_cell_formula_units_Z 60
_cell_length_a 21.352618
_cell_length_b 11.916307
_cell_length_c 13.276314
_cell_angle_alpha 90.000000
_cell_angle_beta 90.000000
_cell_angle_gamma 90.000000
_cell_volume 3378.083104
_symmetry_space_group_name_H-M "P M N A"
_symmetry_group_IT_number 53
_symmetry_cell_setting 'orthorhombic'
loop_
_space_group_symop_operation_xyz
x,y,z
1/2-x,-y,1/2+z
x,-y,-z
1/2-x,y,1/2-z
-x,-y,-z
1/2+x,y,1/2-z
-x,y,z
1/2+x,-y,1/2+z
loop_
_atom_site_type_symbol
_atom_site_label
_atom_site_fract_x
_atom_site_fract_y
_atom_site_fract_z
Si Si1 0.315531 0.097235 0.561299
Si Si2 0.784432 0.717978 0.902687
Si Si3 0.175221 0.784399 0.255609
Si Si4 0.748264 0.500000 0.500000
Si Si5 0.316131 0.984229 0.112044
Si Si6 0.659890 0.782161 0.798448
Si Si7 0.637737 0.589635 0.115535
Si Si8 0.073828 0.364519 0.411881
O O1 0.286229 0.191335 0.490434
O O2 0.351804 0.163518 0.650464
O O3 0.259312 0.024189 0.610530
O O4 0.355313 0.000000 0.500000
O O5 0.796167 0.593025 0.946922
O O6 0.714834 0.717689 0.857377
O O7 0.836213 0.750334 0.819419
O O8 0.250000 0.767539 0.250000
O O9 0.155815 0.870101 0.343625
O O10 0.141092 0.667991 0.284978
O O11 0.791198 0.437851 0.582825
O O12 0.334680 0.084898 0.186555
O O13 0.344001 0.000000 0.000000
O O14 0.593825 0.740118 0.842446
O O15 0.599901 0.476998 0.142060
O O16 0.602530 0.650626 0.023141
O O17 0.000000 0.370395 0.419920
#
# Coordination Sequence:
#
# PCOD8217598 Si02
#       8
#     8   8   8   4   8   8   8   8
#     4  10  18  30  45  71 110 143 171 198 246 332
#     4  11  20  31  46  75 109 144 170 210 266 329
#     4  10  20  27  47  78 108 144 171 205 256 321
#     4  10  18  32  45  70 111 136 168 208 264 322
#     4  10  17  28  45  71 108 143 170 202 250 319
#     4  11  20  31  51  74 102 144 175 213 265 314
#     4  10  18  33  49  74  99 135 176 214 262 307
#     4  10  21  37  55  72  97 139 186 225 260 308
#
# _framework density 17.761551999999998
#
# number of rings (size 3 to 8) (size 9 to 14) (size 15 to 20)
#    0.000    1.867    5.333    4.000    3.733    2.133 
#    0.000    0.000    0.000    4.400    0.000    5.133 
#    0.000    3.733    0.000    0.000    0.000    0.000 
#
# Total GULP energy -743673.778828 kJ/mol
# GULP energy per Si atom -12394.562980 kJ/mol
# Density = 1.772113 g / cm^3
# Si number density = 17.761552 Si / 1000 Ang^3
#
#
#
# Elastic Constant Matrix: (Units=GPa)
#
#
# Indices 1 2 3 4 5 6 
#
# 1 38.0524 27.7219 24.5285 0.0000 0.0000 0.0000
# 2 27.7219 114.2116 53.1038 0.0000 0.0000 0.0000
# 3 24.5285 53.1038 93.8224 0.0000 0.0000 0.0000
# 4 0.0000 0.0000 0.0000 45.2408 0.0000 0.0000
# 5 0.0000 0.0000 0.0000 0.0000 8.0047 0.0000
# 6 0.0000 0.0000 0.0000 0.0000 0.0000 9.6181
#
#
#
# Elastic Compliance Matrix: (Units=1/GPa)
#
#
# Indices 1 2 3 4 5 6 
#
# 1 0.034055 -0.005600 -0.005734 0.000000 0.000000 0.000000
# 2 -0.005600 0.012804 -0.005783 0.000000 0.000000 0.000000
# 3 -0.005734 -0.005783 0.015431 0.000000 0.000000 0.000000
# 4 0.000000 0.000000 0.000000 0.022104 0.000000 0.000000
# 5 0.000000 0.000000 0.000000 0.000000 0.124927 0.000000
# 6 0.000000 0.000000 0.000000 0.000000 0.000000 0.103970
#
#
# Mechanical properties :
#
#
# Convention : Reuss Voigt Hill
#
# Bulk Modulus (GPa) = 35.64255 50.75498 43.19876
# Shear Modulus (GPa) = 14.01047 21.95487 17.98267
#
# Velocity S-wave (km/s) = 2.81162 3.51962 3.18535
# Velocity P-wave (km/s) = 5.53634 6.71973 6.15654
#
# Compressibility (1/GPa) = 0.02805635
#
# Stress axis : x y z
#
# Youngs Moduli (GPa) = 29.36406 78.10188 64.80668
#
# Poissons Ratio (x) = 0.43738 0.37157
# Poissons Ratio (y) = 0.16444 0.37477
# Poissons Ratio (z) = 0.16836 0.45166
#
# Static dielectric constant tensor:
#      x y z
#    x 2.606060 0.000000 0.000000 
#    y 0.000000 3.481510 0.000000 
#    z 0.000000 0.000000 3.550400 
# 
# 
# High freq. dielectric constant tensor:
#      x y z
#    x 1.593370 0.000000 0.000000 
#    y 0.000000 1.708050 0.000000 
#    z 0.000000 0.000000 1.690680 
# 
# From -- ./inp_files/24451.got.cif
#   From: 2010.03.12/outbox.cif.g09.slc.cpg/sg53_13_cif.got.tgz:24451.got - 2010.04.16 14:36:59.
