data_PCOD8217796
_publ_section_title
;
Structure prediction by ZEFSAII (Michael W. Deem and Ramdas Pophale) SiO2 
 PCOD8217796
Probable space group: P M N A
;
_chemical_formula_sum "Si O2"
_cell_formula_units_Z 64
_cell_length_a 8.881679
_cell_length_b 17.010301
_cell_length_c 26.141217
_cell_angle_alpha 90.000000
_cell_angle_beta 90.000000
_cell_angle_gamma 90.000000
_cell_volume 3949.415932
_symmetry_space_group_name_H-M "P M N A"
_symmetry_group_IT_number 53
_symmetry_cell_setting 'orthorhombic'
loop_
_space_group_symop_operation_xyz
x,y,z
1/2-x,-y,1/2+z
x,-y,-z
1/2-x,y,1/2-z
-x,-y,-z
1/2+x,y,1/2-z
-x,y,z
1/2+x,-y,1/2+z
loop_
_atom_site_type_symbol
_atom_site_label
_atom_site_fract_x
_atom_site_fract_y
_atom_site_fract_z
Si Si1 0.326804 0.516860 0.102918
Si Si2 0.165820 0.979014 0.440846
Si Si3 0.678415 0.150033 0.074352
Si Si4 0.829847 0.602912 0.963391
Si Si5 0.672669 0.324395 0.941702
Si Si6 0.170922 0.283138 0.132356
Si Si7 0.676983 0.589521 0.803263
Si Si8 0.176238 0.828531 0.035241
O O1 0.500000 0.495549 0.090685
O O2 0.224317 0.481586 0.057433
O O3 0.302801 0.611399 0.103617
O O4 0.280298 0.480386 0.157413
O O5 0.279643 0.906547 0.432606
O O6 0.000000 0.953646 0.421275
O O7 0.156630 0.000000 0.500000
O O8 0.220260 0.058906 0.412762
O O9 0.500000 0.161640 0.071239
O O10 0.747037 0.200855 0.120372
O O11 0.744942 0.176119 0.019787
O O12 0.822051 0.664479 0.917768
O O13 0.000000 0.595695 0.984641
O O14 0.716261 0.633164 0.005855
O O15 0.500000 0.297329 0.944801
O O16 0.774364 0.247519 0.931828
O O17 0.256226 0.327183 0.178246
O O18 0.000000 0.266444 0.149415
O O19 0.750000 0.564561 0.750000
O O20 0.500000 0.599289 0.796646
O O21 0.000000 0.827303 0.025930
#
# Coordination Sequence:
#
# PCOD8217796 Si02
#       8
#     8   8   8   8   8   8   8   8
#     4   9  20  34  47  64  85 116 152 185 225 277
#     4   8  16  29  42  58  82 117 157 189 221 261
#     4  10  18  29  45  63  87 120 156 191 224 265
#     4  10  19  29  42  63  90 118 149 188 227 264
#     4  11  20  30  44  60  86 122 157 189 225 268
#     4  10  19  30  46  69  94 120 153 188 228 272
#     4  10  20  36  54  70  91 116 148 188 234 281
#     4  11  20  28  40  61  88 121 157 193 231 263
#
# _framework density 16.204929
#
# number of rings (size 3 to 8) (size 9 to 14) (size 15 to 20)
#    0.000    2.125    1.250    4.125    0.000    6.750 
#    0.000    0.000    0.000    0.000    0.000    0.000 
#    0.000    1.000    0.000    6.750    0.000    4.875 
#
# Total GULP energy -793494.042303 kJ/mol
# GULP energy per Si atom -12398.344411 kJ/mol
# Density = 1.616805 g / cm^3
# Si number density = 16.204929 Si / 1000 Ang^3
#
#
#
# Elastic Constant Matrix: (Units=GPa)
#
#
# Indices 1 2 3 4 5 6 
#
# 1 96.7615 49.5141 25.4675 0.0000 0.0000 0.0000
# 2 49.5141 120.5166 29.7953 0.0000 0.0000 0.0000
# 3 25.4675 29.7953 41.6327 0.0000 0.0000 0.0000
# 4 0.0000 0.0000 0.0000 13.5941 0.0000 0.0000
# 5 0.0000 0.0000 0.0000 0.0000 19.5941 0.0000
# 6 0.0000 0.0000 0.0000 0.0000 0.0000 23.0532
#
#
#
# Elastic Compliance Matrix: (Units=1/GPa)
#
#
# Indices 1 2 3 4 5 6 
#
# 1 0.014023 -0.004423 -0.005412 0.000000 0.000000 0.000000
# 2 -0.004423 0.011476 -0.005508 0.000000 0.000000 0.000000
# 3 -0.005412 -0.005508 0.031272 0.000000 0.000000 0.000000
# 4 0.000000 0.000000 0.000000 0.073561 0.000000 0.000000
# 5 0.000000 0.000000 0.000000 0.000000 0.051036 0.000000
# 6 0.000000 0.000000 0.000000 0.000000 0.000000 0.043378
#
#
# Mechanical properties :
#
#
# Convention : Reuss Voigt Hill
#
# Bulk Modulus (GPa) = 38.33641 52.05162 45.19401
# Shear Modulus (GPa) = 18.93022 21.52386 20.22704
#
# Velocity S-wave (km/s) = 3.42157 3.64844 3.53682
# Velocity P-wave (km/s) = 6.27042 7.06674 6.68045
#
# Compressibility (1/GPa) = 0.02608486
#
# Stress axis : x y z
#
# Youngs Moduli (GPa) = 71.31373 87.13472 31.97726
#
# Poissons Ratio (x) = 0.38540 0.17307
# Poissons Ratio (y) = 0.31542 0.17612
# Poissons Ratio (z) = 0.38598 0.47992
#
# Static dielectric constant tensor:
#      x y z
#    x 3.191340 0.000000 0.000000 
#    y 0.000000 3.453580 0.000000 
#    z 0.000000 0.000000 2.648460 
# 
# 
# High freq. dielectric constant tensor:
#      x y z
#    x 1.638330 0.000000 0.000000 
#    y 0.000000 1.631380 0.000000 
#    z 0.000000 0.000000 1.556980 
# 
# From -- ./inp_files/34517.got.cif
#   From: 2010.03.12/outbox.cif.g09.slc.cpg/sg53_18_cif.got.tgz:34517.got - 2010.04.16 14:36:59.
