data_PCOD8217378
_publ_section_title
;
Structure prediction by ZEFSAII (Michael W. Deem and Ramdas Pophale) SiO2 
 PCOD8217378
Probable space group: P N N A
;
_chemical_formula_sum "Si O2"
_cell_formula_units_Z 40
_cell_length_a 17.891815
_cell_length_b 19.913242
_cell_length_c 4.874941
_cell_angle_alpha 90.000000
_cell_angle_beta 90.000000
_cell_angle_gamma 90.000000
_cell_volume 1736.863684
_symmetry_space_group_name_H-M "P N N A"
_symmetry_group_IT_number 52
_symmetry_cell_setting 'orthorhombic'
loop_
_space_group_symop_operation_xyz
x,y,z
1/2-x,-y,z
x,1/2-y,1/2-z
1/2-x,1/2+y,1/2-z
-x,-y,-z
1/2+x,y,-z
-x,1/2+y,1/2+z
1/2+x,1/2-y,1/2+z
loop_
_atom_site_type_symbol
_atom_site_label
_atom_site_fract_x
_atom_site_fract_y
_atom_site_fract_z
Si Si1 0.516046 0.250000 0.750000
Si Si2 0.072394 0.533481 0.121266
Si Si3 0.879388 0.750000 0.250000
Si Si4 0.737587 0.359367 0.314538
Si Si5 0.798930 0.560520 0.810494
Si Si6 0.404981 0.128387 0.866179
O O1 0.566882 0.224901 0.496087
O O2 0.465409 0.187257 0.841021
O O3 0.116917 0.464767 0.172781
O O4 0.066373 0.577743 0.397548
O O5 0.107223 0.584757 0.905282
O O6 0.000000 0.500000 0.000000
O O7 0.824086 0.696122 0.388981
O O8 0.718757 0.424524 0.494619
O O9 0.822423 0.337806 0.398704
O O10 0.722532 0.375272 0.994916
O O11 0.750000 0.500000 0.922308
#
# Coordination Sequence:
#
# PCOD8217378 Si02
#       6
#     4   8   4   8   8   8
#     4  12  29  48  71 100 144 184 236 296 355 412
#     4  12  27  42  71 108 145 181 228 285 359 421
#     4  12  29  48  71 106 132 188 244 298 347 402
#     4  12  25  46  75 100 140 184 240 287 344 416
#     4  12  23  44  72 106 140 177 228 290 344 418
#     4  12  25  49  70 102 143 190 233 283 354 425
#
# _framework density 23.030017999999998
#
# number of rings (size 3 to 8) (size 9 to 14) (size 15 to 20)
#    0.000    0.000    4.000    5.400    8.400    0.000 
#    0.000    6.000    0.000    0.000    0.000    0.000 
#    0.000    0.000    0.000    0.000    0.000    0.000 
#
# Total GULP energy -495786.764189 kJ/mol
# GULP energy per Si atom -12394.669105 kJ/mol
# Density = 2.297760 g / cm^3
# Si number density = 23.030018 Si / 1000 Ang^3
#
#
#
# Elastic Constant Matrix: (Units=GPa)
#
#
# Indices 1 2 3 4 5 6 
#
# 1 179.9711 56.3962 28.0108 0.0000 0.0000 0.0000
# 2 56.3962 84.6713 25.8058 0.0000 0.0000 0.0000
# 3 28.0108 25.8058 96.2778 0.0000 0.0000 0.0000
# 4 0.0000 0.0000 0.0000 33.5670 0.0000 0.0000
# 5 0.0000 0.0000 0.0000 0.0000 26.2345 0.0000
# 6 0.0000 0.0000 0.0000 0.0000 0.0000 36.3684
#
#
#
# Elastic Compliance Matrix: (Units=1/GPa)
#
#
# Indices 1 2 3 4 5 6 
#
# 1 0.007088 -0.004457 -0.000868 0.000000 0.000000 0.000000
# 2 -0.004457 0.015663 -0.002902 0.000000 0.000000 0.000000
# 3 -0.000868 -0.002902 0.011417 0.000000 0.000000 0.000000
# 4 0.000000 0.000000 0.000000 0.029791 0.000000 0.000000
# 5 0.000000 0.000000 0.000000 0.000000 0.038118 0.000000
# 6 0.000000 0.000000 0.000000 0.000000 0.000000 0.027496
#
#
# Mechanical properties :
#
#
# Convention : Reuss Voigt Hill
#
# Bulk Modulus (GPa) = 56.44592 64.59400 60.51996
# Shear Modulus (GPa) = 32.90977 35.94778 34.42877
#
# Velocity S-wave (km/s) = 3.78431 3.95512 3.87066
# Velocity P-wave (km/s) = 6.60739 6.99757 6.80527
#
# Compressibility (1/GPa) = 0.01771607
#
# Stress axis : x y z
#
# Youngs Moduli (GPa) = 141.08299 63.84422 87.59032
#
# Poissons Ratio (x) = 0.28453 0.07600
# Poissons Ratio (y) = 0.62875 0.25416
# Poissons Ratio (z) = 0.12241 0.18525
#
# Static dielectric constant tensor:
#      x y z
#    x -18.863830 0.000000 0.000000 
#    y 0.000000 2.943030 0.000000 
#    z 0.000000 0.000000 4.272170 
# 
# 
# High freq. dielectric constant tensor:
#      x y z
#    x 1.931380 0.000000 0.000000 
#    y 0.000000 1.902420 0.000000 
#    z 0.000000 0.000000 1.922450 
# 
# From -- ./inp_files/3257.got.cif
#   From: 2010.06.25/outbox.cif.g09.slc.cpg/sg52_2_cif.got.tgz:3257.got - 2010.06.26 19:32:48.
