data_PCOD8217503
_publ_section_title
;
Structure prediction by ZEFSAII (Michael W. Deem and Ramdas Pophale) SiO2 
 PCOD8217503
Probable space group: P M N A
;
_chemical_formula_sum "Si O2"
_cell_formula_units_Z 56
_cell_length_a 8.643983
_cell_length_b 18.287747
_cell_length_c 19.719696
_cell_angle_alpha 90.000000
_cell_angle_beta 90.000000
_cell_angle_gamma 90.000000
_cell_volume 3117.269315
_symmetry_space_group_name_H-M "P M N A"
_symmetry_group_IT_number 53
_symmetry_cell_setting 'orthorhombic'
loop_
_space_group_symop_operation_xyz
x,y,z
1/2-x,-y,1/2+z
x,-y,-z
1/2-x,y,1/2-z
-x,-y,-z
1/2+x,y,1/2-z
-x,y,z
1/2+x,-y,1/2+z
loop_
_atom_site_type_symbol
_atom_site_label
_atom_site_fract_x
_atom_site_fract_y
_atom_site_fract_z
Si Si1 0.322951 0.652407 0.577879
Si Si2 0.681795 0.801488 0.919598
Si Si3 0.820468 0.805277 0.425504
Si Si4 0.827557 0.508283 0.580955
Si Si5 0.317682 0.080040 0.322287
Si Si6 0.815538 0.924793 0.323176
Si Si7 0.180239 0.646620 0.434489
O O1 0.500000 0.669249 0.593863
O O2 0.221955 0.719768 0.607079
O O3 0.278941 0.573327 0.610730
O O4 0.293340 0.645436 0.498269
O O5 0.500000 0.815645 0.911137
O O6 0.778427 0.859080 0.876943
O O7 0.740512 0.810301 0.997271
O O8 0.745157 0.865711 0.376352
O O9 0.789316 0.723231 0.395301
O O10 0.000000 0.822580 0.427724
O O11 0.813763 0.500000 0.500000
O O12 0.784837 0.426633 0.610285
O O13 0.000000 0.529790 0.602616
O O14 0.250000 0.104445 0.250000
O O15 0.500000 0.069594 0.315406
O O16 0.242342 0.004112 0.346639
O O17 0.750000 0.903820 0.250000
O O18 0.000000 0.924171 0.320264
O O19 0.000000 0.644701 0.459674
#
# Coordination Sequence:
#
# PCOD8217503 Si02
#       7
#     8   8   8   8   8   8   8
#     4  10  17  24  37  62  94 124 154 192 238 285
#     4  10  19  34  52  71  96 127 161 198 240 286
#     4   8  16  30  50  72  96 127 163 199 238 286
#     4   8  13  22  37  56  83 121 161 195 230 278
#     4  11  22  37  54  74  97 124 158 195 236 283
#     4  10  19  34  53  73  96 126 162 198 237 283
#     4   8  14  26  41  59  86 123 162 197 234 281
#
# _framework density 17.964441000000001
#
# number of rings (size 3 to 8) (size 9 to 14) (size 15 to 20)
#    0.000    2.714    0.000    6.000    0.000    3.143 
#    0.000   10.000    0.000    0.000    0.000    1.000 
#    0.000    4.571    0.000    0.000    0.000    0.000 
#
# Total GULP energy -693804.652077 kJ/mol
# GULP energy per Si atom -12389.368787 kJ/mol
# Density = 1.792355 g / cm^3
# Si number density = 17.964441 Si / 1000 Ang^3
#
#
#
# Elastic Constant Matrix: (Units=GPa)
#
#
# Indices 1 2 3 4 5 6 
#
# 1 72.3347 29.4730 16.3422 0.0000 0.0000 0.0000
# 2 29.4730 165.1731 59.8168 0.0000 0.0000 0.0000
# 3 16.3422 59.8168 46.9881 0.0000 0.0000 0.0000
# 4 0.0000 0.0000 0.0000 1.9434 0.0000 0.0000
# 5 0.0000 0.0000 0.0000 0.0000 16.1593 0.0000
# 6 0.0000 0.0000 0.0000 0.0000 0.0000 21.2121
#
#
#
# Elastic Compliance Matrix: (Units=1/GPa)
#
#
# Indices 1 2 3 4 5 6 
#
# 1 0.015196 -0.001480 -0.003401 0.000000 0.000000 0.000000
# 2 -0.001480 0.011377 -0.013968 0.000000 0.000000 0.000000
# 3 -0.003401 -0.013968 0.040247 0.000000 0.000000 0.000000
# 4 0.000000 0.000000 0.000000 0.514571 0.000000 0.000000
# 5 0.000000 0.000000 0.000000 0.000000 0.061884 0.000000
# 6 0.000000 0.000000 0.000000 0.000000 0.000000 0.047143
#
#
# Mechanical properties :
#
#
# Convention : Reuss Voigt Hill
#
# Bulk Modulus (GPa) = 34.33954 55.08442 44.71198
# Shear Modulus (GPa) = 6.77669 19.78721 13.28195
#
# Velocity S-wave (km/s) = 1.94434 3.32243 2.72204
# Velocity P-wave (km/s) = 4.91909 6.74149 5.90106
#
# Compressibility (1/GPa) = 0.02912095
#
# Stress axis : x y z
#
# Youngs Moduli (GPa) = 65.80680 87.89759 24.84663
#
# Poissons Ratio (x) = 0.13007 0.08451
# Poissons Ratio (y) = 0.09738 0.34707
# Poissons Ratio (z) = 0.22383 1.22778
#
# Static dielectric constant tensor:
#      x y z
#    x 3.173440 0.000000 0.000000 
#    y 0.000000 4.015280 0.000000 
#    z 0.000000 0.000000 2.907740 
# 
# 
# High freq. dielectric constant tensor:
#      x y z
#    x 1.686900 0.000000 0.000000 
#    y 0.000000 1.725390 0.000000 
#    z 0.000000 0.000000 1.625620 
# 
# From -- ./inp_files/30993.got.cif
#   From: 2010.03.12/outbox.cif.g09.slc.cpg/sg53_16_cif.got.tgz:30993.got - 2010.04.16 14:36:59.
