data_PCOD8217343
_publ_section_title
;
Structure prediction by ZEFSAII (Michael W. Deem and Ramdas Pophale) SiO2 
 PCOD8217343
Probable space group: P N N A
;
_chemical_formula_sum "Si O2"
_cell_formula_units_Z 24
_cell_length_a 13.352881
_cell_length_b 13.012530
_cell_length_c 4.732422
_cell_angle_alpha 90.000000
_cell_angle_beta 90.000000
_cell_angle_gamma 90.000000
_cell_volume 822.280871
_symmetry_space_group_name_H-M "P N N A"
_symmetry_group_IT_number 52
_symmetry_cell_setting 'orthorhombic'
loop_
_space_group_symop_operation_xyz
x,y,z
1/2-x,-y,z
x,1/2-y,1/2-z
1/2-x,1/2+y,1/2-z
-x,-y,-z
1/2+x,y,-z
-x,1/2+y,1/2+z
1/2+x,1/2-y,1/2+z
loop_
_atom_site_type_symbol
_atom_site_label
_atom_site_fract_x
_atom_site_fract_y
_atom_site_fract_z
Si Si1 0.927359 0.152959 0.961110
Si Si2 0.378909 0.564418 0.332244
Si Si3 0.232520 0.359172 0.811156
O O1 0.918459 0.250000 0.750000
O O2 0.917882 0.050549 0.761599
O O3 0.846676 0.155692 0.213159
O O4 0.030550 0.146145 0.139785
O O5 0.326361 0.553867 0.637287
O O6 0.288033 0.606898 0.134484
O O7 0.178114 0.250000 0.750000
#
# Coordination Sequence:
#
# PCOD8217343 Si02
#       3
#     8   8   8
#     4  11  27  51  85 120 160 216 276 335 408 492
#     4  11  28  52  79 116 162 209 266 336 404 481
#     4  12  27  48  78 117 160 207 264 333 405 480
#
# _framework density 29.187104999999999
#
# number of rings (size 3 to 8) (size 9 to 14) (size 15 to 20)
#    0.000    0.667    0.000    5.000    0.000   24.000 
#    0.000    3.333    0.000    0.000    0.000    0.000 
#    0.000    0.000    0.000    0.000    0.000    0.000 
#
# Total GULP energy -297376.342223 kJ/mol
# GULP energy per Si atom -12390.680926 kJ/mol
# Density = 2.912067 g / cm^3
# Si number density = 29.187105 Si / 1000 Ang^3
#
#
#
# Elastic Constant Matrix: (Units=GPa)
#
#
# Indices 1 2 3 4 5 6 
#
# 1 217.3225 42.0516 77.3206 0.0000 0.0000 0.0000
# 2 42.0516 176.1355 31.3322 0.0000 0.0000 0.0000
# 3 77.3206 31.3322 121.9145 0.0000 0.0000 0.0000
# 4 0.0000 0.0000 0.0000 46.6640 0.0000 0.0000
# 5 0.0000 0.0000 0.0000 0.0000 35.0662 0.0000
# 6 0.0000 0.0000 0.0000 0.0000 0.0000 40.1765
#
#
#
# Elastic Compliance Matrix: (Units=1/GPa)
#
#
# Indices 1 2 3 4 5 6 
#
# 1 0.006048 -0.000798 -0.003630 0.000000 0.000000 0.000000
# 2 -0.000798 0.006055 -0.001050 0.000000 0.000000 0.000000
# 3 -0.003630 -0.001050 0.010775 0.000000 0.000000 0.000000
# 4 0.000000 0.000000 0.000000 0.021430 0.000000 0.000000
# 5 0.000000 0.000000 0.000000 0.000000 0.028517 0.000000
# 6 0.000000 0.000000 0.000000 0.000000 0.000000 0.024890
#
#
# Mechanical properties :
#
#
# Convention : Reuss Voigt Hill
#
# Bulk Modulus (GPa) = 83.89028 90.75350 87.32189
# Shear Modulus (GPa) = 44.38741 48.69255 46.53998
#
# Velocity S-wave (km/s) = 3.90396 4.08890 3.99750
# Velocity P-wave (km/s) = 7.00898 7.31118 7.16168
#
# Compressibility (1/GPa) = 0.01192033
#
# Stress axis : x y z
#
# Youngs Moduli (GPa) = 165.35732 165.15973 92.80954
#
# Poissons Ratio (x) = 0.13180 0.33693
# Poissons Ratio (y) = 0.13196 0.09745
# Poissons Ratio (z) = 0.60031 0.17341
#
# Static dielectric constant tensor:
#      x y z
#    x 5.466760 0.000000 0.000000 
#    y 0.000000 6.175020 0.000000 
#    z 0.000000 0.000000 4.840540 
# 
# 
# High freq. dielectric constant tensor:
#      x y z
#    x 2.196310 0.000000 0.000000 
#    y 0.000000 2.225780 0.000000 
#    z 0.000000 0.000000 2.170220 
# 
# From -- ./inp_files/1775.got.cif
#   From: 2010.06.25/outbox.cif.g09.slc.cpg/sg52_1_cif.got.tgz:1775.got - 2010.06.26 19:32:48.
