data_PCOD8217459
_publ_section_title
;
Structure prediction by ZEFSAII (Michael W. Deem and Ramdas Pophale) SiO2 
 PCOD8217459
Probable space group: P M N A
;
_chemical_formula_sum "Si O2"
_cell_formula_units_Z 64
_cell_length_a 8.813947
_cell_length_b 20.539677
_cell_length_c 20.351958
_cell_angle_alpha 90.000000
_cell_angle_beta 90.000000
_cell_angle_gamma 90.000000
_cell_volume 3684.429426
_symmetry_space_group_name_H-M "P M N A"
_symmetry_group_IT_number 53
_symmetry_cell_setting 'orthorhombic'
loop_
_space_group_symop_operation_xyz
x,y,z
1/2-x,-y,1/2+z
x,-y,-z
1/2-x,y,1/2-z
-x,-y,-z
1/2+x,y,1/2-z
-x,y,z
1/2+x,-y,1/2+z
loop_
_atom_site_type_symbol
_atom_site_label
_atom_site_fract_x
_atom_site_fract_y
_atom_site_fract_z
Si Si1 0.823878 0.663381 0.464061
Si Si2 0.179120 0.069300 0.939840
Si Si3 0.328316 0.185109 0.398485
Si Si4 0.320676 0.682928 0.885782
Si Si5 0.168081 0.209518 0.947035
Si Si6 0.320761 0.467378 0.566260
Si Si7 0.679635 0.056173 0.081927
Si Si8 0.679972 0.562080 0.681478
O O1 0.771107 0.664769 0.539956
O O2 0.782761 0.732200 0.429505
O O3 0.740388 0.605573 0.426037
O O4 0.000000 0.651360 0.457283
O O5 0.208264 0.141681 0.909146
O O6 0.000000 0.060018 0.954349
O O7 0.242978 0.011771 0.892418
O O8 0.275315 0.064195 0.006298
O O9 0.500000 0.184412 0.371720
O O10 0.238476 0.245492 0.366511
O O11 0.325214 0.192070 0.476533
O O12 0.245726 0.117802 0.377624
O O13 0.500000 0.680555 0.877264
O O14 0.243004 0.632857 0.836451
O O15 0.000000 0.233524 0.927696
O O16 0.254344 0.500000 0.500000
O O17 0.500000 0.464352 0.562795
O O18 0.264949 0.509747 0.627762
O O19 0.500000 0.053270 0.090978
O O20 0.750000 0.538857 0.750000
O O21 0.500000 0.565649 0.686241
#
# Coordination Sequence:
#
# PCOD8217459 Si02
#       8
#     8   8   8   8   8   8   8   8
#     4  10  19  28  45  70  94 118 151 199 244 282
#     4   9  15  23  33  46  69 107 148 185 226 277
#     4   9  16  26  39  55  78 111 150 190 229 275
#     4  10  19  31  47  69  94 120 153 196 241 286
#     4   8  15  25  37  53  78 112 149 187 229 280
#     4  10  20  35  54  73  95 126 162 198 240 296
#     4  10  16  21  31  49  73 104 143 189 232 273
#     4  11  23  38  55  74  98 129 161 199 245 295
#
# _framework density 17.370398000000002
#
# number of rings (size 3 to 8) (size 9 to 14) (size 15 to 20)
#    0.000    2.375    1.250    4.500    0.000    5.750 
#    0.000    0.000    0.000    0.000    0.000    0.000 
#    0.000    0.000    0.000    1.125    0.000   18.750 
#
# Total GULP energy -793291.253886 kJ/mol
# GULP energy per Si atom -12395.175842 kJ/mol
# Density = 1.733086 g / cm^3
# Si number density = 17.370398 Si / 1000 Ang^3
#
#
#
# Elastic Constant Matrix: (Units=GPa)
#
#
# Indices 1 2 3 4 5 6 
#
# 1 72.9418 42.3761 26.3695 0.0000 0.0000 0.0000
# 2 42.3761 152.3576 41.2046 0.0000 0.0000 0.0000
# 3 26.3695 41.2046 49.1621 0.0000 0.0000 0.0000
# 4 0.0000 0.0000 0.0000 8.2548 0.0000 0.0000
# 5 0.0000 0.0000 0.0000 0.0000 14.0986 0.0000
# 6 0.0000 0.0000 0.0000 0.0000 0.0000 27.9578
#
#
#
# Elastic Compliance Matrix: (Units=1/GPa)
#
#
# Indices 1 2 3 4 5 6 
#
# 1 0.018080 -0.003111 -0.007090 0.000000 0.000000 0.000000
# 2 -0.003111 0.009023 -0.005893 0.000000 0.000000 0.000000
# 3 -0.007090 -0.005893 0.029083 0.000000 0.000000 0.000000
# 4 0.000000 0.000000 0.000000 0.121141 0.000000 0.000000
# 5 0.000000 0.000000 0.000000 0.000000 0.070929 0.000000
# 6 0.000000 0.000000 0.000000 0.000000 0.000000 0.035768
#
#
# Mechanical properties :
#
#
# Convention : Reuss Voigt Hill
#
# Bulk Modulus (GPa) = 41.67260 54.92910 48.30085
# Shear Modulus (GPa) = 15.42194 21.02968 18.22581
#
# Velocity S-wave (km/s) = 2.98288 3.48323 3.24272
# Velocity P-wave (km/s) = 5.99217 6.91868 6.47202
#
# Compressibility (1/GPa) = 0.02399658
#
# Stress axis : x y z
#
# Youngs Moduli (GPa) = 55.30896 110.83125 34.38377
#
# Poissons Ratio (x) = 0.34482 0.24379
# Poissons Ratio (y) = 0.17208 0.20264
# Poissons Ratio (z) = 0.39215 0.65318
#
# Static dielectric constant tensor:
#      x y z
#    x 3.239000 0.000000 0.000000 
#    y 0.000000 3.838540 0.000000 
#    z 0.000000 0.000000 2.618220 
# 
# 
# High freq. dielectric constant tensor:
#      x y z
#    x 1.681690 0.000000 0.000000 
#    y 0.000000 1.697500 0.000000 
#    z 0.000000 0.000000 1.578910 
# 
# From -- ./inp_files/31411.got.cif
#   From: 2010.03.12/outbox.cif.g09.slc.cpg/sg53_16_cif.got.tgz:31411.got - 2010.04.16 14:36:59.
