data_PCOD8217669
_publ_section_title
;
Structure prediction by ZEFSAII (Michael W. Deem and Ramdas Pophale) SiO2 
 PCOD8217669
Probable space group: P M N A
;
_chemical_formula_sum "Si O2"
_cell_formula_units_Z 64
_cell_length_a 9.144620
_cell_length_b 20.244918
_cell_length_c 22.083627
_cell_angle_alpha 90.000000
_cell_angle_beta 90.000000
_cell_angle_gamma 90.000000
_cell_volume 4088.387846
_symmetry_space_group_name_H-M "P M N A"
_symmetry_group_IT_number 53
_symmetry_cell_setting 'orthorhombic'
loop_
_space_group_symop_operation_xyz
x,y,z
1/2-x,-y,1/2+z
x,-y,-z
1/2-x,y,1/2-z
-x,-y,-z
1/2+x,y,1/2-z
-x,y,z
1/2+x,-y,1/2+z
loop_
_atom_site_type_symbol
_atom_site_label
_atom_site_fract_x
_atom_site_fract_y
_atom_site_fract_z
Si Si1 0.838219 0.865318 0.553319
Si Si2 0.829745 0.242465 0.900583
Si Si3 0.672348 0.596237 0.541541
Si Si4 0.668971 0.638094 0.312922
Si Si5 0.335908 0.988190 0.571487
Si Si6 0.173039 0.723399 0.523361
Si Si7 0.827774 0.541533 0.086377
Si Si8 0.664479 0.886633 0.089552
O O1 0.728562 0.915627 0.586474
O O2 0.791034 0.789034 0.562971
O O3 0.839156 0.877758 0.481992
O O4 0.000000 0.878229 0.579689
O O5 0.808155 0.291448 0.844583
O O6 0.756299 0.173204 0.881293
O O7 0.000000 0.230946 0.915781
O O8 0.753190 0.274187 0.958868
O O9 0.500000 0.612033 0.542025
O O10 0.763542 0.661128 0.560720
O O11 0.710093 0.536635 0.588206
O O12 0.730236 0.574410 0.475396
O O13 0.750000 0.637513 0.250000
O O14 0.500000 0.624316 0.300128
O O15 0.736262 0.579780 0.355390
O O16 0.500000 0.991065 0.596799
O O17 0.332671 0.000000 0.500000
O O18 0.241306 0.043885 0.605709
O O19 0.000000 0.717421 0.512331
O O20 0.000000 0.551833 0.084808
O O21 0.500000 0.886655 0.116078
#
# Coordination Sequence:
#
# PCOD8217669 Si02
#       8
#     8   8   8   8   8   8   8   8
#     4   8  15  24  32  46  73 106 132 160 200 241
#     4  10  18  29  43  57  76 104 141 176 206 248
#     4   9  15  27  47  62  79 107 139 174 210 253
#     4  10  20  33  47  63  83 109 140 176 216 257
#     4   9  15  22  33  50  70  97 135 170 195 229
#     4  10  18  26  38  59  85 108 134 171 214 252
#     4   8  15  29  46  63  80 105 139 172 211 257
#     4   9  16  25  37  52  73 100 130 168 209 242
#
# _framework density 15.654092
#
# number of rings (size 3 to 8) (size 9 to 14) (size 15 to 20)
#    0.000    2.875    1.250    3.000    0.000    6.000 
#    0.000    1.875    0.000    0.000    0.000    0.000 
#    0.000    0.000    0.000    1.125    0.000   16.875 
#
# Total GULP energy -793228.114659 kJ/mol
# GULP energy per Si atom -12394.189292 kJ/mol
# Density = 1.561846 g / cm^3
# Si number density = 15.654092 Si / 1000 Ang^3
#
#
#
# Elastic Constant Matrix: (Units=GPa)
#
#
# Indices 1 2 3 4 5 6 
#
# 1 97.7761 69.6396 23.9019 0.0000 0.0000 0.0000
# 2 69.6396 148.0187 29.5705 0.0000 0.0000 0.0000
# 3 23.9019 29.5705 36.3855 0.0000 0.0000 0.0000
# 4 0.0000 0.0000 0.0000 9.0372 0.0000 0.0000
# 5 0.0000 0.0000 0.0000 0.0000 13.8655 0.0000
# 6 0.0000 0.0000 0.0000 0.0000 0.0000 27.8189
#
#
#
# Elastic Compliance Matrix: (Units=1/GPa)
#
#
# Indices 1 2 3 4 5 6 
#
# 1 0.016198 -0.006560 -0.005309 0.000000 0.000000 0.000000
# 2 -0.006560 0.010722 -0.004405 0.000000 0.000000 0.000000
# 3 -0.005309 -0.004405 0.034551 0.000000 0.000000 0.000000
# 4 0.000000 0.000000 0.000000 0.110654 0.000000 0.000000
# 5 0.000000 0.000000 0.000000 0.000000 0.072121 0.000000
# 6 0.000000 0.000000 0.000000 0.000000 0.000000 0.035947
#
#
# Mechanical properties :
#
#
# Convention : Reuss Voigt Hill
#
# Bulk Modulus (GPa) = 34.57439 58.71159 46.64299
# Shear Modulus (GPa) = 15.50964 20.74888 18.12926
#
# Velocity S-wave (km/s) = 3.15107 3.64464 3.40680
# Velocity P-wave (km/s) = 5.94755 7.43627 6.73319
#
# Compressibility (1/GPa) = 0.02892314
#
# Stress axis : x y z
#
# Youngs Moduli (GPa) = 61.73791 93.26475 28.94312
#
# Poissons Ratio (x) = 0.61182 0.15366
# Poissons Ratio (y) = 0.40500 0.12748
# Poissons Ratio (z) = 0.32776 0.41079
#
# Static dielectric constant tensor:
#      x y z
#    x 3.018240 0.000000 0.000000 
#    y 0.000000 3.363750 0.000000 
#    z 0.000000 0.000000 2.407600 
# 
# 
# High freq. dielectric constant tensor:
#      x y z
#    x 1.601790 0.000000 0.000000 
#    y 0.000000 1.620860 0.000000 
#    z 0.000000 0.000000 1.515390 
# 
# From -- ./inp_files/31333.got.cif
#   From: 2010.03.12/outbox.cif.g09.slc.cpg/sg53_16_cif.got.tgz:31333.got - 2010.04.16 14:36:59.
