data_PCOD8217800
_publ_section_title
;
Structure prediction by ZEFSAII (Michael W. Deem and Ramdas Pophale) SiO2 
 PCOD8217800
Probable space group: P M N A
;
_chemical_formula_sum "Si O2"
_cell_formula_units_Z 64
_cell_length_a 9.057088
_cell_length_b 17.154952
_cell_length_c 26.161255
_cell_angle_alpha 90.000000
_cell_angle_beta 90.000000
_cell_angle_gamma 90.000000
_cell_volume 4064.776477
_symmetry_space_group_name_H-M "P M N A"
_symmetry_group_IT_number 53
_symmetry_cell_setting 'orthorhombic'
loop_
_space_group_symop_operation_xyz
x,y,z
1/2-x,-y,1/2+z
x,-y,-z
1/2-x,y,1/2-z
-x,-y,-z
1/2+x,y,1/2-z
-x,y,z
1/2+x,-y,1/2+z
loop_
_atom_site_type_symbol
_atom_site_label
_atom_site_fract_x
_atom_site_fract_y
_atom_site_fract_z
Si Si1 0.673803 0.592859 0.197295
Si Si2 0.826775 0.336737 0.065959
Si Si3 0.667794 0.404966 0.542697
Si Si4 0.327645 0.182321 0.040159
Si Si5 0.169456 0.284328 0.868090
Si Si6 0.172500 0.849437 0.421483
Si Si7 0.174099 0.014678 0.445090
Si Si8 0.827663 0.524870 0.607575
O O1 0.750000 0.569429 0.250000
O O2 0.500000 0.603686 0.204597
O O3 0.740682 0.674327 0.177326
O O4 0.711604 0.522565 0.158734
O O5 0.764083 0.249697 0.067744
O O6 0.752841 0.391066 0.109537
O O7 0.000000 0.332982 0.075318
O O8 0.782329 0.374628 0.012101
O O9 0.500000 0.435959 0.542507
O O10 0.687353 0.333274 0.580580
O O11 0.770393 0.476768 0.558554
O O12 0.500000 0.201208 0.046175
O O13 0.282723 0.102810 0.071561
O O14 0.287827 0.173198 0.980071
O O15 0.235812 0.199746 0.880290
O O16 0.000000 0.276065 0.850892
O O17 0.000000 0.834453 0.411709
O O18 0.217433 0.940453 0.409728
O O19 0.000000 0.012445 0.452536
O O20 0.249014 0.000000 0.500000
O O21 0.000000 0.538600 0.601487
#
# Coordination Sequence:
#
# PCOD8217800 Si02
#       8
#     8   8   8   8   8   8   8   8
#     4  10  21  37  54  70  88 111 142 182 228 274
#     4  11  20  29  41  60  89 121 152 185 223 262
#     4   9  18  30  41  57  86 120 149 180 219 259
#     4   9  16  26  41  59  84 120 158 192 224 256
#     4  10  18  29  45  66  92 120 150 183 222 266
#     4   9  15  25  42  62  86 116 154 192 222 258
#     4   7  12  23  38  57  81 114 153 189 222 254
#     4  10  21  33  46  65  84 108 146 184 219 265
#
# _framework density 15.745024000000001
#
# number of rings (size 3 to 8) (size 9 to 14) (size 15 to 20)
#    0.000    2.625    1.250    3.375    0.000    4.500 
#    0.000    0.625    0.000    2.250    0.000    0.000 
#    0.000    1.000    0.000    6.500    0.000    4.875 
#
# Total GULP energy -793157.125191 kJ/mol
# GULP energy per Si atom -12393.080081 kJ/mol
# Density = 1.570919 g / cm^3
# Si number density = 15.745024 Si / 1000 Ang^3
#
#
#
# Elastic Constant Matrix: (Units=GPa)
#
#
# Indices 1 2 3 4 5 6 
#
# 1 72.1628 57.7411 25.1667 0.0000 0.0000 0.0000
# 2 57.7411 141.2992 35.9981 0.0000 0.0000 0.0000
# 3 25.1667 35.9981 39.4647 0.0000 0.0000 0.0000
# 4 0.0000 0.0000 0.0000 11.0229 0.0000 0.0000
# 5 0.0000 0.0000 0.0000 0.0000 18.1032 0.0000
# 6 0.0000 0.0000 0.0000 0.0000 0.0000 13.5268
#
#
#
# Elastic Compliance Matrix: (Units=1/GPa)
#
#
# Indices 1 2 3 4 5 6 
#
# 1 0.022243 -0.007134 -0.007677 0.000000 0.000000 0.000000
# 2 -0.007134 0.011507 -0.005948 0.000000 0.000000 0.000000
# 3 -0.007677 -0.005948 0.035660 0.000000 0.000000 0.000000
# 4 0.000000 0.000000 0.000000 0.090720 0.000000 0.000000
# 5 0.000000 0.000000 0.000000 0.000000 0.055239 0.000000
# 6 0.000000 0.000000 0.000000 0.000000 0.000000 0.073927
#
#
# Mechanical properties :
#
#
# Convention : Reuss Voigt Hill
#
# Bulk Modulus (GPa) = 35.85070 54.52651 45.18861
# Shear Modulus (GPa) = 14.70107 17.46532 16.08319
#
# Velocity S-wave (km/s) = 3.05896 3.33417 3.19952
# Velocity P-wave (km/s) = 5.94098 7.03764 6.51244
#
# Compressibility (1/GPa) = 0.02789346
#
# Stress axis : x y z
#
# Youngs Moduli (GPa) = 44.95809 86.89985 28.04248
#
# Poissons Ratio (x) = 0.61990 0.21529
# Poissons Ratio (y) = 0.32071 0.16679
# Poissons Ratio (z) = 0.34516 0.51685
#
# Static dielectric constant tensor:
#      x y z
#    x 2.923610 0.000000 0.000000 
#    y 0.000000 3.279770 0.000000 
#    z 0.000000 0.000000 2.608400 
# 
# 
# High freq. dielectric constant tensor:
#      x y z
#    x 1.602710 0.000000 0.000000 
#    y 0.000000 1.614460 0.000000 
#    z 0.000000 0.000000 1.545580 
# 
# From -- ./inp_files/34534.got.cif
#   From: 2010.03.12/outbox.cif.g09.slc.cpg/sg53_18_cif.got.tgz:34534.got - 2010.04.16 14:36:59.
