data_PCOD8217158
_publ_section_title
;
Structure prediction by ZEFSAII (Michael W. Deem and Ramdas Pophale) SiO2 
 PCOD8217158
Probable space group: P N N A
;
_chemical_formula_sum "Si O2"
_cell_formula_units_Z 48
_cell_length_a 25.312178
_cell_length_b 9.434071
_cell_length_c 8.999348
_cell_angle_alpha 90.000000
_cell_angle_beta 90.000000
_cell_angle_gamma 90.000000
_cell_volume 2149.016264
_symmetry_space_group_name_H-M "P N N A"
_symmetry_group_IT_number 52
_symmetry_cell_setting 'orthorhombic'
loop_
_space_group_symop_operation_xyz
x,y,z
1/2-x,-y,z
x,1/2-y,1/2-z
1/2-x,1/2+y,1/2-z
-x,-y,-z
1/2+x,y,-z
-x,1/2+y,1/2+z
1/2+x,1/2-y,1/2+z
loop_
_atom_site_type_symbol
_atom_site_label
_atom_site_fract_x
_atom_site_fract_y
_atom_site_fract_z
Si Si1 0.532952 0.757061 0.075345
Si Si2 0.780187 0.145641 0.616788
Si Si3 0.880924 0.465086 0.055953
Si Si4 0.883036 0.022354 0.090094
Si Si5 0.085343 0.249002 0.073025
Si Si6 0.724020 0.849428 0.109882
O O1 0.527601 0.750000 0.250000
O O2 0.566947 0.625349 0.015197
O O3 0.562995 0.902620 0.036528
O O4 0.474346 0.755518 0.005955
O O5 0.797228 0.250000 0.750000
O O6 0.744862 0.252852 0.512964
O O7 0.750000 0.000000 0.665415
O O8 0.829371 0.108846 0.510701
O O9 0.877298 0.493007 0.232024
O O10 0.884883 0.611765 0.973731
O O11 0.833658 0.117504 0.040292
O O12 0.881015 0.875653 0.002009
O O13 0.086346 0.250000 0.250000
O O14 0.718272 0.750000 0.250000
O O15 0.750000 0.000000 0.149845
#
# Coordination Sequence:
#
# PCOD8217158 Si02
#       6
#     8   8   8   8   8   8
#     4   9  19  42  66  96 137 179 231 284 342 399
#     4  12  28  49  71 103 140 182 225 288 358 424
#     4  11  23  43  69  96 137 178 231 280 343 410
#     4  11  22  43  67  99 138 175 230 289 341 402
#     4  11  25  38  65 102 138 185 228 283 341 417
#     4  12  25  45  74 104 134 179 231 286 349 420
#
# _framework density 22.335801
#
# number of rings (size 3 to 8) (size 9 to 14) (size 15 to 20)
#    0.000    1.000    3.333    3.000    4.667    0.667 
#    0.000    3.333    0.000    0.000    0.000    0.000 
#    0.000    0.000    0.000    0.000    0.000    0.000 
#
# Total GULP energy -594774.755372 kJ/mol
# GULP energy per Si atom -12391.140737 kJ/mol
# Density = 2.228496 g / cm^3
# Si number density = 22.335801 Si / 1000 Ang^3
#
#
#
# Elastic Constant Matrix: (Units=GPa)
#
#
# Indices 1 2 3 4 5 6 
#
# 1 59.8270 38.5980 34.0575 0.0000 0.0000 0.0000
# 2 38.5980 187.7399 72.0557 0.0000 0.0000 0.0000
# 3 34.0575 72.0557 94.6312 0.0000 0.0000 0.0000
# 4 0.0000 0.0000 0.0000 36.8680 0.0000 0.0000
# 5 0.0000 0.0000 0.0000 0.0000 27.8625 0.0000
# 6 0.0000 0.0000 0.0000 0.0000 0.0000 29.8323
#
#
#
# Elastic Compliance Matrix: (Units=1/GPa)
#
#
# Indices 1 2 3 4 5 6 
#
# 1 0.021569 -0.002056 -0.006197 0.000000 0.000000 0.000000
# 2 -0.002056 0.007722 -0.005140 0.000000 0.000000 0.000000
# 3 -0.006197 -0.005140 0.016711 0.000000 0.000000 0.000000
# 4 0.000000 0.000000 0.000000 0.027124 0.000000 0.000000
# 5 0.000000 0.000000 0.000000 0.000000 0.035891 0.000000
# 6 0.000000 0.000000 0.000000 0.000000 0.000000 0.033521
#
#
# Mechanical properties :
#
#
# Convention : Reuss Voigt Hill
#
# Bulk Modulus (GPa) = 52.03869 70.18003 61.10936
# Shear Modulus (GPa) = 28.45293 32.07834 30.26563
#
# Velocity S-wave (km/s) = 3.57300 3.79381 3.68506
# Velocity P-wave (km/s) = 6.35380 7.11894 6.74722
#
# Compressibility (1/GPa) = 0.01921647
#
# Stress axis : x y z
#
# Youngs Moduli (GPa) = 46.36252 129.50191 59.83961
#
# Poissons Ratio (x) = 0.26625 0.37084
# Poissons Ratio (y) = 0.09532 0.30756
# Poissons Ratio (z) = 0.28732 0.66562
#
# Static dielectric constant tensor:
#      x y z
#    x 4.272010 0.000000 0.000000 
#    y 0.000000 4.337280 0.000000 
#    z 0.000000 0.000000 3.779200 
# 
# 
# High freq. dielectric constant tensor:
#      x y z
#    x 1.874840 0.000000 0.000000 
#    y 0.000000 1.907360 0.000000 
#    z 0.000000 0.000000 1.867290 
# 
# From -- ./inp_files/15515.got.cif
#   From: 2010.06.25/outbox.cif.g09.slc.cpg/sg52_8_cif.got.tgz:15515.got - 2010.06.26 19:32:48.
