data_PCOD8217956
_publ_section_title
;
Structure prediction by ZEFSAII (Michael W. Deem and Ramdas Pophale) SiO2 
 PCOD8217956
Probable space group: P M N A
;
_chemical_formula_sum "Si O2"
_cell_formula_units_Z 64
_cell_length_a 15.200443
_cell_length_b 8.857685
_cell_length_c 25.339385
_cell_angle_alpha 90.000000
_cell_angle_beta 90.000000
_cell_angle_gamma 90.000000
_cell_volume 3411.713445
_symmetry_space_group_name_H-M "P M N A"
_symmetry_group_IT_number 53
_symmetry_cell_setting 'orthorhombic'
loop_
_space_group_symop_operation_xyz
x,y,z
1/2-x,-y,1/2+z
x,-y,-z
1/2-x,y,1/2-z
-x,-y,-z
1/2+x,y,1/2-z
-x,y,z
1/2+x,-y,1/2+z
loop_
_atom_site_type_symbol
_atom_site_label
_atom_site_fract_x
_atom_site_fract_y
_atom_site_fract_z
Si Si1 0.403301 0.910587 0.552642
Si Si2 0.286064 0.114298 0.845603
Si Si3 0.094816 0.910833 0.159314
Si Si4 0.264959 0.802552 0.902420
Si Si5 0.185784 0.353066 0.298239
Si Si6 0.097482 0.391583 0.646346
Si Si7 0.402384 0.056321 0.233477
Si Si8 0.901900 0.603430 0.546403
O O1 0.500000 0.833861 0.544570
O O2 0.328211 0.787879 0.566639
O O3 0.375666 0.000000 0.500000
O O4 0.409906 0.025276 0.600984
O O5 0.186742 0.181292 0.835423
O O6 0.343518 0.248678 0.869475
O O7 0.283267 0.976824 0.887352
O O8 0.330651 0.056899 0.791474
O O9 0.000000 0.824015 0.169676
O O10 0.103927 0.044561 0.202930
O O11 0.260914 0.697346 0.850621
O O12 0.340705 0.748018 0.942674
O O13 0.250000 0.371979 0.250000
O O14 0.139052 0.514677 0.305229
O O15 0.113422 0.227312 0.284453
O O16 0.092595 0.503137 0.597868
O O17 0.000000 0.335817 0.662281
O O18 0.500000 0.011405 0.213653
O O19 0.861845 0.500000 0.500000
O O20 0.000000 0.661015 0.530912
#
# Coordination Sequence:
#
# PCOD8217956 Si02
#       8
#     8   8   8   8   8   8   8   8
#     4   9  17  30  49  74 102 129 162 207 255 296
#     4  10  19  32  51  76 102 131 166 206 251 298
#     4   9  18  31  48  72  99 128 164 206 247 290
#     4   9  19  33  54  78 100 131 171 210 247 294
#     4  10  19  33  51  72 100 135 171 206 246 297
#     4  10  21  35  50  72 103 134 164 202 253 304
#     4  10  18  30  51  75 100 131 167 204 245 296
#     4   9  19  36  55  74 100 135 169 203 247 298
#
# _framework density 18.758903
#
# number of rings (size 3 to 8) (size 9 to 14) (size 15 to 20)
#    0.000    2.500    0.000    3.375    0.000    6.500 
#    0.000    0.625    0.000    6.750    0.000    0.000 
#    0.000    0.000    0.000    0.000    0.000    0.000 
#
# Total GULP energy -792981.373167 kJ/mol
# GULP energy per Si atom -12390.333956 kJ/mol
# Density = 1.871621 g / cm^3
# Si number density = 18.758903 Si / 1000 Ang^3
#
#
#
# Elastic Constant Matrix: (Units=GPa)
#
#
# Indices 1 2 3 4 5 6 
#
# 1 182.2590 50.0563 39.8707 0.0000 0.0000 0.0000
# 2 50.0563 58.8325 6.2136 0.0000 0.0000 0.0000
# 3 39.8707 6.2136 82.3038 0.0000 0.0000 0.0000
# 4 0.0000 0.0000 0.0000 14.9567 0.0000 0.0000
# 5 0.0000 0.0000 0.0000 0.0000 22.5545 0.0000
# 6 0.0000 0.0000 0.0000 0.0000 0.0000 18.8313
#
#
#
# Elastic Compliance Matrix: (Units=1/GPa)
#
#
# Indices 1 2 3 4 5 6 
#
# 1 0.007999 -0.006448 -0.003388 0.000000 0.000000 0.000000
# 2 -0.006448 0.022331 0.001438 0.000000 0.000000 0.000000
# 3 -0.003388 0.001438 0.013683 0.000000 0.000000 0.000000
# 4 0.000000 0.000000 0.000000 0.066859 0.000000 0.000000
# 5 0.000000 0.000000 0.000000 0.000000 0.044337 0.000000
# 6 0.000000 0.000000 0.000000 0.000000 0.000000 0.053103
#
#
# Mechanical properties :
#
#
# Convention : Reuss Voigt Hill
#
# Bulk Modulus (GPa) = 36.74229 57.29740 47.01985
# Shear Modulus (GPa) = 21.35100 26.41882 23.88491
#
# Velocity S-wave (km/s) = 3.37735 3.75685 3.57214
# Velocity P-wave (km/s) = 5.90235 7.03057 6.49102
#
# Compressibility (1/GPa) = 0.02721659
#
# Stress axis : x y z
#
# Youngs Moduli (GPa) = 125.02065 44.77989 73.08412
#
# Poissons Ratio (x) = 0.28873 0.24761
# Poissons Ratio (y) = 0.80609 -0.10506
# Poissons Ratio (z) = 0.42358 -0.06437
#
# Static dielectric constant tensor:
#      x y z
#    x 4.228920 0.000000 0.000000 
#    y 0.000000 3.206400 0.000000 
#    z 0.000000 0.000000 3.514950 
# 
# 
# High freq. dielectric constant tensor:
#      x y z
#    x 1.751360 0.000000 0.000000 
#    y 0.000000 1.678030 0.000000 
#    z 0.000000 0.000000 1.729910 
# 
# From -- ./inp_files/35343.got.cif
#   From: 2010.03.12/outbox.cif.g09.slc.cpg/sg53_18_cif.got.tgz:35343.got - 2010.04.16 14:36:59.
