data_PCOD8217453
_publ_section_title
;
Structure prediction by ZEFSAII (Michael W. Deem and Ramdas Pophale) SiO2 
 PCOD8217453
Probable space group: P N N A
;
_chemical_formula_sum "Si O2"
_cell_formula_units_Z 48
_cell_length_a 10.223715
_cell_length_b 24.215022
_cell_length_c 9.802862
_cell_angle_alpha 90.000000
_cell_angle_beta 90.000000
_cell_angle_gamma 90.000000
_cell_volume 2426.869878
_symmetry_space_group_name_H-M "P N N A"
_symmetry_group_IT_number 52
_symmetry_cell_setting 'orthorhombic'
loop_
_space_group_symop_operation_xyz
x,y,z
1/2-x,-y,z
x,1/2-y,1/2-z
1/2-x,1/2+y,1/2-z
-x,-y,-z
1/2+x,y,-z
-x,1/2+y,1/2+z
1/2+x,1/2-y,1/2+z
loop_
_atom_site_type_symbol
_atom_site_label
_atom_site_fract_x
_atom_site_fract_y
_atom_site_fract_z
Si Si1 0.452201 0.782871 0.884819
Si Si2 0.453332 0.912156 0.873443
Si Si3 0.260903 0.937508 0.395527
Si Si4 0.019537 0.441524 0.925362
Si Si5 0.750272 0.410099 0.598948
Si Si6 0.249155 0.718580 0.389113
O O1 0.417641 0.750000 0.750000
O O2 0.433987 0.847144 0.849157
O O3 0.599833 0.769950 0.935388
O O4 0.350750 0.760784 0.997360
O O5 0.432908 0.945676 0.731939
O O6 0.598115 0.923649 0.935252
O O7 0.342201 0.932912 0.978476
O O8 0.373350 0.907580 0.485806
O O9 0.119423 0.908498 0.421137
O O10 0.297418 0.939915 0.236631
O O11 0.250000 0.000000 0.449687
O O12 0.000000 0.500000 0.000000
O O13 0.728526 0.346129 0.631490
O O14 0.282343 0.750000 0.250000
#
# Coordination Sequence:
#
# PCOD8217453 Si02
#       6
#     8   8   8   8   8   8
#     4   9  18  32  49  71  99 128 161 200 240 287
#     4   9  18  33  51  71  97 128 161 200 244 288
#     4   9  18  33  49  69  95 124 157 196 238 284
#     4   9  18  33  50  69  95 125 158 197 240 286
#     4   9  18  33  50  70  97 125 159 198 238 286
#     4   9  18  32  49  70  97 128 158 195 239 283
#
# _framework density 19.778563999999999
#
# number of rings (size 3 to 8) (size 9 to 14) (size 15 to 20)
#    0.000    3.000    0.000    0.000    0.000    3.333 
#    0.000   10.000    0.000    0.000    0.000    0.000 
#    0.000    0.000    0.000    0.000    0.000    0.000 
#
# Total GULP energy -594816.987067 kJ/mol
# GULP energy per Si atom -12392.020564 kJ/mol
# Density = 1.973355 g / cm^3
# Si number density = 19.778564 Si / 1000 Ang^3
#
#
#
# Elastic Constant Matrix: (Units=GPa)
#
#
# Indices 1 2 3 4 5 6 
#
# 1 151.7637 18.3195 115.3670 0.0000 0.0000 0.0000
# 2 18.3195 24.6256 26.9151 0.0000 0.0000 0.0000
# 3 115.3670 26.9151 160.5925 0.0000 0.0000 0.0000
# 4 0.0000 0.0000 0.0000 32.2003 0.0000 0.0000
# 5 0.0000 0.0000 0.0000 0.0000 50.2294 0.0000
# 6 0.0000 0.0000 0.0000 0.0000 0.0000 8.4430
#
#
#
# Elastic Compliance Matrix: (Units=1/GPa)
#
#
# Indices 1 2 3 4 5 6 
#
# 1 0.014528 0.000734 -0.010559 0.000000 0.000000 0.000000
# 2 0.000734 0.049752 -0.008865 0.000000 0.000000 0.000000
# 3 -0.010559 -0.008865 0.015298 0.000000 0.000000 0.000000
# 4 0.000000 0.000000 0.000000 0.031056 0.000000 0.000000
# 5 0.000000 0.000000 0.000000 0.000000 0.019909 0.000000
# 6 0.000000 0.000000 0.000000 0.000000 0.000000 0.118441
#
#
# Mechanical properties :
#
#
# Convention : Reuss Voigt Hill
#
# Bulk Modulus (GPa) = 23.69901 73.13165 48.41533
# Shear Modulus (GPa) = 16.64276 29.93323 23.28799
#
# Velocity S-wave (km/s) = 2.90393 3.89449 3.43510
# Velocity P-wave (km/s) = 4.82203 7.56823 6.34548
#
# Compressibility (1/GPa) = 0.04219585
#
# Stress axis : x y z
#
# Youngs Moduli (GPa) = 68.83456 20.09969 65.36612
#
# Poissons Ratio (x) = -0.01475 0.69022
# Poissons Ratio (y) = -0.05050 0.57950
# Poissons Ratio (z) = 0.72685 0.17819
#
# Static dielectric constant tensor:
#      x y z
#    x 4.620080 0.000000 0.000000 
#    y 0.000000 3.274740 0.000000 
#    z 0.000000 0.000000 3.628370 
# 
# 
# High freq. dielectric constant tensor:
#      x y z
#    x 1.787680 0.000000 0.000000 
#    y 0.000000 1.737530 0.000000 
#    z 0.000000 0.000000 1.767220 
# 
# From -- ./inp_files/8864.got.cif
#   From: 2010.06.25/outbox.cif.g09.slc.cpg/sg52_5_cif.got.tgz:8864.got - 2010.06.26 19:32:48.
