data_PCOD8217288
_publ_section_title
;
Structure prediction by ZEFSAII (Michael W. Deem and Ramdas Pophale) SiO2 
 PCOD8217288
Probable space group: P N N A
;
_chemical_formula_sum "Si O2"
_cell_formula_units_Z 32
_cell_length_a 10.157115
_cell_length_b 21.827868
_cell_length_c 6.093888
_cell_angle_alpha 90.000000
_cell_angle_beta 90.000000
_cell_angle_gamma 90.000000
_cell_volume 1351.064729
_symmetry_space_group_name_H-M "P N N A"
_symmetry_group_IT_number 52
_symmetry_cell_setting 'orthorhombic'
loop_
_space_group_symop_operation_xyz
x,y,z
1/2-x,-y,z
x,1/2-y,1/2-z
1/2-x,1/2+y,1/2-z
-x,-y,-z
1/2+x,y,-z
-x,1/2+y,1/2+z
1/2+x,1/2-y,1/2+z
loop_
_atom_site_type_symbol
_atom_site_label
_atom_site_fract_x
_atom_site_fract_y
_atom_site_fract_z
Si Si1 0.055853 0.319809 0.180512
Si Si2 0.408310 0.475340 0.192944
Si Si3 0.878097 0.582625 0.481310
Si Si4 0.279262 0.121266 0.585863
O O1 0.051063 0.250000 0.250000
O O2 0.097750 0.353710 0.400178
O O3 0.914407 0.341355 0.093367
O O4 0.162633 0.333237 0.989556
O O5 0.491972 0.430356 0.343031
O O6 0.348504 0.529413 0.342664
O O7 0.500000 0.500000 0.000000
O O8 0.290664 0.435625 0.084195
O O9 0.751987 0.591233 0.322845
#
# Coordination Sequence:
#
# PCOD8217288 Si02
#       4
#     8   8   8   8
#     4  12  31  51  79 111 155 215 269 330 390 477
#     4  11  24  49  76 117 160 200 258 321 404 486
#     4  11  26  48  78 113 157 208 253 324 404 468
#     4  12  27  53  75 122 157 204 270 326 408 476
#
# _framework density 23.685022
#
# number of rings (size 3 to 8) (size 9 to 14) (size 15 to 20)
#    0.000    0.500    5.000    0.000    7.000    6.000 
#    0.000    0.000    0.000    0.000    0.000    0.000 
#    0.000    0.000    0.000    0.000    0.000    0.000 
#
# Total GULP energy -396941.427458 kJ/mol
# GULP energy per Si atom -12404.419608 kJ/mol
# Density = 2.363111 g / cm^3
# Si number density = 23.685022 Si / 1000 Ang^3
#
#
#
# Elastic Constant Matrix: (Units=GPa)
#
#
# Indices 1 2 3 4 5 6 
#
# 1 172.6077 67.5384 75.1322 0.0000 0.0000 0.0000
# 2 67.5384 169.7273 83.5212 0.0000 0.0000 0.0000
# 3 75.1322 83.5212 149.5492 0.0000 0.0000 0.0000
# 4 0.0000 0.0000 0.0000 44.5770 0.0000 0.0000
# 5 0.0000 0.0000 0.0000 0.0000 66.3063 0.0000
# 6 0.0000 0.0000 0.0000 0.0000 0.0000 27.0929
#
#
#
# Elastic Compliance Matrix: (Units=1/GPa)
#
#
# Indices 1 2 3 4 5 6 
#
# 1 0.007719 -0.001604 -0.002982 0.000000 0.000000 0.000000
# 2 -0.001604 0.008458 -0.003918 0.000000 0.000000 0.000000
# 3 -0.002982 -0.003918 0.010373 0.000000 0.000000 0.000000
# 4 0.000000 0.000000 0.000000 0.022433 0.000000 0.000000
# 5 0.000000 0.000000 0.000000 0.000000 0.015082 0.000000
# 6 0.000000 0.000000 0.000000 0.000000 0.000000 0.036910
#
#
# Mechanical properties :
#
#
# Convention : Reuss Voigt Hill
#
# Bulk Modulus (GPa) = 104.79931 104.91864 104.85898
# Shear Modulus (GPa) = 41.26639 45.30804 43.28722
#
# Velocity S-wave (km/s) = 4.17861 4.37846 4.27970
# Velocity P-wave (km/s) = 8.22339 8.36390 8.29395
#
# Compressibility (1/GPa) = 0.00954205
#
# Stress axis : x y z
#
# Youngs Moduli (GPa) = 129.54652 118.23060 96.40395
#
# Poissons Ratio (x) = 0.18966 0.28749
# Poissons Ratio (y) = 0.20781 0.37769
# Poissons Ratio (z) = 0.38633 0.46320
#
# Static dielectric constant tensor:
#      x y z
#    x 5.150450 0.000000 0.000000 
#    y 0.000000 7.018080 0.000000 
#    z 0.000000 0.000000 4.837120 
# 
# 
# High freq. dielectric constant tensor:
#      x y z
#    x 1.964950 0.000000 0.000000 
#    y 0.000000 1.927450 0.000000 
#    z 0.000000 0.000000 1.964530 
# 
# From -- ./inp_files/1055.got.cif
#   From: 2010.06.25/outbox.cif.g09.slc.cpg/sg52_1_cif.got.tgz:1055.got - 2010.06.26 19:32:48.
