data_PCOD8217011
_publ_section_title
;
Structure prediction by ZEFSAII (Michael W. Deem and Ramdas Pophale) SiO2 
 PCOD8217011
Probable space group: P N N A
;
_chemical_formula_sum "Si O2"
_cell_formula_units_Z 40
_cell_length_a 20.524778
_cell_length_b 18.877047
_cell_length_c 4.945029
_cell_angle_alpha 90.000000
_cell_angle_beta 90.000000
_cell_angle_gamma 90.000000
_cell_volume 1915.937635
_symmetry_space_group_name_H-M "P N N A"
_symmetry_group_IT_number 52
_symmetry_cell_setting 'orthorhombic'
loop_
_space_group_symop_operation_xyz
x,y,z
1/2-x,-y,z
x,1/2-y,1/2-z
1/2-x,1/2+y,1/2-z
-x,-y,-z
1/2+x,y,-z
-x,1/2+y,1/2+z
1/2+x,1/2-y,1/2+z
loop_
_atom_site_type_symbol
_atom_site_label
_atom_site_fract_x
_atom_site_fract_y
_atom_site_fract_z
Si Si1 0.672944 0.704249 0.999214
Si Si2 0.486997 0.896566 0.077745
Si Si3 0.105849 0.509893 0.571612
Si Si4 0.187166 0.955064 0.429004
Si Si5 0.520673 0.814969 0.575478
O O1 0.698772 0.750000 0.750000
O O2 0.704367 0.625828 0.012466
O O3 0.595014 0.698440 0.001618
O O4 0.697241 0.750000 0.250000
O O5 0.542490 0.949625 0.189555
O O6 0.482996 0.830866 0.291129
O O7 0.511847 0.880215 0.776454
O O8 0.416441 0.933622 0.048505
O O9 0.141212 0.552185 0.332204
O O10 0.154101 0.502216 0.824701
O O11 0.250000 0.000000 0.344058
O O12 0.490525 0.750000 0.750000
#
# Coordination Sequence:
#
# PCOD8217011 Si02
#       5
#     8   8   8   8   8
#     4  11  21  36  59  87 119 151 196 257 309 354
#     4  11  20  36  59  86 126 152 191 244 300 380
#     4  11  22  38  59  88 119 159 195 243 312 356
#     4  12  24  41  62  89 123 160 212 258 300 366
#     4  11  20  33  57  90 124 156 192 246 307 366
#
# _framework density 20.877504999999999
#
# number of rings (size 3 to 8) (size 9 to 14) (size 15 to 20)
#    0.000    0.800    4.000    6.000    0.000    3.200 
#    0.000    0.000    0.000   12.000    0.000    0.000 
#    0.000    0.000    0.000    0.000    0.000    0.000 
#
# Total GULP energy -495914.035983 kJ/mol
# GULP energy per Si atom -12397.850900 kJ/mol
# Density = 2.082999 g / cm^3
# Si number density = 20.877505 Si / 1000 Ang^3
#
#
#
# Elastic Constant Matrix: (Units=GPa)
#
#
# Indices 1 2 3 4 5 6 
#
# 1 48.6318 41.7674 23.3612 0.0000 0.0000 0.0000
# 2 41.7674 107.1382 28.5638 0.0000 0.0000 0.0000
# 3 23.3612 28.5638 134.5746 0.0000 0.0000 0.0000
# 4 0.0000 0.0000 0.0000 43.7079 0.0000 0.0000
# 5 0.0000 0.0000 0.0000 0.0000 2.1380 0.0000
# 6 0.0000 0.0000 0.0000 0.0000 0.0000 25.8949
#
#
#
# Elastic Compliance Matrix: (Units=1/GPa)
#
#
# Indices 1 2 3 4 5 6 
#
# 1 0.032080 -0.011683 -0.003089 0.000000 0.000000 0.000000
# 2 -0.011683 0.014148 -0.000975 0.000000 0.000000 0.000000
# 3 -0.003089 -0.000975 0.008174 0.000000 0.000000 0.000000
# 4 0.000000 0.000000 0.000000 0.022879 0.000000 0.000000
# 5 0.000000 0.000000 0.000000 0.000000 0.467729 0.000000
# 6 0.000000 0.000000 0.000000 0.000000 0.000000 0.038618
#
#
# Mechanical properties :
#
#
# Convention : Reuss Voigt Hill
#
# Bulk Modulus (GPa) = 43.65164 53.08106 48.36635
# Shear Modulus (GPa) = 8.02879 27.45830 17.74355
#
# Velocity S-wave (km/s) = 1.96316 3.63052 2.91845
# Velocity P-wave (km/s) = 5.10809 6.56159 5.87992
#
# Compressibility (1/GPa) = 0.02290865
#
# Stress axis : x y z
#
# Youngs Moduli (GPa) = 31.17168 70.68058 122.33878
#
# Poissons Ratio (x) = 0.82575 0.37793
# Poissons Ratio (y) = 0.36417 0.11927
# Poissons Ratio (z) = 0.09630 0.06891
#
# Static dielectric constant tensor:
#      x y z
#    x 3.237480 0.000000 0.000000 
#    y 0.000000 3.968140 0.000000 
#    z 0.000000 0.000000 4.016390 
# 
# 
# High freq. dielectric constant tensor:
#      x y z
#    x 1.754180 0.000000 0.000000 
#    y 0.000000 1.820640 0.000000 
#    z 0.000000 0.000000 1.842550 
# 
# From -- ./inp_files/3196.got.cif
#   From: 2010.06.25/outbox.cif.g09.slc.cpg/sg52_2_cif.got.tgz:3196.got - 2010.06.26 19:32:48.
