data_PCOD8217296
_publ_section_title
;
Structure prediction by ZEFSAII (Michael W. Deem and Ramdas Pophale) SiO2 
 PCOD8217296
Probable space group: P N N A
;
_chemical_formula_sum "Si O2"
_cell_formula_units_Z 64
_cell_length_a 11.559118
_cell_length_b 13.729547
_cell_length_c 17.990420
_cell_angle_alpha 90.000000
_cell_angle_beta 90.000000
_cell_angle_gamma 90.000000
_cell_volume 2855.105810
_symmetry_space_group_name_H-M "P N N A"
_symmetry_group_IT_number 52
_symmetry_cell_setting 'orthorhombic'
loop_
_space_group_symop_operation_xyz
x,y,z
1/2-x,-y,z
x,1/2-y,1/2-z
1/2-x,1/2+y,1/2-z
-x,-y,-z
1/2+x,y,-z
-x,1/2+y,1/2+z
1/2+x,1/2-y,1/2+z
loop_
_atom_site_type_symbol
_atom_site_label
_atom_site_fract_x
_atom_site_fract_y
_atom_site_fract_z
Si Si1 0.253834 0.110698 0.704067
Si Si2 0.211304 0.235374 0.569113
Si Si3 0.121409 0.480104 0.188789
Si Si4 0.520188 0.652814 0.289151
Si Si5 0.624498 0.054279 0.521871
Si Si6 0.594690 0.616750 0.445940
Si Si7 0.052200 0.092698 0.907970
Si Si8 0.501601 0.357714 0.253916
O O1 0.281006 0.175399 0.631605
O O2 0.350014 0.123965 0.766409
O O3 0.138115 0.145166 0.742515
O O4 0.250000 0.000000 0.675712
O O5 0.140259 0.160475 0.515989
O O6 0.301858 0.309916 0.530512
O O7 0.122147 0.308349 0.607445
O O8 0.250000 0.500000 0.212778
O O9 0.111104 0.426752 0.109668
O O10 0.069122 0.424243 0.258232
O O11 0.054939 0.583589 0.185315
O O12 0.479382 0.750000 0.250000
O O13 0.517245 0.661146 0.378689
O O14 0.750000 0.000000 0.506978
O O15 0.500000 0.000000 0.500000
O O16 0.521705 0.608020 0.519360
O O17 0.628859 0.506268 0.418785
O O18 0.975284 0.087472 0.832722
O O19 0.448277 0.250000 0.250000
#
# Coordination Sequence:
#
# PCOD8217296 Si02
#       8
#     8   8   8   8   8   8   8   8
#     4  12  22  39  72 113 140 174 221 304 381 428
#     4  12  25  42  74 108 146 184 242 307 385 455
#     4  11  27  49  69 100 148 200 248 300 368 454
#     4  12  24  43  75 103 143 183 245 302 371 447
#     4  11  28  47  75 112 156 198 249 317 390 462
#     4  11  25  46  67 106 143 191 242 312 379 448
#     4  11  25  44  67 103 145 188 245 311 373 451
#     4  12  23  44  73 104 142 189 244 299 370 448
#
# _framework density 22.415980999999999
#
# number of rings (size 3 to 8) (size 9 to 14) (size 15 to 20)
#    0.000    0.500    5.000    2.625    5.250    1.500 
#    2.250    0.000    0.000    0.000    0.000    0.000 
#    0.000    0.000    0.000    0.000    0.000    0.000 
#
# Total GULP energy -792873.898764 kJ/mol
# GULP energy per Si atom -12388.654668 kJ/mol
# Density = 2.236496 g / cm^3
# Si number density = 22.415981 Si / 1000 Ang^3
#
#
#
# Elastic Constant Matrix: (Units=GPa)
#
#
# Indices 1 2 3 4 5 6 
#
# 1 97.2369 24.9404 40.5485 0.0000 0.0000 0.0000
# 2 24.9404 151.7011 39.3903 0.0000 0.0000 0.0000
# 3 40.5485 39.3903 117.0073 0.0000 0.0000 0.0000
# 4 0.0000 0.0000 0.0000 94.7343 0.0000 0.0000
# 5 0.0000 0.0000 0.0000 0.0000 19.4899 0.0000
# 6 0.0000 0.0000 0.0000 0.0000 0.0000 28.9094
#
#
#
# Elastic Compliance Matrix: (Units=1/GPa)
#
#
# Indices 1 2 3 4 5 6 
#
# 1 0.012156 -0.000991 -0.003879 0.000000 0.000000 0.000000
# 2 -0.000991 0.007304 -0.002115 0.000000 0.000000 0.000000
# 3 -0.003879 -0.002115 0.010603 0.000000 0.000000 0.000000
# 4 0.000000 0.000000 0.000000 0.010556 0.000000 0.000000
# 5 0.000000 0.000000 0.000000 0.000000 0.051309 0.000000
# 6 0.000000 0.000000 0.000000 0.000000 0.000000 0.034591
#
#
# Mechanical properties :
#
#
# Convention : Reuss Voigt Hill
#
# Bulk Modulus (GPa) = 62.14361 63.96708 63.05534
# Shear Modulus (GPa) = 34.28099 46.03112 40.15606
#
# Velocity S-wave (km/s) = 3.91488 4.53647 4.23709
# Velocity P-wave (km/s) = 6.94393 7.48583 7.21997
#
# Compressibility (1/GPa) = 0.01609176
#
# Stress axis : x y z
#
# Youngs Moduli (GPa) = 82.26432 136.90817 94.31443
#
# Poissons Ratio (x) = 0.13572 0.36583
# Poissons Ratio (y) = 0.08155 0.19951
# Poissons Ratio (z) = 0.31909 0.28962
#
# Static dielectric constant tensor:
#      x y z
#    x 3.877900 0.000000 0.000000 
#    y 0.000000 4.614390 0.000000 
#    z 0.000000 0.000000 4.705280 
# 
# 
# High freq. dielectric constant tensor:
#      x y z
#    x 1.859900 0.000000 0.000000 
#    y 0.000000 1.907420 0.000000 
#    z 0.000000 0.000000 1.890570 
# 
# From -- ./inp_files/32398.got.cif
#   From: 2010.06.25/outbox.cif.g09.slc.cpg/sg52_17_cif.got.tgz:32398.got - 2010.06.26 19:32:48.
