data_PCOD8217519
_publ_section_title
;
Structure prediction by ZEFSAII (Michael W. Deem and Ramdas Pophale) SiO2 
 PCOD8217519
Probable space group: P M N A
;
_chemical_formula_sum "Si O2"
_cell_formula_units_Z 48
_cell_length_a 8.751970
_cell_length_b 9.752701
_cell_length_c 31.508865
_cell_angle_alpha 90.000000
_cell_angle_beta 90.000000
_cell_angle_gamma 90.000000
_cell_volume 2689.450092
_symmetry_space_group_name_H-M "P M N A"
_symmetry_group_IT_number 53
_symmetry_cell_setting 'orthorhombic'
loop_
_space_group_symop_operation_xyz
x,y,z
1/2-x,-y,1/2+z
x,-y,-z
1/2-x,y,1/2-z
-x,-y,-z
1/2+x,y,1/2-z
-x,y,z
1/2+x,-y,1/2+z
loop_
_atom_site_type_symbol
_atom_site_label
_atom_site_fract_x
_atom_site_fract_y
_atom_site_fract_z
Si Si1 0.681633 0.340073 0.628945
Si Si2 0.678418 0.650080 0.632733
Si Si3 0.679222 0.642693 0.539882
Si Si4 0.819739 0.845699 0.206222
Si Si5 0.180423 0.657157 0.457195
Si Si6 0.818560 0.157127 0.205992
O O1 0.500000 0.336585 0.623874
O O2 0.743082 0.495119 0.636423
O O3 0.740231 0.248254 0.667904
O O4 0.754000 0.275911 0.585945
O O5 0.500000 0.642166 0.641646
O O6 0.709464 0.714041 0.585660
O O7 0.751389 0.749530 0.668152
O O8 0.500000 0.616822 0.532984
O O9 0.766232 0.499127 0.541916
O O10 0.748599 0.728488 0.500013
O O11 0.750000 0.789267 0.250000
O O12 0.000000 0.836336 0.209959
O O13 0.764905 0.001225 0.197747
O O14 0.000000 0.671681 0.458305
O O15 0.750000 0.212681 0.250000
O O16 0.000000 0.166294 0.208179
#
# Coordination Sequence:
#
# PCOD8217519 Si02
#       6
#     8   8   8   8   8   8
#     4   9  17  30  45  64  88 118 148 178 215 259
#     4   8  15  27  45  65  87 112 144 179 213 250
#     4   9  15  26  43  62  87 121 150 176 213 263
#     4   9  18  31  48  65  86 114 147 180 216 260
#     4  10  17  25  40  65  92 116 143 182 220 256
#     4   9  17  31  47  65  86 113 145 179 215 258
#
# _framework density 17.847515000000001
#
# number of rings (size 3 to 8) (size 9 to 14) (size 15 to 20)
#    0.000    3.000    0.000    4.000    0.000    1.333 
#    0.000    4.167    0.000    1.000    0.000    7.000 
#    0.000    0.000    0.000    0.000    0.000    0.000 
#
# Total GULP energy -594774.812483 kJ/mol
# GULP energy per Si atom -12391.141927 kJ/mol
# Density = 1.780689 g / cm^3
# Si number density = 17.847515 Si / 1000 Ang^3
#
#
#
# Elastic Constant Matrix: (Units=GPa)
#
#
# Indices 1 2 3 4 5 6 
#
# 1 27.1068 18.7768 39.1371 0.0000 0.0000 0.0000
# 2 18.7768 52.5247 69.4404 0.0000 0.0000 0.0000
# 3 39.1371 69.4404 212.3738 0.0000 0.0000 0.0000
# 4 0.0000 0.0000 0.0000 9.2696 0.0000 0.0000
# 5 0.0000 0.0000 0.0000 0.0000 30.9443 0.0000
# 6 0.0000 0.0000 0.0000 0.0000 0.0000 8.1626
#
#
#
# Elastic Compliance Matrix: (Units=1/GPa)
#
#
# Indices 1 2 3 4 5 6 
#
# 1 0.053489 -0.010727 -0.006350 0.000000 0.000000 0.000000
# 2 -0.010727 0.035686 -0.009692 0.000000 0.000000 0.000000
# 3 -0.006350 -0.009692 0.009048 0.000000 0.000000 0.000000
# 4 0.000000 0.000000 0.000000 0.107879 0.000000 0.000000
# 5 0.000000 0.000000 0.000000 0.000000 0.032316 0.000000
# 6 0.000000 0.000000 0.000000 0.000000 0.000000 0.122510
#
#
# Mechanical properties :
#
#
# Convention : Reuss Voigt Hill
#
# Bulk Modulus (GPa) = 22.37800 60.74598 41.56199
# Shear Modulus (GPa) = 11.64519 20.65204 16.14862
#
# Velocity S-wave (km/s) = 2.55715 3.40536 3.01127
# Velocity P-wave (km/s) = 4.61349 7.04074 5.95216
#
# Compressibility (1/GPa) = 0.04468675
#
# Stress axis : x y z
#
# Youngs Moduli (GPa) = 18.69527 28.02203 110.52480
#
# Poissons Ratio (x) = 0.30059 0.70182
# Poissons Ratio (y) = 0.20054 1.07116
# Poissons Ratio (z) = 0.11871 0.27158
#
# Static dielectric constant tensor:
#      x y z
#    x 3.053980 0.000000 0.000000 
#    y 0.000000 3.090050 0.000000 
#    z 0.000000 0.000000 4.156890 
# 
# 
# High freq. dielectric constant tensor:
#      x y z
#    x 1.671350 0.000000 0.000000 
#    y 0.000000 1.635730 0.000000 
#    z 0.000000 0.000000 1.718560 
# 
# From -- ./inp_files/36163.got.cif
#   From: 2010.03.12/outbox.cif.g09.slc.cpg/sg53_19_cif.got.tgz:36163.got - 2010.04.16 14:36:59.
