data_PCOD8217736
_publ_section_title
;
Structure prediction by ZEFSAII (Michael W. Deem and Ramdas Pophale) SiO2 
 PCOD8217736
Probable space group: P M N A
;
_chemical_formula_sum "Si O2"
_cell_formula_units_Z 64
_cell_length_a 9.286585
_cell_length_b 16.814232
_cell_length_c 25.533158
_cell_angle_alpha 90.000000
_cell_angle_beta 90.000000
_cell_angle_gamma 90.000000
_cell_volume 3986.920780
_symmetry_space_group_name_H-M "P M N A"
_symmetry_group_IT_number 53
_symmetry_cell_setting 'orthorhombic'
loop_
_space_group_symop_operation_xyz
x,y,z
1/2-x,-y,1/2+z
x,-y,-z
1/2-x,y,1/2-z
-x,-y,-z
1/2+x,y,1/2-z
-x,y,z
1/2+x,-y,1/2+z
loop_
_atom_site_type_symbol
_atom_site_label
_atom_site_fract_x
_atom_site_fract_y
_atom_site_fract_z
Si Si1 0.835085 0.406618 0.498423
Si Si2 0.832513 0.419298 0.198214
Si Si3 0.667561 0.835523 0.553350
Si Si4 0.840646 0.993011 0.062296
Si Si5 0.165315 0.844410 0.447093
Si Si6 0.332582 0.330342 0.403862
Si Si7 0.668932 0.397027 0.697253
Si Si8 0.834605 0.321009 0.603682
O O1 0.812856 0.500000 0.500000
O O2 0.742948 0.373021 0.451556
O O3 0.781443 0.369327 0.552865
O O4 0.000000 0.382201 0.488675
O O5 0.750000 0.391965 0.250000
O O6 0.773641 0.364963 0.150807
O O7 0.799932 0.510860 0.184224
O O8 0.000000 0.405121 0.208645
O O9 0.500000 0.838828 0.536562
O O10 0.709776 0.919084 0.581909
O O11 0.757398 0.820165 0.500835
O O12 0.697401 0.764292 0.594059
O O13 0.000000 0.972354 0.083726
O O14 0.732809 0.923288 0.079857
O O15 0.841963 0.000000 0.000000
O O16 0.181450 0.772988 0.406044
O O17 0.000000 0.862138 0.460333
O O18 0.500000 0.350398 0.408976
O O19 0.750000 0.371635 0.750000
O O20 0.500000 0.380187 0.703892
O O21 0.730826 0.343440 0.650964
O O22 0.000000 0.343274 0.617147
#
# Coordination Sequence:
#
# PCOD8217736 Si02
#       8
#     8   8   8   8   8   8   8   8
#     4  10  20  32  45  64  94 129 158 186 229 281
#     4   9  19  34  50  70  92 118 156 199 237 275
#     4   9  17  29  44  64  92 125 154 189 231 275
#     4   8  15  27  42  61  88 121 157 188 224 275
#     4  10  18  28  43  65  94 124 154 190 228 271
#     4  10  19  31  48  69  94 122 157 196 232 273
#     4  10  20  34  52  70  90 119 157 198 238 276
#     4  10  20  32  45  67  97 124 154 192 231 276
#
# _framework density 16.052489000000001
#
# number of rings (size 3 to 8) (size 9 to 14) (size 15 to 20)
#    0.000    2.500    1.250    2.250    0.000    5.000 
#    0.000    0.000    0.000    0.000    0.000    0.875 
#    0.000    4.000    0.000    0.000    0.000    0.000 
#
# Total GULP energy -793532.456033 kJ/mol
# GULP energy per Si atom -12398.944626 kJ/mol
# Density = 1.601595 g / cm^3
# Si number density = 16.052489 Si / 1000 Ang^3
#
#
#
# Elastic Constant Matrix: (Units=GPa)
#
#
# Indices 1 2 3 4 5 6 
#
# 1 74.9886 46.3603 51.9865 0.0000 0.0000 0.0000
# 2 46.3603 89.7223 56.6302 0.0000 0.0000 0.0000
# 3 51.9865 56.6302 99.0269 0.0000 0.0000 0.0000
# 4 0.0000 0.0000 0.0000 14.0425 0.0000 0.0000
# 5 0.0000 0.0000 0.0000 0.0000 26.0564 0.0000
# 6 0.0000 0.0000 0.0000 0.0000 0.0000 23.7873
#
#
#
# Elastic Compliance Matrix: (Units=1/GPa)
#
#
# Indices 1 2 3 4 5 6 
#
# 1 0.023325 -0.006765 -0.008376 0.000000 0.000000 0.000000
# 2 -0.006765 0.019403 -0.007544 0.000000 0.000000 0.000000
# 3 -0.008376 -0.007544 0.018810 0.000000 0.000000 0.000000
# 4 0.000000 0.000000 0.000000 0.071213 0.000000 0.000000
# 5 0.000000 0.000000 0.000000 0.000000 0.038378 0.000000
# 6 0.000000 0.000000 0.000000 0.000000 0.000000 0.042039
#
#
# Mechanical properties :
#
#
# Convention : Reuss Voigt Hill
#
# Bulk Modulus (GPa) = 61.85758 63.74355 62.80056
# Shear Modulus (GPa) = 18.94460 20.02793 19.48626
#
# Velocity S-wave (km/s) = 3.43908 3.53604 3.48790
# Velocity P-wave (km/s) = 7.37482 7.51446 7.44497
#
# Compressibility (1/GPa) = 0.01616617
#
# Stress axis : x y z
#
# Youngs Moduli (GPa) = 42.87312 51.53844 53.16405
#
# Poissons Ratio (x) = 0.34868 0.44530
# Poissons Ratio (y) = 0.29005 0.40108
# Poissons Ratio (z) = 0.35910 0.38882
#
# Static dielectric constant tensor:
#      x y z
#    x 3.101700 0.000000 0.000000 
#    y 0.000000 3.479600 0.000000 
#    z 0.000000 0.000000 2.808550 
# 
# 
# High freq. dielectric constant tensor:
#      x y z
#    x 1.621650 0.000000 0.000000 
#    y 0.000000 1.625190 0.000000 
#    z 0.000000 0.000000 1.579010 
# 
# From -- ./inp_files/31196.got.cif
#   From: 2010.03.12/outbox.cif.g09.slc.cpg/sg53_16_cif.got.tgz:31196.got - 2010.04.16 14:36:59.
