data_PCOD8217174
_publ_section_title
;
Structure prediction by ZEFSAII (Michael W. Deem and Ramdas Pophale) SiO2 
 PCOD8217174
Probable space group: P N N A
;
_chemical_formula_sum "Si O2"
_cell_formula_units_Z 44
_cell_length_a 18.300838
_cell_length_b 13.302802
_cell_length_c 8.369741
_cell_angle_alpha 90.000000
_cell_angle_beta 90.000000
_cell_angle_gamma 90.000000
_cell_volume 2037.633738
_symmetry_space_group_name_H-M "P N N A"
_symmetry_group_IT_number 52
_symmetry_cell_setting 'orthorhombic'
loop_
_space_group_symop_operation_xyz
x,y,z
1/2-x,-y,z
x,1/2-y,1/2-z
1/2-x,1/2+y,1/2-z
-x,-y,-z
1/2+x,y,-z
-x,1/2+y,1/2+z
1/2+x,1/2-y,1/2+z
loop_
_atom_site_type_symbol
_atom_site_label
_atom_site_fract_x
_atom_site_fract_y
_atom_site_fract_z
Si Si1 0.633704 0.111111 0.406714
Si Si2 0.856649 0.861260 0.762150
Si Si3 0.756592 0.750000 0.250000
Si Si4 0.149945 0.925736 0.819641
Si Si5 0.250000 0.500000 0.420472
Si Si6 0.019930 0.250000 0.750000
Si Si7 0.503303 0.883763 0.041811
O O1 0.617674 0.091609 0.592881
O O2 0.694766 0.198453 0.388393
O O3 0.562988 0.154640 0.319468
O O4 0.655129 0.004068 0.327351
O O5 0.828339 0.750000 0.750000
O O6 0.925364 0.857018 0.882940
O O7 0.780366 0.912197 0.810174
O O8 0.708406 0.837965 0.181710
O O9 0.069931 0.875537 0.832326
O O10 0.175482 0.981574 0.979798
O O11 0.976911 0.306304 0.604785
O O12 0.500000 0.000000 0.000000
#
# Coordination Sequence:
#
# PCOD8217174 Si02
#       7
#     8   8   4   8   4   4   8
#     4  11  23  44  75  99 138 192 233 287 368 429
#     4  12  26  45  73 106 142 182 239 292 353 428
#     4  11  24  42  72 104 137 184 240 296 349 426
#     4  12  25  46  71 101 142 186 240 293 360 428
#     4  12  24  46  68 100 140 184 228 296 346 414
#     4  11  22  46  74  96 141 192 232 282 367 436
#     4  12  25  48  69 103 142 192 235 293 361 425
#
# _framework density 21.593674
#
# number of rings (size 3 to 8) (size 9 to 14) (size 15 to 20)
#    0.000    0.364    7.273    1.091    3.818    0.727 
#    8.182    0.000    0.000    0.000    0.000    0.000 
#    0.000    0.000    0.000    0.000    0.000    0.000 
#
# Total GULP energy -545111.660352 kJ/mol
# GULP energy per Si atom -12388.901372 kJ/mol
# Density = 2.154453 g / cm^3
# Si number density = 21.593674 Si / 1000 Ang^3
#
#
#
# Elastic Constant Matrix: (Units=GPa)
#
#
# Indices 1 2 3 4 5 6 
#
# 1 82.5533 29.7974 18.9467 0.0000 0.0000 0.0000
# 2 29.7974 127.2775 40.4961 0.0000 0.0000 0.0000
# 3 18.9467 40.4961 114.5476 0.0000 0.0000 0.0000
# 4 0.0000 0.0000 0.0000 33.9799 0.0000 0.0000
# 5 0.0000 0.0000 0.0000 0.0000 44.8074 0.0000
# 6 0.0000 0.0000 0.0000 0.0000 0.0000 -10.9270
#
#
#
# Elastic Compliance Matrix: (Units=1/GPa)
#
#
# Indices 1 2 3 4 5 6 
#
# 1 0.013388 -0.002738 -0.001247 0.000000 0.000000 0.000000
# 2 -0.002738 0.009412 -0.002875 0.000000 0.000000 0.000000
# 3 -0.001247 -0.002875 0.009953 0.000000 0.000000 0.000000
# 4 0.000000 0.000000 0.000000 0.029429 0.000000 0.000000
# 5 0.000000 0.000000 0.000000 0.000000 0.022318 0.000000
# 6 0.000000 0.000000 0.000000 0.000000 0.000000 -0.091517
#
#
# Mechanical properties :
#
#
# Convention : Reuss Voigt Hill
#
# Bulk Modulus (GPa) = 52.53566 55.87321 54.20443
# Shear Modulus (GPa) = 383.27390 29.24794 206.26092
#
# Velocity S-wave (km/s) = 13.33713 3.68430 9.78399
# Velocity P-wave (km/s) = 16.17263 6.63549 12.36090
#
# Compressibility (1/GPa) = 0.01903469
#
# Stress axis : x y z
#
# Youngs Moduli (GPa) = 74.69593 106.24249 100.47723
#
# Poissons Ratio (x) = 0.29085 0.12525
# Poissons Ratio (y) = 0.20449 0.28885
# Poissons Ratio (z) = 0.09311 0.30542
#
# Static dielectric constant tensor:
#      x y z
#    x 4.552780 0.000000 0.000000 
#    y 0.000000 1.498080 0.000000 
#    z 0.000000 0.000000 4.116420 
# 
# 
# High freq. dielectric constant tensor:
#      x y z
#    x 1.840490 0.000000 0.000000 
#    y 0.000000 1.863760 0.000000 
#    z 0.000000 0.000000 1.843890 
# 
# From -- ./inp_files/12009.got.cif
#   From: 2010.06.25/outbox.cif.g09.slc.cpg/sg52_7_cif.got.tgz:12009.got - 2010.06.26 19:32:48.
