data_PCOD8217108
_publ_section_title
;
Structure prediction by ZEFSAII (Michael W. Deem and Ramdas Pophale) SiO2 
 PCOD8217108
Probable space group: P N N A
;
_chemical_formula_sum "Si O2"
_cell_formula_units_Z 48
_cell_length_a 9.368545
_cell_length_b 16.685416
_cell_length_c 16.389807
_cell_angle_alpha 90.000000
_cell_angle_beta 90.000000
_cell_angle_gamma 90.000000
_cell_volume 2562.023008
_symmetry_space_group_name_H-M "P N N A"
_symmetry_group_IT_number 52
_symmetry_cell_setting 'orthorhombic'
loop_
_space_group_symop_operation_xyz
x,y,z
1/2-x,-y,z
x,1/2-y,1/2-z
1/2-x,1/2+y,1/2-z
-x,-y,-z
1/2+x,y,-z
-x,1/2+y,1/2+z
1/2+x,1/2-y,1/2+z
loop_
_atom_site_type_symbol
_atom_site_label
_atom_site_fract_x
_atom_site_fract_y
_atom_site_fract_z
Si Si1 0.702448 0.324798 0.085208
Si Si2 0.480296 0.698375 0.669556
Si Si3 0.869216 0.941702 0.266651
Si Si4 0.040906 0.316380 0.076405
Si Si5 0.700239 0.307385 0.672197
Si Si6 0.123111 0.441660 0.211896
O O1 0.631516 0.240045 0.109297
O O2 0.682990 0.390857 0.155310
O O3 0.870077 0.314402 0.067041
O O4 0.615763 0.350195 0.004960
O O5 0.496496 0.750000 0.750000
O O6 0.415963 0.612464 0.691118
O O7 0.640009 0.688427 0.633138
O O8 0.750000 0.000000 0.231723
O O9 0.992622 0.999664 0.292632
O O10 0.094780 0.227020 0.102085
O O11 0.097975 0.374957 0.144907
O O12 0.698374 0.250000 0.750000
O O13 0.649832 0.396246 0.701351
O O14 0.250000 0.500000 0.187671
#
# Coordination Sequence:
#
# PCOD8217108 Si02
#       6
#     8   8   8   8   8   8
#     4  11  24  38  57  82 116 156 190 232 279 337
#     4   9  19  36  58  80 111 149 190 230 274 333
#     4  11  22  37  58  89 118 144 186 236 287 333
#     4  11  24  38  57  82 116 154 193 229 280 340
#     4   9  19  36  58  81 109 149 193 229 273 334
#     4  11  22  37  60  88 115 148 185 234 288 337
#
# _framework density 18.735195000000001
#
# number of rings (size 3 to 8) (size 9 to 14) (size 15 to 20)
#    0.000    1.667    3.333    1.000    7.000    3.333 
#    0.000    0.000    0.000    2.000    0.000    0.000 
#    0.000    0.000    0.000    0.000    0.000    0.000 
#
# Total GULP energy -594907.815746 kJ/mol
# GULP energy per Si atom -12393.912828 kJ/mol
# Density = 1.869255 g / cm^3
# Si number density = 18.735195 Si / 1000 Ang^3
#
#
#
# Elastic Constant Matrix: (Units=GPa)
#
#
# Indices 1 2 3 4 5 6 
#
# 1 125.6509 27.8491 29.8155 0.0000 0.0000 0.0000
# 2 27.8491 78.5204 30.3840 0.0000 0.0000 0.0000
# 3 29.8155 30.3840 22.8141 0.0000 0.0000 0.0000
# 4 0.0000 0.0000 0.0000 -23.1790 0.0000 0.0000
# 5 0.0000 0.0000 0.0000 0.0000 22.9044 0.0000
# 6 0.0000 0.0000 0.0000 0.0000 0.0000 20.2566
#
#
#
# Elastic Compliance Matrix: (Units=1/GPa)
#
#
# Indices 1 2 3 4 5 6 
#
# 1 0.012050 0.003755 -0.020749 0.000000 0.000000 0.000000
# 2 0.003755 0.027448 -0.041463 0.000000 0.000000 0.000000
# 3 -0.020749 -0.041463 0.126170 0.000000 0.000000 0.000000
# 4 0.000000 0.000000 0.000000 -0.043143 0.000000 0.000000
# 5 0.000000 0.000000 0.000000 0.000000 0.043660 0.000000
# 6 0.000000 0.000000 0.000000 0.000000 0.000000 0.049367
#
#
# Mechanical properties :
#
#
# Convention : Reuss Voigt Hill
#
# Bulk Modulus (GPa) = 20.51113 44.78693 32.64903
# Shear Modulus (GPa) = 14.33832 13.25887 13.79859
#
# Velocity S-wave (km/s) = 2.76943 2.66315 2.71681
# Velocity P-wave (km/s) = 4.60413 5.78045 5.22550
#
# Compressibility (1/GPa) = 0.04875402
#
# Stress axis : x y z
#
# Youngs Moduli (GPa) = 82.98965 36.43234 7.92584
#
# Poissons Ratio (x) = -0.13681 0.16445
# Poissons Ratio (y) = -0.31164 0.32863
# Poissons Ratio (z) = 1.72193 1.51060
#
# Static dielectric constant tensor:
#      x y z
#    x 3.660800 0.000000 0.000000 
#    y 0.000000 3.750210 0.000000 
#    z 0.000000 0.000000 3.233630 
# 
# 
# High freq. dielectric constant tensor:
#      x y z
#    x 1.750460 0.000000 0.000000 
#    y 0.000000 1.728960 0.000000 
#    z 0.000000 0.000000 1.694010 
# 
# From -- ./inp_files/31205.got.cif
#   From: 2010.06.25/outbox.cif.g09.slc.cpg/sg52_16_cif.got.tgz:31205.got - 2010.06.26 19:32:48.
