data_PCOD8217795
_publ_section_title
;
Structure prediction by ZEFSAII (Michael W. Deem and Ramdas Pophale) SiO2 
 PCOD8217795
Probable space group: P M N A
;
_chemical_formula_sum "Si O2"
_cell_formula_units_Z 64
_cell_length_a 8.896536
_cell_length_b 16.989088
_cell_length_c 26.986978
_cell_angle_alpha 90.000000
_cell_angle_beta 90.000000
_cell_angle_gamma 90.000000
_cell_volume 4078.920693
_symmetry_space_group_name_H-M "P M N A"
_symmetry_group_IT_number 53
_symmetry_cell_setting 'orthorhombic'
loop_
_space_group_symop_operation_xyz
x,y,z
1/2-x,-y,1/2+z
x,-y,-z
1/2-x,y,1/2-z
-x,-y,-z
1/2+x,y,1/2-z
-x,y,z
1/2+x,-y,1/2+z
loop_
_atom_site_type_symbol
_atom_site_label
_atom_site_fract_x
_atom_site_fract_y
_atom_site_fract_z
Si Si1 0.178844 0.367614 0.422837
Si Si2 0.675487 0.846578 0.060429
Si Si3 0.829179 0.521333 0.057334
Si Si4 0.180168 0.917928 0.696238
Si Si5 0.822492 0.326584 0.533421
Si Si6 0.330922 0.909602 0.953653
Si Si7 0.830161 0.783400 0.626612
Si Si8 0.676141 0.975729 0.382876
O O1 0.250160 0.452443 0.410665
O O2 0.230659 0.337387 0.476827
O O3 0.240379 0.303651 0.382205
O O4 0.000000 0.374512 0.420521
O O5 0.500000 0.846643 0.073346
O O6 0.734229 0.757503 0.053674
O O7 0.767465 0.887327 0.105003
O O8 0.707254 0.896817 0.010853
O O9 0.749823 0.604980 0.067382
O O10 0.000000 0.527517 0.074699
O O11 0.812261 0.500000 0.000000
O O12 0.250000 0.921069 0.750000
O O13 0.244010 0.838419 0.669102
O O14 0.000000 0.919553 0.697970
O O15 0.236554 0.993348 0.665567
O O16 0.000000 0.333669 0.537392
O O17 0.500000 0.944470 0.947087
O O18 0.322031 0.825743 0.926595
O O19 0.212690 0.969582 0.930082
O O20 0.000000 0.770921 0.643579
O O21 0.500000 0.975605 0.371971
#
# Coordination Sequence:
#
# PCOD8217795 Si02
#       8
#     8   8   8   8   8   8   8   8
#     4   9  14  25  43  61  81 110 153 189 212 251
#     4  10  18  29  45  63  86 118 156 193 228 264
#     4   9  17  26  35  53  84 118 148 180 222 258
#     4  10  20  36  55  70  89 114 144 184 231 275
#     4   9  16  26  42  60  80 114 158 192 217 253
#     4   9  16  29  45  61  85 118 153 188 226 263
#     4   8  14  26  46  68  86 111 147 186 222 261
#     4  11  22  32  43  64  90 117 150 183 223 273
#
# _framework density 15.690426
#
# number of rings (size 3 to 8) (size 9 to 14) (size 15 to 20)
#    0.000    2.625    1.250    3.000    0.000    4.000 
#    0.000    3.125    0.000    0.000    0.000    0.000 
#    0.000    1.000    0.000    6.750    0.000    4.875 
#
# Total GULP energy -793195.661925 kJ/mol
# GULP energy per Si atom -12393.682218 kJ/mol
# Density = 1.565471 g / cm^3
# Si number density = 15.690426 Si / 1000 Ang^3
#
#
#
# Elastic Constant Matrix: (Units=GPa)
#
#
# Indices 1 2 3 4 5 6 
#
# 1 57.3152 39.7998 27.4468 0.0000 0.0000 0.0000
# 2 39.7998 109.1763 42.0789 0.0000 0.0000 0.0000
# 3 27.4468 42.0789 68.4213 0.0000 0.0000 0.0000
# 4 0.0000 0.0000 0.0000 13.4002 0.0000 0.0000
# 5 0.0000 0.0000 0.0000 0.0000 16.2925 0.0000
# 6 0.0000 0.0000 0.0000 0.0000 0.0000 12.2970
#
#
#
# Elastic Compliance Matrix: (Units=1/GPa)
#
#
# Indices 1 2 3 4 5 6 
#
# 1 0.025001 -0.006879 -0.005798 0.000000 0.000000 0.000000
# 2 -0.006879 0.013898 -0.005788 0.000000 0.000000 0.000000
# 3 -0.005798 -0.005788 0.020501 0.000000 0.000000 0.000000
# 4 0.000000 0.000000 0.000000 0.074626 0.000000 0.000000
# 5 0.000000 0.000000 0.000000 0.000000 0.061378 0.000000
# 6 0.000000 0.000000 0.000000 0.000000 0.000000 0.081321
#
#
# Mechanical properties :
#
#
# Convention : Reuss Voigt Hill
#
# Bulk Modulus (GPa) = 44.50521 50.39601 47.45061
# Shear Modulus (GPa) = 15.56931 16.77040 16.16985
#
# Velocity S-wave (km/s) = 3.15347 3.27284 3.21371
# Velocity P-wave (km/s) = 6.45641 6.81694 6.63912
#
# Compressibility (1/GPa) = 0.02246928
#
# Stress axis : x y z
#
# Youngs Moduli (GPa) = 39.99835 71.95286 48.77883
#
# Poissons Ratio (x) = 0.49498 0.28284
# Poissons Ratio (y) = 0.27516 0.28232
# Poissons Ratio (z) = 0.23192 0.41644
#
# Static dielectric constant tensor:
#      x y z
#    x 2.832190 0.000000 0.000000 
#    y 0.000000 3.240850 0.000000 
#    z 0.000000 0.000000 2.650030 
# 
# 
# High freq. dielectric constant tensor:
#      x y z
#    x 1.590010 0.000000 0.000000 
#    y 0.000000 1.609940 0.000000 
#    z 0.000000 0.000000 1.545860 
# 
# From -- ./inp_files/36471.got.cif
#   From: 2010.03.12/outbox.cif.g09.slc.cpg/sg53_19_cif.got.tgz:36471.got - 2010.04.16 14:36:59.
