data_PCOD8217204
_publ_section_title
;
Structure prediction by ZEFSAII (Michael W. Deem and Ramdas Pophale) SiO2 
 PCOD8217204
Probable space group: P N N A
;
_chemical_formula_sum "Si O2"
_cell_formula_units_Z 64
_cell_length_a 22.750249
_cell_length_b 9.038343
_cell_length_c 14.240029
_cell_angle_alpha 90.000000
_cell_angle_beta 90.000000
_cell_angle_gamma 90.000000
_cell_volume 2928.099609
_symmetry_space_group_name_H-M "P N N A"
_symmetry_group_IT_number 52
_symmetry_cell_setting 'orthorhombic'
loop_
_space_group_symop_operation_xyz
x,y,z
1/2-x,-y,z
x,1/2-y,1/2-z
1/2-x,1/2+y,1/2-z
-x,-y,-z
1/2+x,y,-z
-x,1/2+y,1/2+z
1/2+x,1/2-y,1/2+z
loop_
_atom_site_type_symbol
_atom_site_label
_atom_site_fract_x
_atom_site_fract_y
_atom_site_fract_z
Si Si1 0.533210 0.286513 0.988844
Si Si2 0.301355 0.399064 0.806968
Si Si3 0.775190 0.843571 0.842812
Si Si4 0.410500 0.275584 0.081463
Si Si5 0.402332 0.561639 0.376777
Si Si6 0.086638 0.390066 0.816179
Si Si7 0.713244 0.640404 0.981381
Si Si8 0.964811 0.988777 0.693036
O O1 0.557566 0.125924 0.960207
O O2 0.541663 0.400480 0.903945
O O3 0.463872 0.273823 0.007320
O O4 0.570254 0.340036 0.078559
O O5 0.250000 0.500000 0.759772
O O6 0.315137 0.250000 0.750000
O O7 0.358709 0.499776 0.816845
O O8 0.277689 0.344702 0.907598
O O9 0.766014 0.750000 0.750000
O O10 0.842229 0.848385 0.875333
O O11 0.738876 0.784117 0.931149
O O12 0.750000 0.000000 0.813806
O O13 0.356194 0.369731 0.040189
O O14 0.432554 0.353911 0.176683
O O15 0.390563 0.110381 0.105770
O O16 0.434179 0.595121 0.278191
O O17 0.100781 0.250000 0.750000
O O18 0.031694 0.481787 0.775007
O O19 0.750000 0.500000 0.942456
#
# Coordination Sequence:
#
# PCOD8217204 Si02
#       8
#     8   8   8   8   8   8   8   8
#     4  11  24  43  71 102 142 182 235 284 351 418
#     4  11  26  47  73 100 133 178 234 292 350 417
#     4  12  27  46  67 106 142 190 233 287 343 424
#     4  11  23  44  66 100 140 186 231 286 345 416
#     4  12  26  42  69 106 145 180 233 287 351 416
#     4  11  24  46  70 101 137 183 234 291 355 410
#     4  11  26  45  72  96 137 187 234 284 352 413
#     4  11  23  42  68 100 140 187 229 282 348 415
#
# _framework density 21.85718
#
# number of rings (size 3 to 8) (size 9 to 14) (size 15 to 20)
#    0.000    0.750    1.250    7.125    8.750    3.500 
#    0.000    0.000    0.000    0.000    0.000    0.000 
#    0.000    0.000    0.000    0.000    0.000    0.000 
#
# Total GULP energy -793803.280273 kJ/mol
# GULP energy per Si atom -12403.176254 kJ/mol
# Density = 2.180743 g / cm^3
# Si number density = 21.857180 Si / 1000 Ang^3
#
#
#
# Elastic Constant Matrix: (Units=GPa)
#
#
# Indices 1 2 3 4 5 6 
#
# 1 157.4983 58.2628 59.6898 0.0000 0.0000 0.0000
# 2 58.2628 121.0790 51.9564 0.0000 0.0000 0.0000
# 3 59.6898 51.9564 100.2110 0.0000 0.0000 0.0000
# 4 0.0000 0.0000 0.0000 32.5450 0.0000 0.0000
# 5 0.0000 0.0000 0.0000 0.0000 19.9171 0.0000
# 6 0.0000 0.0000 0.0000 0.0000 0.0000 42.8444
#
#
#
# Elastic Compliance Matrix: (Units=1/GPa)
#
#
# Indices 1 2 3 4 5 6 
#
# 1 0.008770 -0.002545 -0.003905 0.000000 0.000000 0.000000
# 2 -0.002545 0.011361 -0.004374 0.000000 0.000000 0.000000
# 3 -0.003905 -0.004374 0.014573 0.000000 0.000000 0.000000
# 4 0.000000 0.000000 0.000000 0.030727 0.000000 0.000000
# 5 0.000000 0.000000 0.000000 0.000000 0.050208 0.000000
# 6 0.000000 0.000000 0.000000 0.000000 0.000000 0.023340
#
#
# Mechanical properties :
#
#
# Convention : Reuss Voigt Hill
#
# Bulk Modulus (GPa) = 76.59196 79.84513 78.21855
# Shear Modulus (GPa) = 30.30694 32.98660 31.64677
#
# Velocity S-wave (km/s) = 3.72773 3.88904 3.80924
# Velocity P-wave (km/s) = 7.32435 7.53498 7.43041
#
# Compressibility (1/GPa) = 0.01305620
#
# Stress axis : x y z
#
# Youngs Moduli (GPa) = 114.01887 88.02254 68.62132
#
# Poissons Ratio (x) = 0.22400 0.26794
# Poissons Ratio (y) = 0.29015 0.30018
# Poissons Ratio (z) = 0.44521 0.38505
#
# Static dielectric constant tensor:
#      x y z
#    x 4.145690 0.000000 0.000000 
#    y 0.000000 4.101130 0.000000 
#    z 0.000000 0.000000 3.866360 
# 
# 
# High freq. dielectric constant tensor:
#      x y z
#    x 1.875010 0.000000 0.000000 
#    y 0.000000 1.870080 0.000000 
#    z 0.000000 0.000000 1.855950 
# 
# From -- ./inp_files/29231.got.cif
#   From: 2010.06.25/outbox.cif.g09.slc.cpg/sg52_15_cif.got.tgz:29231.got - 2010.06.26 19:32:48.
