data_PCOD8217662
_publ_section_title
;
Structure prediction by ZEFSAII (Michael W. Deem and Ramdas Pophale) SiO2 
 PCOD8217662
Probable space group: P M N A
;
_chemical_formula_sum "Si O2"
_cell_formula_units_Z 48
_cell_length_a 13.680150
_cell_length_b 17.086246
_cell_length_c 11.253421
_cell_angle_alpha 90.000000
_cell_angle_beta 90.000000
_cell_angle_gamma 90.000000
_cell_volume 2630.401725
_symmetry_space_group_name_H-M "P M N A"
_symmetry_group_IT_number 53
_symmetry_cell_setting 'orthorhombic'
loop_
_space_group_symop_operation_xyz
x,y,z
1/2-x,-y,1/2+z
x,-y,-z
1/2-x,y,1/2-z
-x,-y,-z
1/2+x,y,1/2-z
-x,y,z
1/2+x,-y,1/2+z
loop_
_atom_site_type_symbol
_atom_site_label
_atom_site_fract_x
_atom_site_fract_y
_atom_site_fract_z
Si Si1 0.112457 0.369369 0.304399
Si Si2 0.703330 0.582241 0.559961
Si Si3 0.714316 0.731237 0.425694
Si Si4 0.110866 0.917356 0.470061
Si Si5 0.309600 0.799328 0.856907
Si Si6 0.886477 0.211895 0.705908
O O1 0.182971 0.411645 0.399980
O O2 0.134167 0.402319 0.173082
O O3 0.132512 0.276416 0.309040
O O4 0.000000 0.386707 0.337180
O O5 0.680283 0.500000 0.500000
O O6 0.677482 0.644334 0.456036
O O7 0.726268 0.777389 0.548122
O O8 0.636744 0.780315 0.345776
O O9 0.820337 0.723080 0.360540
O O10 0.116808 0.861430 0.585285
O O11 0.148754 0.871821 0.351059
O O12 0.000000 0.938113 0.442738
O O13 0.165944 0.000000 0.500000
O O14 0.250000 0.839463 0.750000
O O15 0.000000 0.227811 0.679214
#
# Coordination Sequence:
#
# PCOD8217662 Si02
#       6
#     8   8   8   8   8   8
#     4  10  20  36  56  77 103 142 188 223 266 333
#     4  10  21  37  53  76 111 141 171 229 282 318
#     4   9  18  34  52  74 106 135 181 219 261 320
#     4   9  18  33  53  78 107 140 179 222 268 318
#     4  10  17  35  54  78 103 141 183 224 265 321
#     4   9  18  32  53  77 105 140 177 217 262 316
#
# _framework density 18.248162000000001
#
# number of rings (size 3 to 8) (size 9 to 14) (size 15 to 20)
#    0.000    2.500    3.333    0.500    0.000    8.000 
#    6.000    1.667    0.000    0.000    0.000    3.500 
#    0.000    0.000    0.000    0.000    0.000    0.000 
#
# Total GULP energy -594697.678625 kJ/mol
# GULP energy per Si atom -12389.534971 kJ/mol
# Density = 1.820663 g / cm^3
# Si number density = 18.248162 Si / 1000 Ang^3
#
#
#
# Elastic Constant Matrix: (Units=GPa)
#
#
# Indices 1 2 3 4 5 6 
#
# 1 59.0210 6.7383 21.9964 0.0000 0.0000 0.0000
# 2 6.7383 115.5740 53.8721 0.0000 0.0000 0.0000
# 3 21.9964 53.8721 111.7228 0.0000 0.0000 0.0000
# 4 0.0000 0.0000 0.0000 26.0675 0.0000 0.0000
# 5 0.0000 0.0000 0.0000 0.0000 19.3091 0.0000
# 6 0.0000 0.0000 0.0000 0.0000 0.0000 15.3241
#
#
#
# Elastic Compliance Matrix: (Units=1/GPa)
#
#
# Indices 1 2 3 4 5 6 
#
# 1 0.018341 0.000792 -0.003993 0.000000 0.000000 0.000000
# 2 0.000792 0.011195 -0.005554 0.000000 0.000000 0.000000
# 3 -0.003993 -0.005554 0.012415 0.000000 0.000000 0.000000
# 4 0.000000 0.000000 0.000000 0.038362 0.000000 0.000000
# 5 0.000000 0.000000 0.000000 0.000000 0.051789 0.000000
# 6 0.000000 0.000000 0.000000 0.000000 0.000000 0.065257
#
#
# Mechanical properties :
#
#
# Convention : Reuss Voigt Hill
#
# Bulk Modulus (GPa) = 40.91527 50.17016 45.54272
# Shear Modulus (GPa) = 22.41989 25.72087 24.07038
#
# Velocity S-wave (km/s) = 3.50896 3.75841 3.63582
# Velocity P-wave (km/s) = 6.23597 6.81081 6.52972
#
# Compressibility (1/GPa) = 0.02444075
#
# Stress axis : x y z
#
# Youngs Moduli (GPa) = 54.52322 89.32357 80.54733
#
# Poissons Ratio (x) = -0.07073 0.32161
# Poissons Ratio (y) = -0.04317 0.44738
# Poissons Ratio (z) = 0.21770 0.49612
#
# Static dielectric constant tensor:
#      x y z
#    x 3.170580 0.000000 0.000000 
#    y 0.000000 3.432150 0.000000 
#    z 0.000000 0.000000 3.600650 
# 
# 
# High freq. dielectric constant tensor:
#      x y z
#    x 1.685390 0.000000 0.000000 
#    y 0.000000 1.687660 0.000000 
#    z 0.000000 0.000000 1.714630 
# 
# From -- ./inp_files/16130.got.cif
#   From: 2010.03.12/outbox.cif.g09.slc.cpg/sg53_9_cif.got.tgz:16130.got - 2010.04.16 14:36:59.
