data_PCOD8217340
_publ_section_title
;
Structure prediction by ZEFSAII (Michael W. Deem and Ramdas Pophale) SiO2 
 PCOD8217340
Probable space group: P N N A
;
_chemical_formula_sum "Si O2"
_cell_formula_units_Z 24
_cell_length_a 8.552556
_cell_length_b 9.917261
_cell_length_c 10.543681
_cell_angle_alpha 90.000000
_cell_angle_beta 90.000000
_cell_angle_gamma 90.000000
_cell_volume 894.293198
_symmetry_space_group_name_H-M "P N N A"
_symmetry_group_IT_number 52
_symmetry_cell_setting 'orthorhombic'
loop_
_space_group_symop_operation_xyz
x,y,z
1/2-x,-y,z
x,1/2-y,1/2-z
1/2-x,1/2+y,1/2-z
-x,-y,-z
1/2+x,y,-z
-x,1/2+y,1/2+z
1/2+x,1/2-y,1/2+z
loop_
_atom_site_type_symbol
_atom_site_label
_atom_site_fract_x
_atom_site_fract_y
_atom_site_fract_z
Si Si1 0.641230 0.125444 0.411725
Si Si2 0.921303 0.028297 0.804914
Si Si3 0.423488 0.295820 0.557522
O O1 0.531795 0.107720 0.290634
O O2 0.528846 0.161764 0.531359
O O3 0.753276 0.254799 0.390607
O O4 0.750000 0.000000 0.447712
O O5 0.750000 0.000000 0.746007
O O6 0.901385 0.117938 0.930092
O O7 0.000774 0.884689 0.832442
#
# Coordination Sequence:
#
# PCOD8217340 Si02
#       3
#     8   8   8
#     4  12  28  48  82 119 165 221 275 345 419 495
#     4  11  26  50  85 114 166 230 272 344 418 484
#     4  11  26  52  77 122 169 208 288 345 408 496
#
# _framework density 26.836836999999999
#
# number of rings (size 3 to 8) (size 9 to 14) (size 15 to 20)
#    0.000    0.667    3.333    2.000    9.333    4.000 
#    6.000    0.000    0.000    0.000    0.000    0.000 
#    0.000    0.000    0.000    0.000    0.000    0.000 
#
# Total GULP energy -297786.956197 kJ/mol
# GULP energy per Si atom -12407.789842 kJ/mol
# Density = 2.677576 g / cm^3
# Si number density = 26.836837 Si / 1000 Ang^3
#
#
#
# Elastic Constant Matrix: (Units=GPa)
#
#
# Indices 1 2 3 4 5 6 
#
# 1 242.4226 80.3693 84.2781 0.0000 0.0000 0.0000
# 2 80.3693 105.6575 55.9812 0.0000 0.0000 0.0000
# 3 84.2781 55.9812 100.3520 0.0000 0.0000 0.0000
# 4 0.0000 0.0000 0.0000 40.3166 0.0000 0.0000
# 5 0.0000 0.0000 0.0000 0.0000 33.2854 0.0000
# 6 0.0000 0.0000 0.0000 0.0000 0.0000 74.6395
#
#
#
# Elastic Compliance Matrix: (Units=1/GPa)
#
#
# Indices 1 2 3 4 5 6 
#
# 1 0.006382 -0.002860 -0.003764 0.000000 0.000000 0.000000
# 2 -0.002860 0.014717 -0.005808 0.000000 0.000000 0.000000
# 3 -0.003764 -0.005808 0.016366 0.000000 0.000000 0.000000
# 4 0.000000 0.000000 0.000000 0.024804 0.000000 0.000000
# 5 0.000000 0.000000 0.000000 0.000000 0.030043 0.000000
# 6 0.000000 0.000000 0.000000 0.000000 0.000000 0.013398
#
#
# Mechanical properties :
#
#
# Convention : Reuss Voigt Hill
#
# Bulk Modulus (GPa) = 79.36015 98.85439 89.10727
# Shear Modulus (GPa) = 37.09885 44.83517 40.96701
#
# Velocity S-wave (km/s) = 3.72208 4.09180 3.91131
# Velocity P-wave (km/s) = 6.93595 7.69669 7.32620
#
# Compressibility (1/GPa) = 0.01260078
#
# Stress axis : x y z
#
# Youngs Moduli (GPa) = 156.69580 67.94671 61.10139
#
# Poissons Ratio (x) = 0.19433 0.22999
# Poissons Ratio (y) = 0.44815 0.35489
# Poissons Ratio (z) = 0.58983 0.39465
#
# Static dielectric constant tensor:
#      x y z
#    x 5.353800 0.000000 0.000000 
#    y 0.000000 5.186710 0.000000 
#    z 0.000000 0.000000 4.428970 
# 
# 
# High freq. dielectric constant tensor:
#      x y z
#    x 2.104240 0.000000 0.000000 
#    y 0.000000 2.096230 0.000000 
#    z 0.000000 0.000000 2.065520 
# 
# From -- ./inp_files/16239.got.cif
#   From: 2010.06.25/outbox.cif.g09.slc.cpg/sg52_9_cif.got.tgz:16239.got - 2010.06.26 19:32:48.
