data_PCOD8217842
_publ_section_title
;
Structure prediction by ZEFSAII (Michael W. Deem and Ramdas Pophale) SiO2 
 PCOD8217842
Probable space group: P M N A
;
_chemical_formula_sum "Si O2"
_cell_formula_units_Z 56
_cell_length_a 8.990267
_cell_length_b 21.505826
_cell_length_c 14.663788
_cell_angle_alpha 90.000000
_cell_angle_beta 90.000000
_cell_angle_gamma 90.000000
_cell_volume 2835.142491
_symmetry_space_group_name_H-M "P M N A"
_symmetry_group_IT_number 53
_symmetry_cell_setting 'orthorhombic'
loop_
_space_group_symop_operation_xyz
x,y,z
1/2-x,-y,1/2+z
x,-y,-z
1/2-x,y,1/2-z
-x,-y,-z
1/2+x,y,1/2-z
-x,y,z
1/2+x,-y,1/2+z
loop_
_atom_site_type_symbol
_atom_site_label
_atom_site_fract_x
_atom_site_fract_y
_atom_site_fract_z
Si Si1 0.162392 0.644778 0.530643
Si Si2 0.679032 0.130729 0.468292
Si Si3 0.678410 0.761081 0.849401
Si Si4 0.336751 0.554276 0.424611
Si Si5 0.327302 0.110374 0.843937
Si Si6 0.341404 0.538911 0.827144
Si Si7 0.327357 0.036678 0.156699
O O1 0.224070 0.699955 0.593460
O O2 0.277883 0.623172 0.453689
O O3 0.142378 0.581520 0.585976
O O4 0.000000 0.663518 0.490356
O O5 0.500000 0.132721 0.468735
O O6 0.748073 0.181791 0.401575
O O7 0.740822 0.141059 0.570737
O O8 0.738869 0.065246 0.429017
O O9 0.750000 0.755549 0.750000
O O10 0.500000 0.768651 0.841507
O O11 0.341994 0.500000 0.500000
O O12 0.500000 0.567104 0.386478
O O13 0.233080 0.527893 0.345327
O O14 0.250000 0.133028 0.750000
O O15 0.500000 0.131239 0.844433
O O16 0.313451 0.036707 0.852886
O O17 0.250000 0.575906 0.750000
O O18 0.500000 0.523347 0.784508
O O19 0.250000 0.060011 0.250000
O O20 0.500000 0.057979 0.156435
#
# Coordination Sequence:
#
# PCOD8217842 Si02
#       7
#     8   8   8   8   8   8   8
#     4   9  19  34  52  73 100 136 173 213 259 309
#     4  12  24  37  55  80 112 149 187 227 273 323
#     4  11  23  39  57  79 109 144 184 226 271 324
#     4   9  17  29  47  71  98 129 165 205 250 302
#     4  10  21  38  60  85 111 141 180 226 275 327
#     4  10  18  29  47  73 104 134 168 209 256 308
#     4  10  20  35  56  83 115 148 182 223 273 328
#
# _framework density 19.752094
#
# number of rings (size 3 to 8) (size 9 to 14) (size 15 to 20)
#    0.000    1.857    0.000    4.714    0.000    6.857 
#    0.000    0.000    0.000    0.857    0.000    0.000 
#    0.000    0.000    0.000    0.000    0.000    0.000 
#
# Total GULP energy -693997.605654 kJ/mol
# GULP energy per Si atom -12392.814387 kJ/mol
# Density = 1.970714 g / cm^3
# Si number density = 19.752094 Si / 1000 Ang^3
#
#
#
# Elastic Constant Matrix: (Units=GPa)
#
#
# Indices 1 2 3 4 5 6 
#
# 1 147.7277 19.4092 16.7974 0.0000 0.0000 0.0000
# 2 19.4092 46.7280 0.3029 0.0000 0.0000 0.0000
# 3 16.7974 0.3029 36.3535 0.0000 0.0000 0.0000
# 4 0.0000 0.0000 0.0000 26.4992 0.0000 0.0000
# 5 0.0000 0.0000 0.0000 0.0000 37.2545 0.0000
# 6 0.0000 0.0000 0.0000 0.0000 0.0000 39.5399
#
#
#
# Elastic Compliance Matrix: (Units=1/GPa)
#
#
# Indices 1 2 3 4 5 6 
#
# 1 0.007575 -0.003124 -0.003474 0.000000 0.000000 0.000000
# 2 -0.003124 0.022690 0.001254 0.000000 0.000000 0.000000
# 3 -0.003474 0.001254 0.029102 0.000000 0.000000 0.000000
# 4 0.000000 0.000000 0.000000 0.037737 0.000000 0.000000
# 5 0.000000 0.000000 0.000000 0.000000 0.026842 0.000000
# 6 0.000000 0.000000 0.000000 0.000000 0.000000 0.025291
#
#
# Mechanical properties :
#
#
# Convention : Reuss Voigt Hill
#
# Bulk Modulus (GPa) = 20.54225 33.75869 27.15047
# Shear Modulus (GPa) = 28.38485 33.61206 30.99846
#
# Velocity S-wave (km/s) = 3.79496 4.12964 3.96583
# Velocity P-wave (km/s) = 5.44288 6.31402 5.89456
#
# Compressibility (1/GPa) = 0.04868016
#
# Stress axis : x y z
#
# Youngs Moduli (GPa) = 132.01985 44.07271 34.36146
#
# Poissons Ratio (x) = 0.13767 0.11937
# Poissons Ratio (y) = 0.41239 -0.04310
# Poissons Ratio (z) = 0.45862 -0.05528
#
# Static dielectric constant tensor:
#      x y z
#    x 3.715890 0.000000 0.000000 
#    y 0.000000 3.366830 0.000000 
#    z 0.000000 0.000000 3.656570 
# 
# 
# High freq. dielectric constant tensor:
#      x y z
#    x 1.790460 0.000000 0.000000 
#    y 0.000000 1.739820 0.000000 
#    z 0.000000 0.000000 1.761470 
# 
# From -- ./inp_files/20569.got.cif
#   From: 2010.03.12/outbox.cif.g09.slc.cpg/sg53_11_cif.got.tgz:20569.got - 2010.04.16 14:36:59.
