data_PCOD8217191
_publ_section_title
;
Structure prediction by ZEFSAII (Michael W. Deem and Ramdas Pophale) SiO2 
 PCOD8217191
Probable space group: P N N A
;
_chemical_formula_sum "Si O2"
_cell_formula_units_Z 32
_cell_length_a 12.101626
_cell_length_b 4.810508
_cell_length_c 24.874560
_cell_angle_alpha 90.000000
_cell_angle_beta 90.000000
_cell_angle_gamma 90.000000
_cell_volume 1448.071731
_symmetry_space_group_name_H-M "P N N A"
_symmetry_group_IT_number 52
_symmetry_cell_setting 'orthorhombic'
loop_
_space_group_symop_operation_xyz
x,y,z
1/2-x,-y,z
x,1/2-y,1/2-z
1/2-x,1/2+y,1/2-z
-x,-y,-z
1/2+x,y,-z
-x,1/2+y,1/2+z
1/2+x,1/2-y,1/2+z
loop_
_atom_site_type_symbol
_atom_site_label
_atom_site_fract_x
_atom_site_fract_y
_atom_site_fract_z
Si Si1 0.876530 0.021467 0.107537
Si Si2 0.322955 0.744909 0.136797
Si Si3 0.501808 0.483566 0.063424
Si Si4 0.509131 0.511022 0.287104
O O1 0.903507 0.336892 0.092111
O O2 0.894165 0.945359 0.170266
O O3 0.750000 0.000000 0.090529
O O4 0.965486 0.833951 0.075641
O O5 0.250000 0.500000 0.164084
O O6 0.385466 0.586726 0.087996
O O7 0.401501 0.874171 0.182126
O O8 0.250000 0.000000 0.113275
O O9 0.500000 0.500000 0.000000
O O10 0.558639 0.750000 0.250000
O O11 0.477434 0.250000 0.250000
#
# Coordination Sequence:
#
# PCOD8217191 Si02
#       4
#     8   8   8   8
#     4  11  24  43  65  93 126 161 208 259 308 367
#     4  11  23  41  63  92 128 164 207 257 309 372
#     4  11  24  43  65  93 127 163 206 257 309 369
#     4  11  23  41  63  90 124 162 206 255 307 366
#
# _framework density 22.098351000000001
#
# number of rings (size 3 to 8) (size 9 to 14) (size 15 to 20)
#    0.000    1.000    0.000    9.000    0.000    6.000 
#    0.000    2.500    0.000    0.000    0.000    0.000 
#    0.000    0.000    0.000    0.000    0.000    0.000 
#
# Total GULP energy -396696.074303 kJ/mol
# GULP energy per Si atom -12396.752322 kJ/mol
# Density = 2.204805 g / cm^3
# Si number density = 22.098351 Si / 1000 Ang^3
#
#
#
# Elastic Constant Matrix: (Units=GPa)
#
#
# Indices 1 2 3 4 5 6 
#
# 1 79.5423 11.4862 5.6253 0.0000 0.0000 0.0000
# 2 11.4862 98.7089 24.2859 0.0000 0.0000 0.0000
# 3 5.6253 24.2859 137.6874 0.0000 0.0000 0.0000
# 4 0.0000 0.0000 0.0000 38.5840 0.0000 0.0000
# 5 0.0000 0.0000 0.0000 0.0000 23.5564 0.0000
# 6 0.0000 0.0000 0.0000 0.0000 0.0000 34.5165
#
#
#
# Elastic Compliance Matrix: (Units=1/GPa)
#
#
# Indices 1 2 3 4 5 6 
#
# 1 0.012797 -0.001422 -0.000272 0.000000 0.000000 0.000000
# 2 -0.001422 0.010748 -0.001838 0.000000 0.000000 0.000000
# 3 -0.000272 -0.001838 0.007598 0.000000 0.000000 0.000000
# 4 0.000000 0.000000 0.000000 0.025917 0.000000 0.000000
# 5 0.000000 0.000000 0.000000 0.000000 0.042451 0.000000
# 6 0.000000 0.000000 0.000000 0.000000 0.000000 0.028972
#
#
# Mechanical properties :
#
#
# Convention : Reuss Voigt Hill
#
# Bulk Modulus (GPa) = 41.52942 44.30372 42.91657
# Shear Modulus (GPa) = 34.82534 37.63414 36.22974
#
# Velocity S-wave (km/s) = 3.97410 4.13125 4.05344
# Velocity P-wave (km/s) = 6.31599 6.54586 6.43195
#
# Compressibility (1/GPa) = 0.02407932
#
# Stress axis : x y z
#
# Youngs Moduli (GPa) = 78.14624 93.03675 131.61206
#
# Poissons Ratio (x) = 0.13231 0.03579
# Poissons Ratio (y) = 0.11114 0.24187
# Poissons Ratio (z) = 0.02125 0.17098
#
# Static dielectric constant tensor:
#      x y z
#    x 3.970570 0.000000 0.000000 
#    y 0.000000 4.390830 0.000000 
#    z 0.000000 0.000000 3.178070 
# 
# 
# High freq. dielectric constant tensor:
#      x y z
#    x 1.863160 0.000000 0.000000 
#    y 0.000000 1.895930 0.000000 
#    z 0.000000 0.000000 1.862460 
# 
# From -- ./inp_files/36420.got.cif
#   From: 2010.06.25/outbox.cif.g09.slc.cpg/sg52_19_cif.got.tgz:36420.got - 2010.06.26 19:32:48.
