data_PCOD8217841
_publ_section_title
;
Structure prediction by ZEFSAII (Michael W. Deem and Ramdas Pophale) SiO2 
 PCOD8217841
Probable space group: P M N A
;
_chemical_formula_sum "Si O2"
_cell_formula_units_Z 64
_cell_length_a 8.842778
_cell_length_b 16.894485
_cell_length_c 24.150794
_cell_angle_alpha 90.000000
_cell_angle_beta 90.000000
_cell_angle_gamma 90.000000
_cell_volume 3607.988073
_symmetry_space_group_name_H-M "P M N A"
_symmetry_group_IT_number 53
_symmetry_cell_setting 'orthorhombic'
loop_
_space_group_symop_operation_xyz
x,y,z
1/2-x,-y,1/2+z
x,-y,-z
1/2-x,y,1/2-z
-x,-y,-z
1/2+x,y,1/2-z
-x,y,z
1/2+x,-y,1/2+z
loop_
_atom_site_type_symbol
_atom_site_label
_atom_site_fract_x
_atom_site_fract_y
_atom_site_fract_z
Si Si1 0.674543 0.033810 0.400010
Si Si2 0.678096 0.757615 0.189741
Si Si3 0.325070 0.149652 0.592861
Si Si4 0.821575 0.874049 0.692532
Si Si5 0.822083 0.585912 0.689111
Si Si6 0.177863 0.176446 0.026172
Si Si7 0.674071 0.585825 0.192195
Si Si8 0.179824 0.729532 0.868890
O O1 0.500000 0.051951 0.384174
O O2 0.781264 0.054599 0.348545
O O3 0.725476 0.090125 0.450787
O O4 0.698425 0.943482 0.416032
O O5 0.750000 0.772416 0.250000
O O6 0.500000 0.767285 0.196394
O O7 0.734389 0.821783 0.146142
O O8 0.725291 0.669803 0.165289
O O9 0.500000 0.170747 0.602607
O O10 0.258070 0.189211 0.536206
O O11 0.750000 0.900049 0.750000
O O12 0.746396 0.791744 0.674375
O O13 0.000000 0.862592 0.697145
O O14 0.750000 0.596595 0.750000
O O15 0.792113 0.497979 0.661811
O O16 0.747076 0.644023 0.644693
O O17 0.000000 0.603240 0.694678
O O18 0.230657 0.245276 0.068710
O O19 0.000000 0.178080 0.019681
O O20 0.750000 0.575725 0.250000
O O21 0.500000 0.593760 0.205104
O O22 0.000000 0.728393 0.863226
#
# Coordination Sequence:
#
# PCOD8217841 Si02
#       8
#     8   8   8   8   8   8   8   8
#     4   9  18  33  52  73  96 124 161 204 246 288
#     4  10  20  35  53  75 102 130 160 197 243 291
#     4  10  19  33  55  78  97 123 160 201 245 291
#     4  11  21  33  48  67  96 132 166 199 240 288
#     4  10  18  29  47  73 101 129 163 200 240 286
#     4   8  16  32  53  73  95 126 163 200 239 285
#     4   8  16  30  48  69  96 128 160 196 238 285
#     4  10  19  32  49  71  99 130 164 200 238 282
#
# _framework density 17.738419
#
# number of rings (size 3 to 8) (size 9 to 14) (size 15 to 20)
#    0.000    2.500    0.000    3.750    0.000    3.500 
#    0.000    3.125    0.000    4.500    0.000    5.250 
#    0.000    0.000    0.000    0.000    0.000    0.000 
#
# Total GULP energy -792951.379127 kJ/mol
# GULP energy per Si atom -12389.865299 kJ/mol
# Density = 1.769805 g / cm^3
# Si number density = 17.738419 Si / 1000 Ang^3
#
#
#
# Elastic Constant Matrix: (Units=GPa)
#
#
# Indices 1 2 3 4 5 6 
#
# 1 70.8931 34.4233 34.8932 0.0000 0.0000 0.0000
# 2 34.4233 77.1983 49.0452 0.0000 0.0000 0.0000
# 3 34.8932 49.0452 113.7519 0.0000 0.0000 0.0000
# 4 0.0000 0.0000 0.0000 18.8557 0.0000 0.0000
# 5 0.0000 0.0000 0.0000 0.0000 20.1311 0.0000
# 6 0.0000 0.0000 0.0000 0.0000 0.0000 24.4651
#
#
#
# Elastic Compliance Matrix: (Units=1/GPa)
#
#
# Indices 1 2 3 4 5 6 
#
# 1 0.018695 -0.006463 -0.002948 0.000000 0.000000 0.000000
# 2 -0.006463 0.020075 -0.006673 0.000000 0.000000 0.000000
# 3 -0.002948 -0.006673 0.012572 0.000000 0.000000 0.000000
# 4 0.000000 0.000000 0.000000 0.053034 0.000000 0.000000
# 5 0.000000 0.000000 0.000000 0.000000 0.049674 0.000000
# 6 0.000000 0.000000 0.000000 0.000000 0.000000 0.040875
#
#
# Mechanical properties :
#
#
# Convention : Reuss Voigt Hill
#
# Bulk Modulus (GPa) = 52.15366 55.39630 53.77498
# Shear Modulus (GPa) = 21.41455 22.25581 21.83518
#
# Velocity S-wave (km/s) = 3.47831 3.54597 3.51230
# Velocity P-wave (km/s) = 6.75254 6.93272 6.84322
#
# Compressibility (1/GPa) = 0.01917411
#
# Stress axis : x y z
#
# Youngs Moduli (GPa) = 53.48986 49.81282 79.53907
#
# Poissons Ratio (x) = 0.32196 0.23448
# Poissons Ratio (y) = 0.34573 0.53076
# Poissons Ratio (z) = 0.15768 0.33240
#
# Static dielectric constant tensor:
#      x y z
#    x 3.154380 0.000000 0.000000 
#    y 0.000000 3.607660 0.000000 
#    z 0.000000 0.000000 3.233810 
# 
# 
# High freq. dielectric constant tensor:
#      x y z
#    x 1.681200 0.000000 0.000000 
#    y 0.000000 1.688280 0.000000 
#    z 0.000000 0.000000 1.665120 
# 
# From -- ./inp_files/34236.got.cif
#   From: 2010.03.12/outbox.cif.g09.slc.cpg/sg53_18_cif.got.tgz:34236.got - 2010.04.16 14:36:59.
