data_PCOD8217442
_publ_section_title
;
Structure prediction by ZEFSAII (Michael W. Deem and Ramdas Pophale) SiO2 
 PCOD8217442
Probable space group: P N N A
;
_chemical_formula_sum "Si O2"
_cell_formula_units_Z 24
_cell_length_a 20.596625
_cell_length_b 8.622742
_cell_length_c 5.031870
_cell_angle_alpha 90.000000
_cell_angle_beta 90.000000
_cell_angle_gamma 90.000000
_cell_volume 893.657010
_symmetry_space_group_name_H-M "P N N A"
_symmetry_group_IT_number 52
_symmetry_cell_setting 'orthorhombic'
loop_
_space_group_symop_operation_xyz
x,y,z
1/2-x,-y,z
x,1/2-y,1/2-z
1/2-x,1/2+y,1/2-z
-x,-y,-z
1/2+x,y,-z
-x,1/2+y,1/2+z
1/2+x,1/2-y,1/2+z
loop_
_atom_site_type_symbol
_atom_site_label
_atom_site_fract_x
_atom_site_fract_y
_atom_site_fract_z
Si Si1 0.622836 0.146460 0.497192
Si Si2 0.945478 0.077272 0.825594
Si Si3 0.811233 0.079326 0.149356
O O1 0.599047 0.250000 0.250000
O O2 0.561972 0.034906 0.570067
O O3 0.680586 0.033433 0.405452
O O4 0.644643 0.250000 0.750000
O O5 0.966374 0.250000 0.750000
O O6 0.875514 0.080987 0.970823
O O7 0.000000 0.000000 0.000000
O O8 0.793643 0.250000 0.250000
O O9 0.750000 0.000000 0.994386
#
# Coordination Sequence:
#
# PCOD8217442 Si02
#       3
#     8   8   8
#     4  12  27  54  85 128 174 232 290 365 443 525
#     4  12  30  56  92 131 184 237 301 370 450 536
#     4  12  28  55  88 131 177 235 299 373 448 538
#
# _framework density 26.85594
#
# number of rings (size 3 to 8) (size 9 to 14) (size 15 to 20)
#    0.000    0.000    6.667    1.000    4.667    4.000 
#    6.000    1.667    0.000    0.000    0.000    0.000 
#    0.000    0.000    0.000    0.000    0.000    0.000 
#
# Total GULP energy -297547.055262 kJ/mol
# GULP energy per Si atom -12397.793969 kJ/mol
# Density = 2.679481 g / cm^3
# Si number density = 26.855940 Si / 1000 Ang^3
#
#
#
# Elastic Constant Matrix: (Units=GPa)
#
#
# Indices 1 2 3 4 5 6 
#
# 1 163.9989 77.8704 40.8467 0.0000 0.0000 0.0000
# 2 77.8704 284.5414 93.0560 0.0000 0.0000 0.0000
# 3 40.8467 93.0560 147.8018 0.0000 0.0000 0.0000
# 4 0.0000 0.0000 0.0000 58.7162 0.0000 0.0000
# 5 0.0000 0.0000 0.0000 0.0000 74.1916 0.0000
# 6 0.0000 0.0000 0.0000 0.0000 0.0000 29.9903
#
#
#
# Elastic Compliance Matrix: (Units=1/GPa)
#
#
# Indices 1 2 3 4 5 6 
#
# 1 0.007109 -0.001641 -0.000932 0.000000 0.000000 0.000000
# 2 -0.001641 0.004804 -0.002571 0.000000 0.000000 0.000000
# 3 -0.000932 -0.002571 0.008642 0.000000 0.000000 0.000000
# 4 0.000000 0.000000 0.000000 0.017031 0.000000 0.000000
# 5 0.000000 0.000000 0.000000 0.000000 0.013479 0.000000
# 6 0.000000 0.000000 0.000000 0.000000 0.000000 0.033344
#
#
# Mechanical properties :
#
#
# Convention : Reuss Voigt Hill
#
# Bulk Modulus (GPa) = 97.39113 113.32090 105.35602
# Shear Modulus (GPa) = 50.95846 58.21758 54.58802
#
# Velocity S-wave (km/s) = 4.36073 4.66099 4.51335
# Velocity P-wave (km/s) = 7.85478 8.44120 8.15326
#
# Compressibility (1/GPa) = 0.01026788
#
# Stress axis : x y z
#
# Youngs Moduli (GPa) = 140.67266 208.14207 115.71114
#
# Poissons Ratio (x) = 0.34152 0.10779
# Poissons Ratio (y) = 0.23081 0.29754
# Poissons Ratio (z) = 0.13104 0.53522
#
# Static dielectric constant tensor:
#      x y z
#    x 4.895650 0.000000 0.000000 
#    y 0.000000 5.727960 0.000000 
#    z 0.000000 0.000000 5.216760 
# 
# 
# High freq. dielectric constant tensor:
#      x y z
#    x 2.088080 0.000000 0.000000 
#    y 0.000000 2.116770 0.000000 
#    z 0.000000 0.000000 2.072810 
# 
# From -- ./inp_files/4711.got.cif
#   From: 2010.06.25/outbox.cif.g09.slc.cpg/sg52_3_cif.got.tgz:4711.got - 2010.06.26 19:32:48.
