data_PCOD8217323
_publ_section_title
;
Structure prediction by ZEFSAII (Michael W. Deem and Ramdas Pophale) SiO2 
 PCOD8217323
Probable space group: P N N A
;
_chemical_formula_sum "Si O2"
_cell_formula_units_Z 32
_cell_length_a 11.621122
_cell_length_b 15.180448
_cell_length_c 7.567204
_cell_angle_alpha 90.000000
_cell_angle_beta 90.000000
_cell_angle_gamma 90.000000
_cell_volume 1334.959502
_symmetry_space_group_name_H-M "P N N A"
_symmetry_group_IT_number 52
_symmetry_cell_setting 'orthorhombic'
loop_
_space_group_symop_operation_xyz
x,y,z
1/2-x,-y,z
x,1/2-y,1/2-z
1/2-x,1/2+y,1/2-z
-x,-y,-z
1/2+x,y,-z
-x,1/2+y,1/2+z
1/2+x,1/2-y,1/2+z
loop_
_atom_site_type_symbol
_atom_site_label
_atom_site_fract_x
_atom_site_fract_y
_atom_site_fract_z
Si Si1 0.371630 0.015004 0.339419
Si Si2 0.288450 0.087913 0.715269
Si Si3 0.022855 0.152655 0.194058
Si Si4 0.552063 0.153762 0.203348
O O1 0.432736 0.918903 0.337256
O O2 0.250000 0.000000 0.238145
O O3 0.344464 0.051554 0.533868
O O4 0.454430 0.083501 0.246160
O O5 0.383602 0.144551 0.818937
O O6 0.171687 0.144215 0.687769
O O7 0.250000 0.000000 0.824217
O O8 0.058663 0.250000 0.250000
O O9 0.078809 0.138842 0.002840
O O10 0.501546 0.250000 0.250000
#
# Coordination Sequence:
#
# PCOD8217323 Si02
#       4
#     8   8   8   8
#     4  11  27  47  78 104 151 200 248 307 378 443
#     4  11  25  47  79 103 150 195 252 307 377 440
#     4  12  27  47  76 112 153 197 255 309 381 446
#     4  12  28  47  78 112 155 197 254 314 375 452
#
# _framework density 23.970766999999999
#
# number of rings (size 3 to 8) (size 9 to 14) (size 15 to 20)
#    0.000    0.500    2.500    3.750   14.000    1.000 
#    0.000    0.000    0.000    0.000    0.000    0.000 
#    0.000    0.000    0.000    0.000    0.000    0.000 
#
# Total GULP energy -396576.902307 kJ/mol
# GULP energy per Si atom -12393.028197 kJ/mol
# Density = 2.391621 g / cm^3
# Si number density = 23.970767 Si / 1000 Ang^3
#
#
#
# Elastic Constant Matrix: (Units=GPa)
#
#
# Indices 1 2 3 4 5 6 
#
# 1 165.1340 67.8558 37.7996 0.0000 0.0000 0.0000
# 2 67.8558 187.4288 38.8422 0.0000 0.0000 0.0000
# 3 37.7996 38.8422 104.9604 0.0000 0.0000 0.0000
# 4 0.0000 0.0000 0.0000 23.9990 0.0000 0.0000
# 5 0.0000 0.0000 0.0000 0.0000 30.3925 0.0000
# 6 0.0000 0.0000 0.0000 0.0000 0.0000 224.1192
#
#
#
# Elastic Compliance Matrix: (Units=1/GPa)
#
#
# Indices 1 2 3 4 5 6 
#
# 1 0.007421 -0.002310 -0.001818 0.000000 0.000000 0.000000
# 2 -0.002310 0.006498 -0.001573 0.000000 0.000000 0.000000
# 3 -0.001818 -0.001573 0.010764 0.000000 0.000000 0.000000
# 4 0.000000 0.000000 0.000000 0.041668 0.000000 0.000000
# 5 0.000000 0.000000 0.000000 0.000000 0.032903 0.000000
# 6 0.000000 0.000000 0.000000 0.000000 0.000000 0.004462
#
#
# Mechanical properties :
#
#
# Convention : Reuss Voigt Hill
#
# Bulk Modulus (GPa) = 75.29019 82.94650 79.11835
# Shear Modulus (GPa) = 41.82578 76.57053 59.19815
#
# Velocity S-wave (km/s) = 4.18169 5.65797 4.97490
# Velocity P-wave (km/s) = 7.40221 8.79556 8.12879
#
# Compressibility (1/GPa) = 0.01328194
#
# Stress axis : x y z
#
# Youngs Moduli (GPa) = 134.75363 153.90419 92.90240
#
# Poissons Ratio (x) = 0.35551 0.16887
# Poissons Ratio (y) = 0.31127 0.14610
# Poissons Ratio (z) = 0.24494 0.24203
#
# Static dielectric constant tensor:
#      x y z
#    x 4.984940 0.000000 0.000000 
#    y 0.000000 4.480490 0.000000 
#    z 0.000000 0.000000 4.120540 
# 
# 
# High freq. dielectric constant tensor:
#      x y z
#    x 1.970060 0.000000 0.000000 
#    y 0.000000 1.961880 0.000000 
#    z 0.000000 0.000000 1.930780 
# 
# From -- ./inp_files/8243.got.cif
#   From: 2010.06.25/outbox.cif.g09.slc.cpg/sg52_5_cif.got.tgz:8243.got - 2010.06.26 19:32:48.
