data_PCOD8217653
_publ_section_title
;
Structure prediction by ZEFSAII (Michael W. Deem and Ramdas Pophale) SiO2 
 PCOD8217653
Probable space group: P M N A
;
_chemical_formula_sum "Si O2"
_cell_formula_units_Z 64
_cell_length_a 8.822266
_cell_length_b 15.016150
_cell_length_c 24.969347
_cell_angle_alpha 90.000000
_cell_angle_beta 90.000000
_cell_angle_gamma 90.000000
_cell_volume 3307.850939
_symmetry_space_group_name_H-M "P M N A"
_symmetry_group_IT_number 53
_symmetry_cell_setting 'orthorhombic'
loop_
_space_group_symop_operation_xyz
x,y,z
1/2-x,-y,1/2+z
x,-y,-z
1/2-x,y,1/2-z
-x,-y,-z
1/2+x,y,1/2-z
-x,y,z
1/2+x,-y,1/2+z
loop_
_atom_site_type_symbol
_atom_site_label
_atom_site_fract_x
_atom_site_fract_y
_atom_site_fract_z
Si Si1 0.677895 0.926015 0.804758
Si Si2 0.174777 0.267498 0.498807
Si Si3 0.822576 0.371456 0.194779
Si Si4 0.320735 0.128196 0.805782
Si Si5 0.820149 0.262299 0.887890
Si Si6 0.177491 0.542240 0.138319
Si Si7 0.835951 0.569961 0.957069
Si Si8 0.821957 0.771463 0.618659
O O1 0.750000 0.890732 0.750000
O O2 0.500000 0.922097 0.797336
O O3 0.733280 0.861360 0.852112
O O4 0.730106 0.026667 0.817401
O O5 0.276327 0.243633 0.550284
O O6 0.208364 0.367830 0.482037
O O7 0.216732 0.212793 0.444425
O O8 0.000000 0.254863 0.514904
O O9 0.750000 0.336934 0.250000
O O10 0.788509 0.479022 0.189831
O O11 0.760297 0.315283 0.143803
O O12 0.000000 0.353871 0.197910
O O13 0.250000 0.161890 0.750000
O O14 0.500000 0.138980 0.802534
O O15 0.256525 0.185653 0.853863
O O16 0.755843 0.357137 0.864040
O O17 0.000000 0.256453 0.882511
O O18 0.245163 0.482064 0.091101
O O19 0.000000 0.553593 0.128565
O O20 0.000000 0.616368 0.940558
O O21 0.886119 0.500000 0.000000
O O22 0.000000 0.755324 0.626213
#
# Coordination Sequence:
#
# PCOD8217653 Si02
#       8
#     8   8   8   8   8   8   8   8
#     4   9  19  37  61  85 111 142 181 228 280 336
#     4  11  22  34  52  83 118 148 187 234 280 331
#     4  11  22  36  53  76 109 147 186 230 279 332
#     4  10  21  40  64  89 112 140 180 230 284 336
#     4  11  22  39  60  83 113 151 192 233 278 333
#     4   9  19  34  53  75 103 144 189 227 272 325
#     4  10  17  32  54  74 101 142 190 232 274 325
#     4  10  21  37  56  82 114 149 186 227 276 334
#
# _framework density 19.347909000000001
#
# number of rings (size 3 to 8) (size 9 to 14) (size 15 to 20)
#    0.000    1.875    2.500    1.875    0.000    3.250 
#    0.000    4.375    0.000    3.750    0.000    0.000 
#    0.000    0.000    0.000    0.000    0.000    0.000 
#
# Total GULP energy -792955.256884 kJ/mol
# GULP energy per Si atom -12389.925889 kJ/mol
# Density = 1.930387 g / cm^3
# Si number density = 19.347909 Si / 1000 Ang^3
#
#
#
# Elastic Constant Matrix: (Units=GPa)
#
#
# Indices 1 2 3 4 5 6 
#
# 1 54.8916 30.0288 30.6341 0.0000 0.0000 0.0000
# 2 30.0288 101.2595 55.3798 0.0000 0.0000 0.0000
# 3 30.6341 55.3798 99.9674 0.0000 0.0000 0.0000
# 4 0.0000 0.0000 0.0000 35.4833 0.0000 0.0000
# 5 0.0000 0.0000 0.0000 0.0000 33.2488 0.0000
# 6 0.0000 0.0000 0.0000 0.0000 0.0000 23.9302
#
#
#
# Elastic Compliance Matrix: (Units=1/GPa)
#
#
# Indices 1 2 3 4 5 6 
#
# 1 0.023208 -0.004294 -0.004733 0.000000 0.000000 0.000000
# 2 -0.004294 0.014963 -0.006973 0.000000 0.000000 0.000000
# 3 -0.004733 -0.006973 0.015317 0.000000 0.000000 0.000000
# 4 0.000000 0.000000 0.000000 0.028182 0.000000 0.000000
# 5 0.000000 0.000000 0.000000 0.000000 0.030076 0.000000
# 6 0.000000 0.000000 0.000000 0.000000 0.000000 0.041788
#
#
# Mechanical properties :
#
#
# Convention : Reuss Voigt Hill
#
# Bulk Modulus (GPa) = 46.53960 54.24490 50.39225
# Shear Modulus (GPa) = 25.94742 27.87083 26.90913
#
# Velocity S-wave (km/s) = 3.66607 3.79952 3.73339
# Velocity P-wave (km/s) = 6.48278 6.88084 6.68477
#
# Compressibility (1/GPa) = 0.02148708
#
# Stress axis : x y z
#
# Youngs Moduli (GPa) = 43.08817 66.83302 65.28805
#
# Poissons Ratio (x) = 0.28697 0.30903
# Poissons Ratio (y) = 0.18501 0.45527
# Poissons Ratio (z) = 0.20395 0.46604
#
# Static dielectric constant tensor:
#      x y z
#    x 3.404140 0.000000 0.000000 
#    y 0.000000 3.614810 0.000000 
#    z 0.000000 0.000000 3.778130 
# 
# 
# High freq. dielectric constant tensor:
#      x y z
#    x 1.744580 0.000000 0.000000 
#    y 0.000000 1.739630 0.000000 
#    z 0.000000 0.000000 1.759210 
# 
# From -- ./inp_files/34267.got.cif
#   From: 2010.03.12/outbox.cif.g09.slc.cpg/sg53_18_cif.got.tgz:34267.got - 2010.04.16 14:36:59.
