data_PCOD8217635
_publ_section_title
;
Structure prediction by ZEFSAII (Michael W. Deem and Ramdas Pophale) SiO2 
 PCOD8217635
Probable space group: P M N A
;
_chemical_formula_sum "Si O2"
_cell_formula_units_Z 64
_cell_length_a 16.943601
_cell_length_b 9.828670
_cell_length_c 21.399534
_cell_angle_alpha 90.000000
_cell_angle_beta 90.000000
_cell_angle_gamma 90.000000
_cell_volume 3563.729940
_symmetry_space_group_name_H-M "P M N A"
_symmetry_group_IT_number 53
_symmetry_cell_setting 'orthorhombic'
loop_
_space_group_symop_operation_xyz
x,y,z
1/2-x,-y,1/2+z
x,-y,-z
1/2-x,y,1/2-z
-x,-y,-z
1/2+x,y,1/2-z
-x,y,z
1/2+x,-y,1/2+z
loop_
_atom_site_type_symbol
_atom_site_label
_atom_site_fract_x
_atom_site_fract_y
_atom_site_fract_z
Si Si1 0.281087 0.669830 0.398427
Si Si2 0.174941 0.313005 0.712708
Si Si3 0.409327 0.580935 0.813110
Si Si4 0.589786 0.781771 0.322413
Si Si5 0.176558 0.252959 0.211649
Si Si6 0.714323 0.854848 0.516316
Si Si7 0.410119 0.930902 0.616702
Si Si8 0.230541 0.624034 0.603859
O O1 0.208640 0.730915 0.355650
O O2 0.361269 0.661950 0.357115
O O3 0.301090 0.773580 0.453351
O O4 0.257890 0.520829 0.425840
O O5 0.250000 0.374342 0.750000
O O6 0.108312 0.426902 0.706143
O O7 0.132356 0.194062 0.754069
O O8 0.500000 0.599610 0.830478
O O9 0.387498 0.678431 0.756015
O O10 0.360140 0.618060 0.875135
O O11 0.500000 0.734900 0.312224
O O12 0.594282 0.910645 0.367756
O O13 0.250000 0.188434 0.250000
O O14 0.131668 0.135790 0.175601
O O15 0.212602 0.362472 0.163685
O O16 0.632936 0.893405 0.551799
O O17 0.766278 0.754740 0.559007
O O18 0.756892 0.000000 0.500000
O O19 0.500000 0.880404 0.609874
#
# Coordination Sequence:
#
# PCOD8217635 Si02
#       8
#     8   8   8   8   8   8   8   8
#     4  10  19  35  55  76 104 138 177 221 263 303
#     4   9  18  31  50  77 107 137 172 214 265 316
#     4  10  17  30  54  80 107 138 172 216 276 324
#     4  10  19  32  51  78 112 142 170 213 269 321
#     4   9  17  31  51  77 108 142 179 214 259 322
#     4  11  21  37  56  76  99 143 189 218 261 309
#     4  10  21  34  49  76 113 146 178 219 267 314
#     4   9  20  35  53  80 107 136 177 229 262 311
#
# _framework density 17.958711000000001
#
# number of rings (size 3 to 8) (size 9 to 14) (size 15 to 20)
#    0.000    2.250    1.250    3.750    0.000    2.250 
#    2.250    2.500    0.000   10.875    0.000    0.000 
#    0.000    0.000    0.000    0.000    0.000    0.000 
#
# Total GULP energy -792954.670914 kJ/mol
# GULP energy per Si atom -12389.916733 kJ/mol
# Density = 1.791784 g / cm^3
# Si number density = 17.958711 Si / 1000 Ang^3
#
#
#
# Elastic Constant Matrix: (Units=GPa)
#
#
# Indices 1 2 3 4 5 6 
#
# 1 127.3382 45.1890 50.1919 0.0000 0.0000 0.0000
# 2 45.1890 85.8210 47.4114 0.0000 0.0000 0.0000
# 3 50.1919 47.4114 98.5203 0.0000 0.0000 0.0000
# 4 0.0000 0.0000 0.0000 37.1736 0.0000 0.0000
# 5 0.0000 0.0000 0.0000 0.0000 19.3833 0.0000
# 6 0.0000 0.0000 0.0000 0.0000 0.0000 21.4955
#
#
#
# Elastic Compliance Matrix: (Units=1/GPa)
#
#
# Indices 1 2 3 4 5 6 
#
# 1 0.010555 -0.003524 -0.003681 0.000000 0.000000 0.000000
# 2 -0.003524 0.017048 -0.006409 0.000000 0.000000 0.000000
# 3 -0.003681 -0.006409 0.015110 0.000000 0.000000 0.000000
# 4 0.000000 0.000000 0.000000 0.026901 0.000000 0.000000
# 5 0.000000 0.000000 0.000000 0.000000 0.051591 0.000000
# 6 0.000000 0.000000 0.000000 0.000000 0.000000 0.046521
#
#
# Mechanical properties :
#
#
# Convention : Reuss Voigt Hill
#
# Bulk Modulus (GPa) = 64.58067 66.36269 65.47168
# Shear Modulus (GPa) = 24.98556 26.86962 25.92759
#
# Velocity S-wave (km/s) = 3.73403 3.87226 3.80377
# Velocity P-wave (km/s) = 7.39117 7.55153 7.47178
#
# Compressibility (1/GPa) = 0.01548451
#
# Stress axis : x y z
#
# Youngs Moduli (GPa) = 94.74483 58.65721 66.18175
#
# Poissons Ratio (x) = 0.20670 0.24364
# Poissons Ratio (y) = 0.33386 0.42416
# Poissons Ratio (z) = 0.34879 0.37593
#
# Static dielectric constant tensor:
#      x y z
#    x 3.282610 0.000000 0.000000 
#    y 0.000000 3.213930 0.000000 
#    z 0.000000 0.000000 3.455710 
# 
# 
# High freq. dielectric constant tensor:
#      x y z
#    x 1.681630 0.000000 0.000000 
#    y 0.000000 1.683110 0.000000 
#    z 0.000000 0.000000 1.697560 
# 
# From -- ./inp_files/35543.got.cif
#   From: 2010.03.12/outbox.cif.g09.slc.cpg/sg53_18_cif.got.tgz:35543.got - 2010.04.16 14:36:59.
