data_PCOD8217036
_publ_section_title
;
Structure prediction by ZEFSAII (Michael W. Deem and Ramdas Pophale) SiO2 
 PCOD8217036
Probable space group: P N N A
;
_chemical_formula_sum "Si O2"
_cell_formula_units_Z 52
_cell_length_a 19.888460
_cell_length_b 12.860872
_cell_length_c 9.032905
_cell_angle_alpha 90.000000
_cell_angle_beta 90.000000
_cell_angle_gamma 90.000000
_cell_volume 2310.462983
_symmetry_space_group_name_H-M "P N N A"
_symmetry_group_IT_number 52
_symmetry_cell_setting 'orthorhombic'
loop_
_space_group_symop_operation_xyz
x,y,z
1/2-x,-y,z
x,1/2-y,1/2-z
1/2-x,1/2+y,1/2-z
-x,-y,-z
1/2+x,y,-z
-x,1/2+y,1/2+z
1/2+x,1/2-y,1/2+z
loop_
_atom_site_type_symbol
_atom_site_label
_atom_site_fract_x
_atom_site_fract_y
_atom_site_fract_z
Si Si1 0.362573 0.750000 0.250000
Si Si2 0.239792 0.891837 0.232039
Si Si3 0.702637 0.913141 0.164153
Si Si4 0.201465 0.250000 0.750000
Si Si5 0.489629 0.250000 0.250000
Si Si6 0.651523 0.570846 0.012671
Si Si7 0.376419 0.200565 0.051266
Si Si8 0.404087 0.849805 0.540311
O O1 0.315116 0.849755 0.240179
O O2 0.407912 0.773021 0.396370
O O3 0.209383 0.925100 0.390452
O O4 0.191704 0.810063 0.148700
O O5 0.250000 0.000000 0.142858
O O6 0.749104 0.812254 0.142623
O O7 0.686592 0.943365 0.330413
O O8 0.750000 0.000000 0.091184
O O9 0.632547 0.885906 0.078380
O O10 0.159794 0.175519 0.642648
O O11 0.441393 0.174075 0.151852
O O12 0.531733 0.174109 0.356556
O O13 0.600688 0.471781 0.992760
O O14 0.612465 0.681591 0.007994
#
# Coordination Sequence:
#
# PCOD8217036 Si02
#       8
#     4   8   8   4   4   8   8   8
#     4  12  21  40  68 106 135 172 236 280 362 424
#     4  12  22  38  70 104 144 168 211 296 367 433
#     4  12  23  38  71 111 142 171 221 290 360 438
#     4  11  20  40  66 102 148 175 206 280 374 411
#     4  11  27  54  66  86 145 199 246 294 330 391
#     4  12  21  42  69 104 135 183 221 273 361 427
#     4  12  24  45  68  99 139 186 234 285 344 408
#     4  11  26  43  70  95 138 191 233 287 335 421
#
# _framework density 22.506312999999999
#
# number of rings (size 3 to 8) (size 9 to 14) (size 15 to 20)
#    0.000    0.308    7.692    2.769    0.000    0.615 
#    2.769    0.769    0.000    0.000    0.000    0.000 
#    0.000    0.000    0.000    0.000    0.000    0.000 
#
# Total GULP energy -644250.811808 kJ/mol
# GULP energy per Si atom -12389.438689 kJ/mol
# Density = 2.245509 g / cm^3
# Si number density = 22.506313 Si / 1000 Ang^3
#
#
#
# Elastic Constant Matrix: (Units=GPa)
#
#
# Indices 1 2 3 4 5 6 
#
# 1 100.6998 43.4876 45.1464 0.0000 0.0000 0.0000
# 2 43.4876 151.2557 41.0435 0.0000 0.0000 0.0000
# 3 45.1464 41.0435 145.0390 0.0000 0.0000 0.0000
# 4 0.0000 0.0000 0.0000 15.5296 0.0000 0.0000
# 5 0.0000 0.0000 0.0000 0.0000 44.2818 0.0000
# 6 0.0000 0.0000 0.0000 0.0000 0.0000 22.7737
#
#
#
# Elastic Compliance Matrix: (Units=1/GPa)
#
#
# Indices 1 2 3 4 5 6 
#
# 1 0.012517 -0.002753 -0.003117 0.000000 0.000000 0.000000
# 2 -0.002753 0.007767 -0.001341 0.000000 0.000000 0.000000
# 3 -0.003117 -0.001341 0.008244 0.000000 0.000000 0.000000
# 4 0.000000 0.000000 0.000000 0.064393 0.000000 0.000000
# 5 0.000000 0.000000 0.000000 0.000000 0.022583 0.000000
# 6 0.000000 0.000000 0.000000 0.000000 0.000000 0.043910
#
#
# Mechanical properties :
#
#
# Convention : Reuss Voigt Hill
#
# Bulk Modulus (GPa) = 70.89149 72.92772 71.90961
# Shear Modulus (GPa) = 28.00528 34.33815 31.17172
#
# Velocity S-wave (km/s) = 3.53133 3.91027 3.72562
# Velocity P-wave (km/s) = 6.94219 7.27053 7.10825
#
# Compressibility (1/GPa) = 0.01410606
#
# Stress axis : x y z
#
# Youngs Moduli (GPa) = 79.89238 128.75523 121.29407
#
# Poissons Ratio (x) = 0.35445 0.37809
# Poissons Ratio (y) = 0.21993 0.16265
# Poissons Ratio (z) = 0.24903 0.17265
#
# Static dielectric constant tensor:
#      x y z
#    x 3.768390 0.000000 0.000000 
#    y 0.000000 6.728540 0.000000 
#    z 0.000000 0.000000 4.331820 
# 
# 
# High freq. dielectric constant tensor:
#      x y z
#    x 1.848970 0.000000 0.000000 
#    y 0.000000 1.893500 0.000000 
#    z 0.000000 0.000000 1.907890 
# 
# From -- ./inp_files/13412.got.cif
#   From: 2010.06.25/outbox.cif.g09.slc.cpg/sg52_7_cif.got.tgz:13412.got - 2010.06.26 19:32:48.
