data_PCOD8217490
_publ_section_title
;
Structure prediction by ZEFSAII (Michael W. Deem and Ramdas Pophale) SiO2 
 PCOD8217490
Probable space group: P M N A
;
_chemical_formula_sum "Si O2"
_cell_formula_units_Z 44
_cell_length_a 25.205158
_cell_length_b 16.278225
_cell_length_c 5.310111
_cell_angle_alpha 90.000000
_cell_angle_beta 90.000000
_cell_angle_gamma 90.000000
_cell_volume 2178.713230
_symmetry_space_group_name_H-M "P M N A"
_symmetry_group_IT_number 53
_symmetry_cell_setting 'orthorhombic'
loop_
_space_group_symop_operation_xyz
x,y,z
1/2-x,-y,1/2+z
x,-y,-z
1/2-x,y,1/2-z
-x,-y,-z
1/2+x,y,1/2-z
-x,y,z
1/2+x,-y,1/2+z
loop_
_atom_site_type_symbol
_atom_site_label
_atom_site_fract_x
_atom_site_fract_y
_atom_site_fract_z
Si Si1 0.843538 0.708887 0.059969
Si Si2 0.250000 0.737915 0.750000
Si Si3 0.187463 0.547542 0.250933
Si Si4 0.088200 0.908285 0.470816
Si Si5 0.439940 0.808750 0.530928
Si Si6 0.801599 0.142940 0.641075
O O1 0.843340 0.635622 0.263648
O O2 0.826376 0.799773 0.143801
O O3 0.796520 0.680138 0.866165
O O4 0.903022 0.726543 0.959997
O O5 0.217774 0.794705 0.565203
O O6 0.168932 0.500000 0.500000
O O7 0.250000 0.563531 0.250000
O O8 0.168755 0.500000 0.000000
O O9 0.070924 0.859648 0.717148
O O10 0.152596 0.916328 0.461519
O O11 0.065034 0.000000 0.500000
O O12 0.067096 0.865098 0.218055
O O13 0.500000 0.776451 0.534944
O O14 0.750000 0.093187 0.750000
#
# Coordination Sequence:
#
# PCOD8217490 Si02
#       6
#     8   4   8   8   8   8
#     4  10  21  35  59  83 119 154 202 243 294 356
#     4  10  16  32  60  80 110 154 198 242 290 354
#     4  10  22  34  53  86 123 156 184 230 296 362
#     4  11  23  41  59  88 122 155 200 256 315 362
#     4  11  24  42  64  87 114 158 211 257 301 354
#     4   9  19  34  53  83 115 156 197 239 291 362
#
# _framework density 20.195406999999999
#
# number of rings (size 3 to 8) (size 9 to 14) (size 15 to 20)
#    0.000    1.818    1.818    2.727    6.364    2.182 
#    1.636    0.000    0.000    1.091    0.000    0.000 
#    0.000    0.000    0.000    0.000    0.000    0.182 
#
# Total GULP energy -545121.961413 kJ/mol
# GULP energy per Si atom -12389.135487 kJ/mol
# Density = 2.014944 g / cm^3
# Si number density = 20.195407 Si / 1000 Ang^3
#
#
#
# Elastic Constant Matrix: (Units=GPa)
#
#
# Indices 1 2 3 4 5 6 
#
# 1 142.5269 41.6059 43.2255 0.0000 0.0000 0.0000
# 2 41.6059 83.3242 29.4282 0.0000 0.0000 0.0000
# 3 43.2255 29.4282 121.3674 0.0000 0.0000 0.0000
# 4 0.0000 0.0000 0.0000 22.9134 0.0000 0.0000
# 5 0.0000 0.0000 0.0000 0.0000 13.0229 0.0000
# 6 0.0000 0.0000 0.0000 0.0000 0.0000 -7.3972
#
#
#
# Elastic Compliance Matrix: (Units=1/GPa)
#
#
# Indices 1 2 3 4 5 6 
#
# 1 0.008740 -0.003570 -0.002247 0.000000 0.000000 0.000000
# 2 -0.003570 0.014584 -0.002265 0.000000 0.000000 0.000000
# 3 -0.002247 -0.002265 0.009589 0.000000 0.000000 0.000000
# 4 0.000000 0.000000 0.000000 0.043643 0.000000 0.000000
# 5 0.000000 0.000000 0.000000 0.000000 0.076788 0.000000
# 6 0.000000 0.000000 0.000000 0.000000 0.000000 -0.135186
#
#
# Mechanical properties :
#
#
# Convention : Reuss Voigt Hill
#
# Bulk Modulus (GPa) = 59.70652 63.97086 61.83869
# Shear Modulus (GPa) = 125.30099 21.23842 73.26971
#
# Velocity S-wave (km/s) = 7.88537 3.24643 6.02985
# Velocity P-wave (km/s) = 10.60820 6.76736 8.89750
#
# Compressibility (1/GPa) = 0.01674859
#
# Stress axis : x y z
#
# Youngs Moduli (GPa) = 114.41665 68.56856 104.28808
#
# Poissons Ratio (x) = 0.24482 0.23434
# Poissons Ratio (y) = 0.40852 0.23617
# Poissons Ratio (z) = 0.25710 0.15528
#
# Static dielectric constant tensor:
#      x y z
#    x 4.060450 0.000000 0.000000 
#    y 0.000000 3.375770 0.000000 
#    z 0.000000 0.000000 3.927840 
# 
# 
# High freq. dielectric constant tensor:
#      x y z
#    x 1.776800 0.000000 0.000000 
#    y 0.000000 1.759700 0.000000 
#    z 0.000000 0.000000 1.802180 
# 
# From -- ./inp_files/4421.got.cif
#   From: 2010.03.12/outbox.cif.g09.slc.cpg/sg53_3_cif.got.tgz:4421.got - 2010.04.16 14:36:59.
