data_PCOD8217836
_publ_section_title
;
Structure prediction by ZEFSAII (Michael W. Deem and Ramdas Pophale) SiO2 
 PCOD8217836
Probable space group: P M N A
;
_chemical_formula_sum "Si O2"
_cell_formula_units_Z 56
_cell_length_a 9.140253
_cell_length_b 21.683498
_cell_length_c 14.751551
_cell_angle_alpha 90.000000
_cell_angle_beta 90.000000
_cell_angle_gamma 90.000000
_cell_volume 2923.649097
_symmetry_space_group_name_H-M "P M N A"
_symmetry_group_IT_number 53
_symmetry_cell_setting 'orthorhombic'
loop_
_space_group_symop_operation_xyz
x,y,z
1/2-x,-y,1/2+z
x,-y,-z
1/2-x,y,1/2-z
-x,-y,-z
1/2+x,y,1/2-z
-x,y,z
1/2+x,-y,1/2+z
loop_
_atom_site_type_symbol
_atom_site_label
_atom_site_fract_x
_atom_site_fract_y
_atom_site_fract_z
Si Si1 0.343313 0.474479 0.173362
Si Si2 0.158865 0.361381 0.451939
Si Si3 0.673258 0.905533 0.338132
Si Si4 0.673586 0.241372 0.153550
Si Si5 0.335820 0.023019 0.100832
Si Si6 0.339292 0.441321 0.566600
Si Si7 0.826561 0.860194 0.960991
O O1 0.250000 0.439798 0.250000
O O2 0.500000 0.492243 0.214141
O O3 0.361384 0.428434 0.091016
O O4 0.266005 0.538900 0.148119
O O5 0.207704 0.311220 0.377730
O O6 0.281166 0.375467 0.527193
O O7 0.000000 0.341678 0.493073
O O8 0.750000 0.872868 0.250000
O O9 0.500000 0.911354 0.322632
O O10 0.706283 0.868320 0.431290
O O11 0.745389 0.973274 0.341907
O O12 0.750000 0.228865 0.250000
O O13 0.500000 0.228245 0.162003
O O14 0.746077 0.200794 0.074142
O O15 0.500000 0.033643 0.141744
O O16 0.240864 0.085241 0.100035
O O17 0.354257 0.000000 0.000000
O O18 0.346326 0.500000 0.500000
O O19 0.500000 0.426260 0.603293
O O20 0.000000 0.857168 0.943630
#
# Coordination Sequence:
#
# PCOD8217836 Si02
#       7
#     8   8   8   8   8   8   8
#     4  10  18  29  47  72 103 133 163 202 250 303
#     4   9  19  34  51  72  99 132 168 209 255 304
#     4  10  20  34  55  82 110 140 176 219 266 319
#     4  11  23  38  56  78 105 139 180 222 266 317
#     4   9  17  31  52  77 105 136 170 210 258 310
#     4   9  17  29  47  71  97 127 163 202 247 299
#     4  10  21  37  55  78 110 144 179 222 270 317
#
# _framework density 19.154145
#
# number of rings (size 3 to 8) (size 9 to 14) (size 15 to 20)
#    0.000    2.286    0.000    3.000    0.000    7.429 
#    0.000    2.857    0.000    0.857    0.000    2.000 
#    0.000    0.000    0.000    0.000    0.000    0.000 
#
# Total GULP energy -693824.304863 kJ/mol
# GULP energy per Si atom -12389.719730 kJ/mol
# Density = 1.911055 g / cm^3
# Si number density = 19.154145 Si / 1000 Ang^3
#
#
#
# Elastic Constant Matrix: (Units=GPa)
#
#
# Indices 1 2 3 4 5 6 
#
# 1 168.4333 50.9671 52.1418 0.0000 0.0000 0.0000
# 2 50.9671 65.1406 39.2387 0.0000 0.0000 0.0000
# 3 52.1418 39.2387 71.4403 0.0000 0.0000 0.0000
# 4 0.0000 0.0000 0.0000 26.1338 0.0000 0.0000
# 5 0.0000 0.0000 0.0000 0.0000 33.1319 0.0000
# 6 0.0000 0.0000 0.0000 0.0000 0.0000 25.2444
#
#
#
# Elastic Compliance Matrix: (Units=1/GPa)
#
#
# Indices 1 2 3 4 5 6 
#
# 1 0.008408 -0.004307 -0.003771 0.000000 0.000000 0.000000
# 2 -0.004307 0.025148 -0.010669 0.000000 0.000000 0.000000
# 3 -0.003771 -0.010669 0.022610 0.000000 0.000000 0.000000
# 4 0.000000 0.000000 0.000000 0.038265 0.000000 0.000000
# 5 0.000000 0.000000 0.000000 0.000000 0.030182 0.000000
# 6 0.000000 0.000000 0.000000 0.000000 0.000000 0.039613
#
#
# Mechanical properties :
#
#
# Convention : Reuss Voigt Hill
#
# Bulk Modulus (GPa) = 53.55667 65.52327 59.53997
# Shear Modulus (GPa) = 24.04505 27.74645 25.89575
#
# Velocity S-wave (km/s) = 3.54693 3.81016 3.68090
# Velocity P-wave (km/s) = 6.69297 7.32387 7.01552
#
# Compressibility (1/GPa) = 0.01867181
#
# Stress axis : x y z
#
# Youngs Moduli (GPa) = 118.93935 39.76483 44.22821
#
# Poissons Ratio (x) = 0.17126 0.16678
# Poissons Ratio (y) = 0.51225 0.47188
# Poissons Ratio (z) = 0.44851 0.42426
#
# Static dielectric constant tensor:
#      x y z
#    x 3.960160 0.000000 0.000000 
#    y 0.000000 3.259500 0.000000 
#    z 0.000000 0.000000 3.428770 
# 
# 
# High freq. dielectric constant tensor:
#      x y z
#    x 1.769930 0.000000 0.000000 
#    y 0.000000 1.709060 0.000000 
#    z 0.000000 0.000000 1.729170 
# 
# From -- ./inp_files/20656.got.cif
#   From: 2010.03.12/outbox.cif.g09.slc.cpg/sg53_11_cif.got.tgz:20656.got - 2010.04.16 14:36:59.
