data_PCOD8217768
_publ_section_title
;
Structure prediction by ZEFSAII (Michael W. Deem and Ramdas Pophale) SiO2 
 PCOD8217768
Probable space group: P M N A
;
_chemical_formula_sum "Si O2"
_cell_formula_units_Z 44
_cell_length_a 9.820779
_cell_length_b 11.604476
_cell_length_c 23.259628
_cell_angle_alpha 90.000000
_cell_angle_beta 90.000000
_cell_angle_gamma 90.000000
_cell_volume 2650.783370
_symmetry_space_group_name_H-M "P M N A"
_symmetry_group_IT_number 53
_symmetry_cell_setting 'orthorhombic'
loop_
_space_group_symop_operation_xyz
x,y,z
1/2-x,-y,1/2+z
x,-y,-z
1/2-x,y,1/2-z
-x,-y,-z
1/2+x,y,1/2-z
-x,y,z
1/2+x,-y,1/2+z
loop_
_atom_site_type_symbol
_atom_site_label
_atom_site_fract_x
_atom_site_fract_y
_atom_site_fract_z
Si Si1 0.345183 0.485605 0.564504
Si Si2 0.847721 0.644631 0.353444
Si Si3 0.250000 0.504957 0.750000
Si Si4 0.152919 0.116929 0.697025
Si Si5 0.150091 0.674804 0.844181
Si Si6 0.659364 0.138337 0.193142
O O1 0.289317 0.500000 0.500000
O O2 0.500000 0.439660 0.563920
O O3 0.255794 0.392696 0.597693
O O4 0.334495 0.607358 0.596320
O O5 0.834645 0.577825 0.292562
O O6 0.819562 0.781155 0.347696
O O7 0.000000 0.622116 0.375770
O O8 0.158098 0.588025 0.789676
O O9 0.250000 0.134565 0.750000
O O10 0.000000 0.125332 0.721527
O O11 0.173970 0.991054 0.667659
O O12 0.271125 0.768694 0.848727
O O13 0.000000 0.732986 0.840912
O O14 0.750000 0.148671 0.250000
O O15 0.500000 0.169597 0.204037
#
# Coordination Sequence:
#
# PCOD8217768 Si02
#       6
#     8   8   4   8   8   8
#     4   9  20  37  53  71  96 127 163 204 249 291
#     4  10  19  31  50  74 100 128 161 201 241 289
#     4  10  18  28  46  70 104 126 156 188 242 288
#     4   9  18  31  46  69  99 131 162 195 234 283
#     4  10  19  30  48  71  97 127 158 196 239 288
#     4  10  19  30  46  68  99 132 162 194 233 282
#
# _framework density 16.598866000000001
#
# number of rings (size 3 to 8) (size 9 to 14) (size 15 to 20)
#    0.000    2.364    1.818    1.091    0.000    5.455 
#    0.000    0.000    0.000    1.091    0.000    7.636 
#    0.000    0.000    0.000    0.000    0.000    0.000 
#
# Total GULP energy -545285.770990 kJ/mol
# GULP energy per Si atom -12392.858432 kJ/mol
# Density = 1.656109 g / cm^3
# Si number density = 16.598866 Si / 1000 Ang^3
#
#
#
# Elastic Constant Matrix: (Units=GPa)
#
#
# Indices 1 2 3 4 5 6 
#
# 1 117.0642 64.9155 43.7232 0.0000 0.0000 0.0000
# 2 64.9155 106.2699 40.1010 0.0000 0.0000 0.0000
# 3 43.7232 40.1010 95.5658 0.0000 0.0000 0.0000
# 4 0.0000 0.0000 0.0000 10.3481 0.0000 0.0000
# 5 0.0000 0.0000 0.0000 0.0000 19.3780 0.0000
# 6 0.0000 0.0000 0.0000 0.0000 0.0000 35.4271
#
#
#
# Elastic Compliance Matrix: (Units=1/GPa)
#
#
# Indices 1 2 3 4 5 6 
#
# 1 0.013734 -0.007150 -0.003283 0.000000 0.000000 0.000000
# 2 -0.007150 0.014903 -0.002982 0.000000 0.000000 0.000000
# 3 -0.003283 -0.002982 0.013217 0.000000 0.000000 0.000000
# 4 0.000000 0.000000 0.000000 0.096636 0.000000 0.000000
# 5 0.000000 0.000000 0.000000 0.000000 0.051605 0.000000
# 6 0.000000 0.000000 0.000000 0.000000 0.000000 0.028227
#
#
# Mechanical properties :
#
#
# Convention : Reuss Voigt Hill
#
# Bulk Modulus (GPa) = 66.56422 68.48660 67.52541
# Shear Modulus (GPa) = 19.98715 24.37465 22.18090
#
# Velocity S-wave (km/s) = 3.47382 3.83620 3.65950
# Velocity P-wave (km/s) = 7.50191 7.80841 7.65669
#
# Compressibility (1/GPa) = 0.01502309
#
# Stress axis : x y z
#
# Youngs Moduli (GPa) = 72.81401 67.09968 75.65788
#
# Poissons Ratio (x) = 0.47979 0.24838
# Poissons Ratio (y) = 0.52065 0.22563
# Poissons Ratio (z) = 0.23905 0.20010
#
# Static dielectric constant tensor:
#      x y z
#    x 3.297820 0.000000 0.000000 
#    y 0.000000 3.397670 0.000000 
#    z 0.000000 0.000000 2.810770 
# 
# 
# High freq. dielectric constant tensor:
#      x y z
#    x 1.653680 0.000000 0.000000 
#    y 0.000000 1.645350 0.000000 
#    z 0.000000 0.000000 1.595260 
# 
# From -- ./inp_files/33745.got.cif
#   From: 2010.03.12/outbox.cif.g09.slc.cpg/sg53_17_cif.got.tgz:33745.got - 2010.04.16 14:36:59.
