data_PCOD8217455
_publ_section_title
;
Structure prediction by ZEFSAII (Michael W. Deem and Ramdas Pophale) SiO2 
 PCOD8217455
Probable space group: P M N A
;
_chemical_formula_sum "Si O2"
_cell_formula_units_Z 36
_cell_length_a 14.075434
_cell_length_b 9.346293
_cell_length_c 16.354864
_cell_angle_alpha 90.000000
_cell_angle_beta 90.000000
_cell_angle_gamma 90.000000
_cell_volume 2151.533554
_symmetry_space_group_name_H-M "P M N A"
_symmetry_group_IT_number 53
_symmetry_cell_setting 'orthorhombic'
loop_
_space_group_symop_operation_xyz
x,y,z
1/2-x,-y,1/2+z
x,-y,-z
1/2-x,y,1/2-z
-x,-y,-z
1/2+x,y,1/2-z
-x,y,z
1/2+x,-y,1/2+z
loop_
_atom_site_type_symbol
_atom_site_label
_atom_site_fract_x
_atom_site_fract_y
_atom_site_fract_z
Si Si1 0.202774 0.336932 0.837561
Si Si2 0.500000 0.471688 0.143122
Si Si3 0.201302 0.155998 0.527504
Si Si4 0.500000 0.683858 0.274212
Si Si5 0.807540 0.412066 0.420913
Si Si6 0.500000 0.219757 0.902196
O O1 0.250000 0.319708 0.750000
O O2 0.241514 0.211065 0.894359
O O3 0.091141 0.305971 0.832347
O O4 0.228307 0.496212 0.871653
O O5 0.500000 0.524379 0.236677
O O6 0.596638 0.382955 0.131092
O O7 0.500000 0.390495 0.918026
O O8 0.227755 0.256670 0.449744
O O9 0.090802 0.151816 0.553294
O O10 0.235230 0.000000 0.500000
O O11 0.500000 0.799541 0.198100
O O12 0.838353 0.500000 0.500000
#
# Coordination Sequence:
#
# PCOD8217455 Si02
#       6
#     8   4   8   4   8   4
#     4  11  18  35  58  77 105 137 182 220 265 317
#     4  10  14  27  56  82 104 121 170 233 268 299
#     4  11  22  34  52  82 114 144 174 215 269 321
#     4  10  18  31  57  85  97 134 181 224 266 313
#     4  10  17  30  53  78 103 132 171 219 263 302
#     4  10  16  31  57  81 109 131 173 228 273 314
#
# _framework density 16.732250000000001
#
# number of rings (size 3 to 8) (size 9 to 14) (size 15 to 20)
#    0.667    0.889    8.889    1.333    0.000    0.000 
#    0.000    6.667    0.000    0.000    0.000    0.000 
#    0.000    0.000    0.000    0.000    0.000    0.000 
#
# Total GULP energy -446009.275944 kJ/mol
# GULP energy per Si atom -12389.146554 kJ/mol
# Density = 1.669417 g / cm^3
# Si number density = 16.732250 Si / 1000 Ang^3
#
#
#
# Elastic Constant Matrix: (Units=GPa)
#
#
# Indices 1 2 3 4 5 6 
#
# 1 109.3389 28.5387 41.6616 0.0000 0.0000 0.0000
# 2 28.5387 112.8459 50.1004 0.0000 0.0000 0.0000
# 3 41.6616 50.1004 84.3875 0.0000 0.0000 0.0000
# 4 0.0000 0.0000 0.0000 18.3708 0.0000 0.0000
# 5 0.0000 0.0000 0.0000 0.0000 27.9327 0.0000
# 6 0.0000 0.0000 0.0000 0.0000 0.0000 15.9231
#
#
#
# Elastic Compliance Matrix: (Units=1/GPa)
#
#
# Indices 1 2 3 4 5 6 
#
# 1 0.011287 -0.000517 -0.005266 0.000000 0.000000 0.000000
# 2 -0.000517 0.012057 -0.006903 0.000000 0.000000 0.000000
# 3 -0.005266 -0.006903 0.018548 0.000000 0.000000 0.000000
# 4 0.000000 0.000000 0.000000 0.054434 0.000000 0.000000
# 5 0.000000 0.000000 0.000000 0.000000 0.035800 0.000000
# 6 0.000000 0.000000 0.000000 0.000000 0.000000 0.062802
#
#
# Mechanical properties :
#
#
# Convention : Reuss Voigt Hill
#
# Bulk Modulus (GPa) = 60.52777 60.79707 60.66242
# Shear Modulus (GPa) = 22.14282 24.86341 23.50312
#
# Velocity S-wave (km/s) = 3.64175 3.85899 3.75194
# Velocity P-wave (km/s) = 7.34411 7.50133 7.42314
#
# Compressibility (1/GPa) = 0.01652134
#
# Stress axis : x y z
#
# Youngs Moduli (GPa) = 88.59663 82.93844 53.91398
#
# Poissons Ratio (x) = 0.04286 0.28389
# Poissons Ratio (y) = 0.04578 0.37218
# Poissons Ratio (z) = 0.46651 0.57254
#
# Static dielectric constant tensor:
#      x y z
#    x 3.149410 0.000000 0.000000 
#    y 0.000000 3.049840 0.000000 
#    z 0.000000 0.000000 3.206390 
# 
# 
# High freq. dielectric constant tensor:
#      x y z
#    x 1.637180 0.000000 0.000000 
#    y 0.000000 1.607040 0.000000 
#    z 0.000000 0.000000 1.639970 
# 
# From -- ./inp_files/22328.got.cif
#   From: 2010.03.12/outbox.cif.g09.slc.cpg/sg53_12_cif.got.tgz:22328.got - 2010.04.16 14:36:59.
