data_PCOD8217261
_publ_section_title
;
Structure prediction by ZEFSAII (Michael W. Deem and Ramdas Pophale) SiO2 
 PCOD8217261
Probable space group: P N N A
;
_chemical_formula_sum "Si O2"
_cell_formula_units_Z 28
_cell_length_a 22.614098
_cell_length_b 7.701326
_cell_length_c 7.058050
_cell_angle_alpha 90.000000
_cell_angle_beta 90.000000
_cell_angle_gamma 90.000000
_cell_volume 1229.219690
_symmetry_space_group_name_H-M "P N N A"
_symmetry_group_IT_number 52
_symmetry_cell_setting 'orthorhombic'
loop_
_space_group_symop_operation_xyz
x,y,z
1/2-x,-y,z
x,1/2-y,1/2-z
1/2-x,1/2+y,1/2-z
-x,-y,-z
1/2+x,y,-z
-x,1/2+y,1/2+z
1/2+x,1/2-y,1/2+z
loop_
_atom_site_type_symbol
_atom_site_label
_atom_site_fract_x
_atom_site_fract_y
_atom_site_fract_z
Si Si1 0.092597 0.879966 0.536178
Si Si2 0.900343 0.999300 0.873229
Si Si3 0.317239 0.555158 0.687706
Si Si4 0.490364 0.750000 0.250000
O O1 0.104078 0.000526 0.355474
O O2 0.086163 0.682803 0.466253
O O3 0.030196 0.899939 0.646542
O O4 0.145095 0.920438 0.684004
O O5 0.950957 0.853711 0.907599
O O6 0.838361 0.944426 0.968553
O O7 0.250000 0.500000 0.701101
O O8 0.327090 0.750000 0.750000
#
# Coordination Sequence:
#
# PCOD8217261 Si02
#       4
#     8   8   8   4
#     4  11  24  43  69 103 141 181 231 289 352 423
#     4  11  24  43  68 105 139 182 232 289 351 422
#     4  12  26  47  72  97 137 185 238 293 358 427
#     4  12  22  44  70 106 148 182 232 286 362 418
#
# _framework density 22.778679
#
# number of rings (size 3 to 8) (size 9 to 14) (size 15 to 20)
#    0.000    0.571    2.857    5.143    0.000    1.143 
#    0.000    2.857    0.000    0.000    0.000    0.000 
#    0.000    0.000    0.000    0.000    0.000    0.000 
#
# Total GULP energy -346879.498881 kJ/mol
# GULP energy per Si atom -12388.553531 kJ/mol
# Density = 2.272683 g / cm^3
# Si number density = 22.778679 Si / 1000 Ang^3
#
#
#
# Elastic Constant Matrix: (Units=GPa)
#
#
# Indices 1 2 3 4 5 6 
#
# 1 163.0323 54.3637 68.8034 0.0000 0.0000 0.0000
# 2 54.3637 102.6415 32.3717 0.0000 0.0000 0.0000
# 3 68.8034 32.3717 147.7883 0.0000 0.0000 0.0000
# 4 0.0000 0.0000 0.0000 39.4250 0.0000 0.0000
# 5 0.0000 0.0000 0.0000 0.0000 31.7257 0.0000
# 6 0.0000 0.0000 0.0000 0.0000 0.0000 30.4367
#
#
#
# Elastic Compliance Matrix: (Units=1/GPa)
#
#
# Indices 1 2 3 4 5 6 
#
# 1 0.008708 -0.003581 -0.003270 0.000000 0.000000 0.000000
# 2 -0.003581 0.011938 -0.000948 0.000000 0.000000 0.000000
# 3 -0.003270 -0.000948 0.008496 0.000000 0.000000 0.000000
# 4 0.000000 0.000000 0.000000 0.025365 0.000000 0.000000
# 5 0.000000 0.000000 0.000000 0.000000 0.031520 0.000000
# 6 0.000000 0.000000 0.000000 0.000000 0.000000 0.032855
#
#
# Mechanical properties :
#
#
# Convention : Reuss Voigt Hill
#
# Bulk Modulus (GPa) = 73.82498 80.50443 77.16471
# Shear Modulus (GPa) = 35.97294 37.51237 36.74266
#
# Velocity S-wave (km/s) = 3.97827 4.06250 4.02061
# Velocity P-wave (km/s) = 7.31999 7.57786 7.45004
#
# Compressibility (1/GPa) = 0.01354555
#
# Stress axis : x y z
#
# Youngs Moduli (GPa) = 114.84233 83.76502 117.69973
#
# Poissons Ratio (x) = 0.29994 0.38482
# Poissons Ratio (y) = 0.41123 0.11157
# Poissons Ratio (z) = 0.37548 0.07940
#
# Static dielectric constant tensor:
#      x y z
#    x 4.138140 0.000000 0.000000 
#    y 0.000000 4.383590 0.000000 
#    z 0.000000 0.000000 4.543130 
# 
# 
# High freq. dielectric constant tensor:
#      x y z
#    x 1.887340 0.000000 0.000000 
#    y 0.000000 1.914820 0.000000 
#    z 0.000000 0.000000 1.906350 
# 
# From -- ./inp_files/12736.got.cif
#   From: 2010.06.25/outbox.cif.g09.slc.cpg/sg52_7_cif.got.tgz:12736.got - 2010.06.26 19:32:48.
