data_PCOD8217228
_publ_section_title
;
Structure prediction by ZEFSAII (Michael W. Deem and Ramdas Pophale) SiO2 
 PCOD8217228
Probable space group: P N N A
;
_chemical_formula_sum "Si O2"
_cell_formula_units_Z 48
_cell_length_a 14.892301
_cell_length_b 16.033891
_cell_length_c 9.593786
_cell_angle_alpha 90.000000
_cell_angle_beta 90.000000
_cell_angle_gamma 90.000000
_cell_volume 2290.818909
_symmetry_space_group_name_H-M "P N N A"
_symmetry_group_IT_number 52
_symmetry_cell_setting 'orthorhombic'
loop_
_space_group_symop_operation_xyz
x,y,z
1/2-x,-y,z
x,1/2-y,1/2-z
1/2-x,1/2+y,1/2-z
-x,-y,-z
1/2+x,y,-z
-x,1/2+y,1/2+z
1/2+x,1/2-y,1/2+z
loop_
_atom_site_type_symbol
_atom_site_label
_atom_site_fract_x
_atom_site_fract_y
_atom_site_fract_z
Si Si1 0.863696 0.333825 0.842023
Si Si2 0.750000 0.000000 0.273916
Si Si3 0.520559 0.606394 0.628673
Si Si4 0.688074 0.359211 0.027166
Si Si5 0.606380 0.250000 0.250000
Si Si6 0.999726 0.404417 0.052228
Si Si7 0.921742 0.065800 0.158054
O O1 0.862714 0.250000 0.750000
O O2 0.890361 0.404027 0.726763
O O3 0.770608 0.348616 0.921005
O O4 0.944738 0.340474 0.953676
O O5 0.694846 0.060212 0.375042
O O6 0.815022 0.053310 0.174432
O O7 0.457137 0.678410 0.688720
O O8 0.555595 0.625971 0.472179
O O9 0.464762 0.523068 0.630639
O O10 0.600726 0.372123 0.933158
O O11 0.673329 0.279952 0.127350
O O12 0.957616 0.392248 0.203005
O O13 0.000000 0.500000 0.000000
#
# Coordination Sequence:
#
# PCOD8217228 Si02
#       7
#     8   4   8   8   4   8   8
#     4  12  24  44  66 100 141 181 226 293 358 413
#     4  12  20  44  66 106 130 182 236 296 340 424
#     4  11  23  46  67 100 141 178 227 301 358 408
#     4  12  25  39  74  99 138 181 239 284 350 429
#     4  12  22  48  70  94 144 194 222 288 368 424
#     4  12  20  44  73  99 131 186 238 281 349 428
#     4  11  24  41  73 101 131 179 243 289 348 423
#
# _framework density 20.953206000000002
#
# number of rings (size 3 to 8) (size 9 to 14) (size 15 to 20)
#    0.000    0.333    9.167    0.000    0.000    2.667 
#    6.000    1.667    0.000    0.000    0.000    0.000 
#    0.000    0.000    0.000    0.000    0.000    0.000 
#
# Total GULP energy -594884.018301 kJ/mol
# GULP energy per Si atom -12393.417048 kJ/mol
# Density = 2.090552 g / cm^3
# Si number density = 20.953206 Si / 1000 Ang^3
#
#
#
# Elastic Constant Matrix: (Units=GPa)
#
#
# Indices 1 2 3 4 5 6 
#
# 1 152.5199 20.9610 61.8153 0.0000 0.0000 0.0000
# 2 20.9610 46.5922 22.7191 0.0000 0.0000 0.0000
# 3 61.8153 22.7191 162.3608 0.0000 0.0000 0.0000
# 4 0.0000 0.0000 0.0000 26.2385 0.0000 0.0000
# 5 0.0000 0.0000 0.0000 0.0000 42.1993 0.0000
# 6 0.0000 0.0000 0.0000 0.0000 0.0000 37.8395
#
#
#
# Elastic Compliance Matrix: (Units=1/GPa)
#
#
# Indices 1 2 3 4 5 6 
#
# 1 0.007969 -0.002260 -0.002718 0.000000 0.000000 0.000000
# 2 -0.002260 0.023675 -0.002453 0.000000 0.000000 0.000000
# 3 -0.002718 -0.002453 0.007537 0.000000 0.000000 0.000000
# 4 0.000000 0.000000 0.000000 0.038112 0.000000 0.000000
# 5 0.000000 0.000000 0.000000 0.000000 0.023697 0.000000
# 6 0.000000 0.000000 0.000000 0.000000 0.000000 0.026427
#
#
# Mechanical properties :
#
#
# Convention : Reuss Voigt Hill
#
# Bulk Modulus (GPa) = 41.11667 63.60707 52.36187
# Shear Modulus (GPa) = 33.24817 38.32060 35.78439
#
# Velocity S-wave (km/s) = 3.98776 4.28116 4.13707
# Velocity P-wave (km/s) = 6.39286 7.40678 6.91842
#
# Compressibility (1/GPa) = 0.02432103
#
# Stress axis : x y z
#
# Youngs Moduli (GPa) = 125.49386 42.23804 132.67906
#
# Poissons Ratio (x) = 0.09545 0.36057
# Poissons Ratio (y) = 0.28358 0.32540
# Poissons Ratio (z) = 0.34105 0.10359
#
# Static dielectric constant tensor:
#      x y z
#    x 4.062250 0.000000 0.000000 
#    y 0.000000 3.834170 0.000000 
#    z 0.000000 0.000000 4.486310 
# 
# 
# High freq. dielectric constant tensor:
#      x y z
#    x 1.830230 0.000000 0.000000 
#    y 0.000000 1.806490 0.000000 
#    z 0.000000 0.000000 1.833450 
# 
# From -- ./inp_files/10538.got.cif
#   From: 2010.06.25/outbox.cif.g09.slc.cpg/sg52_6_cif.got.tgz:10538.got - 2010.06.26 19:32:48.
