data_PCOD8217199
_publ_section_title
;
Structure prediction by ZEFSAII (Michael W. Deem and Ramdas Pophale) SiO2 
 PCOD8217199
Probable space group: P N N A
;
_chemical_formula_sum "Si O2"
_cell_formula_units_Z 40
_cell_length_a 25.064833
_cell_length_b 8.530758
_cell_length_c 8.162883
_cell_angle_alpha 90.000000
_cell_angle_beta 90.000000
_cell_angle_gamma 90.000000
_cell_volume 1745.404170
_symmetry_space_group_name_H-M "P N N A"
_symmetry_group_IT_number 52
_symmetry_cell_setting 'orthorhombic'
loop_
_space_group_symop_operation_xyz
x,y,z
1/2-x,-y,z
x,1/2-y,1/2-z
1/2-x,1/2+y,1/2-z
-x,-y,-z
1/2+x,y,-z
-x,1/2+y,1/2+z
1/2+x,1/2-y,1/2+z
loop_
_atom_site_type_symbol
_atom_site_label
_atom_site_fract_x
_atom_site_fract_y
_atom_site_fract_z
Si Si1 0.659833 0.575419 0.275077
Si Si2 0.795895 0.750000 0.750000
Si Si3 0.250000 0.000000 0.018820
Si Si4 0.541813 0.925754 0.753258
Si Si5 0.380453 0.605402 0.023154
Si Si6 0.933970 0.918274 0.091259
O O1 0.679854 0.750000 0.250000
O O2 0.699271 0.493803 0.401660
O O3 0.601788 0.565426 0.355801
O O4 0.655648 0.494516 0.099695
O O5 0.756269 0.654195 0.631310
O O6 0.836891 0.632506 0.837192
O O7 0.567399 0.750000 0.750000
O O8 0.477560 0.902944 0.761173
O O9 0.567246 0.016744 0.598570
O O10 0.547453 0.035798 0.911269
O O11 0.400708 0.757185 0.924623
#
# Coordination Sequence:
#
# PCOD8217199 Si02
#       6
#     8   4   4   8   8   8
#     4  12  28  45  73 107 149 187 257 317 378 449
#     4  12  28  50  78 106 148 194 256 314 390 466
#     4  12  30  50  76 110 138 200 254 322 400 454
#     4  11  23  41  72 106 150 200 254 295 374 450
#     4  12  24  48  74 105 154 202 242 324 374 455
#     4  11  24  45  68 107 151 200 253 306 367 452
#
# _framework density 22.917327
#
# number of rings (size 3 to 8) (size 9 to 14) (size 15 to 20)
#    0.000    0.400    4.000    3.000    5.600    6.400 
#    1.800    0.000    0.000    0.000    0.000    0.000 
#    0.000    0.000    0.000    0.000    0.000    0.000 
#
# Total GULP energy -495609.714329 kJ/mol
# GULP energy per Si atom -12390.242858 kJ/mol
# Density = 2.286517 g / cm^3
# Si number density = 22.917327 Si / 1000 Ang^3
#
#
#
# Elastic Constant Matrix: (Units=GPa)
#
#
# Indices 1 2 3 4 5 6 
#
# 1 96.1937 29.4326 56.4946 0.0000 0.0000 0.0000
# 2 29.4326 109.8010 45.1821 0.0000 0.0000 0.0000
# 3 56.4946 45.1821 137.8695 0.0000 0.0000 0.0000
# 4 0.0000 0.0000 0.0000 16.6145 0.0000 0.0000
# 5 0.0000 0.0000 0.0000 0.0000 52.9150 0.0000
# 6 0.0000 0.0000 0.0000 0.0000 0.0000 24.3777
#
#
#
# Elastic Compliance Matrix: (Units=1/GPa)
#
#
# Indices 1 2 3 4 5 6 
#
# 1 0.013930 -0.001601 -0.005183 0.000000 0.000000 0.000000
# 2 -0.001601 0.010711 -0.002854 0.000000 0.000000 0.000000
# 3 -0.005183 -0.002854 0.010313 0.000000 0.000000 0.000000
# 4 0.000000 0.000000 0.000000 0.060188 0.000000 0.000000
# 5 0.000000 0.000000 0.000000 0.000000 0.018898 0.000000
# 6 0.000000 0.000000 0.000000 0.000000 0.000000 0.041021
#
#
# Mechanical properties :
#
#
# Convention : Reuss Voigt Hill
#
# Bulk Modulus (GPa) = 63.79031 67.34254 65.56643
# Shear Modulus (GPa) = 27.84537 32.96511 30.40524
#
# Velocity S-wave (km/s) = 3.48952 3.79679 3.64639
# Velocity P-wave (km/s) = 6.64312 6.97636 6.81178
#
# Compressibility (1/GPa) = 0.01567636
#
# Stress axis : x y z
#
# Youngs Moduli (GPa) = 71.78908 93.36202 96.96952
#
# Poissons Ratio (x) = 0.14948 0.50262
# Poissons Ratio (y) = 0.11494 0.27676
# Poissons Ratio (z) = 0.37210 0.26647
#
# Static dielectric constant tensor:
#      x y z
#    x 4.251330 0.000000 0.000000 
#    y 0.000000 4.274580 0.000000 
#    z 0.000000 0.000000 4.359240 
# 
# 
# High freq. dielectric constant tensor:
#      x y z
#    x 1.903580 0.000000 0.000000 
#    y 0.000000 1.909010 0.000000 
#    z 0.000000 0.000000 1.923350 
# 
# From -- ./inp_files/14072.got.cif
#   From: 2010.06.25/outbox.cif.g09.slc.cpg/sg52_8_cif.got.tgz:14072.got - 2010.06.26 19:32:48.
