data_PCOD8217855
_publ_section_title
;
Structure prediction by ZEFSAII (Michael W. Deem and Ramdas Pophale) SiO2 
 PCOD8217855
Probable space group: P M N A
;
_chemical_formula_sum "Si O2"
_cell_formula_units_Z 56
_cell_length_a 9.121965
_cell_length_b 14.193432
_cell_length_c 20.750323
_cell_angle_alpha 90.000000
_cell_angle_beta 90.000000
_cell_angle_gamma 90.000000
_cell_volume 2686.585611
_symmetry_space_group_name_H-M "P M N A"
_symmetry_group_IT_number 53
_symmetry_cell_setting 'orthorhombic'
loop_
_space_group_symop_operation_xyz
x,y,z
1/2-x,-y,1/2+z
x,-y,-z
1/2-x,y,1/2-z
-x,-y,-z
1/2+x,y,1/2-z
-x,y,z
1/2+x,-y,1/2+z
loop_
_atom_site_type_symbol
_atom_site_label
_atom_site_fract_x
_atom_site_fract_y
_atom_site_fract_z
Si Si1 0.827640 0.060449 0.683445
Si Si2 0.827111 0.614978 0.881779
Si Si3 0.160617 0.906988 0.585141
Si Si4 0.327876 0.238189 0.492051
Si Si5 0.170944 0.457047 0.682848
Si Si6 0.160253 0.241447 0.305129
Si Si7 0.832458 0.257420 0.623480
O O1 0.750000 0.032087 0.750000
O O2 0.789729 0.167789 0.666730
O O3 0.000000 0.041495 0.692582
O O4 0.770377 0.996273 0.623258
O O5 0.784791 0.673914 0.945888
O O6 0.745786 0.513928 0.877040
O O7 0.764034 0.669881 0.820156
O O8 0.000000 0.600005 0.876687
O O9 0.262851 0.864250 0.529056
O O10 0.139060 0.823612 0.634615
O O11 0.000000 0.933315 0.556079
O O12 0.500000 0.224139 0.493078
O O13 0.271224 0.264769 0.562026
O O14 0.250000 0.480878 0.750000
O O15 0.192766 0.347178 0.668287
O O16 0.000000 0.483886 0.687499
O O17 0.250000 0.185095 0.250000
O O18 0.000000 0.275090 0.281135
O O19 0.000000 0.249902 0.599260
#
# Coordination Sequence:
#
# PCOD8217855 Si02
#       7
#     8   8   8   8   8   8   8
#     4  10  21  38  60  87 116 151 192 235 284 336
#     4  10  21  37  56  80 111 146 184 231 282 336
#     4   9  19  35  56  81 113 150 186 227 279 337
#     4  10  22  39  60  86 115 149 191 235 283 335
#     4  11  23  39  60  86 114 149 190 234 284 337
#     4  10  18  29  48  76 109 145 182 224 275 332
#     4  10  23  41  60  82 114 154 193 234 283 337
#
# _framework density 20.844301000000002
#
# number of rings (size 3 to 8) (size 9 to 14) (size 15 to 20)
#    0.000    2.000    0.000    3.000    0.000    5.714 
#    0.000    5.714    0.000    0.000    0.000    0.000 
#    0.000    0.000    0.000    0.000    0.000    0.000 
#
# Total GULP energy -694179.290874 kJ/mol
# GULP energy per Si atom -12396.058766 kJ/mol
# Density = 2.079686 g / cm^3
# Si number density = 20.844301 Si / 1000 Ang^3
#
#
#
# Elastic Constant Matrix: (Units=GPa)
#
#
# Indices 1 2 3 4 5 6 
#
# 1 90.0173 28.5230 38.6527 0.0000 0.0000 0.0000
# 2 28.5230 101.1709 12.7409 0.0000 0.0000 0.0000
# 3 38.6527 12.7409 76.7501 0.0000 0.0000 0.0000
# 4 0.0000 0.0000 0.0000 4.7919 0.0000 0.0000
# 5 0.0000 0.0000 0.0000 0.0000 35.9319 0.0000
# 6 0.0000 0.0000 0.0000 0.0000 0.0000 24.9671
#
#
#
# Elastic Compliance Matrix: (Units=1/GPa)
#
#
# Indices 1 2 3 4 5 6 
#
# 1 0.015240 -0.003401 -0.007110 0.000000 0.000000 0.000000
# 2 -0.003401 0.010854 -0.000089 0.000000 0.000000 0.000000
# 3 -0.007110 -0.000089 0.016625 0.000000 0.000000 0.000000
# 4 0.000000 0.000000 0.000000 0.208686 0.000000 0.000000
# 5 0.000000 0.000000 0.000000 0.000000 0.027830 0.000000
# 6 0.000000 0.000000 0.000000 0.000000 0.000000 0.040053
#
#
# Mechanical properties :
#
#
# Convention : Reuss Voigt Hill
#
# Bulk Modulus (GPa) = 46.47258 47.53016 47.00137
# Shear Modulus (GPa) = 14.38179 25.67296 20.02738
#
# Velocity S-wave (km/s) = 2.62956 3.51330 3.10305
# Velocity P-wave (km/s) = 5.61809 6.26974 5.95284
#
# Compressibility (1/GPa) = 0.02151806
#
# Stress axis : x y z
#
# Youngs Moduli (GPa) = 65.61763 92.12904 60.15032
#
# Poissons Ratio (x) = 0.31334 0.42769
# Poissons Ratio (y) = 0.22317 0.00536
# Poissons Ratio (z) = 0.46657 0.00820
#
# Static dielectric constant tensor:
#      x y z
#    x 3.842880 0.000000 0.000000 
#    y 0.000000 3.900400 0.000000 
#    z 0.000000 0.000000 3.613410 
# 
# 
# High freq. dielectric constant tensor:
#      x y z
#    x 1.816710 0.000000 0.000000 
#    y 0.000000 1.821310 0.000000 
#    z 0.000000 0.000000 1.806900 
# 
# From -- ./inp_files/30848.got.cif
#   From: 2010.03.12/outbox.cif.g09.slc.cpg/sg53_16_cif.got.tgz:30848.got - 2010.04.16 14:36:59.
