data_PCOD8217545
_publ_section_title
;
Structure prediction by ZEFSAII (Michael W. Deem and Ramdas Pophale) SiO2 
 PCOD8217545
Probable space group: P M N A
;
_chemical_formula_sum "Si O2"
_cell_formula_units_Z 56
_cell_length_a 8.793571
_cell_length_b 20.516352
_cell_length_c 17.285163
_cell_angle_alpha 90.000000
_cell_angle_beta 90.000000
_cell_angle_gamma 90.000000
_cell_volume 3118.450792
_symmetry_space_group_name_H-M "P M N A"
_symmetry_group_IT_number 53
_symmetry_cell_setting 'orthorhombic'
loop_
_space_group_symop_operation_xyz
x,y,z
1/2-x,-y,1/2+z
x,-y,-z
1/2-x,y,1/2-z
-x,-y,-z
1/2+x,y,1/2-z
-x,y,z
1/2+x,-y,1/2+z
loop_
_atom_site_type_symbol
_atom_site_label
_atom_site_fract_x
_atom_site_fract_y
_atom_site_fract_z
Si Si1 0.819559 0.425261 0.666949
Si Si2 0.321001 0.027041 0.609689
Si Si3 0.822373 0.147093 0.675411
Si Si4 0.677475 0.085461 0.041970
Si Si5 0.676428 0.646329 0.475970
Si Si6 0.173971 0.219792 0.517734
Si Si7 0.166642 0.545502 0.573533
O O1 0.750000 0.407628 0.750000
O O2 0.763173 0.374364 0.602180
O O3 0.771373 0.499432 0.643172
O O4 0.000000 0.418964 0.671187
O O5 0.500000 0.018198 0.619005
O O6 0.256581 0.075872 0.673959
O O7 0.278384 0.059321 0.528230
O O8 0.238978 0.955257 0.616242
O O9 0.750000 0.183415 0.750000
O O10 0.784571 0.190345 0.601135
O O11 0.000000 0.136938 0.685215
O O12 0.500000 0.070980 0.025682
O O13 0.701295 0.163759 0.047693
O O14 0.500000 0.638167 0.459636
O O15 0.715591 0.720205 0.498546
O O16 0.719395 0.603655 0.551795
O O17 0.000000 0.244194 0.515894
O O18 0.147927 0.500000 0.500000
O O19 0.000000 0.574403 0.594860
#
# Coordination Sequence:
#
# PCOD8217545 Si02
#       7
#     8   8   8   8   8   8   8
#     4  10  20  34  52  73  98 127 160 199 240 284
#     4  10  17  26  43  65  88 114 145 186 230 271
#     4  10  20  33  47  64  89 123 159 194 232 277
#     4   9  16  28  45  64  86 113 147 188 228 266
#     4  11  21  31  48  72  99 130 163 199 237 285
#     4   9  19  33  47  64  92 127 159 192 231 276
#     4   8  16  32  51  69  93 125 158 195 239 283
#
# _framework density 17.957633999999999
#
# number of rings (size 3 to 8) (size 9 to 14) (size 15 to 20)
#    0.000    2.429    0.000    6.429    0.000    7.143 
#    0.000    1.429    0.000    0.000    0.000    1.000 
#    0.000    4.571    0.000    0.000    0.000    0.000 
#
# Total GULP energy -693942.115489 kJ/mol
# GULP energy per Si atom -12391.823491 kJ/mol
# Density = 1.791676 g / cm^3
# Si number density = 17.957634 Si / 1000 Ang^3
#
#
#
# Elastic Constant Matrix: (Units=GPa)
#
#
# Indices 1 2 3 4 5 6 
#
# 1 94.0610 45.1014 6.8551 0.0000 0.0000 0.0000
# 2 45.1014 104.6928 11.9665 0.0000 0.0000 0.0000
# 3 6.8551 11.9665 9.8227 0.0000 0.0000 0.0000
# 4 0.0000 0.0000 0.0000 11.8262 0.0000 0.0000
# 5 0.0000 0.0000 0.0000 0.0000 21.9847 0.0000
# 6 0.0000 0.0000 0.0000 0.0000 0.0000 23.4965
#
#
#
# Elastic Compliance Matrix: (Units=1/GPa)
#
#
# Indices 1 2 3 4 5 6 
#
# 1 0.013461 -0.005490 -0.002706 0.000000 0.000000 0.000000
# 2 -0.005490 0.013336 -0.012415 0.000000 0.000000 0.000000
# 3 -0.002706 -0.012415 0.118818 0.000000 0.000000 0.000000
# 4 0.000000 0.000000 0.000000 0.084558 0.000000 0.000000
# 5 0.000000 0.000000 0.000000 0.000000 0.045486 0.000000
# 6 0.000000 0.000000 0.000000 0.000000 0.000000 0.042559
#
#
# Mechanical properties :
#
#
# Convention : Reuss Voigt Hill
#
# Bulk Modulus (GPa) = 9.57922 37.38027 23.47974
# Shear Modulus (GPa) = 12.68268 21.10505 16.89387
#
# Velocity S-wave (km/s) = 2.66043 3.43194 3.07051
# Velocity P-wave (km/s) = 3.84488 6.04692 5.06697
#
# Compressibility (1/GPa) = 0.10439268
#
# Stress axis : x y z
#
# Youngs Moduli (GPa) = 74.28966 74.98675 8.41621
#
# Poissons Ratio (x) = 0.41164 0.02278
# Poissons Ratio (y) = 0.40782 0.10449
# Poissons Ratio (z) = 0.20106 0.93097
#
# Static dielectric constant tensor:
#      x y z
#    x 3.301630 0.000000 0.000000 
#    y 0.000000 3.584310 0.000000 
#    z 0.000000 0.000000 3.312480 
# 
# 
# High freq. dielectric constant tensor:
#      x y z
#    x 1.703490 0.000000 0.000000 
#    y 0.000000 1.689640 0.000000 
#    z 0.000000 0.000000 1.649540 
# 
# From -- ./inp_files/26640.got.cif
#   From: 2010.03.12/outbox.cif.g09.slc.cpg/sg53_14_cif.got.tgz:26640.got - 2010.04.16 14:36:59.
