data_PCOD8217592
_publ_section_title
;
Structure prediction by ZEFSAII (Michael W. Deem and Ramdas Pophale) SiO2 
 PCOD8217592
Probable space group: P M N A
;
_chemical_formula_sum "Si O2"
_cell_formula_units_Z 64
_cell_length_a 8.839347
_cell_length_b 24.188490
_cell_length_c 15.248802
_cell_angle_alpha 90.000000
_cell_angle_beta 90.000000
_cell_angle_gamma 90.000000
_cell_volume 3260.353317
_symmetry_space_group_name_H-M "P M N A"
_symmetry_group_IT_number 53
_symmetry_cell_setting 'orthorhombic'
loop_
_space_group_symop_operation_xyz
x,y,z
1/2-x,-y,1/2+z
x,-y,-z
1/2-x,y,1/2-z
-x,-y,-z
1/2+x,y,1/2-z
-x,y,z
1/2+x,-y,1/2+z
loop_
_atom_site_type_symbol
_atom_site_label
_atom_site_fract_x
_atom_site_fract_y
_atom_site_fract_z
Si Si1 0.176022 0.058880 0.344224
Si Si2 0.680113 0.047501 0.652991
Si Si3 0.678750 0.446744 0.660160
Si Si4 0.678225 0.752259 0.010115
Si Si5 0.675812 0.818782 0.844222
Si Si6 0.179112 0.158482 0.654882
Si Si7 0.678630 0.427811 0.339622
Si Si8 0.820590 0.365466 0.990248
O O1 0.250000 0.064036 0.250000
O O2 0.202033 0.119635 0.385420
O O3 0.000000 0.043731 0.336866
O O4 0.261367 0.008708 0.396249
O O5 0.750000 0.044734 0.750000
O O6 0.500000 0.049803 0.653736
O O7 0.748414 0.103239 0.610751
O O8 0.750000 0.424734 0.750000
O O9 0.500000 0.443520 0.668047
O O10 0.731766 0.509472 0.640673
O O11 0.739753 0.407663 0.583184
O O12 0.500000 0.744409 0.004439
O O13 0.721751 0.791572 0.090916
O O14 0.739706 0.777003 0.917875
O O15 0.755300 0.694324 0.029068
O O16 0.750000 0.807874 0.750000
O O17 0.500000 0.809108 0.828453
O O18 0.250000 0.170939 0.750000
O O19 0.000000 0.150237 0.664618
O O20 0.750000 0.405349 0.250000
O O21 0.500000 0.425236 0.331167
O O22 0.738043 0.388201 0.416607
O O23 0.000000 0.362518 0.988496
#
# Coordination Sequence:
#
# PCOD8217592 Si02
#       8
#     8   8   8   8   8   8   8   8
#     4   9  15  26  47  73 100 129 164 206 255 313
#     4  10  17  27  47  75 104 131 164 208 260 317
#     4   9  18  34  56  82 111 141 175 214 258 310
#     4  10  23  40  55  75 105 140 180 222 261 307
#     4   9  19  36  56  77 102 136 175 215 262 312
#     4  10  20  36  56  75 100 136 175 217 264 312
#     4   9  18  34  56  82 111 142 175 213 258 308
#     4  10  21  36  55  78 106 142 179 216 260 308
#
# _framework density 19.629774000000001
#
# number of rings (size 3 to 8) (size 9 to 14) (size 15 to 20)
#    0.000    2.500    0.000    3.750    0.000    5.500 
#    0.000    5.625    0.000    7.500    0.000    0.000 
#    0.000    0.000    0.000    0.000    0.000    0.000 
#
# Total GULP energy -793290.601279 kJ/mol
# GULP energy per Si atom -12395.165645 kJ/mol
# Density = 1.958510 g / cm^3
# Si number density = 19.629774 Si / 1000 Ang^3
#
#
#
# Elastic Constant Matrix: (Units=GPa)
#
#
# Indices 1 2 3 4 5 6 
#
# 1 60.3306 17.8759 14.8044 0.0000 0.0000 0.0000
# 2 17.8759 68.6913 12.4905 0.0000 0.0000 0.0000
# 3 14.8044 12.4905 63.8015 0.0000 0.0000 0.0000
# 4 0.0000 0.0000 0.0000 16.4893 0.0000 0.0000
# 5 0.0000 0.0000 0.0000 0.0000 24.8559 0.0000
# 6 0.0000 0.0000 0.0000 0.0000 0.0000 38.3468
#
#
#
# Elastic Compliance Matrix: (Units=1/GPa)
#
#
# Indices 1 2 3 4 5 6 
#
# 1 0.018688 -0.004225 -0.003509 0.000000 0.000000 0.000000
# 2 -0.004225 0.016051 -0.002162 0.000000 0.000000 0.000000
# 3 -0.003509 -0.002162 0.016911 0.000000 0.000000 0.000000
# 4 0.000000 0.000000 0.000000 0.060645 0.000000 0.000000
# 5 0.000000 0.000000 0.000000 0.000000 0.040232 0.000000
# 6 0.000000 0.000000 0.000000 0.000000 0.000000 0.026078
#
#
# Mechanical properties :
#
#
# Convention : Reuss Voigt Hill
#
# Bulk Modulus (GPa) = 31.38988 31.46278 31.42633
# Shear Modulus (GPa) = 23.92148 25.78189 24.85168
#
# Velocity S-wave (km/s) = 3.49468 3.62803 3.56198
# Velocity P-wave (km/s) = 5.68413 5.79767 5.74118
#
# Compressibility (1/GPa) = 0.03185740
#
# Stress axis : x y z
#
# Youngs Moduli (GPa) = 53.50904 62.30312 59.13270
#
# Poissons Ratio (x) = 0.26325 0.20751
# Poissons Ratio (y) = 0.22609 0.12783
# Poissons Ratio (z) = 0.18778 0.13469
#
# Static dielectric constant tensor:
#      x y z
#    x 3.471000 0.000000 0.000000 
#    y 0.000000 4.158850 0.000000 
#    z 0.000000 0.000000 3.527540 
# 
# 
# High freq. dielectric constant tensor:
#      x y z
#    x 1.758310 0.000000 0.000000 
#    y 0.000000 1.773650 0.000000 
#    z 0.000000 0.000000 1.750090 
# 
# From -- ./inp_files/20936.got.cif
#   From: 2010.03.12/outbox.cif.g09.slc.cpg/sg53_11_cif.got.tgz:20936.got - 2010.04.16 14:36:59.
