data_PCOD8217023
_publ_section_title
;
Structure prediction by ZEFSAII (Michael W. Deem and Ramdas Pophale) SiO2 
 PCOD8217023
Probable space group: P N N A
;
_chemical_formula_sum "Si O2"
_cell_formula_units_Z 40
_cell_length_a 14.330988
_cell_length_b 9.680270
_cell_length_c 15.175586
_cell_angle_alpha 90.000000
_cell_angle_beta 90.000000
_cell_angle_gamma 90.000000
_cell_volume 2105.276163
_symmetry_space_group_name_H-M "P N N A"
_symmetry_group_IT_number 52
_symmetry_cell_setting 'orthorhombic'
loop_
_space_group_symop_operation_xyz
x,y,z
1/2-x,-y,z
x,1/2-y,1/2-z
1/2-x,1/2+y,1/2-z
-x,-y,-z
1/2+x,y,-z
-x,1/2+y,1/2+z
1/2+x,1/2-y,1/2+z
loop_
_atom_site_type_symbol
_atom_site_label
_atom_site_fract_x
_atom_site_fract_y
_atom_site_fract_z
Si Si1 0.250000 0.000000 0.502109
Si Si2 0.017420 0.112975 0.924856
Si Si3 0.061647 0.909021 0.434306
Si Si4 0.956298 0.531526 0.235805
Si Si5 0.318751 0.719984 0.865536
Si Si6 0.348783 0.250000 0.750000
O O1 0.172592 0.925311 0.442835
O O2 0.307987 0.895012 0.560842
O O3 0.126465 0.154414 0.912424
O O4 0.958521 0.247574 0.950367
O O5 0.990515 0.054628 0.828521
O O6 0.000000 0.000000 0.000000
O O7 0.000000 0.000000 0.500000
O O8 0.036737 0.955658 0.336148
O O9 0.875161 0.645433 0.215955
O O10 0.913054 0.380209 0.233316
O O11 0.217937 0.773978 0.834459
#
# Coordination Sequence:
#
# PCOD8217023 Si02
#       6
#     4   8   8   8   8   4
#     4  12  22  38  72  94 124 178 224 262 320 400
#     4  11  25  41  63  93 139 175 209 277 331 385
#     4  11  22  44  65  94 133 176 220 264 328 399
#     4  11  23  39  66  91 135 170 212 273 334 384
#     4  11  20  37  60 102 128 162 220 274 331 378
#     4  12  20  34  68 104 124 164 218 282 336 386
#
# _framework density 18.999881999999999
#
# number of rings (size 3 to 8) (size 9 to 14) (size 15 to 20)
#    0.000    0.800    8.000    1.800    5.600    0.000 
#    0.000    0.000   13.200    0.000    0.000    0.000 
#    0.000    0.000    0.000    0.000    0.000    0.000 
#
# Total GULP energy -495904.071376 kJ/mol
# GULP energy per Si atom -12397.601784 kJ/mol
# Density = 1.895664 g / cm^3
# Si number density = 18.999882 Si / 1000 Ang^3
#
#
#
# Elastic Constant Matrix: (Units=GPa)
#
#
# Indices 1 2 3 4 5 6 
#
# 1 82.7674 60.0446 44.5458 0.0000 0.0000 0.0000
# 2 60.0446 147.5688 69.7802 0.0000 0.0000 0.0000
# 3 44.5458 69.7802 141.4836 0.0000 0.0000 0.0000
# 4 0.0000 0.0000 0.0000 32.7819 0.0000 0.0000
# 5 0.0000 0.0000 0.0000 0.0000 1.4971 0.0000
# 6 0.0000 0.0000 0.0000 0.0000 0.0000 29.9208
#
#
#
# Elastic Compliance Matrix: (Units=1/GPa)
#
#
# Indices 1 2 3 4 5 6 
#
# 1 0.017879 -0.006016 -0.002662 0.000000 0.000000 0.000000
# 2 -0.006016 0.010862 -0.003463 0.000000 0.000000 0.000000
# 3 -0.002662 -0.003463 0.009614 0.000000 0.000000 0.000000
# 4 0.000000 0.000000 0.000000 0.030505 0.000000 0.000000
# 5 0.000000 0.000000 0.000000 0.000000 0.667941 0.000000
# 6 0.000000 0.000000 0.000000 0.000000 0.000000 0.033422
#
#
# Mechanical properties :
#
#
# Convention : Reuss Voigt Hill
#
# Bulk Modulus (GPa) = 71.05854 80.06232 75.56043
# Shear Modulus (GPa) = 6.25629 26.00325 16.12977
#
# Velocity S-wave (km/s) = 1.81658 3.70347 2.91682
# Velocity P-wave (km/s) = 6.47152 7.77929 7.15535
#
# Compressibility (1/GPa) = 0.01407290
#
# Stress axis : x y z
#
# Youngs Moduli (GPa) = 55.93074 92.06460 104.01435
#
# Poissons Ratio (x) = 0.55387 0.27689
# Poissons Ratio (y) = 0.33649 0.36020
# Poissons Ratio (z) = 0.14889 0.31882
#
# Static dielectric constant tensor:
#      x y z
#    x 3.431950 0.000000 0.000000 
#    y 0.000000 3.576920 0.000000 
#    z 0.000000 0.000000 3.624390 
# 
# 
# High freq. dielectric constant tensor:
#      x y z
#    x 1.718580 0.000000 0.000000 
#    y 0.000000 1.750780 0.000000 
#    z 0.000000 0.000000 1.739900 
# 
# From -- ./inp_files/26935.got.cif
#   From: 2010.06.25/outbox.cif.g09.slc.cpg/sg52_14_cif.got.tgz:26935.got - 2010.06.26 19:32:48.
