data_PCOD8217530
_publ_section_title
;
Structure prediction by ZEFSAII (Michael W. Deem and Ramdas Pophale) SiO2 
 PCOD8217530
Probable space group: P M N A
;
_chemical_formula_sum "Si O2"
_cell_formula_units_Z 48
_cell_length_a 8.486104
_cell_length_b 10.356549
_cell_length_c 30.157128
_cell_angle_alpha 90.000000
_cell_angle_beta 90.000000
_cell_angle_gamma 90.000000
_cell_volume 2650.412026
_symmetry_space_group_name_H-M "P M N A"
_symmetry_group_IT_number 53
_symmetry_cell_setting 'orthorhombic'
loop_
_space_group_symop_operation_xyz
x,y,z
1/2-x,-y,1/2+z
x,-y,-z
1/2-x,y,1/2-z
-x,-y,-z
1/2+x,y,1/2-z
-x,y,z
1/2+x,-y,1/2+z
loop_
_atom_site_type_symbol
_atom_site_label
_atom_site_fract_x
_atom_site_fract_y
_atom_site_fract_z
Si Si1 0.684764 0.879765 0.469094
Si Si2 0.685237 0.271130 0.206141
Si Si3 0.312474 0.369054 0.478525
Si Si4 0.316150 0.985772 0.295090
Si Si5 0.317373 0.995829 0.115110
Si Si6 0.684768 0.278256 0.384282
O O1 0.500000 0.871769 0.458905
O O2 0.749648 0.751222 0.492684
O O3 0.777780 0.894226 0.423193
O O4 0.725960 0.000000 0.500000
O O5 0.750000 0.347967 0.250000
O O6 0.500000 0.247370 0.209932
O O7 0.727003 0.338351 0.159081
O O8 0.780604 0.137701 0.205654
O O9 0.244123 0.500000 0.500000
O O10 0.500000 0.368069 0.479328
O O11 0.254927 0.355957 0.427601
O O12 0.250000 0.920425 0.250000
O O13 0.500000 0.959121 0.298468
O O14 0.230546 0.927431 0.338434
O O15 0.500000 0.032352 0.115705
O O16 0.219236 0.127062 0.108062
O O17 0.500000 0.296514 0.377409
#
# Coordination Sequence:
#
# PCOD8217530 Si02
#       6
#     8   8   8   8   8   8
#     4  10  18  32  51  72  95 126 164 203 244 288
#     4  10  17  26  40  63  93 125 159 196 241 289
#     4   9  18  32  51  73  97 127 165 204 245 295
#     4  10  17  27  42  63  94 128 160 196 244 293
#     4  11  20  29  44  69  98 128 165 202 244 289
#     4  10  17  29  47  68  95 127 162 199 244 288
#
# _framework density 18.110392000000001
#
# number of rings (size 3 to 8) (size 9 to 14) (size 15 to 20)
#    0.000    2.000    1.667    8.000    0.000    0.333 
#    0.000    0.000    0.000    4.500    0.000    1.167 
#    0.000    5.333    0.000    0.000    0.000    0.000 
#
# Total GULP energy -594995.850284 kJ/mol
# GULP energy per Si atom -12395.746881 kJ/mol
# Density = 1.806917 g / cm^3
# Si number density = 18.110392 Si / 1000 Ang^3
#
#
#
# Elastic Constant Matrix: (Units=GPa)
#
#
# Indices 1 2 3 4 5 6 
#
# 1 63.9949 10.6695 39.0617 0.0000 0.0000 0.0000
# 2 10.6695 64.8224 47.5925 0.0000 0.0000 0.0000
# 3 39.0617 47.5925 197.5005 0.0000 0.0000 0.0000
# 4 0.0000 0.0000 0.0000 16.4831 0.0000 0.0000
# 5 0.0000 0.0000 0.0000 0.0000 32.8741 0.0000
# 6 0.0000 0.0000 0.0000 0.0000 0.0000 5.4224
#
#
#
# Elastic Compliance Matrix: (Units=1/GPa)
#
#
# Indices 1 2 3 4 5 6 
#
# 1 0.017781 -0.000419 -0.003416 0.000000 0.000000 0.000000
# 2 -0.000419 0.018753 -0.004436 0.000000 0.000000 0.000000
# 3 -0.003416 -0.004436 0.006808 0.000000 0.000000 0.000000
# 4 0.000000 0.000000 0.000000 0.060668 0.000000 0.000000
# 5 0.000000 0.000000 0.000000 0.000000 0.030419 0.000000
# 6 0.000000 0.000000 0.000000 0.000000 0.000000 0.184419
#
#
# Mechanical properties :
#
#
# Convention : Reuss Voigt Hill
#
# Bulk Modulus (GPa) = 37.31326 57.88502 47.59914
# Shear Modulus (GPa) = 14.52129 26.22222 20.37175
#
# Velocity S-wave (km/s) = 2.83472 3.80927 3.35754
# Velocity P-wave (km/s) = 5.60019 7.16792 6.43200
#
# Compressibility (1/GPa) = 0.02680013
#
# Stress axis : x y z
#
# Youngs Moduli (GPa) = 56.23971 53.32583 146.88961
#
# Poissons Ratio (x) = 0.02233 0.50175
# Poissons Ratio (y) = 0.02355 0.65161
# Poissons Ratio (z) = 0.19210 0.23656
#
# Static dielectric constant tensor:
#      x y z
#    x 3.157850 0.000000 0.000000 
#    y 0.000000 2.836090 0.000000 
#    z 0.000000 0.000000 4.406550 
# 
# 
# High freq. dielectric constant tensor:
#      x y z
#    x 1.697060 0.000000 0.000000 
#    y 0.000000 1.617540 0.000000 
#    z 0.000000 0.000000 1.736660 
# 
# From -- ./inp_files/37903.got.cif
#   From: 2010.03.12/outbox.cif.g09.slc.cpg/sg53_19_cif.got.tgz:37903.got - 2010.04.16 14:36:59.
