data_PCOD8217701
_publ_section_title
;
Structure prediction by ZEFSAII (Michael W. Deem and Ramdas Pophale) SiO2 
 PCOD8217701
Probable space group: P M N A
;
_chemical_formula_sum "Si O2"
_cell_formula_units_Z 64
_cell_length_a 14.654818
_cell_length_b 9.430722
_cell_length_c 29.621630
_cell_angle_alpha 90.000000
_cell_angle_beta 90.000000
_cell_angle_gamma 90.000000
_cell_volume 4093.872615
_symmetry_space_group_name_H-M "P M N A"
_symmetry_group_IT_number 53
_symmetry_cell_setting 'orthorhombic'
loop_
_space_group_symop_operation_xyz
x,y,z
1/2-x,-y,1/2+z
x,-y,-z
1/2-x,y,1/2-z
-x,-y,-z
1/2+x,y,1/2-z
-x,y,z
1/2+x,-y,1/2+z
loop_
_atom_site_type_symbol
_atom_site_label
_atom_site_fract_x
_atom_site_fract_y
_atom_site_fract_z
Si Si1 0.106512 0.656111 0.989802
Si Si2 0.792753 0.716834 0.160695
Si Si3 0.102112 0.206641 0.189852
Si Si4 0.606236 0.166119 0.578096
Si Si5 0.654317 0.494477 0.270865
Si Si6 0.104636 0.082026 0.774441
Si Si7 0.391490 0.158960 0.408491
Si Si8 0.600533 0.285915 0.802808
O O1 0.149456 0.728761 0.944839
O O2 0.000000 0.632055 0.982176
O O3 0.150495 0.500000 0.000000
O O4 0.124677 0.768934 0.029256
O O5 0.830712 0.739510 0.110895
O O6 0.834716 0.574216 0.181555
O O7 0.824373 0.844521 0.192265
O O8 0.681663 0.702855 0.160656
O O9 0.102803 0.351271 0.217467
O O10 0.151241 0.202461 0.140579
O O11 0.000000 0.170762 0.175925
O O12 0.134580 0.082585 0.223750
O O13 0.500000 0.181310 0.592180
O O14 0.637846 0.002357 0.579444
O O15 0.750000 0.450962 0.250000
O O16 0.600535 0.588854 0.234552
O O17 0.116145 0.138007 0.723598
O O18 0.000000 0.108045 0.790813
O O19 0.500000 0.168655 0.411269
O O20 0.500000 0.288441 0.826251
#
# Coordination Sequence:
#
# PCOD8217701 Si02
#       8
#     8   8   8   8   8   8   8   8
#     4   9  18  29  42  62  88 119 146 170 205 250
#     4  10  18  29  44  64  84 113 154 184 217 258
#     4  10  18  27  42  63  88 117 149 178 208 254
#     4  10  18  29  45  63  89 120 146 174 209 257
#     4   9  19  30  41  60  85 115 148 188 224 260
#     4   9  16  28  43  62  87 115 146 176 212 257
#     4   9  17  29  41  60  88 118 147 171 203 250
#     4   9  18  32  46  59  83 116 151 189 226 259
#
# _framework density 15.633119000000001
#
# number of rings (size 3 to 8) (size 9 to 14) (size 15 to 20)
#    0.000    2.625    1.250    2.250    1.750    4.000 
#    0.000    0.000    0.000    0.000    0.000    0.000 
#    0.000    2.500    0.000    0.000    0.000    0.125 
#
# Total GULP energy -792961.552741 kJ/mol
# GULP energy per Si atom -12390.024262 kJ/mol
# Density = 1.559754 g / cm^3
# Si number density = 15.633119 Si / 1000 Ang^3
#
#
#
# Elastic Constant Matrix: (Units=GPa)
#
#
# Indices 1 2 3 4 5 6 
#
# 1 48.1093 5.9004 8.0734 0.0000 0.0000 0.0000
# 2 5.9004 102.2940 26.7793 0.0000 0.0000 0.0000
# 3 8.0734 26.7793 48.1616 0.0000 0.0000 0.0000
# 4 0.0000 0.0000 0.0000 16.6124 0.0000 0.0000
# 5 0.0000 0.0000 0.0000 0.0000 13.9050 0.0000
# 6 0.0000 0.0000 0.0000 0.0000 0.0000 11.6092
#
#
#
# Elastic Compliance Matrix: (Units=1/GPa)
#
#
# Indices 1 2 3 4 5 6 
#
# 1 0.021398 -0.000346 -0.003395 0.000000 0.000000 0.000000
# 2 -0.000346 0.011447 -0.006307 0.000000 0.000000 0.000000
# 3 -0.003395 -0.006307 0.024839 0.000000 0.000000 0.000000
# 4 0.000000 0.000000 0.000000 0.060196 0.000000 0.000000
# 5 0.000000 0.000000 0.000000 0.000000 0.071916 0.000000
# 6 0.000000 0.000000 0.000000 0.000000 0.000000 0.086139
#
#
# Mechanical properties :
#
#
# Convention : Reuss Voigt Hill
#
# Bulk Modulus (GPa) = 26.60301 31.11901 28.86101
# Shear Modulus (GPa) = 16.20431 18.94609 17.57520
#
# Velocity S-wave (km/s) = 3.22302 3.48504 3.35659
# Velocity P-wave (km/s) = 5.55918 6.01191 5.78997
#
# Compressibility (1/GPa) = 0.03758973
#
# Stress axis : x y z
#
# Youngs Moduli (GPa) = 46.73313 87.36126 40.25878
#
# Poissons Ratio (x) = 0.03019 0.13667
# Poissons Ratio (y) = 0.01615 0.25390
# Poissons Ratio (z) = 0.15865 0.55097
#
# Static dielectric constant tensor:
#      x y z
#    x 2.704060 0.000000 0.000000 
#    y 0.000000 3.125680 0.000000 
#    z 0.000000 0.000000 2.892810 
# 
# 
# High freq. dielectric constant tensor:
#      x y z
#    x 1.551780 0.000000 0.000000 
#    y 0.000000 1.612560 0.000000 
#    z 0.000000 0.000000 1.576930 
# 
# From -- ./inp_files/38976.got.cif
#   From: 2010.03.12/outbox.cif.g09.slc.cpg/sg53_20_cif.got.tgz:38976.got - 2010.04.16 14:36:59.
