data_PCOD8217791
_publ_section_title
;
Structure prediction by ZEFSAII (Michael W. Deem and Ramdas Pophale) SiO2 
 PCOD8217791
Probable space group: P M N A
;
_chemical_formula_sum "Si O2"
_cell_formula_units_Z 64
_cell_length_a 8.949626
_cell_length_b 23.800793
_cell_length_c 20.004420
_cell_angle_alpha 90.000000
_cell_angle_beta 90.000000
_cell_angle_gamma 90.000000
_cell_volume 4261.105413
_symmetry_space_group_name_H-M "P M N A"
_symmetry_group_IT_number 53
_symmetry_cell_setting 'orthorhombic'
loop_
_space_group_symop_operation_xyz
x,y,z
1/2-x,-y,1/2+z
x,-y,-z
1/2-x,y,1/2-z
-x,-y,-z
1/2+x,y,1/2-z
-x,y,z
1/2+x,-y,1/2+z
loop_
_atom_site_type_symbol
_atom_site_label
_atom_site_fract_x
_atom_site_fract_y
_atom_site_fract_z
Si Si1 0.168545 0.969719 0.071227
Si Si2 0.331908 0.129979 0.985671
Si Si3 0.322215 0.583961 0.678748
Si Si4 0.675052 0.769264 0.547571
Si Si5 0.332146 0.930618 0.872637
Si Si6 0.669311 0.538111 0.940708
Si Si7 0.325870 0.828870 0.685114
Si Si8 0.169195 0.340248 0.417959
O O1 0.000000 0.960910 0.096364
O O2 0.255733 0.008280 0.124430
O O3 0.247469 0.908908 0.068159
O O4 0.169907 0.000000 0.000000
O O5 0.500000 0.141630 0.960795
O O6 0.246382 0.189132 0.992985
O O7 0.332666 0.097347 0.055014
O O8 0.250000 0.570746 0.750000
O O9 0.500000 0.586283 0.684557
O O10 0.270286 0.534478 0.626875
O O11 0.258554 0.643815 0.650690
O O12 0.500000 0.766080 0.533723
O O13 0.712688 0.790418 0.621952
O O14 0.747669 0.708044 0.540479
O O15 0.500000 0.937541 0.845419
O O16 0.239496 0.891411 0.822874
O O17 0.500000 0.518036 0.924271
O O18 0.667511 0.603627 0.964281
O O19 0.738321 0.500000 0.000000
O O20 0.250000 0.800569 0.750000
O O21 0.500000 0.834251 0.696916
O O22 0.000000 0.321501 0.399945
#
# Coordination Sequence:
#
# PCOD8217791 Si02
#       8
#     8   8   8   8   8   8   8   8
#     4   9  15  23  36  54  73  93 118 152 194 240
#     4   9  16  25  38  54  73  97 126 159 198 243
#     4  10  18  29  44  64  88 115 149 186 224 261
#     4  10  19  30  41  56  78 106 138 176 212 250
#     4   9  16  26  39  53  70  92 122 159 198 240
#     4   8  16  31  48  66  88 115 147 184 227 272
#     4  10  20  31  41  53  71  99 135 172 211 246
#     4   9  18  30  44  61  82 112 145 180 220 261
#
# _framework density 15.019577
#
# number of rings (size 3 to 8) (size 9 to 14) (size 15 to 20)
#    0.750    2.000    0.000    3.000    0.000    6.750 
#    0.000    1.250    0.000    0.000    0.000    0.000 
#    0.000    0.000    0.000    1.125    0.000   16.625 
#
# Total GULP energy -793153.530696 kJ/mol
# GULP energy per Si atom -12393.023917 kJ/mol
# Density = 1.498539 g / cm^3
# Si number density = 15.019577 Si / 1000 Ang^3
#
#
#
# Elastic Constant Matrix: (Units=GPa)
#
#
# Indices 1 2 3 4 5 6 
#
# 1 111.3905 41.2031 18.1612 0.0000 0.0000 0.0000
# 2 41.2031 75.6592 28.5264 0.0000 0.0000 0.0000
# 3 18.1612 28.5264 19.8197 0.0000 0.0000 0.0000
# 4 0.0000 0.0000 0.0000 15.7386 0.0000 0.0000
# 5 0.0000 0.0000 0.0000 0.0000 18.1558 0.0000
# 6 0.0000 0.0000 0.0000 0.0000 0.0000 24.9112
#
#
#
# Elastic Compliance Matrix: (Units=1/GPa)
#
#
# Indices 1 2 3 4 5 6 
#
# 1 0.011339 -0.004937 -0.003285 0.000000 0.000000 0.000000
# 2 -0.004937 0.031050 -0.040166 0.000000 0.000000 0.000000
# 3 -0.003285 -0.040166 0.111276 0.000000 0.000000 0.000000
# 4 0.000000 0.000000 0.000000 0.063538 0.000000 0.000000
# 5 0.000000 0.000000 0.000000 0.000000 0.055079 0.000000
# 6 0.000000 0.000000 0.000000 0.000000 0.000000 0.040143
#
#
# Mechanical properties :
#
#
# Convention : Reuss Voigt Hill
#
# Bulk Modulus (GPa) = 17.57806 42.51677 30.04741
# Shear Modulus (GPa) = 11.67779 19.69306 15.68542
#
# Velocity S-wave (km/s) = 2.79140 3.62492 3.23512
# Velocity P-wave (km/s) = 4.70299 6.77415 5.83126
#
# Compressibility (1/GPa) = 0.05688912
#
# Stress axis : x y z
#
# Youngs Moduli (GPa) = 88.19099 32.20634 8.98664
#
# Poissons Ratio (x) = 0.15899 0.02952
# Poissons Ratio (y) = 0.43535 0.36096
# Poissons Ratio (z) = 0.28971 1.29361
#
# Static dielectric constant tensor:
#      x y z
#    x 3.040060 0.000000 0.000000 
#    y 0.000000 2.783530 0.000000 
#    z 0.000000 0.000000 2.516430 
# 
# 
# High freq. dielectric constant tensor:
#      x y z
#    x 1.595920 0.000000 0.000000 
#    y 0.000000 1.554730 0.000000 
#    z 0.000000 0.000000 1.518460 
# 
# From -- ./inp_files/34574.got.cif
#   From: 2010.03.12/outbox.cif.g09.slc.cpg/sg53_18_cif.got.tgz:34574.got - 2010.04.16 14:36:59.
