data_PCOD8217775
_publ_section_title
;
Structure prediction by ZEFSAII (Michael W. Deem and Ramdas Pophale) SiO2 
 PCOD8217775
Probable space group: P M N A
;
_chemical_formula_sum "Si O2"
_cell_formula_units_Z 48
_cell_length_a 9.083087
_cell_length_b 11.985859
_cell_length_c 25.731071
_cell_angle_alpha 90.000000
_cell_angle_beta 90.000000
_cell_angle_gamma 90.000000
_cell_volume 2801.305678
_symmetry_space_group_name_H-M "P M N A"
_symmetry_group_IT_number 53
_symmetry_cell_setting 'orthorhombic'
loop_
_space_group_symop_operation_xyz
x,y,z
1/2-x,-y,1/2+z
x,-y,-z
1/2-x,y,1/2-z
-x,-y,-z
1/2+x,y,1/2-z
-x,y,z
1/2+x,-y,1/2+z
loop_
_atom_site_type_symbol
_atom_site_label
_atom_site_fract_x
_atom_site_fract_y
_atom_site_fract_z
Si Si1 0.333136 0.672676 0.960302
Si Si2 0.175136 0.318908 0.305316
Si Si3 0.673080 0.491395 0.881730
Si Si4 0.167322 0.269727 0.576359
Si Si5 0.169196 0.954911 0.054696
Si Si6 0.669356 0.174513 0.387911
O O1 0.500000 0.700807 0.941436
O O2 0.281579 0.556758 0.934289
O O3 0.222943 0.768554 0.941150
O O4 0.325197 0.665438 0.021779
O O5 0.250000 0.312289 0.250000
O O6 0.225576 0.435966 0.332068
O O7 0.231669 0.214681 0.339588
O O8 0.000000 0.310365 0.299943
O O9 0.500000 0.477328 0.879854
O O10 0.734686 0.363418 0.883608
O O11 0.257488 0.156717 0.576169
O O12 0.000000 0.237444 0.590283
O O13 0.000000 0.927077 0.043706
O O14 0.188334 0.042902 0.101649
O O15 0.239034 0.000000 0.000000
O O16 0.500000 0.205479 0.376778
#
# Coordination Sequence:
#
# PCOD8217775 Si02
#       6
#     8   8   8   8   8   8
#     4   9  16  27  45  69  99 132 166 204 244 289
#     4  10  20  36  58  79 100 123 158 207 260 307
#     4   8  16  30  47  71 100 128 159 202 250 295
#     4  10  18  28  47  71  98 134 174 206 239 290
#     4  10  20  33  46  66 103 144 174 207 248 289
#     4  10  19  32  50  71 100 135 172 208 248 293
#
# _framework density 17.134868000000001
#
# number of rings (size 3 to 8) (size 9 to 14) (size 15 to 20)
#    0.000    2.500    1.667    2.500    0.000    3.667 
#    0.000    4.167    0.000    6.000    0.000    4.667 
#    0.000    0.000    0.000    0.000    0.000    0.000 
#
# Total GULP energy -594785.391534 kJ/mol
# GULP energy per Si atom -12391.362324 kJ/mol
# Density = 1.709587 g / cm^3
# Si number density = 17.134868 Si / 1000 Ang^3
#
#
#
# Elastic Constant Matrix: (Units=GPa)
#
#
# Indices 1 2 3 4 5 6 
#
# 1 66.1320 46.5448 33.0773 0.0000 0.0000 0.0000
# 2 46.5448 120.8637 36.9229 0.0000 0.0000 0.0000
# 3 33.0773 36.9229 69.4702 0.0000 0.0000 0.0000
# 4 0.0000 0.0000 0.0000 13.9686 0.0000 0.0000
# 5 0.0000 0.0000 0.0000 0.0000 14.1592 0.0000
# 6 0.0000 0.0000 0.0000 0.0000 0.0000 14.8528
#
#
#
# Elastic Compliance Matrix: (Units=1/GPa)
#
#
# Indices 1 2 3 4 5 6 
#
# 1 0.023755 -0.006796 -0.007698 0.000000 0.000000 0.000000
# 2 -0.006796 0.011822 -0.003047 0.000000 0.000000 0.000000
# 3 -0.007698 -0.003047 0.019680 0.000000 0.000000 0.000000
# 4 0.000000 0.000000 0.000000 0.071589 0.000000 0.000000
# 5 0.000000 0.000000 0.000000 0.000000 0.070626 0.000000
# 6 0.000000 0.000000 0.000000 0.000000 0.000000 0.067327
#
#
# Mechanical properties :
#
#
# Convention : Reuss Voigt Hill
#
# Bulk Modulus (GPa) = 49.57195 54.39509 51.98352
# Shear Modulus (GPa) = 16.30748 17.92418 17.11583
#
# Velocity S-wave (km/s) = 3.08833 3.23780 3.16395
# Velocity P-wave (km/s) = 6.45835 6.76698 6.61447
#
# Compressibility (1/GPa) = 0.02017270
#
# Stress axis : x y z
#
# Youngs Moduli (GPa) = 42.09605 84.58804 50.81347
#
# Poissons Ratio (x) = 0.57489 0.39119
# Poissons Ratio (y) = 0.28610 0.15485
# Poissons Ratio (z) = 0.32408 0.25777
#
# Static dielectric constant tensor:
#      x y z
#    x 3.103810 0.000000 0.000000 
#    y 0.000000 3.324060 0.000000 
#    z 0.000000 0.000000 3.012760 
# 
# 
# High freq. dielectric constant tensor:
#      x y z
#    x 1.647990 0.000000 0.000000 
#    y 0.000000 1.664450 0.000000 
#    z 0.000000 0.000000 1.630450 
# 
# From -- ./inp_files/36142.got.cif
#   From: 2010.03.12/outbox.cif.g09.slc.cpg/sg53_19_cif.got.tgz:36142.got - 2010.04.16 14:36:59.
