data_PCOD8217422
_publ_section_title
;
Structure prediction by ZEFSAII (Michael W. Deem and Ramdas Pophale) SiO2 
 PCOD8217422
Probable space group: P N N A
;
_chemical_formula_sum "Si O2"
_cell_formula_units_Z 32
_cell_length_a 18.145791
_cell_length_b 12.263335
_cell_length_c 5.920029
_cell_angle_alpha 90.000000
_cell_angle_beta 90.000000
_cell_angle_gamma 90.000000
_cell_volume 1317.371703
_symmetry_space_group_name_H-M "P N N A"
_symmetry_group_IT_number 52
_symmetry_cell_setting 'orthorhombic'
loop_
_space_group_symop_operation_xyz
x,y,z
1/2-x,-y,z
x,1/2-y,1/2-z
1/2-x,1/2+y,1/2-z
-x,-y,-z
1/2+x,y,-z
-x,1/2+y,1/2+z
1/2+x,1/2-y,1/2+z
loop_
_atom_site_type_symbol
_atom_site_label
_atom_site_fract_x
_atom_site_fract_y
_atom_site_fract_z
Si Si1 0.359223 0.066793 0.445492
Si Si2 0.899381 0.250000 0.250000
Si Si3 0.250000 0.000000 0.102909
Si Si4 0.149178 0.130885 0.766130
Si Si5 0.513648 0.886905 0.885688
O O1 0.347821 0.153533 0.649230
O O2 0.439198 0.090622 0.340016
O O3 0.296348 0.084404 0.257790
O O4 0.350381 0.943164 0.539537
O O5 0.948402 0.300076 0.449852
O O6 0.309330 0.934291 0.960648
O O7 0.187965 0.250000 0.750000
O O8 0.065517 0.159669 0.826490
O O9 0.500000 0.000000 0.000000
#
# Coordination Sequence:
#
# PCOD8217422 Si02
#       5
#     8   4   4   8   8
#     4  12  26  52  75 114 153 200 255 312 386 452
#     4  12  26  48  82 112 150 198 258 318 380 454
#     4  12  28  54  70 112 160 208 248 314 382 460
#     4  12  28  52  79 115 152 203 259 317 383 458
#     4  12  25  48  83 113 151 196 259 322 381 449
#
# _framework density 24.290792
#
# number of rings (size 3 to 8) (size 9 to 14) (size 15 to 20)
#    0.000    0.000    5.000    3.750    3.500    1.000 
#   33.750    0.000    0.000    0.000    0.000    0.000 
#    0.000    0.000    0.000    0.000    0.000    0.000 
#
# Total GULP energy -396762.596758 kJ/mol
# GULP energy per Si atom -12398.831149 kJ/mol
# Density = 2.423550 g / cm^3
# Si number density = 24.290792 Si / 1000 Ang^3
#
#
#
# Elastic Constant Matrix: (Units=GPa)
#
#
# Indices 1 2 3 4 5 6 
#
# 1 122.6360 27.6136 56.6124 0.0000 0.0000 0.0000
# 2 27.6136 169.7287 61.0240 0.0000 0.0000 0.0000
# 3 56.6124 61.0240 129.6354 0.0000 0.0000 0.0000
# 4 0.0000 0.0000 0.0000 45.1255 0.0000 0.0000
# 5 0.0000 0.0000 0.0000 0.0000 -70.9261 0.0000
# 6 0.0000 0.0000 0.0000 0.0000 0.0000 8.4211
#
#
#
# Elastic Compliance Matrix: (Units=1/GPa)
#
#
# Indices 1 2 3 4 5 6 
#
# 1 0.010214 -0.000070 -0.004428 0.000000 0.000000 0.000000
# 2 -0.000070 0.007093 -0.003308 0.000000 0.000000 0.000000
# 3 -0.004428 -0.003308 0.011205 0.000000 0.000000 0.000000
# 4 0.000000 0.000000 0.000000 0.022160 0.000000 0.000000
# 5 0.000000 0.000000 0.000000 0.000000 -0.014099 0.000000
# 6 0.000000 0.000000 0.000000 0.000000 0.000000 0.118749
#
#
# Mechanical properties :
#
#
# Convention : Reuss Voigt Hill
#
# Bulk Modulus (GPa) = 77.51977 79.16666 78.34321
# Shear Modulus (GPa) = 28.53343 14.97412 21.75377
#
# Velocity S-wave (km/s) = 3.43105 2.48554 2.99583
# Velocity P-wave (km/s) = 6.90497 6.39525 6.65499
#
# Compressibility (1/GPa) = 0.01289994
#
# Stress axis : x y z
#
# Youngs Moduli (GPa) = 97.90645 140.99308 89.24770
#
# Poissons Ratio (x) = 0.00985 0.39515
# Poissons Ratio (y) = 0.00684 0.29525
# Poissons Ratio (z) = 0.43349 0.46644
#
# Static dielectric constant tensor:
#      x y z
#    x 5.000010 0.000000 0.000000 
#    y 0.000000 4.754020 0.000000 
#    z 0.000000 0.000000 4.557220 
# 
# 
# High freq. dielectric constant tensor:
#      x y z
#    x 1.971050 0.000000 0.000000 
#    y 0.000000 1.981730 0.000000 
#    z 0.000000 0.000000 1.973580 
# 
# From -- ./inp_files/3023.got.cif
#   From: 2010.06.25/outbox.cif.g09.slc.cpg/sg52_2_cif.got.tgz:3023.got - 2010.06.26 19:32:48.
