data_PCOD8217982
_publ_section_title
;
Structure prediction by ZEFSAII (Michael W. Deem and Ramdas Pophale) SiO2 
 PCOD8217982
Probable space group: P M N A
;
_chemical_formula_sum "Si O2"
_cell_formula_units_Z 56
_cell_length_a 20.034706
_cell_length_b 9.647396
_cell_length_c 17.339439
_cell_angle_alpha 90.000000
_cell_angle_beta 90.000000
_cell_angle_gamma 90.000000
_cell_volume 3351.414324
_symmetry_space_group_name_H-M "P M N A"
_symmetry_group_IT_number 53
_symmetry_cell_setting 'orthorhombic'
loop_
_space_group_symop_operation_xyz
x,y,z
1/2-x,-y,1/2+z
x,-y,-z
1/2-x,y,1/2-z
-x,-y,-z
1/2+x,y,1/2-z
-x,y,z
1/2+x,-y,1/2+z
loop_
_atom_site_type_symbol
_atom_site_label
_atom_site_fract_x
_atom_site_fract_y
_atom_site_fract_z
Si Si1 0.200910 0.837782 0.136462
Si Si2 0.923835 0.624590 0.405953
Si Si3 0.214169 0.339696 0.009824
Si Si4 0.192394 0.151000 0.145014
Si Si5 0.633543 0.336240 0.059945
Si Si6 0.848470 0.829258 0.302085
Si Si7 0.345859 0.860252 0.808820
O O1 0.278522 0.819253 0.154688
O O2 0.158719 0.793077 0.211652
O O3 0.180003 0.994812 0.113563
O O4 0.186349 0.736596 0.065771
O O5 0.916926 0.697975 0.489776
O O6 0.875648 0.491133 0.407481
O O7 0.901798 0.724336 0.337263
O O8 0.000000 0.580138 0.392249
O O9 0.175948 0.268008 0.081691
O O10 0.292524 0.318164 0.025191
O O11 0.194863 0.500000 0.000000
O O12 0.146450 0.187000 0.219471
O O13 0.268736 0.150577 0.170336
O O14 0.614817 0.235467 0.130733
O O15 0.874976 0.985000 0.315027
#
# Coordination Sequence:
#
# PCOD8217982 Si02
#       7
#     8   8   8   8   8   8   8
#     4   9  16  29  46  65  93 121 149 190 242 289
#     4  11  21  34  46  63  94 132 168 198 231 266
#     4  11  17  25  42  69  97 121 156 184 224 283
#     4   8  16  27  42  66  93 122 147 184 243 287
#     4  10  18  31  44  61  90 128 162 191 231 266
#     4   9  17  31  47  66  86 118 160 197 238 275
#     4   8  16  29  46  63  88 120 156 196 232 281
#
# _framework density 16.709363
#
# number of rings (size 3 to 8) (size 9 to 14) (size 15 to 20)
#    0.000    2.571    2.857    3.000    0.000    1.714 
#    0.000    5.000    0.000    0.000    0.000    0.000 
#    0.000   15.429    0.000    0.000    0.000    0.000 
#
# Total GULP energy -693976.985505 kJ/mol
# GULP energy per Si atom -12392.446170 kJ/mol
# Density = 1.667133 g / cm^3
# Si number density = 16.709363 Si / 1000 Ang^3
#
#
#
# Elastic Constant Matrix: (Units=GPa)
#
#
# Indices 1 2 3 4 5 6 
#
# 1 25.0479 16.0322 19.3811 0.0000 0.0000 0.0000
# 2 16.0322 100.4443 82.0684 0.0000 0.0000 0.0000
# 3 19.3811 82.0684 131.5218 0.0000 0.0000 0.0000
# 4 0.0000 0.0000 0.0000 32.0672 0.0000 0.0000
# 5 0.0000 0.0000 0.0000 0.0000 13.2575 0.0000
# 6 0.0000 0.0000 0.0000 0.0000 0.0000 6.5793
#
#
#
# Elastic Compliance Matrix: (Units=1/GPa)
#
#
# Indices 1 2 3 4 5 6 
#
# 1 0.045711 -0.003657 -0.004454 0.000000 0.000000 0.000000
# 2 -0.003657 0.020604 -0.012318 0.000000 0.000000 0.000000
# 3 -0.004454 -0.012318 0.015946 0.000000 0.000000 0.000000
# 4 0.000000 0.000000 0.000000 0.031185 0.000000 0.000000
# 5 0.000000 0.000000 0.000000 0.000000 0.075429 0.000000
# 6 0.000000 0.000000 0.000000 0.000000 0.000000 0.151992
#
#
# Mechanical properties :
#
#
# Convention : Reuss Voigt Hill
#
# Bulk Modulus (GPa) = 24.15288 54.66416 39.40852
# Shear Modulus (GPa) = 12.64149 19.68296 16.16222
#
# Velocity S-wave (km/s) = 2.75353 3.43587 3.11345
# Velocity P-wave (km/s) = 4.95937 6.96606 6.04654
#
# Compressibility (1/GPa) = 0.04140293
#
# Stress axis : x y z
#
# Youngs Moduli (GPa) = 21.87680 48.53537 62.71272
#
# Poissons Ratio (x) = 0.17748 0.27934
# Poissons Ratio (y) = 0.08000 0.77247
# Poissons Ratio (z) = 0.09744 0.59784
#
# Static dielectric constant tensor:
#      x y z
#    x 2.587350 0.000000 0.000000 
#    y 0.000000 3.237360 0.000000 
#    z 0.000000 0.000000 3.563510 
# 
# 
# High freq. dielectric constant tensor:
#      x y z
#    x 1.573180 0.000000 0.000000 
#    y 0.000000 1.645990 0.000000 
#    z 0.000000 0.000000 1.655890 
# 
# From -- ./inp_files/29325.got.cif
#   From: 2010.03.12/outbox.cif.g09.slc.cpg/sg53_15_cif.got.tgz:29325.got - 2010.04.16 14:36:59.
