data_PCOD8217897
_publ_section_title
;
Structure prediction by ZEFSAII (Michael W. Deem and Ramdas Pophale) SiO2 
 PCOD8217897
Probable space group: P M N A
;
_chemical_formula_sum "Si O2"
_cell_formula_units_Z 56
_cell_length_a 8.604684
_cell_length_b 17.581605
_cell_length_c 19.855163
_cell_angle_alpha 90.000000
_cell_angle_beta 90.000000
_cell_angle_gamma 90.000000
_cell_volume 3003.771562
_symmetry_space_group_name_H-M "P M N A"
_symmetry_group_IT_number 53
_symmetry_cell_setting 'orthorhombic'
loop_
_space_group_symop_operation_xyz
x,y,z
1/2-x,-y,1/2+z
x,-y,-z
1/2-x,y,1/2-z
-x,-y,-z
1/2+x,y,1/2-z
-x,y,z
1/2+x,-y,1/2+z
loop_
_atom_site_type_symbol
_atom_site_label
_atom_site_fract_x
_atom_site_fract_y
_atom_site_fract_z
Si Si1 0.184461 0.547919 0.593440
Si Si2 0.685048 0.778564 0.065057
Si Si3 0.816780 0.884816 0.178143
Si Si4 0.183991 0.683311 0.678239
Si Si5 0.184034 0.183143 0.416090
Si Si6 0.684568 0.047726 0.177482
Si Si7 0.815742 0.608995 0.452138
O O1 0.241888 0.598609 0.656500
O O2 0.238111 0.459257 0.598794
O O3 0.250051 0.587228 0.525658
O O4 0.000000 0.550056 0.589083
O O5 0.500000 0.785508 0.074230
O O6 0.772400 0.822706 0.123406
O O7 0.745314 0.691308 0.070887
O O8 0.740216 0.813350 0.993400
O O9 0.750000 0.858615 0.250000
O O10 0.000000 0.893194 0.184325
O O11 0.745764 0.965368 0.155887
O O12 0.250000 0.705172 0.750000
O O13 0.248751 0.743988 0.624330
O O14 0.000000 0.687175 0.681740
O O15 0.243363 0.106504 0.379572
O O16 0.000000 0.186151 0.414884
O O17 0.750000 0.072969 0.250000
O O18 0.500000 0.045833 0.182252
O O19 0.000000 0.614151 0.455905
#
# Coordination Sequence:
#
# PCOD8217897 Si02
#       7
#     8   8   8   8   8   8   8
#     4   8  13  24  45  73 100 130 173 216 250 292
#     4  10  18  33  56  81 106 134 172 217 261 304
#     4  11  23  40  58  77 100 131 170 213 264 317
#     4  10  18  30  47  72 107 142 175 213 255 304
#     4   9  18  31  51  78 106 137 174 212 253 306
#     4  10  19  34  54  76 103 138 177 213 254 306
#     4   8  13  24  48  76  99 128 170 216 254 294
#
# _framework density 18.643229999999999
#
# number of rings (size 3 to 8) (size 9 to 14) (size 15 to 20)
#    0.000    2.571    1.429    3.857    0.000    0.571 
#    0.000    6.429    0.000    2.571    0.000    2.000 
#    0.000    0.000    0.000    0.000    0.000    0.000 
#
# Total GULP energy -694029.944257 kJ/mol
# GULP energy per Si atom -12393.391862 kJ/mol
# Density = 1.860080 g / cm^3
# Si number density = 18.643230 Si / 1000 Ang^3
#
#
#
# Elastic Constant Matrix: (Units=GPa)
#
#
# Indices 1 2 3 4 5 6 
#
# 1 45.8181 28.0557 21.0095 0.0000 0.0000 0.0000
# 2 28.0557 154.6975 80.5618 0.0000 0.0000 0.0000
# 3 21.0095 80.5618 114.3679 0.0000 0.0000 0.0000
# 4 0.0000 0.0000 0.0000 33.9536 0.0000 0.0000
# 5 0.0000 0.0000 0.0000 0.0000 23.4448 0.0000
# 6 0.0000 0.0000 0.0000 0.0000 0.0000 17.0775
#
#
#
# Elastic Compliance Matrix: (Units=1/GPa)
#
#
# Indices 1 2 3 4 5 6 
#
# 1 0.024898 -0.003370 -0.002200 0.000000 0.000000 0.000000
# 2 -0.003370 0.010665 -0.006894 0.000000 0.000000 0.000000
# 3 -0.002200 -0.006894 0.014004 0.000000 0.000000 0.000000
# 4 0.000000 0.000000 0.000000 0.029452 0.000000 0.000000
# 5 0.000000 0.000000 0.000000 0.000000 0.042653 0.000000
# 6 0.000000 0.000000 0.000000 0.000000 0.000000 0.058556
#
#
# Mechanical properties :
#
#
# Convention : Reuss Voigt Hill
#
# Bulk Modulus (GPa) = 40.58466 63.79307 52.18886
# Shear Modulus (GPa) = 23.43357 27.24564 25.33960
#
# Velocity S-wave (km/s) = 3.54919 3.82700 3.69071
# Velocity P-wave (km/s) = 6.21386 7.33621 6.79824
#
# Compressibility (1/GPa) = 0.02463985
#
# Stress axis : x y z
#
# Youngs Moduli (GPa) = 40.16447 93.76073 71.40844
#
# Poissons Ratio (x) = 0.31594 0.15711
# Poissons Ratio (y) = 0.13534 0.49228
# Poissons Ratio (z) = 0.08837 0.64637
#
# Static dielectric constant tensor:
#      x y z
#    x 2.983210 0.000000 0.000000 
#    y 0.000000 3.851010 0.000000 
#    z 0.000000 0.000000 3.459850 
# 
# 
# High freq. dielectric constant tensor:
#      x y z
#    x 1.680420 0.000000 0.000000 
#    y 0.000000 1.739010 0.000000 
#    z 0.000000 0.000000 1.712410 
# 
# From -- ./inp_files/30992.got.cif
#   From: 2010.03.12/outbox.cif.g09.slc.cpg/sg53_16_cif.got.tgz:30992.got - 2010.04.16 14:36:59.
