data_PCOD8217905
_publ_section_title
;
Structure prediction by ZEFSAII (Michael W. Deem and Ramdas Pophale) SiO2 
 PCOD8217905
Probable space group: P M N A
;
_chemical_formula_sum "Si O2"
_cell_formula_units_Z 64
_cell_length_a 27.448871
_cell_length_b 10.269619
_cell_length_c 14.283219
_cell_angle_alpha 90.000000
_cell_angle_beta 90.000000
_cell_angle_gamma 90.000000
_cell_volume 4026.288707
_symmetry_space_group_name_H-M "P M N A"
_symmetry_group_IT_number 53
_symmetry_cell_setting 'orthorhombic'
loop_
_space_group_symop_operation_xyz
x,y,z
1/2-x,-y,1/2+z
x,-y,-z
1/2-x,y,1/2-z
-x,-y,-z
1/2+x,y,1/2-z
-x,y,z
1/2+x,-y,1/2+z
loop_
_atom_site_type_symbol
_atom_site_label
_atom_site_fract_x
_atom_site_fract_y
_atom_site_fract_z
Si Si1 0.365216 0.026762 0.297015
Si Si2 0.275755 0.895800 0.580975
Si Si3 0.709128 0.728761 0.176496
Si Si4 0.218523 0.356398 0.966175
Si Si5 0.137264 0.722354 0.172128
Si Si6 0.326557 0.003875 0.895352
Si Si7 0.944032 0.116501 0.069279
Si Si8 0.943853 0.369423 0.947293
O O1 0.314827 0.083267 0.337212
O O2 0.410663 0.107113 0.338406
O O3 0.371807 0.875388 0.319483
O O4 0.364840 0.043049 0.183796
O O5 0.274596 0.745193 0.550000
O O6 0.288412 0.000000 0.500000
O O7 0.221372 0.917135 0.617374
O O8 0.750000 0.779028 0.250000
O O9 0.734267 0.631587 0.102490
O O10 0.663608 0.665343 0.233872
O O11 0.689449 0.848311 0.118032
O O12 0.171513 0.301153 0.915454
O O13 0.206914 0.500000 0.000000
O O14 0.086482 0.649257 0.149217
O O15 0.349564 0.000000 0.000000
O O16 0.000000 0.105720 0.101347
O O17 0.933247 0.251458 0.017889
O O18 0.929609 0.000000 0.000000
O O19 0.000000 0.375041 0.916779
O O20 0.927635 0.500000 0.000000
#
# Coordination Sequence:
#
# PCOD8217905 Si02
#       8
#     8   8   8   8   8   8   8   8
#     4  11  19  29  50  75  94 122 164 202 233 282
#     4  11  17  30  48  68  95 123 159 196 237 283
#     4   9  17  31  48  65  91 130 162 190 234 284
#     4  11  20  30  45  68  99 129 158 196 238 277
#     4  10  18  30  48  69  92 129 166 186 228 292
#     4  10  18  30  49  69  91 123 164 206 235 272
#     4  10  19  32  50  74 101 123 150 191 239 289
#     4  10  20  33  49  72 103 129 152 188 236 285
#
# _framework density 15.895533
#
# number of rings (size 3 to 8) (size 9 to 14) (size 15 to 20)
#    0.000    1.750    5.000    3.375    0.000    0.000 
#    0.000    5.000    0.000    0.375    0.000    0.000 
#    0.000    0.500    0.000    0.500    0.000    0.000 
#
# Total GULP energy -793253.898100 kJ/mol
# GULP energy per Si atom -12394.592158 kJ/mol
# Density = 1.585935 g / cm^3
# Si number density = 15.895533 Si / 1000 Ang^3
#
#
#
# Elastic Constant Matrix: (Units=GPa)
#
#
# Indices 1 2 3 4 5 6 
#
# 1 63.8953 17.7321 38.1753 0.0000 0.0000 0.0000
# 2 17.7321 73.3517 27.4280 0.0000 0.0000 0.0000
# 3 38.1753 27.4280 94.2002 0.0000 0.0000 0.0000
# 4 0.0000 0.0000 0.0000 15.1011 0.0000 0.0000
# 5 0.0000 0.0000 0.0000 0.0000 22.5951 0.0000
# 6 0.0000 0.0000 0.0000 0.0000 0.0000 -195.6946
#
#
#
# Elastic Compliance Matrix: (Units=1/GPa)
#
#
# Indices 1 2 3 4 5 6 
#
# 1 0.020940 -0.002120 -0.007869 0.000000 0.000000 0.000000
# 2 -0.002120 0.015513 -0.003658 0.000000 0.000000 0.000000
# 3 -0.007869 -0.003658 0.014870 0.000000 0.000000 0.000000
# 4 0.000000 0.000000 0.000000 0.066220 0.000000 0.000000
# 5 0.000000 0.000000 0.000000 0.000000 0.044257 0.000000
# 6 0.000000 0.000000 0.000000 0.000000 0.000000 -0.005110
#
#
# Mechanical properties :
#
#
# Convention : Reuss Voigt Hill
#
# Bulk Modulus (GPa) = 41.61474 44.23534 42.92504
# Shear Modulus (GPa) = 26.04246 -21.72555 2.15845
#
# Velocity S-wave (km/s) = 4.05205 -3.70100 1.16655
# Velocity P-wave (km/s) = 6.93751 3.10258 5.37378
#
# Compressibility (1/GPa) = 0.02402995
#
# Stress axis : x y z
#
# Youngs Moduli (GPa) = 47.75467 64.46153 67.25066
#
# Poissons Ratio (x) = 0.13664 0.52920
# Poissons Ratio (y) = 0.10123 0.24600
# Poissons Ratio (z) = 0.37578 0.23579
#
# Static dielectric constant tensor:
#      x y z
#    x 3.063930 0.000000 0.000000 
#    y 0.000000 2.938360 0.000000 
#    z 0.000000 0.000000 3.160790 
# 
# 
# High freq. dielectric constant tensor:
#      x y z
#    x 1.597250 0.000000 0.000000 
#    y 0.000000 1.597360 0.000000 
#    z 0.000000 0.000000 1.596870 
# 
# From -- ./inp_files/25222.got.cif
#   From: 2010.03.12/outbox.cif.g09.slc.cpg/sg53_13_cif.got.tgz:25222.got - 2010.04.16 14:36:59.
