data_PCOD8217064
_publ_section_title
;
Structure prediction by ZEFSAII (Michael W. Deem and Ramdas Pophale) SiO2 
 PCOD8217064
Probable space group: P N N A
;
_chemical_formula_sum "Si O2"
_cell_formula_units_Z 48
_cell_length_a 27.301927
_cell_length_b 6.388328
_cell_length_c 12.677094
_cell_angle_alpha 90.000000
_cell_angle_beta 90.000000
_cell_angle_gamma 90.000000
_cell_volume 2211.058422
_symmetry_space_group_name_H-M "P N N A"
_symmetry_group_IT_number 52
_symmetry_cell_setting 'orthorhombic'
loop_
_space_group_symop_operation_xyz
x,y,z
1/2-x,-y,z
x,1/2-y,1/2-z
1/2-x,1/2+y,1/2-z
-x,-y,-z
1/2+x,y,-z
-x,1/2+y,1/2+z
1/2+x,1/2-y,1/2+z
loop_
_atom_site_type_symbol
_atom_site_label
_atom_site_fract_x
_atom_site_fract_y
_atom_site_fract_z
Si Si1 0.124997 0.215097 0.981294
Si Si2 0.195282 0.554889 0.035139
Si Si3 0.083320 0.047500 0.183140
Si Si4 0.543717 0.976874 0.414695
Si Si5 0.493982 0.250000 0.250000
Si Si6 0.665254 0.750000 0.750000
Si Si7 0.127804 0.801916 0.871502
O O1 0.092344 0.399316 0.939256
O O2 0.137690 0.049937 0.888995
O O3 0.170592 0.323917 0.041191
O O4 0.092087 0.091505 0.062908
O O5 0.250000 0.500000 0.000373
O O6 0.196455 0.687418 0.145856
O O7 0.167503 0.687587 0.946006
O O8 0.066130 0.250000 0.250000
O O9 0.040784 0.876142 0.170621
O O10 0.131989 0.954534 0.235215
O O11 0.525191 0.071290 0.305654
O O12 0.500000 0.000000 0.500000
O O13 0.569611 0.749403 0.398375
O O14 0.139485 0.750000 0.750000
#
# Coordination Sequence:
#
# PCOD8217064 Si02
#       7
#     8   8   8   8   4   4   8
#     4  11  23  42  67  92 133 179 221 278 345 403
#     4  11  26  46  70 104 134 169 226 290 352 425
#     4  11  21  37  65  95 131 178 213 274 346 409
#     4  11  24  39  61  98 136 178 232 287 330 403
#     4  11  24  36  58  96 136 174 230 276 323 408
#     4  11  22  42  68  98 134 164 214 278 347 424
#     4  11  25  47  69  95 138 188 235 286 346 412
#
# _framework density 21.709060000000001
#
# number of rings (size 3 to 8) (size 9 to 14) (size 15 to 20)
#    0.000    1.000    3.333    3.000    4.667   10.000 
#    3.000    0.000    0.000    0.000    0.000    0.000 
#    0.000    0.000    0.000    0.000    0.000    0.000 
#
# Total GULP energy -594677.484442 kJ/mol
# GULP energy per Si atom -12389.114259 kJ/mol
# Density = 2.165965 g / cm^3
# Si number density = 21.709060 Si / 1000 Ang^3
#
#
#
# Elastic Constant Matrix: (Units=GPa)
#
#
# Indices 1 2 3 4 5 6 
#
# 1 112.5823 34.2972 29.5418 0.0000 0.0000 0.0000
# 2 34.2972 103.2739 24.8162 0.0000 0.0000 0.0000
# 3 29.5418 24.8162 121.0763 0.0000 0.0000 0.0000
# 4 0.0000 0.0000 0.0000 32.3833 0.0000 0.0000
# 5 0.0000 0.0000 0.0000 0.0000 13.0999 0.0000
# 6 0.0000 0.0000 0.0000 0.0000 0.0000 14.3448
#
#
#
# Elastic Compliance Matrix: (Units=1/GPa)
#
#
# Indices 1 2 3 4 5 6 
#
# 1 0.010283 -0.002958 -0.001903 0.000000 0.000000 0.000000
# 2 -0.002958 0.011035 -0.001540 0.000000 0.000000 0.000000
# 3 -0.001903 -0.001540 0.009039 0.000000 0.000000 0.000000
# 4 0.000000 0.000000 0.000000 0.030880 0.000000 0.000000
# 5 0.000000 0.000000 0.000000 0.000000 0.076337 0.000000
# 6 0.000000 0.000000 0.000000 0.000000 0.000000 0.069712
#
#
# Mechanical properties :
#
#
# Convention : Reuss Voigt Hill
#
# Bulk Modulus (GPa) = 56.96028 57.13813 57.04920
# Shear Modulus (GPa) = 22.12989 28.51741 25.32365
#
# Velocity S-wave (km/s) = 3.19624 3.62832 3.41911
# Velocity P-wave (km/s) = 6.31793 6.62797 6.47481
#
# Compressibility (1/GPa) = 0.01755609
#
# Stress axis : x y z
#
# Youngs Moduli (GPa) = 97.25082 90.61806 110.62950
#
# Poissons Ratio (x) = 0.26802 0.21049
# Poissons Ratio (y) = 0.28764 0.17039
# Poissons Ratio (z) = 0.18504 0.13957
#
# Static dielectric constant tensor:
#      x y z
#    x 3.849220 0.000000 0.000000 
#    y 0.000000 4.024100 0.000000 
#    z 0.000000 0.000000 3.848680 
# 
# 
# High freq. dielectric constant tensor:
#      x y z
#    x 1.838200 0.000000 0.000000 
#    y 0.000000 1.869210 0.000000 
#    z 0.000000 0.000000 1.850940 
# 
# From -- ./inp_files/29482.got.cif
#   From: 2010.06.25/outbox.cif.g09.slc.cpg/sg52_15_cif.got.tgz:29482.got - 2010.06.26 19:32:48.
