data_PCOD8217372
_publ_section_title
;
Structure prediction by ZEFSAII (Michael W. Deem and Ramdas Pophale) SiO2 
 PCOD8217372
Probable space group: P N N A
;
_chemical_formula_sum "Si O2"
_cell_formula_units_Z 56
_cell_length_a 14.107229
_cell_length_b 20.228301
_cell_length_c 8.821359
_cell_angle_alpha 90.000000
_cell_angle_beta 90.000000
_cell_angle_gamma 90.000000
_cell_volume 2517.309532
_symmetry_space_group_name_H-M "P N N A"
_symmetry_group_IT_number 52
_symmetry_cell_setting 'orthorhombic'
loop_
_space_group_symop_operation_xyz
x,y,z
1/2-x,-y,z
x,1/2-y,1/2-z
1/2-x,1/2+y,1/2-z
-x,-y,-z
1/2+x,y,-z
-x,1/2+y,1/2+z
1/2+x,1/2-y,1/2+z
loop_
_atom_site_type_symbol
_atom_site_label
_atom_site_fract_x
_atom_site_fract_y
_atom_site_fract_z
Si Si1 0.380687 0.147642 0.441946
Si Si2 0.935324 0.120688 0.898147
Si Si3 0.818682 0.221032 0.080338
Si Si4 0.352061 0.981532 0.152163
Si Si5 0.158793 0.130597 0.914372
Si Si6 0.227286 0.425993 0.882595
Si Si7 0.456754 0.566958 0.061306
O O1 0.394379 0.141125 0.263605
O O2 0.348574 0.221922 0.465959
O O3 0.300814 0.096243 0.490971
O O4 0.470821 0.128139 0.546482
O O5 0.046904 0.137581 0.891968
O O6 0.911477 0.042832 0.918232
O O7 0.888967 0.159736 0.039723
O O8 0.830291 0.250000 0.250000
O O9 0.710227 0.199150 0.035079
O O10 0.420691 0.943200 0.267988
O O11 0.250000 0.000000 0.228556
O O12 0.322101 0.930641 0.023111
O O13 0.224584 0.118748 0.766359
O O14 0.250000 0.500000 0.833210
O O15 0.125191 0.414642 0.949061
O O16 0.500000 0.500000 0.000000
#
# Coordination Sequence:
#
# PCOD8217372 Si02
#       7
#     8   8   8   8   8   8   8
#     4  12  26  48  76 104 154 198 250 317 379 469
#     4  12  26  50  77 112 151 205 254 321 393 464
#     4  12  29  50  71 104 151 206 260 314 379 461
#     4  12  24  46  77 118 159 193 252 323 396 465
#     4  12  27  46  76 112 152 199 253 314 386 462
#     4  12  23  41  74 110 147 186 247 311 386 452
#     4  12  23  42  73 115 145 193 244 314 393 456
#
# _framework density 22.245975000000001
#
# number of rings (size 3 to 8) (size 9 to 14) (size 15 to 20)
#    0.000    0.000    7.143    2.571    2.000    2.286 
#    0.000    1.429    0.000    0.000    0.000    0.000 
#    0.000    0.000    0.000    0.000    0.000    0.000 
#
# Total GULP energy -694209.861752 kJ/mol
# GULP energy per Si atom -12396.604674 kJ/mol
# Density = 2.219534 g / cm^3
# Si number density = 22.245975 Si / 1000 Ang^3
#
#
#
# Elastic Constant Matrix: (Units=GPa)
#
#
# Indices 1 2 3 4 5 6 
#
# 1 159.6818 54.1672 46.2192 0.0000 0.0000 0.0000
# 2 54.1672 122.7395 49.6362 0.0000 0.0000 0.0000
# 3 46.2192 49.6362 111.2443 0.0000 0.0000 0.0000
# 4 0.0000 0.0000 0.0000 45.2116 0.0000 0.0000
# 5 0.0000 0.0000 0.0000 0.0000 39.6572 0.0000
# 6 0.0000 0.0000 0.0000 0.0000 0.0000 44.6191
#
#
#
# Elastic Compliance Matrix: (Units=1/GPa)
#
#
# Indices 1 2 3 4 5 6 
#
# 1 0.007734 -0.002579 -0.002063 0.000000 0.000000 0.000000
# 2 -0.002579 0.010801 -0.003748 0.000000 0.000000 0.000000
# 3 -0.002063 -0.003748 0.011518 0.000000 0.000000 0.000000
# 4 0.000000 0.000000 0.000000 0.022118 0.000000 0.000000
# 5 0.000000 0.000000 0.000000 0.000000 0.025216 0.000000
# 6 0.000000 0.000000 0.000000 0.000000 0.000000 0.022412
#
#
# Mechanical properties :
#
#
# Convention : Reuss Voigt Hill
#
# Bulk Modulus (GPa) = 75.33093 77.07897 76.20495
# Shear Modulus (GPa) = 41.32078 42.14044 41.73061
#
# Velocity S-wave (km/s) = 4.31449 4.35707 4.33583
# Velocity P-wave (km/s) = 7.66525 7.74828 7.70687
#
# Compressibility (1/GPa) = 0.01327476
#
# Stress axis : x y z
#
# Youngs Moduli (GPa) = 129.29271 92.58219 86.81737
#
# Poissons Ratio (x) = 0.23879 0.17907
# Poissons Ratio (y) = 0.33347 0.32538
# Poissons Ratio (z) = 0.26668 0.34698
#
# Static dielectric constant tensor:
#      x y z
#    x 4.428650 0.000000 0.000000 
#    y 0.000000 4.346240 0.000000 
#    z 0.000000 0.000000 4.106130 
# 
# 
# High freq. dielectric constant tensor:
#      x y z
#    x 1.893510 0.000000 0.000000 
#    y 0.000000 1.876190 0.000000 
#    z 0.000000 0.000000 1.879590 
# 
# From -- ./inp_files/10783.got.cif
#   From: 2010.06.25/outbox.cif.g09.slc.cpg/sg52_6_cif.got.tgz:10783.got - 2010.06.26 19:32:48.
