data_PCOD8217168
_publ_section_title
;
Structure prediction by ZEFSAII (Michael W. Deem and Ramdas Pophale) SiO2 
 PCOD8217168
Probable space group: P N N A
;
_chemical_formula_sum "Si O2"
_cell_formula_units_Z 48
_cell_length_a 9.631351
_cell_length_b 16.120923
_cell_length_c 14.033883
_cell_angle_alpha 90.000000
_cell_angle_beta 90.000000
_cell_angle_gamma 90.000000
_cell_volume 2178.988637
_symmetry_space_group_name_H-M "P N N A"
_symmetry_group_IT_number 52
_symmetry_cell_setting 'orthorhombic'
loop_
_space_group_symop_operation_xyz
x,y,z
1/2-x,-y,z
x,1/2-y,1/2-z
1/2-x,1/2+y,1/2-z
-x,-y,-z
1/2+x,y,-z
-x,1/2+y,1/2+z
1/2+x,1/2-y,1/2+z
loop_
_atom_site_type_symbol
_atom_site_label
_atom_site_fract_x
_atom_site_fract_y
_atom_site_fract_z
Si Si1 0.194366 0.409432 0.911581
Si Si2 0.198453 0.907591 0.920243
Si Si3 0.899526 0.656683 0.280507
Si Si4 0.444514 0.185098 0.496465
Si Si5 0.469560 0.698573 0.340814
Si Si6 0.834135 0.330532 0.621674
O O1 0.250000 0.500000 0.938605
O O2 0.168790 0.403420 0.798183
O O3 0.047309 0.388219 0.962397
O O4 0.312391 0.346893 0.945702
O O5 0.319910 0.848542 0.881417
O O6 0.060388 0.884597 0.859295
O O7 0.250000 0.000000 0.901687
O O8 0.175560 0.891275 0.031286
O O9 0.883825 0.750000 0.250000
O O10 0.059026 0.631461 0.301312
O O11 0.530083 0.244741 0.565761
O O12 0.390027 0.238645 0.406589
O O13 0.526415 0.750000 0.250000
O O14 0.311266 0.672036 0.323086
#
# Coordination Sequence:
#
# PCOD8217168 Si02
#       6
#     8   8   8   8   8   8
#     4  12  25  42  69 101 138 183 226 293 359 424
#     4  11  24  43  66  99 139 183 228 287 361 428
#     4  12  23  42  68  96 133 183 236 288 350 420
#     4  11  22  44  65  97 137 180 232 281 348 419
#     4  11  23  40  67 101 131 178 239 290 337 416
#     4  11  23  40  68  96 131 182 231 290 343 415
#
# _framework density 22.028569000000001
#
# number of rings (size 3 to 8) (size 9 to 14) (size 15 to 20)
#    0.000    0.667    3.333    7.000    0.000    2.667 
#    0.000    0.000    0.000    3.000    0.000    0.000 
#    0.000    0.000    0.000    0.000    0.000    0.000 
#
# Total GULP energy -595282.187214 kJ/mol
# GULP energy per Si atom -12401.712234 kJ/mol
# Density = 2.197843 g / cm^3
# Si number density = 22.028569 Si / 1000 Ang^3
#
#
#
# Elastic Constant Matrix: (Units=GPa)
#
#
# Indices 1 2 3 4 5 6 
#
# 1 144.9072 61.8802 31.7842 0.0000 0.0000 0.0000
# 2 61.8802 89.2258 44.3337 0.0000 0.0000 0.0000
# 3 31.7842 44.3337 83.1996 0.0000 0.0000 0.0000
# 4 0.0000 0.0000 0.0000 20.8347 0.0000 0.0000
# 5 0.0000 0.0000 0.0000 0.0000 45.7055 0.0000
# 6 0.0000 0.0000 0.0000 0.0000 0.0000 34.0733
#
#
#
# Elastic Compliance Matrix: (Units=1/GPa)
#
#
# Indices 1 2 3 4 5 6 
#
# 1 0.009806 -0.006718 -0.000166 0.000000 0.000000 0.000000
# 2 -0.006718 0.019846 -0.008009 0.000000 0.000000 0.000000
# 3 -0.000166 -0.008009 0.016350 0.000000 0.000000 0.000000
# 4 0.000000 0.000000 0.000000 0.047997 0.000000 0.000000
# 5 0.000000 0.000000 0.000000 0.000000 0.021879 0.000000
# 6 0.000000 0.000000 0.000000 0.000000 0.000000 0.029348
#
#
# Mechanical properties :
#
#
# Convention : Reuss Voigt Hill
#
# Bulk Modulus (GPa) = 61.66666 65.92540 63.79603
# Shear Modulus (GPa) = 27.71324 32.07834 29.89579
#
# Velocity S-wave (km/s) = 3.55076 3.82018 3.68793
# Velocity P-wave (km/s) = 6.69815 7.03211 6.86716
#
# Compressibility (1/GPa) = 0.01621622
#
# Stress axis : x y z
#
# Youngs Moduli (GPa) = 101.97423 50.38785 61.16095
#
# Poissons Ratio (x) = 0.33852 0.01017
# Poissons Ratio (y) = 0.68509 0.48981
# Poissons Ratio (z) = 0.01696 0.40354
#
# Static dielectric constant tensor:
#      x y z
#    x 4.228530 0.000000 0.000000 
#    y 0.000000 3.763890 0.000000 
#    z 0.000000 0.000000 4.072680 
# 
# 
# High freq. dielectric constant tensor:
#      x y z
#    x 1.887780 0.000000 0.000000 
#    y 0.000000 1.841590 0.000000 
#    z 0.000000 0.000000 1.869310 
# 
# From -- ./inp_files/24736.got.cif
#   From: 2010.06.25/outbox.cif.g09.slc.cpg/sg52_13_cif.got.tgz:24736.got - 2010.06.26 19:32:48.
