data_PCOD8217807
_publ_section_title
;
Structure prediction by ZEFSAII (Michael W. Deem and Ramdas Pophale) SiO2 
 PCOD8217807
Probable space group: P M N A
;
_chemical_formula_sum "Si O2"
_cell_formula_units_Z 64
_cell_length_a 9.048984
_cell_length_b 17.221450
_cell_length_c 23.092332
_cell_angle_alpha 90.000000
_cell_angle_beta 90.000000
_cell_angle_gamma 90.000000
_cell_volume 3598.631094
_symmetry_space_group_name_H-M "P M N A"
_symmetry_group_IT_number 53
_symmetry_cell_setting 'orthorhombic'
loop_
_space_group_symop_operation_xyz
x,y,z
1/2-x,-y,1/2+z
x,-y,-z
1/2-x,y,1/2-z
-x,-y,-z
1/2+x,y,1/2-z
-x,y,z
1/2+x,-y,1/2+z
loop_
_atom_site_type_symbol
_atom_site_label
_atom_site_fract_x
_atom_site_fract_y
_atom_site_fract_z
Si Si1 0.665777 0.686681 0.090069
Si Si2 0.169178 0.279714 0.079760
Si Si3 0.173360 0.949925 0.690845
Si Si4 0.832764 0.184735 0.974137
Si Si5 0.828905 0.073043 0.879385
Si Si6 0.170967 0.208259 0.690753
Si Si7 0.326447 0.414267 0.509293
Si Si8 0.327720 0.769746 0.808458
O O1 0.500000 0.664135 0.073176
O O2 0.709434 0.763729 0.055635
O O3 0.680593 0.709254 0.157312
O O4 0.768204 0.614857 0.071635
O O5 0.221166 0.353466 0.040944
O O6 0.268720 0.278111 0.136759
O O7 0.000000 0.290086 0.099259
O O8 0.187378 0.198289 0.043300
O O9 0.250000 0.980294 0.750000
O O10 0.209258 0.859882 0.681476
O O11 0.000000 0.966410 0.695423
O O12 0.240811 0.994327 0.635188
O O13 0.812300 0.097166 0.948119
O O14 0.000000 0.213452 0.957936
O O15 0.762102 0.141116 0.840596
O O16 0.000000 0.060531 0.863462
O O17 0.250000 0.226363 0.750000
O O18 0.000000 0.182042 0.697906
O O19 0.258945 0.500000 0.500000
O O20 0.500000 0.418921 0.513338
O O21 0.250000 0.739660 0.750000
O O22 0.500000 0.754244 0.801788
#
# Coordination Sequence:
#
# PCOD8217807 Si02
#       8
#     8   8   8   8   8   8   8   8
#     4   9  17  28  44  68  96 124 157 197 233 268
#     4   9  17  32  54  77 101 127 159 198 236 283
#     4  10  20  33  47  65  91 124 164 210 257 299
#     4   8  16  30  47  68  95 129 163 194 236 289
#     4  10  18  29  46  67  93 126 165 207 248 289
#     4  10  19  29  42  63  92 127 165 201 238 280
#     4   9  18  33  54  79 104 129 154 182 225 282
#     4  10  21  36  54  74  96 126 164 205 249 294
#
# _framework density 17.78454
#
# number of rings (size 3 to 8) (size 9 to 14) (size 15 to 20)
#    0.000    2.625    0.000    3.000    0.000    5.750 
#    0.000    0.625    0.000    4.500    0.000    1.750 
#    0.000    0.000    0.000    0.000    0.000    0.000 
#
# Total GULP energy -793061.949094 kJ/mol
# GULP energy per Si atom -12391.592955 kJ/mol
# Density = 1.774406 g / cm^3
# Si number density = 17.784540 Si / 1000 Ang^3
#
#
#
# Elastic Constant Matrix: (Units=GPa)
#
#
# Indices 1 2 3 4 5 6 
#
# 1 69.6268 28.9466 42.3780 0.0000 0.0000 0.0000
# 2 28.9466 56.9044 28.5803 0.0000 0.0000 0.0000
# 3 42.3780 28.5803 90.3397 0.0000 0.0000 0.0000
# 4 0.0000 0.0000 0.0000 18.2565 0.0000 0.0000
# 5 0.0000 0.0000 0.0000 0.0000 29.3797 0.0000
# 6 0.0000 0.0000 0.0000 0.0000 0.0000 21.0402
#
#
#
# Elastic Compliance Matrix: (Units=1/GPa)
#
#
# Indices 1 2 3 4 5 6 
#
# 1 0.022370 -0.007263 -0.008196 0.000000 0.000000 0.000000
# 2 -0.007263 0.023251 -0.003949 0.000000 0.000000 0.000000
# 3 -0.008196 -0.003949 0.016163 0.000000 0.000000 0.000000
# 4 0.000000 0.000000 0.000000 0.054775 0.000000 0.000000
# 5 0.000000 0.000000 0.000000 0.000000 0.034037 0.000000
# 6 0.000000 0.000000 0.000000 0.000000 0.000000 0.047528
#
#
# Mechanical properties :
#
#
# Convention : Reuss Voigt Hill
#
# Bulk Modulus (GPa) = 43.53681 46.29787 44.91734
# Shear Modulus (GPa) = 20.44179 21.53303 20.98741
#
# Velocity S-wave (km/s) = 3.39398 3.48339 3.43897
# Velocity P-wave (km/s) = 6.31602 6.50137 6.40936
#
# Compressibility (1/GPa) = 0.02296907
#
# Stress axis : x y z
#
# Youngs Moduli (GPa) = 44.70219 43.00846 61.86850
#
# Poissons Ratio (x) = 0.31237 0.50708
# Poissons Ratio (y) = 0.32467 0.24431
# Poissons Ratio (z) = 0.36638 0.16983
#
# Static dielectric constant tensor:
#      x y z
#    x 3.346020 0.000000 0.000000 
#    y 0.000000 3.218100 0.000000 
#    z 0.000000 0.000000 3.392020 
# 
# 
# High freq. dielectric constant tensor:
#      x y z
#    x 1.698760 0.000000 0.000000 
#    y 0.000000 1.653570 0.000000 
#    z 0.000000 0.000000 1.677680 
# 
# From -- ./inp_files/31132.got.cif
#   From: 2010.03.12/outbox.cif.g09.slc.cpg/sg53_16_cif.got.tgz:31132.got - 2010.04.16 14:36:59.
