data_PCOD8217321
_publ_section_title
;
Structure prediction by ZEFSAII (Michael W. Deem and Ramdas Pophale) SiO2 
 PCOD8217321
Probable space group: P N N A
;
_chemical_formula_sum "Si O2"
_cell_formula_units_Z 60
_cell_length_a 9.239116
_cell_length_b 16.307384
_cell_length_c 17.543854
_cell_angle_alpha 90.000000
_cell_angle_beta 90.000000
_cell_angle_gamma 90.000000
_cell_volume 2643.259016
_symmetry_space_group_name_H-M "P N N A"
_symmetry_group_IT_number 52
_symmetry_cell_setting 'orthorhombic'
loop_
_space_group_symop_operation_xyz
x,y,z
1/2-x,-y,z
x,1/2-y,1/2-z
1/2-x,1/2+y,1/2-z
-x,-y,-z
1/2+x,y,-z
-x,1/2+y,1/2+z
1/2+x,1/2-y,1/2+z
loop_
_atom_site_type_symbol
_atom_site_label
_atom_site_fract_x
_atom_site_fract_y
_atom_site_fract_z
Si Si1 0.703265 0.782191 0.335639
Si Si2 0.169538 0.079949 0.216976
Si Si3 0.898835 0.454662 0.202412
Si Si4 0.699314 0.750000 0.750000
Si Si5 0.094245 0.675678 0.533208
Si Si6 0.086505 0.967562 0.427114
Si Si7 0.177205 0.418450 0.456192
Si Si8 0.521561 0.786387 0.603436
O O1 0.717257 0.750000 0.250000
O O2 0.628194 0.869842 0.340081
O O3 0.605346 0.719274 0.384539
O O4 0.857836 0.798384 0.371756
O O5 0.206543 0.166327 0.258618
O O6 0.224374 0.089046 0.131215
O O7 0.996537 0.063142 0.222571
O O8 0.250000 0.000000 0.253924
O O9 0.750000 0.500000 0.226640
O O10 0.996803 0.508483 0.147361
O O11 0.604021 0.743378 0.673746
O O12 0.254314 0.655096 0.504740
O O13 0.996157 0.592496 0.538470
O O14 0.017794 0.731770 0.471344
O O15 0.096887 0.869820 0.423974
O O16 0.250000 0.000000 0.427981
O O17 0.000000 0.000000 0.500000
O O18 0.250000 0.500000 0.490584
#
# Coordination Sequence:
#
# PCOD8217321 Si02
#       8
#     8   8   8   4   8   8   8   8
#     4  12  27  47  75 109 150 193 251 310 382 457
#     4  11  26  46  74 110 146 199 255 317 383 458
#     4  12  25  46  71 107 153 191 244 311 383 460
#     4  12  24  46  76 108 156 200 264 314 392 466
#     4  12  25  47  72 107 144 193 243 306 375 452
#     4  12  27  47  73 109 149 200 253 316 390 469
#     4  11  25  47  72 104 141 188 251 307 371 447
#     4  12  25  44  75 107 149 202 248 315 383 463
#
# _framework density 22.699252000000001
#
# number of rings (size 3 to 8) (size 9 to 14) (size 15 to 20)
#    0.000    0.267    4.667    4.400    4.667    1.067 
#    0.000    1.333    0.000    0.000    0.000    0.000 
#    0.000    0.000    0.000    0.000    0.000    0.000 
#
# Total GULP energy -743876.406547 kJ/mol
# GULP energy per Si atom -12397.940109 kJ/mol
# Density = 2.264759 g / cm^3
# Si number density = 22.699252 Si / 1000 Ang^3
#
#
#
# Elastic Constant Matrix: (Units=GPa)
#
#
# Indices 1 2 3 4 5 6 
#
# 1 142.5586 51.8373 25.0732 0.0000 0.0000 0.0000
# 2 51.8373 123.0924 31.1119 0.0000 0.0000 0.0000
# 3 25.0732 31.1119 96.2267 0.0000 0.0000 0.0000
# 4 0.0000 0.0000 0.0000 30.6464 0.0000 0.0000
# 5 0.0000 0.0000 0.0000 0.0000 33.9025 0.0000
# 6 0.0000 0.0000 0.0000 0.0000 0.0000 42.8693
#
#
#
# Elastic Compliance Matrix: (Units=1/GPa)
#
#
# Indices 1 2 3 4 5 6 
#
# 1 0.008396 -0.003248 -0.001137 0.000000 0.000000 0.000000
# 2 -0.003248 0.010104 -0.002420 0.000000 0.000000 0.000000
# 3 -0.001137 -0.002420 0.011471 0.000000 0.000000 0.000000
# 4 0.000000 0.000000 0.000000 0.032630 0.000000 0.000000
# 5 0.000000 0.000000 0.000000 0.000000 0.029496 0.000000
# 6 0.000000 0.000000 0.000000 0.000000 0.000000 0.023327
#
#
# Mechanical properties :
#
#
# Convention : Reuss Voigt Hill
#
# Bulk Modulus (GPa) = 61.13016 64.21363 62.67190
# Shear Modulus (GPa) = 37.17786 38.40732 37.79259
#
# Velocity S-wave (km/s) = 4.05142 4.11787 4.08478
# Velocity P-wave (km/s) = 6.99101 7.13858 7.06518
#
# Compressibility (1/GPa) = 0.01635854
#
# Stress axis : x y z
#
# Youngs Moduli (GPa) = 119.10674 98.97437 87.17601
#
# Poissons Ratio (x) = 0.32149 0.09916
# Poissons Ratio (y) = 0.38688 0.21099
# Poissons Ratio (z) = 0.13548 0.23955
#
# Static dielectric constant tensor:
#      x y z
#    x 4.182140 0.000000 0.000000 
#    y 0.000000 4.312700 0.000000 
#    z 0.000000 0.000000 4.024280 
# 
# 
# High freq. dielectric constant tensor:
#      x y z
#    x 1.906410 0.000000 0.000000 
#    y 0.000000 1.906010 0.000000 
#    z 0.000000 0.000000 1.895920 
# 
# From -- ./inp_files/31488.got.cif
#   From: 2010.06.25/outbox.cif.g09.slc.cpg/sg52_16_cif.got.tgz:31488.got - 2010.06.26 19:32:48.
