data_PCOD8217967
_publ_section_title
;
Structure prediction by ZEFSAII (Michael W. Deem and Ramdas Pophale) SiO2 
 PCOD8217967
Probable space group: P M N A
;
_chemical_formula_sum "Si O2"
_cell_formula_units_Z 48
_cell_length_a 9.300625
_cell_length_b 16.869930
_cell_length_c 15.379273
_cell_angle_alpha 90.000000
_cell_angle_beta 90.000000
_cell_angle_gamma 90.000000
_cell_volume 2413.021663
_symmetry_space_group_name_H-M "P M N A"
_symmetry_group_IT_number 53
_symmetry_cell_setting 'orthorhombic'
loop_
_space_group_symop_operation_xyz
x,y,z
1/2-x,-y,1/2+z
x,-y,-z
1/2-x,y,1/2-z
-x,-y,-z
1/2+x,y,1/2-z
-x,y,z
1/2+x,-y,1/2+z
loop_
_atom_site_type_symbol
_atom_site_label
_atom_site_fract_x
_atom_site_fract_y
_atom_site_fract_z
Si Si1 0.658932 0.006029 0.896385
Si Si2 0.666447 0.835481 0.913802
Si Si3 0.331990 0.669505 0.836204
Si Si4 0.335300 0.593449 0.507533
Si Si5 0.835463 0.679474 0.165950
Si Si6 0.165375 0.153466 0.910510
O O1 0.500000 0.027608 0.861509
O O2 0.706968 0.918073 0.864103
O O3 0.766591 0.075058 0.865583
O O4 0.659891 0.000000 0.000000
O O5 0.500000 0.839264 0.943746
O O6 0.694564 0.763246 0.848799
O O7 0.760505 0.822821 0.999436
O O8 0.250000 0.641711 0.750000
O O9 0.500000 0.649523 0.827202
O O10 0.268410 0.621146 0.916225
O O11 0.324070 0.500000 0.500000
O O12 0.500000 0.620393 0.526098
O O13 0.278371 0.633177 0.418701
O O14 0.750000 0.649756 0.250000
O O15 0.814902 0.773693 0.155040
O O16 0.000000 0.656830 0.181904
O O17 0.000000 0.135481 0.930375
#
# Coordination Sequence:
#
# PCOD8217967 Si02
#       6
#     8   8   8   8   8   8
#     4   8  15  28  47  74 109 148 192 235 284 339
#     4   9  18  33  53  78 110 153 196 236 284 342
#     4  11  23  39  62  90 121 157 198 241 291 349
#     4  10  22  43  67  90 119 152 188 238 297 352
#     4  10  22  38  58  86 117 152 191 235 285 344
#     4  10  18  30  51  80 112 146 192 242 289 337
#
# _framework density 19.892071999999999
#
# number of rings (size 3 to 8) (size 9 to 14) (size 15 to 20)
#    0.000    2.333    1.667    2.000    0.000    6.667 
#    0.000    2.500    0.000    4.000    0.000    0.000 
#    0.000    0.000    0.000    0.000    0.000    0.000 
#
# Total GULP energy -595163.480733 kJ/mol
# GULP energy per Si atom -12399.239182 kJ/mol
# Density = 1.984680 g / cm^3
# Si number density = 19.892072 Si / 1000 Ang^3
#
#
#
# Elastic Constant Matrix: (Units=GPa)
#
#
# Indices 1 2 3 4 5 6 
#
# 1 108.2651 42.2159 64.5482 0.0000 0.0000 0.0000
# 2 42.2159 91.6494 37.2320 0.0000 0.0000 0.0000
# 3 64.5482 37.2320 113.5251 0.0000 0.0000 0.0000
# 4 0.0000 0.0000 0.0000 5.9048 0.0000 0.0000
# 5 0.0000 0.0000 0.0000 0.0000 27.8230 0.0000
# 6 0.0000 0.0000 0.0000 0.0000 0.0000 25.8765
#
#
#
# Elastic Compliance Matrix: (Units=1/GPa)
#
#
# Indices 1 2 3 4 5 6 
#
# 1 0.015154 -0.004015 -0.007300 0.000000 0.000000 0.000000
# 2 -0.004015 0.013652 -0.002195 0.000000 0.000000 0.000000
# 3 -0.007300 -0.002195 0.013679 0.000000 0.000000 0.000000
# 4 0.000000 0.000000 0.000000 0.169353 0.000000 0.000000
# 5 0.000000 0.000000 0.000000 0.000000 0.035941 0.000000
# 6 0.000000 0.000000 0.000000 0.000000 0.000000 0.038645
#
#
# Mechanical properties :
#
#
# Convention : Reuss Voigt Hill
#
# Bulk Modulus (GPa) = 64.65468 66.82575 65.74022
# Shear Modulus (GPa) = 15.69376 23.21712 19.45544
#
# Velocity S-wave (km/s) = 2.81186 3.42007 3.13077
# Velocity P-wave (km/s) = 6.56623 7.01876 6.79626
#
# Compressibility (1/GPa) = 0.01546678
#
# Stress axis : x y z
#
# Youngs Moduli (GPa) = 65.98823 73.24907 73.10597
#
# Poissons Ratio (x) = 0.29409 0.53365
# Poissons Ratio (y) = 0.26494 0.16043
# Poissons Ratio (z) = 0.48169 0.16075
#
# Static dielectric constant tensor:
#      x y z
#    x 3.668140 0.000000 0.000000 
#    y 0.000000 3.918480 0.000000 
#    z 0.000000 0.000000 3.234180 
# 
# 
# High freq. dielectric constant tensor:
#      x y z
#    x 1.774740 0.000000 0.000000 
#    y 0.000000 1.785090 0.000000 
#    z 0.000000 0.000000 1.748900 
# 
# From -- ./inp_files/20245.got.cif
#   From: 2010.03.12/outbox.cif.g09.slc.cpg/sg53_11_cif.got.tgz:20245.got - 2010.04.16 14:36:59.
