data_PCOD8217722
_publ_section_title
;
Structure prediction by ZEFSAII (Michael W. Deem and Ramdas Pophale) SiO2 
 PCOD8217722
Probable space group: P M N A
;
_chemical_formula_sum "Si O2"
_cell_formula_units_Z 64
_cell_length_a 9.095559
_cell_length_b 16.929400
_cell_length_c 26.459453
_cell_angle_alpha 90.000000
_cell_angle_beta 90.000000
_cell_angle_gamma 90.000000
_cell_volume 4074.288926
_symmetry_space_group_name_H-M "P M N A"
_symmetry_group_IT_number 53
_symmetry_cell_setting 'orthorhombic'
loop_
_space_group_symop_operation_xyz
x,y,z
1/2-x,-y,1/2+z
x,-y,-z
1/2-x,y,1/2-z
-x,-y,-z
1/2+x,y,1/2-z
-x,y,z
1/2+x,-y,1/2+z
loop_
_atom_site_type_symbol
_atom_site_label
_atom_site_fract_x
_atom_site_fract_y
_atom_site_fract_z
Si Si1 0.167283 0.372761 0.424393
Si Si2 0.830966 0.834741 0.063436
Si Si3 0.834216 0.522023 0.058443
Si Si4 0.169244 0.913151 0.697753
Si Si5 0.827581 0.325342 0.537667
Si Si6 0.168345 0.899674 0.953237
Si Si7 0.830894 0.788697 0.617986
Si Si8 0.826633 0.972722 0.392350
O O1 0.268217 0.447671 0.410756
O O2 0.208128 0.333745 0.478285
O O3 0.190416 0.306131 0.381065
O O4 0.000000 0.403047 0.426075
O O5 0.749882 0.751657 0.059523
O O6 0.752353 0.887391 0.106689
O O7 0.000000 0.819414 0.078028
O O8 0.817102 0.884646 0.012354
O O9 0.737320 0.599750 0.068127
O O10 0.000000 0.537410 0.076959
O O11 0.828373 0.500000 0.000000
O O12 0.250000 0.923147 0.750000
O O13 0.207978 0.828455 0.671878
O O14 0.000000 0.917995 0.710972
O O15 0.214562 0.983849 0.660036
O O16 0.000000 0.319590 0.548167
O O17 0.223861 0.821722 0.924800
O O18 0.000000 0.917214 0.938061
O O19 0.267766 0.974130 0.938497
O O20 0.000000 0.810241 0.603589
O O21 0.000000 0.961570 0.398665
#
# Coordination Sequence:
#
# PCOD8217722 Si02
#       8
#     8   8   8   8   8   8   8   8
#     4   9  16  27  43  61  84 115 154 188 215 257
#     4  11  21  30  42  63  91 118 149 188 227 262
#     4   9  17  27  39  57  85 117 150 188 223 252
#     4   9  19  34  51  68  88 113 144 184 229 273
#     4  10  18  28  43  60  83 121 159 186 219 258
#     4  10  19  29  42  62  89 117 147 184 224 262
#     4   9  17  30  46  66  89 117 152 186 221 266
#     4  10  21  34  47  63  84 114 151 184 220 270
#
# _framework density 15.708263000000001
#
# number of rings (size 3 to 8) (size 9 to 14) (size 15 to 20)
#    0.000    2.375    1.250    3.000    0.000    8.000 
#    0.000    0.000    0.000    0.000    0.000    0.000 
#    0.000    1.000    0.000    6.250    0.000    4.250 
#
# Total GULP energy -793473.942924 kJ/mol
# GULP energy per Si atom -12398.030358 kJ/mol
# Density = 1.567251 g / cm^3
# Si number density = 15.708263 Si / 1000 Ang^3
#
#
#
# Elastic Constant Matrix: (Units=GPa)
#
#
# Indices 1 2 3 4 5 6 
#
# 1 100.5333 68.1109 36.6709 0.0000 0.0000 0.0000
# 2 68.1109 126.2880 40.1003 0.0000 0.0000 0.0000
# 3 36.6709 40.1003 54.1148 0.0000 0.0000 0.0000
# 4 0.0000 0.0000 0.0000 11.6824 0.0000 0.0000
# 5 0.0000 0.0000 0.0000 0.0000 18.7242 0.0000
# 6 0.0000 0.0000 0.0000 0.0000 0.0000 29.3913
#
#
#
# Elastic Compliance Matrix: (Units=1/GPa)
#
#
# Indices 1 2 3 4 5 6 
#
# 1 0.017144 -0.007267 -0.006232 0.000000 0.000000 0.000000
# 2 -0.007267 0.013435 -0.005031 0.000000 0.000000 0.000000
# 3 -0.006232 -0.005031 0.026431 0.000000 0.000000 0.000000
# 4 0.000000 0.000000 0.000000 0.085599 0.000000 0.000000
# 5 0.000000 0.000000 0.000000 0.000000 0.053407 0.000000
# 6 0.000000 0.000000 0.000000 0.000000 0.000000 0.034024
#
#
# Mechanical properties :
#
#
# Convention : Reuss Voigt Hill
#
# Bulk Modulus (GPa) = 50.12939 63.41114 56.77026
# Shear Modulus (GPa) = 18.26479 21.02985 19.64732
#
# Velocity S-wave (km/s) = 3.41361 3.66290 3.54045
# Velocity P-wave (km/s) = 6.89340 7.63837 7.27543
#
# Compressibility (1/GPa) = 0.01994838
#
# Stress axis : x y z
#
# Youngs Moduli (GPa) = 58.33017 74.43013 37.83451
#
# Poissons Ratio (x) = 0.54090 0.23580
# Poissons Ratio (y) = 0.42390 0.19036
# Poissons Ratio (z) = 0.36353 0.37448
#
# Static dielectric constant tensor:
#      x y z
#    x 3.138350 0.000000 0.000000 
#    y 0.000000 3.120190 0.000000 
#    z 0.000000 0.000000 2.547200 
# 
# 
# High freq. dielectric constant tensor:
#      x y z
#    x 1.617840 0.000000 0.000000 
#    y 0.000000 1.609380 0.000000 
#    z 0.000000 0.000000 1.537630 
# 
# From -- ./inp_files/36472.got.cif
#   From: 2010.03.12/outbox.cif.g09.slc.cpg/sg53_19_cif.got.tgz:36472.got - 2010.04.16 14:36:59.
