data_PCOD8217809
_publ_section_title
;
Structure prediction by ZEFSAII (Michael W. Deem and Ramdas Pophale) SiO2 
 PCOD8217809
Probable space group: P M N A
;
_chemical_formula_sum "Si O2"
_cell_formula_units_Z 56
_cell_length_a 24.376150
_cell_length_b 25.616916
_cell_length_c 5.051775
_cell_angle_alpha 90.000000
_cell_angle_beta 90.000000
_cell_angle_gamma 90.000000
_cell_volume 3154.539408
_symmetry_space_group_name_H-M "P M N A"
_symmetry_group_IT_number 53
_symmetry_cell_setting 'orthorhombic'
loop_
_space_group_symop_operation_xyz
x,y,z
1/2-x,-y,1/2+z
x,-y,-z
1/2-x,y,1/2-z
-x,-y,-z
1/2+x,y,1/2-z
-x,y,z
1/2+x,-y,1/2+z
loop_
_atom_site_type_symbol
_atom_site_label
_atom_site_fract_x
_atom_site_fract_y
_atom_site_fract_z
Si Si1 0.813845 0.965917 0.749734
Si Si2 0.561680 0.555403 0.566166
Si Si3 0.876964 0.724986 0.267279
Si Si4 0.313658 0.755387 0.726856
Si Si5 0.937938 0.377245 0.546943
Si Si6 0.372920 0.858309 0.680289
Si Si7 0.563711 0.172421 0.806458
O O1 0.750000 0.951173 0.750000
O O2 0.847681 0.913055 0.739179
O O3 0.830601 0.000000 0.500000
O O4 0.830533 0.000000 0.000000
O O5 0.591763 0.500000 0.500000
O O6 0.500000 0.542784 0.666098
O O7 0.561259 0.586753 0.298935
O O8 0.588843 0.590077 0.801425
O O9 0.834759 0.746909 0.478880
O O10 0.900631 0.671552 0.380439
O O11 0.925936 0.766841 0.230339
O O12 0.844486 0.718110 0.988279
O O13 0.250000 0.742414 0.750000
O O14 0.324384 0.815640 0.646057
O O15 0.000000 0.358777 0.473624
O O16 0.404340 0.864211 0.401778
O O17 0.416290 0.839611 0.898558
O O18 0.500000 0.160004 0.787578
#
# Coordination Sequence:
#
# PCOD8217809 Si02
#       7
#     8   8   8   8   8   8   8
#     4  10  20  34  54  78 101 124 156 204 256 300
#     4   9  17  28  43  65  95 133 168 197 237 284
#     4  10  20  32  49  74  99 129 165 199 241 290
#     4  10  20  34  51  72 100 128 158 199 245 297
#     4  10  18  29  46  68 100 133 162 200 237 281
#     4  10  20  34  54  75  98 130 163 198 242 295
#     4  10  20  34  52  73 100 133 168 201 233 282
#
# _framework density 17.752195
#
# number of rings (size 3 to 8) (size 9 to 14) (size 15 to 20)
#    0.000    2.143    0.000    3.857    0.000    1.714 
#    0.000    8.571    0.000    8.571    0.000    0.000 
#    0.000   32.000    0.000    0.000    0.000    0.000 
#
# Total GULP energy -694302.461609 kJ/mol
# GULP energy per Si atom -12398.258243 kJ/mol
# Density = 1.771179 g / cm^3
# Si number density = 17.752195 Si / 1000 Ang^3
#
#
#
# Elastic Constant Matrix: (Units=GPa)
#
#
# Indices 1 2 3 4 5 6 
#
# 1 62.8000 33.9457 14.1571 0.0000 0.0000 0.0000
# 2 33.9457 109.5096 25.4739 0.0000 0.0000 0.0000
# 3 14.1571 25.4739 104.6455 0.0000 0.0000 0.0000
# 4 0.0000 0.0000 0.0000 67.8964 0.0000 0.0000
# 5 0.0000 0.0000 0.0000 0.0000 23.9562 0.0000
# 6 0.0000 0.0000 0.0000 0.0000 0.0000 21.5561
#
#
#
# Elastic Compliance Matrix: (Units=1/GPa)
#
#
# Indices 1 2 3 4 5 6 
#
# 1 0.019275 -0.005691 -0.001222 0.000000 0.000000 0.000000
# 2 -0.005691 0.011360 -0.001995 0.000000 0.000000 0.000000
# 3 -0.001222 -0.001995 0.010207 0.000000 0.000000 0.000000
# 4 0.000000 0.000000 0.000000 0.014728 0.000000 0.000000
# 5 0.000000 0.000000 0.000000 0.000000 0.041743 0.000000
# 6 0.000000 0.000000 0.000000 0.000000 0.000000 0.046390
#
#
# Mechanical properties :
#
#
# Convention : Reuss Voigt Hill
#
# Bulk Modulus (GPa) = 43.43058 47.12316 45.27687
# Shear Modulus (GPa) = 29.55161 36.24030 32.89595
#
# Velocity S-wave (km/s) = 4.08447 4.52315 4.30939
# Velocity P-wave (km/s) = 6.83826 7.34037 7.09376
#
# Compressibility (1/GPa) = 0.02302525
#
# Stress axis : x y z
#
# Youngs Moduli (GPa) = 51.88052 88.03017 97.97005
#
# Poissons Ratio (x) = 0.50094 0.11976
# Poissons Ratio (y) = 0.29523 0.19550
# Poissons Ratio (z) = 0.06342 0.17566
#
# Static dielectric constant tensor:
#      x y z
#    x 2.949700 0.000000 0.000000 
#    y 0.000000 3.064900 0.000000 
#    z 0.000000 0.000000 3.508030 
# 
# 
# High freq. dielectric constant tensor:
#      x y z
#    x 1.649460 0.000000 0.000000 
#    y 0.000000 1.680800 0.000000 
#    z 0.000000 0.000000 1.712590 
# 
# From -- ./inp_files/3050.got.cif
#   From: 2010.03.12/outbox.cif.g09.slc.cpg/sg53_2_cif.got.tgz:3050.got - 2010.04.16 14:36:59.
