data_PCOD8217797
_publ_section_title
;
Structure prediction by ZEFSAII (Michael W. Deem and Ramdas Pophale) SiO2 
 PCOD8217797
Probable space group: P M N A
;
_chemical_formula_sum "Si O2"
_cell_formula_units_Z 48
_cell_length_a 8.949727
_cell_length_b 12.969225
_cell_length_c 27.042909
_cell_angle_alpha 90.000000
_cell_angle_beta 90.000000
_cell_angle_gamma 90.000000
_cell_volume 3138.898117
_symmetry_space_group_name_H-M "P M N A"
_symmetry_group_IT_number 53
_symmetry_cell_setting 'orthorhombic'
loop_
_space_group_symop_operation_xyz
x,y,z
1/2-x,-y,1/2+z
x,-y,-z
1/2-x,y,1/2-z
-x,-y,-z
1/2+x,y,1/2-z
-x,y,z
1/2+x,-y,1/2+z
loop_
_atom_site_type_symbol
_atom_site_label
_atom_site_fract_x
_atom_site_fract_y
_atom_site_fract_z
Si Si1 0.325554 0.713015 0.950859
Si Si2 0.331907 0.508323 0.558598
Si Si3 0.669162 0.003078 0.799632
Si Si4 0.176805 0.115769 0.880222
Si Si5 0.669347 0.919107 0.900119
Si Si6 0.174336 0.697426 0.434006
O O1 0.500000 0.697107 0.940375
O O2 0.239807 0.617337 0.925992
O O3 0.263692 0.816528 0.924799
O O4 0.292203 0.721616 0.008859
O O5 0.331227 0.500000 0.500000
O O6 0.500000 0.501413 0.579618
O O7 0.232689 0.415976 0.580760
O O8 0.750000 0.965992 0.750000
O O9 0.500000 0.036235 0.787353
O O10 0.672026 0.909404 0.839875
O O11 0.755604 0.100261 0.824802
O O12 0.235242 0.222546 0.901256
O O13 0.000000 0.116989 0.878043
O O14 0.233309 0.020229 0.915028
O O15 0.500000 0.937157 0.919108
O O16 0.000000 0.704962 0.421802
#
# Coordination Sequence:
#
# PCOD8217797 Si02
#       6
#     8   8   8   8   8   8
#     4   9  17  30  46  63  87 122 157 186 219 262
#     4   9  17  28  42  62  87 116 152 190 225 259
#     4   9  17  31  49  67  89 114 144 182 222 267
#     4  10  19  30  44  65  92 118 149 183 223 269
#     4   8  17  31  45  64  90 117 149 183 220 268
#     4  10  18  29  45  63  88 122 157 188 219 261
#
# _framework density 15.29199
#
# number of rings (size 3 to 8) (size 9 to 14) (size 15 to 20)
#    1.000    1.833    0.000    2.500    0.000    4.000 
#    0.000    3.333    0.000    0.000    0.000    1.167 
#    0.000    2.667    0.000    0.000    0.000    0.000 
#
# Total GULP energy -594807.875343 kJ/mol
# GULP energy per Si atom -12391.830736 kJ/mol
# Density = 1.525718 g / cm^3
# Si number density = 15.291990 Si / 1000 Ang^3
#
#
#
# Elastic Constant Matrix: (Units=GPa)
#
#
# Indices 1 2 3 4 5 6 
#
# 1 92.2729 20.7483 13.6047 0.0000 0.0000 0.0000
# 2 20.7483 57.9696 5.1335 0.0000 0.0000 0.0000
# 3 13.6047 5.1335 27.9995 0.0000 0.0000 0.0000
# 4 0.0000 0.0000 0.0000 3.4919 0.0000 0.0000
# 5 0.0000 0.0000 0.0000 0.0000 19.8043 0.0000
# 6 0.0000 0.0000 0.0000 0.0000 0.0000 24.6513
#
#
#
# Elastic Compliance Matrix: (Units=1/GPa)
#
#
# Indices 1 2 3 4 5 6 
#
# 1 0.012528 -0.004010 -0.005352 0.000000 0.000000 0.000000
# 2 -0.004010 0.018819 -0.001502 0.000000 0.000000 0.000000
# 3 -0.005352 -0.001502 0.038591 0.000000 0.000000 0.000000
# 4 0.000000 0.000000 0.000000 0.286379 0.000000 0.000000
# 5 0.000000 0.000000 0.000000 0.000000 0.050494 0.000000
# 6 0.000000 0.000000 0.000000 0.000000 0.000000 0.040566
#
#
# Mechanical properties :
#
#
# Convention : Reuss Voigt Hill
#
# Bulk Modulus (GPa) = 20.74269 28.57943 24.66106
# Shear Modulus (GPa) = 10.30556 18.83986 14.57271
#
# Velocity S-wave (km/s) = 2.59881 3.51381 3.09036
# Velocity P-wave (km/s) = 4.75384 5.93230 5.37546
#
# Compressibility (1/GPa) = 0.04820975
#
# Stress axis : x y z
#
# Youngs Moduli (GPa) = 79.81961 53.13860 25.91286
#
# Poissons Ratio (x) = 0.21309 0.13869
# Poissons Ratio (y) = 0.32009 0.03892
# Poissons Ratio (z) = 0.42721 0.07980
#
# Static dielectric constant tensor:
#      x y z
#    x 3.013980 0.000000 0.000000 
#    y 0.000000 2.948810 0.000000 
#    z 0.000000 0.000000 2.605950 
# 
# 
# High freq. dielectric constant tensor:
#      x y z
#    x 1.599380 0.000000 0.000000 
#    y 0.000000 1.578120 0.000000 
#    z 0.000000 0.000000 1.541960 
# 
# From -- ./inp_files/37909.got.cif
#   From: 2010.03.12/outbox.cif.g09.slc.cpg/sg53_19_cif.got.tgz:37909.got - 2010.04.16 14:36:59.
