data_PCOD8217367
_publ_section_title
;
Structure prediction by ZEFSAII (Michael W. Deem and Ramdas Pophale) SiO2 
 PCOD8217367
Probable space group: P N N A
;
_chemical_formula_sum "Si O2"
_cell_formula_units_Z 24
_cell_length_a 22.112632
_cell_length_b 4.800567
_cell_length_c 9.871992
_cell_angle_alpha 90.000000
_cell_angle_beta 90.000000
_cell_angle_gamma 90.000000
_cell_volume 1047.943259
_symmetry_space_group_name_H-M "P N N A"
_symmetry_group_IT_number 52
_symmetry_cell_setting 'orthorhombic'
loop_
_space_group_symop_operation_xyz
x,y,z
1/2-x,-y,z
x,1/2-y,1/2-z
1/2-x,1/2+y,1/2-z
-x,-y,-z
1/2+x,y,-z
-x,1/2+y,1/2+z
1/2+x,1/2-y,1/2+z
loop_
_atom_site_type_symbol
_atom_site_label
_atom_site_fract_x
_atom_site_fract_y
_atom_site_fract_z
Si Si1 0.693804 0.178707 0.594465
Si Si2 0.880493 0.323750 0.520415
Si Si3 0.948881 0.250000 0.250000
Si Si4 0.030686 0.750000 0.250000
O O1 0.705949 0.250000 0.750000
O O2 0.679159 0.476684 0.525578
O O3 0.750000 0.000000 0.534454
O O4 0.635552 0.990123 0.565066
O O5 0.906184 0.353074 0.370803
O O6 0.930867 0.402794 0.631860
O O7 0.988524 0.504277 0.191925
#
# Coordination Sequence:
#
# PCOD8217367 Si02
#       4
#     8   8   4   4
#     4  12  23  43  70 100 127 170 228 283 329 389
#     4  12  24  43  68 101 136 173 223 275 333 392
#     4  12  26  42  66 100 142 182 216 272 336 402
#     4  12  22  44  66 100 136 182 230 266 320 396
#
# _framework density 22.902004000000002
#
# number of rings (size 3 to 8) (size 9 to 14) (size 15 to 20)
#    0.000    0.000    3.333    9.000    0.000    0.000 
#    0.000    3.333    0.000    2.000    0.000    0.000 
#    0.000    0.000    0.000    0.000    0.000    0.000 
#
# Total GULP energy -297590.807373 kJ/mol
# GULP energy per Si atom -12399.616974 kJ/mol
# Density = 2.284988 g / cm^3
# Si number density = 22.902004 Si / 1000 Ang^3
#
#
#
# Elastic Constant Matrix: (Units=GPa)
#
#
# Indices 1 2 3 4 5 6 
#
# 1 79.1027 27.5413 49.2905 0.0000 0.0000 0.0000
# 2 27.5413 123.4637 19.6393 0.0000 0.0000 0.0000
# 3 49.2905 19.6393 130.0879 0.0000 0.0000 0.0000
# 4 0.0000 0.0000 0.0000 26.3689 0.0000 0.0000
# 5 0.0000 0.0000 0.0000 0.0000 6.9787 0.0000
# 6 0.0000 0.0000 0.0000 0.0000 0.0000 60.4827
#
#
#
# Elastic Compliance Matrix: (Units=1/GPa)
#
#
# Indices 1 2 3 4 5 6 
#
# 1 0.017521 -0.002923 -0.006198 0.000000 0.000000 0.000000
# 2 -0.002923 0.008786 -0.000219 0.000000 0.000000 0.000000
# 3 -0.006198 -0.000219 0.010068 0.000000 0.000000 0.000000
# 4 0.000000 0.000000 0.000000 0.037923 0.000000 0.000000
# 5 0.000000 0.000000 0.000000 0.000000 0.143293 0.000000
# 6 0.000000 0.000000 0.000000 0.000000 0.000000 0.016534
#
#
# Mechanical properties :
#
#
# Convention : Reuss Voigt Hill
#
# Bulk Modulus (GPa) = 56.50544 58.39962 57.45253
# Shear Modulus (GPa) = 19.32713 34.51162 26.91937
#
# Velocity S-wave (km/s) = 2.90816 3.88613 3.43215
# Velocity P-wave (km/s) = 6.00023 6.75952 6.39116
#
# Compressibility (1/GPa) = 0.01769741
#
# Stress axis : x y z
#
# Youngs Moduli (GPa) = 57.07366 113.81284 99.32005
#
# Poissons Ratio (x) = 0.33263 0.61554
# Poissons Ratio (y) = 0.16681 0.02176
# Poissons Ratio (z) = 0.35372 0.02493
#
# Static dielectric constant tensor:
#      x y z
#    x 4.278300 0.000000 0.000000 
#    y 0.000000 4.458130 0.000000 
#    z 0.000000 0.000000 3.673840 
# 
# 
# High freq. dielectric constant tensor:
#      x y z
#    x 1.912860 0.000000 0.000000 
#    y 0.000000 1.929190 0.000000 
#    z 0.000000 0.000000 1.865950 
# 
# From -- ./inp_files/21031.got.cif
#   From: 2010.06.25/outbox.cif.g09.slc.cpg/sg52_11_cif.got.tgz:21031.got - 2010.06.26 19:32:48.
