data_PCOD8217429
_publ_section_title
;
Structure prediction by ZEFSAII (Michael W. Deem and Ramdas Pophale) SiO2 
 PCOD8217429
Probable space group: P N N A
;
_chemical_formula_sum "Si O2"
_cell_formula_units_Z 20
_cell_length_a 28.596484
_cell_length_b 4.839839
_cell_length_c 6.135464
_cell_angle_alpha 90.000000
_cell_angle_beta 90.000000
_cell_angle_gamma 90.000000
_cell_volume 849.162811
_symmetry_space_group_name_H-M "P N N A"
_symmetry_group_IT_number 52
_symmetry_cell_setting 'orthorhombic'
loop_
_space_group_symop_operation_xyz
x,y,z
1/2-x,-y,z
x,1/2-y,1/2-z
1/2-x,1/2+y,1/2-z
-x,-y,-z
1/2+x,y,-z
-x,1/2+y,1/2+z
1/2+x,1/2-y,1/2+z
loop_
_atom_site_type_symbol
_atom_site_label
_atom_site_fract_x
_atom_site_fract_y
_atom_site_fract_z
Si Si1 0.551645 0.496682 0.905420
Si Si2 0.750000 0.500000 0.900634
Si Si3 0.120020 0.250000 0.750000
Si Si4 0.319819 0.250000 0.750000
O O1 0.555780 0.250000 0.750000
O O2 0.564277 0.750000 0.750000
O O3 0.500000 0.500000 0.000000
O O4 0.588893 0.442992 0.093774
O O5 0.730709 0.250000 0.750000
O O6 0.709278 0.619987 0.052431
O O7 0.151447 0.492733 0.642052
#
# Coordination Sequence:
#
# PCOD8217429 Si02
#       4
#     8   4   4   4
#     4  12  26  45  74 103 143 202 252 299 365 429
#     4  12  26  50  84 108 148 198 244 304 384 466
#     4  12  27  46  74 110 156 188 250 316 355 444
#     4  12  27  50  76 114 150 192 246 312 379 440
#
# _framework density 23.552607999999999
#
# number of rings (size 3 to 8) (size 9 to 14) (size 15 to 20)
#    0.000    0.000    2.000    8.400    2.800    6.400 
#    0.000    4.000    0.000    0.000    0.000    0.000 
#    0.000    0.000    0.000    0.000    0.000    0.000 
#
# Total GULP energy -247779.628608 kJ/mol
# GULP energy per Si atom -12388.981430 kJ/mol
# Density = 2.349900 g / cm^3
# Si number density = 23.552608 Si / 1000 Ang^3
#
#
#
# Elastic Constant Matrix: (Units=GPa)
#
#
# Indices 1 2 3 4 5 6 
#
# 1 143.7945 83.8735 68.1070 0.0000 0.0000 0.0000
# 2 83.8735 231.3988 87.8468 0.0000 0.0000 0.0000
# 3 68.1070 87.8468 145.1199 0.0000 0.0000 0.0000
# 4 0.0000 0.0000 0.0000 67.7090 0.0000 0.0000
# 5 0.0000 0.0000 0.0000 0.0000 15.0450 0.0000
# 6 0.0000 0.0000 0.0000 0.0000 0.0000 57.1420
#
#
#
# Elastic Compliance Matrix: (Units=1/GPa)
#
#
# Indices 1 2 3 4 5 6 
#
# 1 0.009840 -0.002355 -0.003193 0.000000 0.000000 0.000000
# 2 -0.002355 0.006174 -0.002633 0.000000 0.000000 0.000000
# 3 -0.003193 -0.002633 0.009983 0.000000 0.000000 0.000000
# 4 0.000000 0.000000 0.000000 0.014769 0.000000 0.000000
# 5 0.000000 0.000000 0.000000 0.000000 0.066467 0.000000
# 6 0.000000 0.000000 0.000000 0.000000 0.000000 0.017500
#
#
# Mechanical properties :
#
#
# Convention : Reuss Voigt Hill
#
# Bulk Modulus (GPa) = 103.76163 111.10755 107.43459
# Shear Modulus (GPa) = 34.64860 46.67826 40.66343
#
# Velocity S-wave (km/s) = 3.83967 4.45665 4.15962
# Velocity P-wave (km/s) = 7.98801 8.58830 8.29359
#
# Compressibility (1/GPa) = 0.00963747
#
# Stress axis : x y z
#
# Youngs Moduli (GPa) = 101.62644 161.95915 100.17165
#
# Poissons Ratio (x) = 0.38134 0.31982
# Poissons Ratio (y) = 0.23928 0.26371
# Poissons Ratio (z) = 0.32447 0.42637
#
# Static dielectric constant tensor:
#      x y z
#    x 4.348850 0.000000 0.000000 
#    y 0.000000 4.889090 0.000000 
#    z 0.000000 0.000000 4.329160 
# 
# 
# High freq. dielectric constant tensor:
#      x y z
#    x 1.940990 0.000000 0.000000 
#    y 0.000000 1.975420 0.000000 
#    z 0.000000 0.000000 1.930860 
# 
# From -- ./inp_files/5420.got.cif
#   From: 2010.06.25/outbox.cif.g09.slc.cpg/sg52_3_cif.got.tgz:5420.got - 2010.06.26 19:32:48.
