data_PCOD8217723
_publ_section_title
;
Structure prediction by ZEFSAII (Michael W. Deem and Ramdas Pophale) SiO2 
 PCOD8217723
Probable space group: P M N A
;
_chemical_formula_sum "Si O2"
_cell_formula_units_Z 64
_cell_length_a 9.064819
_cell_length_b 18.205020
_cell_length_c 26.321269
_cell_angle_alpha 90.000000
_cell_angle_beta 90.000000
_cell_angle_gamma 90.000000
_cell_volume 4343.672976
_symmetry_space_group_name_H-M "P M N A"
_symmetry_group_IT_number 53
_symmetry_cell_setting 'orthorhombic'
loop_
_space_group_symop_operation_xyz
x,y,z
1/2-x,-y,1/2+z
x,-y,-z
1/2-x,y,1/2-z
-x,-y,-z
1/2+x,y,1/2-z
-x,y,z
1/2+x,-y,1/2+z
loop_
_atom_site_type_symbol
_atom_site_label
_atom_site_fract_x
_atom_site_fract_y
_atom_site_fract_z
Si Si1 0.173679 0.169478 0.699270
Si Si2 0.174816 0.324536 0.994304
Si Si3 0.662087 0.538721 0.553985
Si Si4 0.327893 0.916823 0.100110
Si Si5 0.333833 0.044036 0.447919
Si Si6 0.172240 0.663207 0.300158
Si Si7 0.673330 0.589962 0.095619
Si Si8 0.827048 0.170525 0.498370
O O1 0.250000 0.138281 0.750000
O O2 0.226995 0.121593 0.651563
O O3 0.223542 0.253261 0.689281
O O4 0.000000 0.163614 0.706319
O O5 0.211599 0.377558 0.042497
O O6 0.245285 0.247193 0.007496
O O7 0.000000 0.317424 0.986247
O O8 0.243783 0.356237 0.942792
O O9 0.652081 0.500000 0.500000
O O10 0.500000 0.536739 0.579937
O O11 0.778007 0.495158 0.589140
O O12 0.500000 0.936129 0.101314
O O13 0.239373 0.992939 0.095050
O O14 0.293452 0.861537 0.054041
O O15 0.500000 0.064837 0.431491
O O16 0.237322 0.117338 0.454797
O O17 0.333691 0.000000 0.500000
O O18 0.250000 0.631249 0.250000
O O19 0.217910 0.613598 0.347799
O O20 0.000000 0.659985 0.290142
O O21 0.500000 0.597568 0.085646
O O22 0.000000 0.180979 0.489171
#
# Coordination Sequence:
#
# PCOD8217723 Si02
#       8
#     8   8   8   8   8   8   8   8
#     4   9  17  29  42  57  80 107 137 172 206 238
#     4  10  19  29  41  59  84 111 139 170 204 244
#     4   8  16  29  41  56  80 108 136 167 204 244
#     4   9  17  29  43  58  80 110 139 169 205 242
#     4   9  17  28  41  59  82 106 135 169 202 241
#     4   9  18  30  42  59  82 108 139 174 208 241
#     4  10  18  28  43  61  81 107 141 175 206 243
#     4  10  18  28  43  61  82 109 140 171 205 243
#
# _framework density 14.734074
#
# number of rings (size 3 to 8) (size 9 to 14) (size 15 to 20)
#    0.000    2.750    0.000    3.000    0.000    8.250 
#    0.000    2.500    0.000    0.000    0.000    0.000 
#    0.000    1.000    0.000    5.000    0.000    4.875 
#
# Total GULP energy -793470.660610 kJ/mol
# GULP energy per Si atom -12397.979072 kJ/mol
# Density = 1.470054 g / cm^3
# Si number density = 14.734074 Si / 1000 Ang^3
#
#
#
# Elastic Constant Matrix: (Units=GPa)
#
#
# Indices 1 2 3 4 5 6 
#
# 1 76.2004 55.7193 43.0041 0.0000 0.0000 0.0000
# 2 55.7193 107.4105 55.1474 0.0000 0.0000 0.0000
# 3 43.0041 55.1474 82.4679 0.0000 0.0000 0.0000
# 4 0.0000 0.0000 0.0000 22.9583 0.0000 0.0000
# 5 0.0000 0.0000 0.0000 0.0000 22.3929 0.0000
# 6 0.0000 0.0000 0.0000 0.0000 0.0000 25.8060
#
#
#
# Elastic Compliance Matrix: (Units=1/GPa)
#
#
# Indices 1 2 3 4 5 6 
#
# 1 0.023005 -0.008794 -0.006116 0.000000 0.000000 0.000000
# 2 -0.008794 0.017539 -0.007143 0.000000 0.000000 0.000000
# 3 -0.006116 -0.007143 0.020092 0.000000 0.000000 0.000000
# 4 0.000000 0.000000 0.000000 0.043557 0.000000 0.000000
# 5 0.000000 0.000000 0.000000 0.000000 0.044657 0.000000
# 6 0.000000 0.000000 0.000000 0.000000 0.000000 0.038751
#
#
# Mechanical properties :
#
#
# Convention : Reuss Voigt Hill
#
# Bulk Modulus (GPa) = 60.49348 63.75781 62.12564
# Shear Modulus (GPa) = 21.07778 21.71197 21.39488
#
# Velocity S-wave (km/s) = 3.78636 3.84290 3.81473
# Velocity P-wave (km/s) = 7.76282 7.94083 7.85233
#
# Compressibility (1/GPa) = 0.01653071
#
# Stress axis : x y z
#
# Youngs Moduli (GPa) = 43.46888 57.01460 49.77172
#
# Poissons Ratio (x) = 0.50138 0.30439
# Poissons Ratio (y) = 0.38226 0.35552
# Poissons Ratio (z) = 0.26584 0.40726
#
# Static dielectric constant tensor:
#      x y z
#    x 2.945040 0.000000 0.000000 
#    y 0.000000 2.991300 0.000000 
#    z 0.000000 0.000000 2.695990 
# 
# 
# High freq. dielectric constant tensor:
#      x y z
#    x 1.575000 0.000000 0.000000 
#    y 0.000000 1.553990 0.000000 
#    z 0.000000 0.000000 1.528160 
# 
# From -- ./inp_files/34505.got.cif
#   From: 2010.03.12/outbox.cif.g09.slc.cpg/sg53_18_cif.got.tgz:34505.got - 2010.04.16 14:36:59.
