data_PCOD8217991
_publ_section_title
;
Structure prediction by ZEFSAII (Michael W. Deem and Ramdas Pophale) SiO2 
 PCOD8217991
Probable space group: P M N A
;
_chemical_formula_sum "Si O2"
_cell_formula_units_Z 64
_cell_length_a 9.211513
_cell_length_b 18.842548
_cell_length_c 21.373754
_cell_angle_alpha 90.000000
_cell_angle_beta 90.000000
_cell_angle_gamma 90.000000
_cell_volume 3709.807768
_symmetry_space_group_name_H-M "P M N A"
_symmetry_group_IT_number 53
_symmetry_cell_setting 'orthorhombic'
loop_
_space_group_symop_operation_xyz
x,y,z
1/2-x,-y,1/2+z
x,-y,-z
1/2-x,y,1/2-z
-x,-y,-z
1/2+x,y,1/2-z
-x,y,z
1/2+x,-y,1/2+z
loop_
_atom_site_type_symbol
_atom_site_label
_atom_site_fract_x
_atom_site_fract_y
_atom_site_fract_z
Si Si1 0.328876 0.824820 0.007682
Si Si2 0.832678 0.971282 0.812810
Si Si3 0.665287 0.697778 0.691229
Si Si4 0.670853 0.048223 0.559537
Si Si5 0.163196 0.537799 0.066518
Si Si6 0.667637 0.412285 0.116381
Si Si7 0.166596 0.337891 0.515892
Si Si8 0.162991 0.835830 0.884581
O O1 0.500000 0.834225 0.011237
O O2 0.252657 0.876169 0.057670
O O3 0.282808 0.743605 0.020996
O O4 0.277005 0.848848 0.939237
O O5 0.750000 0.995196 0.750000
O O6 0.802793 0.888060 0.826635
O O7 0.000000 0.986756 0.799432
O O8 0.780617 0.013078 0.874917
O O9 0.750000 0.730302 0.750000
O O10 0.500000 0.679995 0.709023
O O11 0.746125 0.626166 0.671467
O O12 0.673022 0.754867 0.636295
O O13 0.500000 0.061846 0.557855
O O14 0.717871 0.000000 0.500000
O O15 0.263421 0.490367 0.111273
O O16 0.232789 0.616039 0.061992
O O17 0.000000 0.544434 0.093462
O O18 0.159942 0.500000 0.000000
O O19 0.500000 0.420476 0.134717
O O20 0.686817 0.365607 0.054316
O O21 0.000000 0.346865 0.536880
O O22 0.000000 0.853292 0.909752
#
# Coordination Sequence:
#
# PCOD8217991 Si02
#       8
#     8   8   8   8   8   8   8   8
#     4  11  21  32  51  79 107 136 175 219 262 311
#     4  10  21  37  56  77 102 137 177 221 267 316
#     4  11  22  33  48  69  98 136 179 220 257 306
#     4  10  20  37  56  74 105 142 177 215 266 326
#     4   9  17  28  45  70  95 123 162 200 238 292
#     4  10  18  31  48  66  96 132 166 207 254 301
#     4   9  18  31  46  69 100 131 161 201 255 305
#     4  10  20  35  52  71 101 141 178 213 261 315
#
# _framework density 17.251567000000001
#
# number of rings (size 3 to 8) (size 9 to 14) (size 15 to 20)
#    0.000    2.000    2.500    1.875    0.000    4.750 
#    0.000    0.000    0.000    0.000    0.000    0.875 
#    0.000    4.000    0.000    0.000    0.000    0.000 
#
# Total GULP energy -793580.008672 kJ/mol
# GULP energy per Si atom -12399.687636 kJ/mol
# Density = 1.721230 g / cm^3
# Si number density = 17.251567 Si / 1000 Ang^3
#
#
#
# Elastic Constant Matrix: (Units=GPa)
#
#
# Indices 1 2 3 4 5 6 
#
# 1 102.4229 54.4251 40.2224 0.0000 0.0000 0.0000
# 2 54.4251 102.6951 38.3755 0.0000 0.0000 0.0000
# 3 40.2224 38.3755 75.2830 0.0000 0.0000 0.0000
# 4 0.0000 0.0000 0.0000 20.6205 0.0000 0.0000
# 5 0.0000 0.0000 0.0000 0.0000 29.1254 0.0000
# 6 0.0000 0.0000 0.0000 0.0000 0.0000 31.4622
#
#
#
# Elastic Compliance Matrix: (Units=1/GPa)
#
#
# Indices 1 2 3 4 5 6 
#
# 1 0.014905 -0.006082 -0.004863 0.000000 0.000000 0.000000
# 2 -0.006082 0.014511 -0.004147 0.000000 0.000000 0.000000
# 3 -0.004863 -0.004147 0.017996 0.000000 0.000000 0.000000
# 4 0.000000 0.000000 0.000000 0.048495 0.000000 0.000000
# 5 0.000000 0.000000 0.000000 0.000000 0.034334 0.000000
# 6 0.000000 0.000000 0.000000 0.000000 0.000000 0.031784
#
#
# Mechanical properties :
#
#
# Convention : Reuss Voigt Hill
#
# Bulk Modulus (GPa) = 58.05062 60.71633 59.38347
# Shear Modulus (GPa) = 25.25863 26.06682 25.66272
#
# Velocity S-wave (km/s) = 3.83055 3.89135 3.86107
# Velocity P-wave (km/s) = 7.29977 7.44723 7.37387
#
# Compressibility (1/GPa) = 0.01722635
#
# Stress axis : x y z
#
# Youngs Moduli (GPa) = 67.09132 68.91543 55.56894
#
# Poissons Ratio (x) = 0.41913 0.27025
# Poissons Ratio (y) = 0.40804 0.23046
# Poissons Ratio (z) = 0.32628 0.28581
#
# Static dielectric constant tensor:
#      x y z
#    x 3.294510 0.000000 0.000000 
#    y 0.000000 3.266370 0.000000 
#    z 0.000000 0.000000 2.912750 
# 
# 
# High freq. dielectric constant tensor:
#      x y z
#    x 1.674730 0.000000 0.000000 
#    y 0.000000 1.663980 0.000000 
#    z 0.000000 0.000000 1.626600 
# 
# From -- ./inp_files/31142.got.cif
#   From: 2010.03.12/outbox.cif.g09.slc.cpg/sg53_16_cif.got.tgz:31142.got - 2010.04.16 14:36:59.
