data_PCOD8217038
_publ_section_title
;
Structure prediction by ZEFSAII (Michael W. Deem and Ramdas Pophale) SiO2 
 PCOD8217038
Probable space group: P N N A
;
_chemical_formula_sum "Si O2"
_cell_formula_units_Z 40
_cell_length_a 14.410305
_cell_length_b 16.832024
_cell_length_c 7.607018
_cell_angle_alpha 90.000000
_cell_angle_beta 90.000000
_cell_angle_gamma 90.000000
_cell_volume 1845.117205
_symmetry_space_group_name_H-M "P N N A"
_symmetry_group_IT_number 52
_symmetry_cell_setting 'orthorhombic'
loop_
_space_group_symop_operation_xyz
x,y,z
1/2-x,-y,z
x,1/2-y,1/2-z
1/2-x,1/2+y,1/2-z
-x,-y,-z
1/2+x,y,-z
-x,1/2+y,1/2+z
1/2+x,1/2-y,1/2+z
loop_
_atom_site_type_symbol
_atom_site_label
_atom_site_fract_x
_atom_site_fract_y
_atom_site_fract_z
Si Si1 0.097085 0.913373 0.509626
Si Si2 0.146220 0.470704 0.701158
Si Si3 0.641362 0.482797 0.691982
Si Si4 0.222197 0.322491 0.864537
Si Si5 0.925369 0.823158 0.635231
O O1 0.193647 0.869175 0.545612
O O2 0.012949 0.852272 0.522036
O O3 0.083709 0.983786 0.653882
O O4 0.093113 0.951120 0.314907
O O5 0.250000 0.500000 0.714286
O O6 0.104496 0.489618 0.508575
O O7 0.154069 0.377648 0.746306
O O8 0.750000 0.500000 0.701503
O O9 0.618963 0.394419 0.753842
O O10 0.262485 0.250000 0.750000
O O11 0.156022 0.287415 0.014709
O O12 0.961991 0.750000 0.750000
#
# Coordination Sequence:
#
# PCOD8217038 Si02
#       5
#     8   8   8   8   8
#     4  11  22  44  66  95 129 179 219 272 329 397
#     4   9  20  37  66  95 122 169 224 260 319 393
#     4  11  20  41  70  96 127 177 226 266 322 399
#     4  11  22  43  65  92 140 175 217 282 339 388
#     4  12  25  41  64  99 136 170 222 276 332 389
#
# _framework density 21.678840999999998
#
# number of rings (size 3 to 8) (size 9 to 14) (size 15 to 20)
#    0.000    1.200    4.000    3.000    0.000    0.800 
#    3.600    1.000    0.000    0.000    0.000    0.000 
#    0.000    0.000    0.000    0.000    0.000    0.000 
#
# Total GULP energy -495958.811330 kJ/mol
# GULP energy per Si atom -12398.970283 kJ/mol
# Density = 2.162950 g / cm^3
# Si number density = 21.678841 Si / 1000 Ang^3
#
#
#
# Elastic Constant Matrix: (Units=GPa)
#
#
# Indices 1 2 3 4 5 6 
#
# 1 61.8629 5.7576 -6.2524 0.0000 0.0000 0.0000
# 2 5.7576 87.0767 -3.1505 0.0000 0.0000 0.0000
# 3 -6.2524 -3.1505 74.9411 0.0000 0.0000 0.0000
# 4 0.0000 0.0000 0.0000 41.5747 0.0000 0.0000
# 5 0.0000 0.0000 0.0000 0.0000 8.5615 0.0000
# 6 0.0000 0.0000 0.0000 0.0000 0.0000 -29.9264
#
#
#
# Elastic Compliance Matrix: (Units=1/GPa)
#
#
# Indices 1 2 3 4 5 6 
#
# 1 0.016395 -0.001036 0.001324 0.000000 0.000000 0.000000
# 2 -0.001036 0.011567 0.000400 0.000000 0.000000 0.000000
# 3 0.001324 0.000400 0.013471 0.000000 0.000000 0.000000
# 4 0.000000 0.000000 0.000000 0.024053 0.000000 0.000000
# 5 0.000000 0.000000 0.000000 0.000000 0.116802 0.000000
# 6 0.000000 0.000000 0.000000 0.000000 0.000000 -0.033415
#
#
# Mechanical properties :
#
#
# Convention : Reuss Voigt Hill
#
# Bulk Modulus (GPa) = 23.35945 24.06557 23.71251
# Shear Modulus (GPa) = 30.90868 19.21036 25.05952
#
# Velocity S-wave (km/s) = 3.78001 2.98003 3.40361
# Velocity P-wave (km/s) = 5.46351 4.79227 5.13886
#
# Compressibility (1/GPa) = 0.04280923
#
# Stress axis : x y z
#
# Youngs Moduli (GPa) = 60.99397 86.45207 74.23293
#
# Poissons Ratio (x) = 0.08958 -0.09831
# Poissons Ratio (y) = 0.06320 -0.02968
# Poissons Ratio (z) = -0.08077 -0.03457
#
# Static dielectric constant tensor:
#      x y z
#    x 3.813800 0.000000 0.000000 
#    y 0.000000 3.871660 0.000000 
#    z 0.000000 0.000000 4.209060 
# 
# 
# High freq. dielectric constant tensor:
#      x y z
#    x 1.856760 0.000000 0.000000 
#    y 0.000000 1.844180 0.000000 
#    z 0.000000 0.000000 1.854050 
# 
# From -- ./inp_files/10076.got.cif
#   From: 2010.06.25/outbox.cif.g09.slc.cpg/sg52_6_cif.got.tgz:10076.got - 2010.06.26 19:32:48.
