data_PCOD8217623
_publ_section_title
;
Structure prediction by ZEFSAII (Michael W. Deem and Ramdas Pophale) SiO2 
 PCOD8217623
Probable space group: P M N A
;
_chemical_formula_sum "Si O2"
_cell_formula_units_Z 48
_cell_length_a 25.983339
_cell_length_b 12.521563
_cell_length_c 9.520091
_cell_angle_alpha 90.000000
_cell_angle_beta 90.000000
_cell_angle_gamma 90.000000
_cell_volume 3097.380802
_symmetry_space_group_name_H-M "P M N A"
_symmetry_group_IT_number 53
_symmetry_cell_setting 'orthorhombic'
loop_
_space_group_symop_operation_xyz
x,y,z
1/2-x,-y,1/2+z
x,-y,-z
1/2-x,y,1/2-z
-x,-y,-z
1/2+x,y,1/2-z
-x,y,z
1/2+x,-y,1/2+z
loop_
_atom_site_type_symbol
_atom_site_label
_atom_site_fract_x
_atom_site_fract_y
_atom_site_fract_z
Si Si1 0.246439 0.105996 0.413848
Si Si2 0.863989 0.361535 0.773794
Si Si3 0.173630 0.278830 0.493444
Si Si4 0.136729 0.393127 0.231425
Si Si5 0.285939 0.320424 0.488467
Si Si6 0.057482 0.627034 0.996322
O O1 0.250000 0.078527 0.250000
O O2 0.190657 0.156646 0.457763
O O3 0.290233 0.193405 0.453190
O O4 0.257313 0.000000 0.500000
O O5 0.858530 0.285728 0.637982
O O6 0.871129 0.483909 0.726438
O O7 0.812846 0.348069 0.865881
O O8 0.913861 0.326913 0.865219
O O9 0.137713 0.323164 0.370934
O O10 0.225572 0.351961 0.502096
O O11 0.188979 0.385683 0.139774
O O12 0.089669 0.342697 0.142186
O O13 0.000000 0.675434 0.989444
O O14 0.056243 0.500000 0.000000
#
# Coordination Sequence:
#
# PCOD8217623 Si02
#       6
#     8   8   8   8   8   8
#     4  10  21  34  47  61  91 129 157 194 226 258
#     4  10  19  26  46  69  93 130 153 183 224 273
#     4  10  19  30  41  69  98 120 154 195 217 270
#     4  10  17  30  44  65  97 127 157 184 224 265
#     4   9  18  31  42  65  94 127 156 187 208 273
#     4   8  16  31  47  62  86 124 163 192 222 265
#
# _framework density 15.496964
#
# number of rings (size 3 to 8) (size 9 to 14) (size 15 to 20)
#    1.000    1.500    1.667    3.000    2.333    4.000 
#    0.000    0.833    0.000    4.000    0.000    0.000 
#    0.000   25.333    0.000    0.000    0.000    0.000 
#
# Total GULP energy -594838.550167 kJ/mol
# GULP energy per Si atom -12392.469795 kJ/mol
# Density = 1.546169 g / cm^3
# Si number density = 15.496964 Si / 1000 Ang^3
#
#
#
# Elastic Constant Matrix: (Units=GPa)
#
#
# Indices 1 2 3 4 5 6 
#
# 1 86.7593 6.4429 34.0375 0.0000 0.0000 0.0000
# 2 6.4429 46.9490 20.7206 0.0000 0.0000 0.0000
# 3 34.0375 20.7206 117.9907 0.0000 0.0000 0.0000
# 4 0.0000 0.0000 0.0000 21.3101 0.0000 0.0000
# 5 0.0000 0.0000 0.0000 0.0000 10.9424 0.0000
# 6 0.0000 0.0000 0.0000 0.0000 0.0000 2.9602
#
#
#
# Elastic Compliance Matrix: (Units=1/GPa)
#
#
# Indices 1 2 3 4 5 6 
#
# 1 0.012998 -0.000140 -0.003725 0.000000 0.000000 0.000000
# 2 -0.000140 0.023091 -0.004015 0.000000 0.000000 0.000000
# 3 -0.003725 -0.004015 0.010255 0.000000 0.000000 0.000000
# 4 0.000000 0.000000 0.000000 0.046926 0.000000 0.000000
# 5 0.000000 0.000000 0.000000 0.000000 0.091388 0.000000
# 6 0.000000 0.000000 0.000000 0.000000 0.000000 0.337821
#
#
# Mechanical properties :
#
#
# Convention : Reuss Voigt Hill
#
# Bulk Modulus (GPa) = 32.69621 41.56678 37.13149
# Shear Modulus (GPa) = 9.11691 19.74239 14.42965
#
# Velocity S-wave (km/s) = 2.42813 3.57312 3.05475
# Velocity P-wave (km/s) = 5.38566 6.62598 6.03776
#
# Compressibility (1/GPa) = 0.03058459
#
# Stress axis : x y z
#
# Youngs Moduli (GPa) = 76.93526 43.30740 97.51460
#
# Poissons Ratio (x) = 0.00605 0.36325
# Poissons Ratio (y) = 0.01075 0.39149
# Poissons Ratio (z) = 0.28659 0.17387
#
# Static dielectric constant tensor:
#      x y z
#    x 2.925580 0.000000 0.000000 
#    y 0.000000 2.621830 0.000000 
#    z 0.000000 0.000000 3.055400 
# 
# 
# High freq. dielectric constant tensor:
#      x y z
#    x 1.563900 0.000000 0.000000 
#    y 0.000000 1.556020 0.000000 
#    z 0.000000 0.000000 1.606680 
# 
# From -- ./inp_files/13142.got.cif
#   From: 2010.03.12/outbox.cif.g09.slc.cpg/sg53_7_cif.got.tgz:13142.got - 2010.04.16 14:36:59.
