data_PCOD8217420
_publ_section_title
;
Structure prediction by ZEFSAII (Michael W. Deem and Ramdas Pophale) SiO2 
 PCOD8217420
Probable space group: P N N A
;
_chemical_formula_sum "Si O2"
_cell_formula_units_Z 32
_cell_length_a 14.243779
_cell_length_b 4.737925
_cell_length_c 19.959230
_cell_angle_alpha 90.000000
_cell_angle_beta 90.000000
_cell_angle_gamma 90.000000
_cell_volume 1346.967730
_symmetry_space_group_name_H-M "P N N A"
_symmetry_group_IT_number 52
_symmetry_cell_setting 'orthorhombic'
loop_
_space_group_symop_operation_xyz
x,y,z
1/2-x,-y,z
x,1/2-y,1/2-z
1/2-x,1/2+y,1/2-z
-x,-y,-z
1/2+x,y,-z
-x,1/2+y,1/2+z
1/2+x,1/2-y,1/2+z
loop_
_atom_site_type_symbol
_atom_site_label
_atom_site_fract_x
_atom_site_fract_y
_atom_site_fract_z
Si Si1 0.250000 0.000000 0.439970
Si Si2 0.402759 0.250000 0.250000
Si Si3 0.968288 0.250000 0.250000
Si Si4 0.590344 0.561442 0.042519
Si Si5 0.638237 0.458723 0.370308
Si Si6 0.250000 0.500000 0.348222
O O1 0.330909 0.100198 0.487731
O O2 0.289357 0.749600 0.393903
O O3 0.465312 0.504364 0.217644
O O4 0.337825 0.387929 0.306255
O O5 0.903279 0.434417 0.299722
O O6 0.614547 0.360432 0.106719
O O7 0.582912 0.869785 0.073389
O O8 0.500000 0.500000 0.000000
O O9 0.750000 0.500000 0.369192
#
# Coordination Sequence:
#
# PCOD8217420 Si02
#       6
#     4   4   4   8   8   4
#     4  12  25  46  78 110 141 198 240 302 372 448
#     4  12  27  51  68 116 146 196 246 311 359 450
#     4  12  29  45  82 104 144 196 258 303 367 438
#     4  12  27  47  76 109 147 192 246 304 369 440
#     4  12  26  52  73 106 150 192 245 310 366 436
#     4  12  27  46  76 100 159 186 238 298 380 432
#
# _framework density 23.757064
#
# number of rings (size 3 to 8) (size 9 to 14) (size 15 to 20)
#    0.000    0.000    2.500    6.750   10.500    3.000 
#    0.000    0.000    0.000    0.000    0.000    0.000 
#    0.000    0.000    0.000    0.000    0.000    0.000 
#
# Total GULP energy -396554.447775 kJ/mol
# GULP energy per Si atom -12392.326493 kJ/mol
# Density = 2.370299 g / cm^3
# Si number density = 23.757064 Si / 1000 Ang^3
#
#
#
# Elastic Constant Matrix: (Units=GPa)
#
#
# Indices 1 2 3 4 5 6 
#
# 1 109.6580 6.6156 24.0905 0.0000 0.0000 0.0000
# 2 6.6156 106.8313 22.6742 0.0000 0.0000 0.0000
# 3 24.0905 22.6742 113.5833 0.0000 0.0000 0.0000
# 4 0.0000 0.0000 0.0000 82.4060 0.0000 0.0000
# 5 0.0000 0.0000 0.0000 0.0000 78.4146 0.0000
# 6 0.0000 0.0000 0.0000 0.0000 0.0000 41.5601
#
#
#
# Elastic Compliance Matrix: (Units=1/GPa)
#
#
# Indices 1 2 3 4 5 6 
#
# 1 0.009568 -0.000169 -0.001996 0.000000 0.000000 0.000000
# 2 -0.000169 0.009778 -0.001916 0.000000 0.000000 0.000000
# 3 -0.001996 -0.001916 0.009610 0.000000 0.000000 0.000000
# 4 0.000000 0.000000 0.000000 0.012135 0.000000 0.000000
# 5 0.000000 0.000000 0.000000 0.000000 0.012753 0.000000
# 6 0.000000 0.000000 0.000000 0.000000 0.000000 0.024062
#
#
# Mechanical properties :
#
#
# Convention : Reuss Voigt Hill
#
# Bulk Modulus (GPa) = 48.09022 48.53704 48.31363
# Shear Modulus (GPa) = 53.76503 58.92230 56.34366
#
# Velocity S-wave (km/s) = 4.76238 4.98556 4.87525
# Velocity P-wave (km/s) = 7.10822 7.32230 7.21606
#
# Compressibility (1/GPa) = 0.02079425
#
# Stress axis : x y z
#
# Youngs Moduli (GPa) = 104.51665 102.27378 104.05989
#
# Poissons Ratio (x) = 0.01728 0.20766
# Poissons Ratio (y) = 0.01766 0.19938
# Poissons Ratio (z) = 0.20857 0.19596
#
# Static dielectric constant tensor:
#      x y z
#    x 3.716890 0.000000 0.000000 
#    y 0.000000 4.472790 0.000000 
#    z 0.000000 0.000000 4.396720 
# 
# 
# High freq. dielectric constant tensor:
#      x y z
#    x 1.951520 0.000000 0.000000 
#    y 0.000000 1.966060 0.000000 
#    z 0.000000 0.000000 1.945200 
# 
# From -- ./inp_files/32681.got.cif
#   From: 2010.06.25/outbox.cif.g09.slc.cpg/sg52_17_cif.got.tgz:32681.got - 2010.06.26 19:32:48.
