data_PCOD8217403
_publ_section_title
;
Structure prediction by ZEFSAII (Michael W. Deem and Ramdas Pophale) SiO2 
 PCOD8217403
Probable space group: P N N A
;
_chemical_formula_sum "Si O2"
_cell_formula_units_Z 32
_cell_length_a 15.658412
_cell_length_b 14.823130
_cell_length_c 5.071499
_cell_angle_alpha 90.000000
_cell_angle_beta 90.000000
_cell_angle_gamma 90.000000
_cell_volume 1177.128779
_symmetry_space_group_name_H-M "P N N A"
_symmetry_group_IT_number 52
_symmetry_cell_setting 'orthorhombic'
loop_
_space_group_symop_operation_xyz
x,y,z
1/2-x,-y,z
x,1/2-y,1/2-z
1/2-x,1/2+y,1/2-z
-x,-y,-z
1/2+x,y,-z
-x,1/2+y,1/2+z
1/2+x,1/2-y,1/2+z
loop_
_atom_site_type_symbol
_atom_site_label
_atom_site_fract_x
_atom_site_fract_y
_atom_site_fract_z
Si Si1 0.750000 0.500000 0.035532
Si Si2 0.320352 0.842877 0.895683
Si Si3 0.908619 0.097391 0.633197
Si Si4 0.192485 0.750000 0.250000
Si Si5 0.505048 0.146667 0.842903
O O1 0.721204 0.414502 0.203419
O O2 0.834627 0.478403 0.862890
O O3 0.347363 0.750000 0.750000
O O4 0.248590 0.825346 0.110045
O O5 0.402437 0.881243 0.049050
O O6 0.865263 0.193137 0.543898
O O7 0.983227 0.083031 0.412371
O O8 0.939832 0.115923 0.929866
O O9 0.504294 0.250000 0.750000
#
# Coordination Sequence:
#
# PCOD8217403 Si02
#       5
#     4   8   8   4   8
#     4  12  30  52  82 126 168 222 278 350 414 500
#     4  12  27  52  80 117 169 217 280 344 419 493
#     4  12  27  48  82 116 164 211 278 332 412 491
#     4  12  24  46  86 112 162 218 274 334 412 496
#     4  12  25  49  82 118 159 220 270 341 413 492
#
# _framework density 27.184791000000001
#
# number of rings (size 3 to 8) (size 9 to 14) (size 15 to 20)
#    0.000    0.000    6.250    3.000    0.000    6.000 
#    0.000    0.000    0.000    0.000    0.000    0.000 
#    0.000    0.000    0.000    0.000    0.000    0.000 
#
# Total GULP energy -396633.632921 kJ/mol
# GULP energy per Si atom -12394.801029 kJ/mol
# Density = 2.712292 g / cm^3
# Si number density = 27.184791 Si / 1000 Ang^3
#
#
#
# Elastic Constant Matrix: (Units=GPa)
#
#
# Indices 1 2 3 4 5 6 
#
# 1 106.8994 21.8555 35.6632 0.0000 0.0000 0.0000
# 2 21.8555 94.6660 36.6375 0.0000 0.0000 0.0000
# 3 35.6632 36.6375 137.6316 0.0000 0.0000 0.0000
# 4 0.0000 0.0000 0.0000 49.3223 0.0000 0.0000
# 5 0.0000 0.0000 0.0000 0.0000 35.2624 0.0000
# 6 0.0000 0.0000 0.0000 0.0000 0.0000 51.0488
#
#
#
# Elastic Compliance Matrix: (Units=1/GPa)
#
#
# Indices 1 2 3 4 5 6 
#
# 1 0.010432 -0.001519 -0.002299 0.000000 0.000000 0.000000
# 2 -0.001519 0.011998 -0.002800 0.000000 0.000000 0.000000
# 3 -0.002299 -0.002800 0.008607 0.000000 0.000000 0.000000
# 4 0.000000 0.000000 0.000000 0.020275 0.000000 0.000000
# 5 0.000000 0.000000 0.000000 0.000000 0.028359 0.000000
# 6 0.000000 0.000000 0.000000 0.000000 0.000000 0.019589
#
#
# Mechanical properties :
#
#
# Convention : Reuss Voigt Hill
#
# Bulk Modulus (GPa) = 56.17665 58.61215 57.39440
# Shear Modulus (GPa) = 42.21941 43.46276 42.84109
#
# Velocity S-wave (km/s) = 3.94515 4.00282 3.97409
# Velocity P-wave (km/s) = 6.43909 6.55522 6.49742
#
# Compressibility (1/GPa) = 0.01780099
#
# Stress axis : x y z
#
# Youngs Moduli (GPa) = 95.85867 83.34830 116.18595
#
# Poissons Ratio (x) = 0.12658 0.26710
# Poissons Ratio (y) = 0.14558 0.32535
# Poissons Ratio (z) = 0.22037 0.23340
#
# Static dielectric constant tensor:
#      x y z
#    x 5.269160 0.000000 0.000000 
#    y 0.000000 4.976900 0.000000 
#    z 0.000000 0.000000 5.212360 
# 
# 
# High freq. dielectric constant tensor:
#      x y z
#    x 2.118530 0.000000 0.000000 
#    y 0.000000 2.102930 0.000000 
#    z 0.000000 0.000000 2.092840 
# 
# From -- ./inp_files/2039.got.cif
#   From: 2010.06.25/outbox.cif.g09.slc.cpg/sg52_2_cif.got.tgz:2039.got - 2010.06.26 19:32:48.
