data_PCOD8217517
_publ_section_title
;
Structure prediction by ZEFSAII (Michael W. Deem and Ramdas Pophale) SiO2 
 PCOD8217517
Probable space group: P M N A
;
_chemical_formula_sum "Si O2"
_cell_formula_units_Z 48
_cell_length_a 8.937122
_cell_length_b 10.334908
_cell_length_c 29.773973
_cell_angle_alpha 90.000000
_cell_angle_beta 90.000000
_cell_angle_gamma 90.000000
_cell_volume 2750.053176
_symmetry_space_group_name_H-M "P M N A"
_symmetry_group_IT_number 53
_symmetry_cell_setting 'orthorhombic'
loop_
_space_group_symop_operation_xyz
x,y,z
1/2-x,-y,1/2+z
x,-y,-z
1/2-x,y,1/2-z
-x,-y,-z
1/2+x,y,1/2-z
-x,y,z
1/2+x,-y,1/2+z
loop_
_atom_site_type_symbol
_atom_site_label
_atom_site_fract_x
_atom_site_fract_y
_atom_site_fract_z
Si Si1 0.325844 0.363241 0.480493
Si Si2 0.677413 0.723647 0.794247
Si Si3 0.173197 0.998070 0.208564
Si Si4 0.674036 0.275904 0.383184
Si Si5 0.329201 0.979283 0.390105
Si Si6 0.323785 0.876488 0.027258
O O1 0.272331 0.500000 0.500000
O O2 0.500000 0.338998 0.489553
O O3 0.291197 0.360587 0.427282
O O4 0.236442 0.253958 0.506224
O O5 0.750000 0.654674 0.750000
O O6 0.500000 0.712764 0.791563
O O7 0.735144 0.661787 0.841287
O O8 0.732930 0.870682 0.794977
O O9 0.250000 0.918052 0.250000
O O10 0.000000 0.029003 0.219048
O O11 0.187852 0.924998 0.160937
O O12 0.500000 0.276887 0.369984
O O13 0.724620 0.128306 0.392998
O O14 0.500000 0.968717 0.406456
O O15 0.228215 0.889002 0.421278
O O16 0.500000 0.871730 0.025456
O O17 0.260602 0.000000 0.000000
#
# Coordination Sequence:
#
# PCOD8217517 Si02
#       6
#     8   8   8   8   8   8
#     4  10  21  37  56  75  98 134 174 210 254 306
#     4  10  17  25  40  63  93 127 161 198 243 294
#     4   9  16  26  40  63  94 128 161 198 247 297
#     4   9  17  30  47  69  97 127 162 204 249 295
#     4   9  17  29  47  69  95 131 168 206 248 295
#     4  11  22  33  49  75 103 132 169 209 252 296
#
# _framework density 17.454208000000001
#
# number of rings (size 3 to 8) (size 9 to 14) (size 15 to 20)
#    0.000    2.333    1.667    4.500    0.000    5.000 
#    0.000    0.000    0.000    0.000    0.000    1.167 
#    0.000    5.333    0.000    0.000    0.000    0.000 
#
# Total GULP energy -594950.628774 kJ/mol
# GULP energy per Si atom -12394.804766 kJ/mol
# Density = 1.741448 g / cm^3
# Si number density = 17.454208 Si / 1000 Ang^3
#
#
#
# Elastic Constant Matrix: (Units=GPa)
#
#
# Indices 1 2 3 4 5 6 
#
# 1 95.3259 35.7104 66.6431 0.0000 0.0000 0.0000
# 2 35.7104 56.2738 44.9985 0.0000 0.0000 0.0000
# 3 66.6431 44.9985 151.9575 0.0000 0.0000 0.0000
# 4 0.0000 0.0000 0.0000 15.2340 0.0000 0.0000
# 5 0.0000 0.0000 0.0000 0.0000 34.8533 0.0000
# 6 0.0000 0.0000 0.0000 0.0000 0.0000 13.3319
#
#
#
# Elastic Compliance Matrix: (Units=1/GPa)
#
#
# Indices 1 2 3 4 5 6 
#
# 1 0.016623 -0.006183 -0.005459 0.000000 0.000000 0.000000
# 2 -0.006183 0.025584 -0.004864 0.000000 0.000000 0.000000
# 3 -0.005459 -0.004864 0.010415 0.000000 0.000000 0.000000
# 4 0.000000 0.000000 0.000000 0.065643 0.000000 0.000000
# 5 0.000000 0.000000 0.000000 0.000000 0.028692 0.000000
# 6 0.000000 0.000000 0.000000 0.000000 0.000000 0.075008
#
#
# Mechanical properties :
#
#
# Convention : Reuss Voigt Hill
#
# Bulk Modulus (GPa) = 50.99784 66.47348 58.73566
# Shear Modulus (GPa) = 19.11936 23.09752 21.10844
#
# Velocity S-wave (km/s) = 3.31328 3.64169 3.48136
# Velocity P-wave (km/s) = 6.62711 7.47327 7.06287
#
# Compressibility (1/GPa) = 0.01960868
#
# Stress axis : x y z
#
# Youngs Moduli (GPa) = 60.15603 39.08737 96.01098
#
# Poissons Ratio (x) = 0.24169 0.52416
# Poissons Ratio (y) = 0.37197 0.46701
# Poissons Ratio (z) = 0.32841 0.19013
#
# Static dielectric constant tensor:
#      x y z
#    x 3.266920 0.000000 0.000000 
#    y 0.000000 2.687530 0.000000 
#    z 0.000000 0.000000 4.116240 
# 
# 
# High freq. dielectric constant tensor:
#      x y z
#    x 1.678510 0.000000 0.000000 
#    y 0.000000 1.596230 0.000000 
#    z 0.000000 0.000000 1.703340 
# 
# From -- ./inp_files/37907.got.cif
#   From: 2010.03.12/outbox.cif.g09.slc.cpg/sg53_19_cif.got.tgz:37907.got - 2010.04.16 14:36:59.
