data_PCOD8217844
_publ_section_title
;
Structure prediction by ZEFSAII (Michael W. Deem and Ramdas Pophale) SiO2 
 PCOD8217844
Probable space group: P M N A
;
_chemical_formula_sum "Si O2"
_cell_formula_units_Z 64
_cell_length_a 8.590368
_cell_length_b 16.866841
_cell_length_c 24.021196
_cell_angle_alpha 90.000000
_cell_angle_beta 90.000000
_cell_angle_gamma 90.000000
_cell_volume 3480.488047
_symmetry_space_group_name_H-M "P M N A"
_symmetry_group_IT_number 53
_symmetry_cell_setting 'orthorhombic'
loop_
_space_group_symop_operation_xyz
x,y,z
1/2-x,-y,1/2+z
x,-y,-z
1/2-x,y,1/2-z
-x,-y,-z
1/2+x,y,1/2-z
-x,y,z
1/2+x,-y,1/2+z
loop_
_atom_site_type_symbol
_atom_site_label
_atom_site_fract_x
_atom_site_fract_y
_atom_site_fract_z
Si Si1 0.683327 0.880614 0.689918
Si Si2 0.321309 0.819927 0.531419
Si Si3 0.680591 0.134840 0.588674
Si Si4 0.315095 0.757038 0.311335
Si Si5 0.682126 0.733693 0.870674
Si Si6 0.181780 0.033862 0.410280
Si Si7 0.816421 0.586949 0.812293
Si Si8 0.819261 0.415235 0.809297
O O1 0.750000 0.896042 0.750000
O O2 0.500000 0.892639 0.689213
O O3 0.725233 0.792708 0.669648
O O4 0.764049 0.946670 0.651944
O O5 0.500000 0.808768 0.549087
O O6 0.298624 0.808266 0.465228
O O7 0.221801 0.754300 0.565016
O O8 0.271256 0.909287 0.546832
O O9 0.500000 0.111405 0.596138
O O10 0.746127 0.180340 0.643087
O O11 0.781162 0.057064 0.577566
O O12 0.250000 0.777064 0.250000
O O13 0.500000 0.761602 0.308457
O O14 0.256658 0.669224 0.332880
O O15 0.500000 0.744590 0.860479
O O16 0.733892 0.645275 0.855683
O O17 0.000000 0.049747 0.417512
O O18 0.750000 0.598166 0.750000
O O19 0.782338 0.499057 0.839688
O O20 0.000000 0.603759 0.809547
O O21 0.750000 0.430144 0.750000
O O22 0.000000 0.403900 0.802003
#
# Coordination Sequence:
#
# PCOD8217844 Si02
#       8
#     8   8   8   8   8   8   8   8
#     4  11  21  35  52  71 100 135 169 204 248 299
#     4  10  20  36  55  73  96 130 169 209 254 297
#     4  10  21  36  55  76 100 130 166 208 252 299
#     4   9  18  34  54  78 105 132 162 200 247 296
#     4  11  21  33  49  72 101 132 167 207 249 293
#     4  11  22  35  52  75 101 130 167 210 253 297
#     4  10  18  29  47  74 104 134 168 203 242 290
#     4   8  15  28  48  72 100 131 163 200 241 287
#
# _framework density 18.388227000000001
#
# number of rings (size 3 to 8) (size 9 to 14) (size 15 to 20)
#    0.000    2.000    0.000    6.375    0.000    4.000 
#    0.000    1.250    0.000    0.750    0.000    5.250 
#    0.000    0.000    0.000    0.000    0.000    0.000 
#
# Total GULP energy -793156.977312 kJ/mol
# GULP energy per Si atom -12393.077771 kJ/mol
# Density = 1.834637 g / cm^3
# Si number density = 18.388227 Si / 1000 Ang^3
#
#
#
# Elastic Constant Matrix: (Units=GPa)
#
#
# Indices 1 2 3 4 5 6 
#
# 1 39.0768 6.6906 10.2147 0.0000 0.0000 0.0000
# 2 6.6906 79.1806 31.2865 0.0000 0.0000 0.0000
# 3 10.2147 31.2865 94.9693 0.0000 0.0000 0.0000
# 4 0.0000 0.0000 0.0000 17.5218 0.0000 0.0000
# 5 0.0000 0.0000 0.0000 0.0000 24.6919 0.0000
# 6 0.0000 0.0000 0.0000 0.0000 0.0000 24.6371
#
#
#
# Elastic Compliance Matrix: (Units=1/GPa)
#
#
# Indices 1 2 3 4 5 6 
#
# 1 0.026443 -0.001277 -0.002424 0.000000 0.000000 0.000000
# 2 -0.001277 0.014581 -0.004666 0.000000 0.000000 0.000000
# 3 -0.002424 -0.004666 0.012328 0.000000 0.000000 0.000000
# 4 0.000000 0.000000 0.000000 0.057072 0.000000 0.000000
# 5 0.000000 0.000000 0.000000 0.000000 0.040499 0.000000
# 6 0.000000 0.000000 0.000000 0.000000 0.000000 0.040589
#
#
# Mechanical properties :
#
#
# Convention : Reuss Voigt Hill
#
# Bulk Modulus (GPa) = 27.30867 34.40113 30.85490
# Shear Modulus (GPa) = 22.68085 24.37251 23.52668
#
# Velocity S-wave (km/s) = 3.51585 3.64461 3.58081
# Velocity P-wave (km/s) = 5.60045 6.03819 5.82344
#
# Compressibility (1/GPa) = 0.03661840
#
# Stress axis : x y z
#
# Youngs Moduli (GPa) = 37.81754 68.58251 81.11870
#
# Poissons Ratio (x) = 0.08756 0.19659
# Poissons Ratio (y) = 0.04828 0.37852
# Poissons Ratio (z) = 0.09165 0.32002
#
# Static dielectric constant tensor:
#      x y z
#    x 3.467800 0.000000 0.000000 
#    y 0.000000 3.643980 0.000000 
#    z 0.000000 0.000000 3.346730 
# 
# 
# High freq. dielectric constant tensor:
#      x y z
#    x 1.720700 0.000000 0.000000 
#    y 0.000000 1.711600 0.000000 
#    z 0.000000 0.000000 1.691870 
# 
# From -- ./inp_files/34483.got.cif
#   From: 2010.03.12/outbox.cif.g09.slc.cpg/sg53_18_cif.got.tgz:34483.got - 2010.04.16 14:36:59.
