data_PCOD8217044
_publ_section_title
;
Structure prediction by ZEFSAII (Michael W. Deem and Ramdas Pophale) SiO2 
 PCOD8217044
Probable space group: P N N A
;
_chemical_formula_sum "Si O2"
_cell_formula_units_Z 48
_cell_length_a 8.628448
_cell_length_b 30.699541
_cell_length_c 8.784990
_cell_angle_alpha 90.000000
_cell_angle_beta 90.000000
_cell_angle_gamma 90.000000
_cell_volume 2327.050670
_symmetry_space_group_name_H-M "P N N A"
_symmetry_group_IT_number 52
_symmetry_cell_setting 'orthorhombic'
loop_
_space_group_symop_operation_xyz
x,y,z
1/2-x,-y,z
x,1/2-y,1/2-z
1/2-x,1/2+y,1/2-z
-x,-y,-z
1/2+x,y,-z
-x,1/2+y,1/2+z
1/2+x,1/2-y,1/2+z
loop_
_atom_site_type_symbol
_atom_site_label
_atom_site_fract_x
_atom_site_fract_y
_atom_site_fract_z
Si Si1 0.055780 0.166929 0.966624
Si Si2 0.635774 0.622294 0.903609
Si Si3 0.273898 0.952648 0.211535
Si Si4 0.798157 0.880852 0.290876
Si Si5 0.086912 0.575848 0.567816
Si Si6 0.211189 0.798167 0.197280
O O1 0.174280 0.159703 0.824835
O O2 0.932118 0.203770 0.919930
O O3 0.137219 0.182814 0.117929
O O4 0.965556 0.122268 0.000291
O O5 0.747539 0.585301 0.834669
O O6 0.459133 0.606926 0.874600
O O7 0.667697 0.669637 0.833713
O O8 0.668256 0.629227 0.082303
O O9 0.447365 0.948980 0.148173
O O10 0.250000 0.000000 0.289444
O O11 0.150487 0.951028 0.074516
O O12 0.729054 0.919731 0.187527
O O13 0.250633 0.750000 0.250000
#
# Coordination Sequence:
#
# PCOD8217044 Si02
#       6
#     8   8   8   8   8   8
#     4  11  20  43  68  91 131 170 220 267 324 392
#     4  11  23  42  61  97 132 169 219 272 338 386
#     4  12  23  39  66 100 134 173 227 275 327 396
#     4  11  22  39  72  89 128 180 214 268 337 389
#     4  12  19  42  67  94 127 180 220 268 329 390
#     4  11  24  41  66  94 128 171 217 269 330 395
#
# _framework density 20.626968999999999
#
# number of rings (size 3 to 8) (size 9 to 14) (size 15 to 20)
#    0.000    0.667    8.333    1.500    0.000    2.667 
#    0.000    5.000    0.000    0.000    0.000    0.000 
#    0.000    0.000    0.000    0.000    0.000    0.000 
#
# Total GULP energy -595152.115677 kJ/mol
# GULP energy per Si atom -12399.002410 kJ/mol
# Density = 2.058002 g / cm^3
# Si number density = 20.626969 Si / 1000 Ang^3
#
#
#
# Elastic Constant Matrix: (Units=GPa)
#
#
# Indices 1 2 3 4 5 6 
#
# 1 81.6886 21.8892 19.8390 0.0000 0.0000 0.0000
# 2 21.8892 100.1708 19.4993 0.0000 0.0000 0.0000
# 3 19.8390 19.4993 77.5365 0.0000 0.0000 0.0000
# 4 0.0000 0.0000 0.0000 15.2083 0.0000 0.0000
# 5 0.0000 0.0000 0.0000 0.0000 42.6658 0.0000
# 6 0.0000 0.0000 0.0000 0.0000 0.0000 22.9721
#
#
#
# Elastic Compliance Matrix: (Units=1/GPa)
#
#
# Indices 1 2 3 4 5 6 
#
# 1 0.013584 -0.002410 -0.002870 0.000000 0.000000 0.000000
# 2 -0.002410 0.010924 -0.002131 0.000000 0.000000 0.000000
# 3 -0.002870 -0.002131 0.014167 0.000000 0.000000 0.000000
# 4 0.000000 0.000000 0.000000 0.065754 0.000000 0.000000
# 5 0.000000 0.000000 0.000000 0.000000 0.023438 0.000000
# 6 0.000000 0.000000 0.000000 0.000000 0.000000 0.043531
#
#
# Mechanical properties :
#
#
# Convention : Reuss Voigt Hill
#
# Bulk Modulus (GPa) = 41.91929 42.42786 42.17358
# Shear Modulus (GPa) = 25.75052 29.38047 27.56550
#
# Velocity S-wave (km/s) = 3.53709 3.77818 3.65962
# Velocity P-wave (km/s) = 6.08671 6.29656 6.19252
#
# Compressibility (1/GPa) = 0.02385536
#
# Stress axis : x y z
#
# Youngs Moduli (GPa) = 73.61444 91.53900 70.58523
#
# Poissons Ratio (x) = 0.22059 0.20256
# Poissons Ratio (y) = 0.17740 0.15040
# Poissons Ratio (z) = 0.21125 0.19504
#
# Static dielectric constant tensor:
#      x y z
#    x 4.015210 0.000000 0.000000 
#    y 0.000000 3.456660 0.000000 
#    z 0.000000 0.000000 3.869590 
# 
# 
# High freq. dielectric constant tensor:
#      x y z
#    x 1.825270 0.000000 0.000000 
#    y 0.000000 1.773340 0.000000 
#    z 0.000000 0.000000 1.808810 
# 
# From -- ./inp_files/7674.got.cif
#   From: 2010.06.25/outbox.cif.g09.slc.cpg/sg52_4_cif.got.tgz:7674.got - 2010.06.26 19:32:48.
