data_PCOD8217482
_publ_section_title
;
Structure prediction by ZEFSAII (Michael W. Deem and Ramdas Pophale) SiO2 
 PCOD8217482
Probable space group: P M N A
;
_chemical_formula_sum "Si O2"
_cell_formula_units_Z 64
_cell_length_a 23.863179
_cell_length_b 9.189736
_cell_length_c 19.305547
_cell_angle_alpha 90.000000
_cell_angle_beta 90.000000
_cell_angle_gamma 90.000000
_cell_volume 4233.635319
_symmetry_space_group_name_H-M "P M N A"
_symmetry_group_IT_number 53
_symmetry_cell_setting 'orthorhombic'
loop_
_space_group_symop_operation_xyz
x,y,z
1/2-x,-y,1/2+z
x,-y,-z
1/2-x,y,1/2-z
-x,-y,-z
1/2+x,y,1/2-z
-x,y,z
1/2+x,-y,1/2+z
loop_
_atom_site_type_symbol
_atom_site_label
_atom_site_fract_x
_atom_site_fract_y
_atom_site_fract_z
Si Si1 0.120781 0.765629 0.893269
Si Si2 0.437266 0.973585 0.344370
Si Si3 0.776391 0.141408 0.643153
Si Si4 0.662473 0.809895 0.281338
Si Si5 0.727476 0.099236 0.436836
Si Si6 0.249815 0.641712 0.032418
Si Si7 0.563867 0.250139 0.538821
Si Si8 0.642100 0.560924 0.378043
O O1 0.175295 0.869198 0.886267
O O2 0.133846 0.608541 0.860391
O O3 0.073087 0.852588 0.850860
O O4 0.103684 0.748343 0.972859
O O5 0.500000 0.948439 0.315627
O O6 0.393933 0.901122 0.291593
O O7 0.430752 0.903420 0.421009
O O8 0.823067 0.167727 0.700851
O O9 0.713439 0.134195 0.672133
O O10 0.785939 0.276036 0.590716
O O11 0.778680 0.985074 0.603117
O O12 0.653625 0.641575 0.304394
O O13 0.745297 0.254727 0.465998
O O14 0.705972 0.000000 0.500000
O O15 0.190888 0.590749 0.065858
O O16 0.280461 0.500000 0.000000
O O17 0.500000 0.281826 0.516966
O O18 0.584368 0.378101 0.589924
#
# Coordination Sequence:
#
# PCOD8217482 Si02
#       8
#     8   8   8   8   8   8   8   8
#     4  12  18  26  40  62  91 119 154 191 224 257
#     4  10  20  31  45  62  86 120 160 202 225 252
#     4   9  18  30  49  63  83 120 149 186 222 269
#     4   9  18  34  46  59  85 117 160 184 222 266
#     4  10  17  26  44  65  84 113 147 180 223 265
#     4  10  16  28  44  66  91 111 141 178 230 273
#     4  10  19  29  40  59  87 124 163 193 222 250
#     4  10  19  28  42  59  88 126 152 186 223 261
#
# _framework density 15.117031000000001
#
# number of rings (size 3 to 8) (size 9 to 14) (size 15 to 20)
#    0.000    2.000    3.750    1.875    0.000    2.500 
#    0.000    1.250    2.750    0.000    0.000    0.000 
#    0.000    5.000    0.000    0.000    0.000    1.625 
#
# Total GULP energy -793112.108768 kJ/mol
# GULP energy per Si atom -12392.376700 kJ/mol
# Density = 1.508262 g / cm^3
# Si number density = 15.117031 Si / 1000 Ang^3
#
#
#
# Elastic Constant Matrix: (Units=GPa)
#
#
# Indices 1 2 3 4 5 6 
#
# 1 57.8606 34.1800 36.4472 0.0000 0.0000 0.0000
# 2 34.1800 122.0125 39.6017 0.0000 0.0000 0.0000
# 3 36.4472 39.6017 62.2832 0.0000 0.0000 0.0000
# 4 0.0000 0.0000 0.0000 11.8115 0.0000 0.0000
# 5 0.0000 0.0000 0.0000 0.0000 19.8812 0.0000
# 6 0.0000 0.0000 0.0000 0.0000 0.0000 11.2535
#
#
#
# Elastic Compliance Matrix: (Units=1/GPa)
#
#
# Indices 1 2 3 4 5 6 
#
# 1 0.028344 -0.003221 -0.014538 0.000000 0.000000 0.000000
# 2 -0.003221 0.010693 -0.004914 0.000000 0.000000 0.000000
# 3 -0.014538 -0.004914 0.027688 0.000000 0.000000 0.000000
# 4 0.000000 0.000000 0.000000 0.084663 0.000000 0.000000
# 5 0.000000 0.000000 0.000000 0.000000 0.050299 0.000000
# 6 0.000000 0.000000 0.000000 0.000000 0.000000 0.088861
#
#
# Mechanical properties :
#
#
# Convention : Reuss Voigt Hill
#
# Bulk Modulus (GPa) = 46.77783 51.40157 49.08970
# Shear Modulus (GPa) = 14.57640 17.38440 15.98040
#
# Velocity S-wave (km/s) = 3.10859 3.39483 3.25485
# Velocity P-wave (km/s) = 6.62536 7.03155 6.83147
#
# Compressibility (1/GPa) = 0.02137765
#
# Stress axis : x y z
#
# Youngs Moduli (GPa) = 35.28130 93.51684 36.11726
#
# Poissons Ratio (x) = 0.30126 0.52507
# Poissons Ratio (y) = 0.11366 0.17748
# Poissons Ratio (z) = 0.51292 0.45954
#
# Static dielectric constant tensor:
#      x y z
#    x 2.655480 0.000000 0.000000 
#    y 0.000000 3.111500 0.000000 
#    z 0.000000 0.000000 2.686360 
# 
# 
# High freq. dielectric constant tensor:
#      x y z
#    x 1.538620 0.000000 0.000000 
#    y 0.000000 1.593970 0.000000 
#    z 0.000000 0.000000 1.541150 
# 
# From -- ./inp_files/33301.got.cif
#   From: 2010.03.12/outbox.cif.g09.slc.cpg/sg53_17_cif.got.tgz:33301.got - 2010.04.16 14:36:59.
