data_PCOD8217245
_publ_section_title
;
Structure prediction by ZEFSAII (Michael W. Deem and Ramdas Pophale) SiO2 
 PCOD8217245
Probable space group: P N N A
;
_chemical_formula_sum "Si O2"
_cell_formula_units_Z 64
_cell_length_a 11.903512
_cell_length_b 17.575536
_cell_length_c 15.089249
_cell_angle_alpha 90.000000
_cell_angle_beta 90.000000
_cell_angle_gamma 90.000000
_cell_volume 3156.830892
_symmetry_space_group_name_H-M "P N N A"
_symmetry_group_IT_number 52
_symmetry_cell_setting 'orthorhombic'
loop_
_space_group_symop_operation_xyz
x,y,z
1/2-x,-y,z
x,1/2-y,1/2-z
1/2-x,1/2+y,1/2-z
-x,-y,-z
1/2+x,y,-z
-x,1/2+y,1/2+z
1/2+x,1/2-y,1/2+z
loop_
_atom_site_type_symbol
_atom_site_label
_atom_site_fract_x
_atom_site_fract_y
_atom_site_fract_z
Si Si1 0.734684 0.179057 0.183431
Si Si2 0.996292 0.862760 0.408836
Si Si3 0.880530 0.586235 0.736641
Si Si4 0.764691 0.911843 0.342697
Si Si5 0.994087 0.688004 0.403564
Si Si6 0.973808 0.358384 0.106027
Si Si7 0.477314 0.183283 0.898267
Si Si8 0.877966 0.412766 0.739764
O O1 0.727791 0.250000 0.250000
O O2 0.709444 0.101798 0.238869
O O3 0.639580 0.184622 0.109325
O O4 0.852815 0.171075 0.136326
O O5 0.863380 0.875845 0.400587
O O6 0.032597 0.775318 0.397025
O O7 0.024862 0.892594 0.507114
O O8 0.065017 0.910061 0.336410
O O9 0.888974 0.498974 0.705721
O O10 0.751685 0.611753 0.748453
O O11 0.943759 0.594943 0.830318
O O12 0.935419 0.636918 0.660546
O O13 0.653378 0.863341 0.361174
O O14 0.750000 0.000000 0.364575
O O15 0.019318 0.654074 0.500558
O O16 0.060455 0.642077 0.329032
O O17 0.013766 0.271118 0.107232
#
# Coordination Sequence:
#
# PCOD8217245 Si02
#       8
#     8   8   8   8   8   8   8   8
#     4  12  20  42  68  93 131 166 213 274 311 374
#     4  11  24  42  65  97 127 168 218 266 322 388
#     4  11  25  44  63  92 133 171 209 263 325 386
#     4  12  24  40  66  95 127 169 213 264 328 385
#     4  11  24  41  69  97 127 167 217 269 321 379
#     4  11  24  42  65  97 127 168 218 266 322 388
#     4  11  24  41  69  97 127 167 217 269 321 379
#     4  11  25  44  63  92 133 171 209 263 325 386
#
# _framework density 20.273496999999999
#
# number of rings (size 3 to 8) (size 9 to 14) (size 15 to 20)
#    0.000    0.750    5.000    1.500    3.500    4.500 
#    0.000    0.000    0.000    0.000    0.000    0.000 
#    0.000    0.000    0.000    0.000    0.000    0.000 
#
# Total GULP energy -793854.936335 kJ/mol
# GULP energy per Si atom -12403.983380 kJ/mol
# Density = 2.022735 g / cm^3
# Si number density = 20.273497 Si / 1000 Ang^3
#
#
#
# Elastic Constant Matrix: (Units=GPa)
#
#
# Indices 1 2 3 4 5 6 
#
# 1 113.0623 24.0651 28.0557 0.0000 0.0000 0.0000
# 2 24.0651 78.9262 34.4399 0.0000 0.0000 0.0000
# 3 28.0557 34.4399 119.7418 0.0000 0.0000 0.0000
# 4 0.0000 0.0000 0.0000 14.4212 0.0000 0.0000
# 5 0.0000 0.0000 0.0000 0.0000 29.5317 0.0000
# 6 0.0000 0.0000 0.0000 0.0000 0.0000 28.6854
#
#
#
# Elastic Compliance Matrix: (Units=1/GPa)
#
#
# Indices 1 2 3 4 5 6 
#
# 1 0.009729 -0.002255 -0.001631 0.000000 0.000000 0.000000
# 2 -0.002255 0.015011 -0.003789 0.000000 0.000000 0.000000
# 3 -0.001631 -0.003789 0.009823 0.000000 0.000000 0.000000
# 4 0.000000 0.000000 0.000000 0.069342 0.000000 0.000000
# 5 0.000000 0.000000 0.000000 0.000000 0.033862 0.000000
# 6 0.000000 0.000000 0.000000 0.000000 0.000000 0.034861
#
#
# Mechanical properties :
#
#
# Convention : Reuss Voigt Hill
#
# Bulk Modulus (GPa) = 52.04647 53.87240 52.95943
# Shear Modulus (GPa) = 25.72235 29.53896 27.63065
#
# Velocity S-wave (km/s) = 3.56584 3.82124 3.69575
# Velocity P-wave (km/s) = 6.53311 6.78967 6.66263
#
# Compressibility (1/GPa) = 0.01921360
#
# Stress axis : x y z
#
# Youngs Moduli (GPa) = 102.78174 66.61793 101.79893
#
# Poissons Ratio (x) = 0.15021 0.16604
# Poissons Ratio (y) = 0.23175 0.38573
# Poissons Ratio (z) = 0.16765 0.25242
#
# Static dielectric constant tensor:
#      x y z
#    x 3.773020 0.000000 0.000000 
#    y 0.000000 3.654750 0.000000 
#    z 0.000000 0.000000 3.831550 
# 
# 
# High freq. dielectric constant tensor:
#      x y z
#    x 1.803610 0.000000 0.000000 
#    y 0.000000 1.790780 0.000000 
#    z 0.000000 0.000000 1.796850 
# 
# From -- ./inp_files/26349.got.cif
#   From: 2010.06.25/outbox.cif.g09.slc.cpg/sg52_14_cif.got.tgz:26349.got - 2010.06.26 19:32:48.
