data_PCOD8217588
_publ_section_title
;
Structure prediction by ZEFSAII (Michael W. Deem and Ramdas Pophale) SiO2 
 PCOD8217588
Probable space group: P M N A
;
_chemical_formula_sum "Si O2"
_cell_formula_units_Z 64
_cell_length_a 9.176561
_cell_length_b 15.041133
_cell_length_c 29.387169
_cell_angle_alpha 90.000000
_cell_angle_beta 90.000000
_cell_angle_gamma 90.000000
_cell_volume 4056.189700
_symmetry_space_group_name_H-M "P M N A"
_symmetry_group_IT_number 53
_symmetry_cell_setting 'orthorhombic'
loop_
_space_group_symop_operation_xyz
x,y,z
1/2-x,-y,1/2+z
x,-y,-z
1/2-x,y,1/2-z
-x,-y,-z
1/2+x,y,1/2-z
-x,y,z
1/2+x,-y,1/2+z
loop_
_atom_site_type_symbol
_atom_site_label
_atom_site_fract_x
_atom_site_fract_y
_atom_site_fract_z
Si Si1 0.329570 0.287041 0.705859
Si Si2 0.671828 0.944657 0.062318
Si Si3 0.833761 0.624408 0.441622
Si Si4 0.332929 0.788564 0.122721
Si Si5 0.672532 0.536034 0.605232
Si Si6 0.830630 0.491695 0.794315
Si Si7 0.172718 0.128383 0.468111
Si Si8 0.328274 0.325257 0.043713
O O1 0.250000 0.247710 0.750000
O O2 0.500000 0.273982 0.711849
O O3 0.276433 0.232596 0.662802
O O4 0.284978 0.389353 0.698982
O O5 0.500000 0.940506 0.055834
O O6 0.716242 0.886736 0.106053
O O7 0.718550 0.048797 0.066989
O O8 0.738910 0.899600 0.017010
O O9 0.813800 0.720489 0.418932
O O10 0.729570 0.554196 0.417481
O O11 0.791747 0.632982 0.494535
O O12 0.000000 0.590850 0.436574
O O13 0.500000 0.787181 0.140063
O O14 0.500000 0.537325 0.598673
O O15 0.713892 0.540559 0.658880
O O16 0.743853 0.621284 0.582290
O O17 0.750000 0.532635 0.750000
O O18 0.000000 0.501316 0.784242
O O19 0.233376 0.224323 0.452940
O O20 0.000000 0.138501 0.471535
O O21 0.500000 0.330507 0.053389
#
# Coordination Sequence:
#
# PCOD8217588 Si02
#       8
#     8   8   8   8   8   8   8   8
#     4  10  19  32  47  66  91 121 153 190 231 279
#     4   8  13  23  43  69  93 118 149 188 229 265
#     4  10  19  30  44  65  94 126 161 194 219 259
#     4  10  17  27  46  71  95 122 154 189 230 274
#     4  11  22  34  45  64  92 125 158 190 231 280
#     4   9  19  33  48  65  86 112 148 189 230 274
#     4   8  13  24  43  67  93 118 151 193 228 260
#     4  10  19  31  46  67  93 125 163 198 226 261
#
# _framework density 15.778354
#
# number of rings (size 3 to 8) (size 9 to 14) (size 15 to 20)
#    0.000    2.500    2.500    1.875    0.000    3.500 
#    0.000    0.000    0.000    0.750    0.000    2.625 
#    0.000    2.000    0.000    0.000    0.000    0.000 
#
# Total GULP energy -793283.418745 kJ/mol
# GULP energy per Si atom -12395.053418 kJ/mol
# Density = 1.574244 g / cm^3
# Si number density = 15.778354 Si / 1000 Ang^3
#
#
#
# Elastic Constant Matrix: (Units=GPa)
#
#
# Indices 1 2 3 4 5 6 
#
# 1 49.7568 32.0889 45.4249 0.0000 0.0000 0.0000
# 2 32.0889 89.8367 50.1217 0.0000 0.0000 0.0000
# 3 45.4249 50.1217 115.2587 0.0000 0.0000 0.0000
# 4 0.0000 0.0000 0.0000 17.0950 0.0000 0.0000
# 5 0.0000 0.0000 0.0000 0.0000 25.3588 0.0000
# 6 0.0000 0.0000 0.0000 0.0000 0.0000 8.1481
#
#
#
# Elastic Compliance Matrix: (Units=1/GPa)
#
#
# Indices 1 2 3 4 5 6 
#
# 1 0.033763 -0.006121 -0.010645 0.000000 0.000000 0.000000
# 2 -0.006121 0.015807 -0.004461 0.000000 0.000000 0.000000
# 3 -0.010645 -0.004461 0.014811 0.000000 0.000000 0.000000
# 4 0.000000 0.000000 0.000000 0.058497 0.000000 0.000000
# 5 0.000000 0.000000 0.000000 0.000000 0.039434 0.000000
# 6 0.000000 0.000000 0.000000 0.000000 0.000000 0.122728
#
#
# Mechanical properties :
#
#
# Convention : Reuss Voigt Hill
#
# Bulk Modulus (GPa) = 45.60545 56.68034 51.14289
# Shear Modulus (GPa) = 14.93415 18.60151 16.76783
#
# Velocity S-wave (km/s) = 3.07986 3.43727 3.26346
# Velocity P-wave (km/s) = 6.45088 7.19402 6.83256
#
# Compressibility (1/GPa) = 0.02192721
#
# Stress axis : x y z
#
# Youngs Moduli (GPa) = 29.61797 63.26390 67.51537
#
# Poissons Ratio (x) = 0.38724 0.71868
# Poissons Ratio (y) = 0.18129 0.30121
# Poissons Ratio (z) = 0.31527 0.28225
#
# Static dielectric constant tensor:
#      x y z
#    x 2.772940 0.000000 0.000000 
#    y 0.000000 3.138070 0.000000 
#    z 0.000000 0.000000 3.056780 
# 
# 
# High freq. dielectric constant tensor:
#      x y z
#    x 1.583720 0.000000 0.000000 
#    y 0.000000 1.592540 0.000000 
#    z 0.000000 0.000000 1.595310 
# 
# From -- ./inp_files/38529.got.cif
#   From: 2010.03.12/outbox.cif.g09.slc.cpg/sg53_20_cif.got.tgz:38529.got - 2010.04.16 14:36:59.
