data_PCOD8217066
_publ_section_title
;
Structure prediction by ZEFSAII (Michael W. Deem and Ramdas Pophale) SiO2 
 PCOD8217066
Probable space group: P N N A
;
_chemical_formula_sum "Si O2"
_cell_formula_units_Z 48
_cell_length_a 10.102023
_cell_length_b 13.696433
_cell_length_c 16.954231
_cell_angle_alpha 90.000000
_cell_angle_beta 90.000000
_cell_angle_gamma 90.000000
_cell_volume 2345.815904
_symmetry_space_group_name_H-M "P N N A"
_symmetry_group_IT_number 52
_symmetry_cell_setting 'orthorhombic'
loop_
_space_group_symop_operation_xyz
x,y,z
1/2-x,-y,z
x,1/2-y,1/2-z
1/2-x,1/2+y,1/2-z
-x,-y,-z
1/2+x,y,-z
-x,1/2+y,1/2+z
1/2+x,1/2-y,1/2+z
loop_
_atom_site_type_symbol
_atom_site_label
_atom_site_fract_x
_atom_site_fract_y
_atom_site_fract_z
Si Si1 0.754437 0.787682 0.545974
Si Si2 0.457910 0.995630 0.667098
Si Si3 0.750000 0.000000 0.197978
Si Si4 0.536039 0.786615 0.666930
Si Si5 0.250000 0.000000 0.529977
Si Si6 0.473576 0.706509 0.168266
Si Si7 0.251516 0.792466 0.877302
O O1 0.626968 0.750926 0.595090
O O2 0.750230 0.902621 0.523462
O O3 0.885538 0.758592 0.594977
O O4 0.757130 0.718360 0.470642
O O5 0.375034 0.985357 0.746766
O O6 0.552207 0.902930 0.664206
O O7 0.377472 0.000244 0.585628
O O8 0.547272 0.090830 0.673816
O O9 0.765928 0.094139 0.142614
O O10 0.593960 0.750000 0.750000
O O11 0.383927 0.753310 0.659482
O O12 0.420041 0.750000 0.250000
O O13 0.628566 0.731102 0.157126
#
# Coordination Sequence:
#
# PCOD8217066 Si02
#       7
#     8   8   4   8   4   8   8
#     4  12  26  41  63 104 138 166 205 268 344 373
#     4  11  21  38  70 101 125 165 224 265 317 379
#     4  11  22  42  68  99 116 170 236 269 292 378
#     4  12  24  43  67  96 134 174 213 264 319 391
#     4  11  22  38  68  99 140 160 204 281 330 378
#     4  12  24  43  67  96 134 174 213 264 319 391
#     4  12  23  43  70  93 125 171 226 265 308 381
#
# _framework density 20.461964999999999
#
# number of rings (size 3 to 8) (size 9 to 14) (size 15 to 20)
#    0.000    0.333    6.667    4.000    0.000    1.333 
#    0.000    5.000    0.000    0.000    0.000    0.000 
#    0.000    0.000    0.000    0.000    0.000    0.000 
#
# Total GULP energy -595300.411984 kJ/mol
# GULP energy per Si atom -12402.091916 kJ/mol
# Density = 2.041539 g / cm^3
# Si number density = 20.461965 Si / 1000 Ang^3
#
#
#
# Elastic Constant Matrix: (Units=GPa)
#
#
# Indices 1 2 3 4 5 6 
#
# 1 68.6338 16.5872 31.5352 0.0000 0.0000 0.0000
# 2 16.5872 80.4721 28.7868 0.0000 0.0000 0.0000
# 3 31.5352 28.7868 151.3409 0.0000 0.0000 0.0000
# 4 0.0000 0.0000 0.0000 41.5586 0.0000 0.0000
# 5 0.0000 0.0000 0.0000 0.0000 40.6490 0.0000
# 6 0.0000 0.0000 0.0000 0.0000 0.0000 13.0940
#
#
#
# Elastic Compliance Matrix: (Units=1/GPa)
#
#
# Indices 1 2 3 4 5 6 
#
# 1 0.016510 -0.002331 -0.002997 0.000000 0.000000 0.000000
# 2 -0.002331 0.013663 -0.002113 0.000000 0.000000 0.000000
# 3 -0.002997 -0.002113 0.007634 0.000000 0.000000 0.000000
# 4 0.000000 0.000000 0.000000 0.024062 0.000000 0.000000
# 5 0.000000 0.000000 0.000000 0.000000 0.024601 0.000000
# 6 0.000000 0.000000 0.000000 0.000000 0.000000 0.076371
#
#
# Mechanical properties :
#
#
# Convention : Reuss Voigt Hill
#
# Bulk Modulus (GPa) = 43.62012 50.47392 47.04702
# Shear Modulus (GPa) = 26.97369 33.96281 30.46825
#
# Velocity S-wave (km/s) = 3.63469 4.07849 3.86297
# Velocity P-wave (km/s) = 6.24328 6.84832 6.55279
#
# Compressibility (1/GPa) = 0.02292520
#
# Stress axis : x y z
#
# Youngs Moduli (GPa) = 60.56771 73.18988 130.99265
#
# Poissons Ratio (x) = 0.17062 0.39257
# Poissons Ratio (y) = 0.14119 0.27681
# Poissons Ratio (z) = 0.18152 0.15466
#
# Static dielectric constant tensor:
#      x y z
#    x 3.533860 0.000000 0.000000 
#    y 0.000000 3.738040 0.000000 
#    z 0.000000 0.000000 3.911010 
# 
# 
# High freq. dielectric constant tensor:
#      x y z
#    x 1.792460 0.000000 0.000000 
#    y 0.000000 1.792970 0.000000 
#    z 0.000000 0.000000 1.817950 
# 
# From -- ./inp_files/26108.got.cif
#   From: 2010.06.25/outbox.cif.g09.slc.cpg/sg52_14_cif.got.tgz:26108.got - 2010.06.26 19:32:48.
