data_PCOD8217095
_publ_section_title
;
Structure prediction by ZEFSAII (Michael W. Deem and Ramdas Pophale) SiO2 
 PCOD8217095
Probable space group: P N N A
;
_chemical_formula_sum "Si O2"
_cell_formula_units_Z 32
_cell_length_a 18.612130
_cell_length_b 11.066153
_cell_length_c 6.936295
_cell_angle_alpha 90.000000
_cell_angle_beta 90.000000
_cell_angle_gamma 90.000000
_cell_volume 1428.631768
_symmetry_space_group_name_H-M "P N N A"
_symmetry_group_IT_number 52
_symmetry_cell_setting 'orthorhombic'
loop_
_space_group_symop_operation_xyz
x,y,z
1/2-x,-y,z
x,1/2-y,1/2-z
1/2-x,1/2+y,1/2-z
-x,-y,-z
1/2+x,y,-z
-x,1/2+y,1/2+z
1/2+x,1/2-y,1/2+z
loop_
_atom_site_type_symbol
_atom_site_label
_atom_site_fract_x
_atom_site_fract_y
_atom_site_fract_z
Si Si1 0.920873 0.461121 0.942913
Si Si2 0.334579 0.994196 0.820414
Si Si3 0.568926 0.800210 0.040362
Si Si4 0.915831 0.862311 0.890406
O O1 0.865735 0.507645 0.104488
O O2 0.914348 0.316315 0.905773
O O3 0.904840 0.516785 0.735738
O O4 0.000000 0.500000 0.000000
O O5 0.364643 0.108189 0.943309
O O6 0.250000 0.000000 0.804970
O O7 0.357320 0.872809 0.937194
O O8 0.551440 0.750000 0.250000
O O9 0.492068 0.862537 0.994051
O O10 0.900130 0.750000 0.750000
#
# Coordination Sequence:
#
# PCOD8217095 Si02
#       4
#     8   8   8   8
#     4  11  21  43  69  96 130 173 219 277 327 383
#     4  11  25  44  63  98 137 172 213 273 335 396
#     4   9  19  40  65  96 128 161 224 269 314 394
#     4  11  22  43  67  98 130 169 230 267 316 402
#
# _framework density 22.399055000000001
#
# number of rings (size 3 to 8) (size 9 to 14) (size 15 to 20)
#    0.000    1.500    7.500    0.750    0.000    3.000 
#   18.000    0.000    0.000    0.000    0.000    0.000 
#    0.000    0.000    0.000    0.000    0.000    0.000 
#
# Total GULP energy -396591.293111 kJ/mol
# GULP energy per Si atom -12393.477910 kJ/mol
# Density = 2.234807 g / cm^3
# Si number density = 22.399055 Si / 1000 Ang^3
#
#
#
# Elastic Constant Matrix: (Units=GPa)
#
#
# Indices 1 2 3 4 5 6 
#
# 1 193.5463 33.8601 57.0089 0.0000 0.0000 0.0000
# 2 33.8601 82.2691 41.4633 0.0000 0.0000 0.0000
# 3 57.0089 41.4633 78.9836 0.0000 0.0000 0.0000
# 4 0.0000 0.0000 0.0000 41.1149 0.0000 0.0000
# 5 0.0000 0.0000 0.0000 0.0000 22.6068 0.0000
# 6 0.0000 0.0000 0.0000 0.0000 0.0000 16.4581
#
#
#
# Elastic Compliance Matrix: (Units=1/GPa)
#
#
# Indices 1 2 3 4 5 6 
#
# 1 0.006573 -0.000427 -0.004520 0.000000 0.000000 0.000000
# 2 -0.000427 0.016556 -0.008383 0.000000 0.000000 0.000000
# 3 -0.004520 -0.008383 0.020324 0.000000 0.000000 0.000000
# 4 0.000000 0.000000 0.000000 0.024322 0.000000 0.000000
# 5 0.000000 0.000000 0.000000 0.000000 0.044234 0.000000
# 6 0.000000 0.000000 0.000000 0.000000 0.000000 0.060760
#
#
# Mechanical properties :
#
#
# Convention : Reuss Voigt Hill
#
# Bulk Modulus (GPa) = 59.54945 68.82927 64.18936
# Shear Modulus (GPa) = 24.38704 30.86709 27.62707
#
# Velocity S-wave (km/s) = 3.30321 3.71624 3.51579
# Velocity P-wave (km/s) = 6.41807 7.01493 6.72313
#
# Compressibility (1/GPa) = 0.01679277
#
# Stress axis : x y z
#
# Youngs Moduli (GPa) = 152.14280 60.40099 49.20325
#
# Poissons Ratio (x) = 0.02581 0.22239
# Poissons Ratio (y) = 0.06500 0.41247
# Poissons Ratio (z) = 0.68766 0.50633
#
# Static dielectric constant tensor:
#      x y z
#    x 3.628940 0.000000 0.000000 
#    y 0.000000 12.738840 0.000000 
#    z 0.000000 0.000000 6.224740 
# 
# 
# High freq. dielectric constant tensor:
#      x y z
#    x 1.845130 0.000000 0.000000 
#    y 0.000000 1.893820 0.000000 
#    z 0.000000 0.000000 1.897790 
# 
# From -- ./inp_files/11505.got.cif
#   From: 2010.06.25/outbox.cif.g09.slc.cpg/sg52_6_cif.got.tgz:11505.got - 2010.06.26 19:32:48.
