data_PCOD8217778
_publ_section_title
;
Structure prediction by ZEFSAII (Michael W. Deem and Ramdas Pophale) SiO2 
 PCOD8217778
Probable space group: P M N A
;
_chemical_formula_sum "Si O2"
_cell_formula_units_Z 64
_cell_length_a 8.847841
_cell_length_b 21.546303
_cell_length_c 18.038125
_cell_angle_alpha 90.000000
_cell_angle_beta 90.000000
_cell_angle_gamma 90.000000
_cell_volume 3438.756819
_symmetry_space_group_name_H-M "P M N A"
_symmetry_group_IT_number 53
_symmetry_cell_setting 'orthorhombic'
loop_
_space_group_symop_operation_xyz
x,y,z
1/2-x,-y,1/2+z
x,-y,-z
1/2-x,y,1/2-z
-x,-y,-z
1/2+x,y,1/2-z
-x,y,z
1/2+x,-y,1/2+z
loop_
_atom_site_type_symbol
_atom_site_label
_atom_site_fract_x
_atom_site_fract_y
_atom_site_fract_z
Si Si1 0.823974 0.124647 0.327826
Si Si2 0.326065 0.622611 0.408337
Si Si3 0.178625 0.261825 0.669977
Si Si4 0.177215 0.751243 0.590457
Si Si5 0.826088 0.626974 0.915949
Si Si6 0.823810 0.188052 0.952094
Si Si7 0.670826 0.502128 0.911800
Si Si8 0.175964 0.935895 0.965369
O O1 0.750000 0.108155 0.250000
O O2 0.785986 0.195718 0.349330
O O3 0.763308 0.077484 0.389619
O O4 0.000000 0.113546 0.320509
O O5 0.500000 0.628674 0.384201
O O6 0.228727 0.675176 0.369414
O O7 0.306638 0.628916 0.495969
O O8 0.263290 0.556437 0.380363
O O9 0.250000 0.256977 0.750000
O O10 0.236030 0.202331 0.623610
O O11 0.000000 0.260119 0.676249
O O12 0.239637 0.685686 0.620356
O O13 0.264568 0.765831 0.515019
O O14 0.000000 0.747200 0.573262
O O15 0.751384 0.564693 0.883267
O O16 0.000000 0.628821 0.891798
O O17 0.000000 0.201957 0.940872
O O18 0.791455 0.117121 0.973976
O O19 0.500000 0.500242 0.881309
O O20 0.672238 0.500000 0.000000
O O21 0.000000 0.939478 0.945463
O O22 0.235578 0.000000 0.000000
#
# Coordination Sequence:
#
# PCOD8217778 Si02
#       8
#     8   8   8   8   8   8   8   8
#     4  10  21  36  56  84 116 150 186 227 271 322
#     4  10  19  32  49  71 101 134 176 224 276 331
#     4  12  24  37  54  75 104 141 185 231 280 331
#     4  10  19  31  51  78 107 140 179 221 270 324
#     4  10  18  28  47  74 104 136 174 221 274 328
#     4  10  19  34  55  80 109 139 176 221 268 319
#     4   9  17  28  44  68  99 133 171 216 270 324
#     4   9  19  37  62  89 117 150 185 223 269 321
#
# _framework density 18.611376
#
# number of rings (size 3 to 8) (size 9 to 14) (size 15 to 20)
#    0.000    2.000    1.250    3.375    0.000    4.750 
#    0.000    0.625    0.000    0.750    0.000    3.500 
#    0.000    0.000    0.000    0.000    0.000    0.000 
#
# Total GULP energy -793772.717066 kJ/mol
# GULP energy per Si atom -12402.698704 kJ/mol
# Density = 1.856902 g / cm^3
# Si number density = 18.611376 Si / 1000 Ang^3
#
#
#
# Elastic Constant Matrix: (Units=GPa)
#
#
# Indices 1 2 3 4 5 6 
#
# 1 130.3986 56.0593 48.2825 0.0000 0.0000 0.0000
# 2 56.0593 135.5762 37.0084 0.0000 0.0000 0.0000
# 3 48.2825 37.0084 72.4518 0.0000 0.0000 0.0000
# 4 0.0000 0.0000 0.0000 17.1669 0.0000 0.0000
# 5 0.0000 0.0000 0.0000 0.0000 26.3184 0.0000
# 6 0.0000 0.0000 0.0000 0.0000 0.0000 28.8870
#
#
#
# Elastic Compliance Matrix: (Units=1/GPa)
#
#
# Indices 1 2 3 4 5 6 
#
# 1 0.011139 -0.002998 -0.005892 0.000000 0.000000 0.000000
# 2 -0.002998 0.009378 -0.002793 0.000000 0.000000 0.000000
# 3 -0.005892 -0.002793 0.019155 0.000000 0.000000 0.000000
# 4 0.000000 0.000000 0.000000 0.058252 0.000000 0.000000
# 5 0.000000 0.000000 0.000000 0.000000 0.037996 0.000000
# 6 0.000000 0.000000 0.000000 0.000000 0.000000 0.034618
#
#
# Mechanical properties :
#
#
# Convention : Reuss Voigt Hill
#
# Bulk Modulus (GPa) = 61.32058 69.01412 65.16735
# Shear Modulus (GPa) = 25.08306 27.61287 26.34796
#
# Velocity S-wave (km/s) = 3.67512 3.85600 3.76665
# Velocity P-wave (km/s) = 7.14340 7.54899 7.34899
#
# Compressibility (1/GPa) = 0.01630774
#
# Stress axis : x y z
#
# Youngs Moduli (GPa) = 89.77389 106.63641 52.20515
#
# Poissons Ratio (x) = 0.31965 0.30759
# Poissons Ratio (y) = 0.26910 0.14578
# Poissons Ratio (z) = 0.52895 0.29779
#
# Static dielectric constant tensor:
#      x y z
#    x 3.550590 0.000000 0.000000 
#    y 0.000000 3.600030 0.000000 
#    z 0.000000 0.000000 2.850090 
# 
# 
# High freq. dielectric constant tensor:
#      x y z
#    x 1.738480 0.000000 0.000000 
#    y 0.000000 1.727020 0.000000 
#    z 0.000000 0.000000 1.684630 
# 
# From -- ./inp_files/26915.got.cif
#   From: 2010.03.12/outbox.cif.g09.slc.cpg/sg53_14_cif.got.tgz:26915.got - 2010.04.16 14:36:59.
