data_PCOD8217163
_publ_section_title
;
Structure prediction by ZEFSAII (Michael W. Deem and Ramdas Pophale) SiO2 
 PCOD8217163
Probable space group: P N N A
;
_chemical_formula_sum "Si O2"
_cell_formula_units_Z 40
_cell_length_a 10.624413
_cell_length_b 8.814798
_cell_length_c 20.506792
_cell_angle_alpha 90.000000
_cell_angle_beta 90.000000
_cell_angle_gamma 90.000000
_cell_volume 1920.503201
_symmetry_space_group_name_H-M "P N N A"
_symmetry_group_IT_number 52
_symmetry_cell_setting 'orthorhombic'
loop_
_space_group_symop_operation_xyz
x,y,z
1/2-x,-y,z
x,1/2-y,1/2-z
1/2-x,1/2+y,1/2-z
-x,-y,-z
1/2+x,y,-z
-x,1/2+y,1/2+z
1/2+x,1/2-y,1/2+z
loop_
_atom_site_type_symbol
_atom_site_label
_atom_site_fract_x
_atom_site_fract_y
_atom_site_fract_z
Si Si1 0.585298 0.750000 0.250000
Si Si2 0.250000 0.500000 0.803388
Si Si3 0.117050 0.162678 0.155987
Si Si4 0.136535 0.120926 0.455904
Si Si5 0.605474 0.815893 0.817553
Si Si6 0.946703 0.609633 0.095199
O O1 0.672949 0.603799 0.246394
O O2 0.496788 0.741072 0.186366
O O3 0.157350 0.404226 0.848999
O O4 0.148883 0.219830 0.082814
O O5 0.245516 0.196338 0.194143
O O6 0.073034 0.989001 0.164115
O O7 0.122693 0.173670 0.530758
O O8 0.250000 0.000000 0.446656
O O9 0.009028 0.048001 0.427027
O O10 0.544356 0.750000 0.750000
O O11 0.555910 0.720008 0.878831
#
# Coordination Sequence:
#
# PCOD8217163 Si02
#       6
#     4   4   8   8   8   8
#     4  12  26  44  62  96 136 176 218 274 342 414
#     4  12  26  42  64  98 138 178 220 278 348 412
#     4  11  24  42  68  98 132 173 226 285 339 396
#     4  11  22  43  70  97 131 180 230 285 332 404
#     4  11  24  41  70 101 131 173 225 289 340 405
#     4  11  24  42  68  97 133 177 230 276 342 408
#
# _framework density 20.827874000000001
#
# number of rings (size 3 to 8) (size 9 to 14) (size 15 to 20)
#    0.000    0.800    6.000    1.200    4.200    0.800 
#    0.000    0.000    0.000    0.000    0.000    0.000 
#    0.000    0.000    0.000    0.000    0.000    0.000 
#
# Total GULP energy -495763.671243 kJ/mol
# GULP energy per Si atom -12394.091781 kJ/mol
# Density = 2.078047 g / cm^3
# Si number density = 20.827874 Si / 1000 Ang^3
#
#
#
# Elastic Constant Matrix: (Units=GPa)
#
#
# Indices 1 2 3 4 5 6 
#
# 1 83.0742 27.0385 19.3026 0.0000 0.0000 0.0000
# 2 27.0385 105.3686 54.3516 0.0000 0.0000 0.0000
# 3 19.3026 54.3516 117.1162 0.0000 0.0000 0.0000
# 4 0.0000 0.0000 0.0000 30.0505 0.0000 0.0000
# 5 0.0000 0.0000 0.0000 0.0000 34.2070 0.0000
# 6 0.0000 0.0000 0.0000 0.0000 0.0000 24.7368
#
#
#
# Elastic Compliance Matrix: (Units=1/GPa)
#
#
# Indices 1 2 3 4 5 6 
#
# 1 0.013190 -0.002976 -0.000793 0.000000 0.000000 0.000000
# 2 -0.002976 0.013149 -0.005612 0.000000 0.000000 0.000000
# 3 -0.000793 -0.005612 0.011273 0.000000 0.000000 0.000000
# 4 0.000000 0.000000 0.000000 0.033277 0.000000 0.000000
# 5 0.000000 0.000000 0.000000 0.000000 0.029234 0.000000
# 6 0.000000 0.000000 0.000000 0.000000 0.000000 0.040426
#
#
# Mechanical properties :
#
#
# Convention : Reuss Voigt Hill
#
# Bulk Modulus (GPa) = 53.04546 56.32717 54.68631
# Shear Modulus (GPa) = 30.19439 31.45661 30.82550
#
# Velocity S-wave (km/s) = 3.81164 3.89049 3.85127
# Velocity P-wave (km/s) = 6.70039 6.87634 6.78894
#
# Compressibility (1/GPa) = 0.01885176
#
# Stress axis : x y z
#
# Youngs Moduli (GPa) = 75.81388 76.05313 88.70365
#
# Poissons Ratio (x) = 0.22631 0.07034
# Poissons Ratio (y) = 0.22560 0.49777
# Poissons Ratio (z) = 0.06012 0.42678
#
# Static dielectric constant tensor:
#      x y z
#    x 3.892370 0.000000 0.000000 
#    y 0.000000 3.550490 0.000000 
#    z 0.000000 0.000000 3.839020 
# 
# 
# High freq. dielectric constant tensor:
#      x y z
#    x 1.826540 0.000000 0.000000 
#    y 0.000000 1.796890 0.000000 
#    z 0.000000 0.000000 1.816190 
# 
# From -- ./inp_files/32040.got.cif
#   From: 2010.06.25/outbox.cif.g09.slc.cpg/sg52_17_cif.got.tgz:32040.got - 2010.06.26 19:32:48.
