data_PCOD8217344
_publ_section_title
;
Structure prediction by ZEFSAII (Michael W. Deem and Ramdas Pophale) SiO2 
 PCOD8217344
Probable space group: P N N A
;
_chemical_formula_sum "Si O2"
_cell_formula_units_Z 24
_cell_length_a 10.410923
_cell_length_b 8.027609
_cell_length_c 10.056833
_cell_angle_alpha 90.000000
_cell_angle_beta 90.000000
_cell_angle_gamma 90.000000
_cell_volume 840.497999
_symmetry_space_group_name_H-M "P N N A"
_symmetry_group_IT_number 52
_symmetry_cell_setting 'orthorhombic'
loop_
_space_group_symop_operation_xyz
x,y,z
1/2-x,-y,z
x,1/2-y,1/2-z
1/2-x,1/2+y,1/2-z
-x,-y,-z
1/2+x,y,-z
-x,1/2+y,1/2+z
1/2+x,1/2-y,1/2+z
loop_
_atom_site_type_symbol
_atom_site_label
_atom_site_fract_x
_atom_site_fract_y
_atom_site_fract_z
Si Si1 0.367593 0.750000 0.250000
Si Si2 0.347124 0.301038 0.461940
Si Si3 0.750000 0.500000 0.108680
Si Si4 0.946807 0.966015 0.191841
O O1 0.284422 0.686455 0.376332
O O2 0.459147 0.908388 0.273256
O O3 0.341058 0.118514 0.523544
O O4 0.471339 0.311746 0.366478
O O5 0.365587 0.441768 0.574614
O O6 0.655086 0.392457 0.202981
#
# Coordination Sequence:
#
# PCOD8217344 Si02
#       4
#     4   8   4   8
#     4  12  26  52  80 120 160 228 268 350 416 498
#     4  11  28  49  83 120 166 215 283 343 416 500
#     4  12  26  52  86 124 160 228 278 344 426 508
#     4  11  27  53  81 121 168 217 276 352 418 496
#
# _framework density 28.554497000000001
#
# number of rings (size 3 to 8) (size 9 to 14) (size 15 to 20)
#    0.000    0.667    3.333    1.000   14.000    4.000 
#    0.000    0.000    0.000    0.000    0.000    0.000 
#    0.000    0.000    0.000    0.000    0.000    0.000 
#
# Total GULP energy -297410.187250 kJ/mol
# GULP energy per Si atom -12392.091135 kJ/mol
# Density = 2.848951 g / cm^3
# Si number density = 28.554497 Si / 1000 Ang^3
#
#
#
# Elastic Constant Matrix: (Units=GPa)
#
#
# Indices 1 2 3 4 5 6 
#
# 1 159.3925 76.5327 75.1595 0.0000 0.0000 0.0000
# 2 76.5327 122.4925 68.1635 0.0000 0.0000 0.0000
# 3 75.1595 68.1635 106.2512 0.0000 0.0000 0.0000
# 4 0.0000 0.0000 0.0000 36.0208 0.0000 0.0000
# 5 0.0000 0.0000 0.0000 0.0000 6.7611 0.0000
# 6 0.0000 0.0000 0.0000 0.0000 0.0000 48.5093
#
#
#
# Elastic Compliance Matrix: (Units=1/GPa)
#
#
# Indices 1 2 3 4 5 6 
#
# 1 0.010412 -0.003743 -0.004964 0.000000 0.000000 0.000000
# 2 -0.003743 0.014042 -0.006361 0.000000 0.000000 0.000000
# 3 -0.004964 -0.006361 0.017003 0.000000 0.000000 0.000000
# 4 0.000000 0.000000 0.000000 0.027762 0.000000 0.000000
# 5 0.000000 0.000000 0.000000 0.000000 0.147904 0.000000
# 6 0.000000 0.000000 0.000000 0.000000 0.000000 0.020615
#
#
# Mechanical properties :
#
#
# Convention : Reuss Voigt Hill
#
# Bulk Modulus (GPa) = 88.32120 91.98308 90.15214
# Shear Modulus (GPa) = 18.40631 29.47695 23.94163
#
# Velocity S-wave (km/s) = 2.54166 3.21644 2.89875
# Velocity P-wave (km/s) = 6.29375 6.78801 6.54554
#
# Compressibility (1/GPa) = 0.01132231
#
# Stress axis : x y z
#
# Youngs Moduli (GPa) = 96.04706 71.21571 58.81191
#
# Poissons Ratio (x) = 0.26656 0.29192
# Poissons Ratio (y) = 0.35950 0.37408
# Poissons Ratio (z) = 0.47674 0.45298
#
# Static dielectric constant tensor:
#      x y z
#    x 5.667210 0.000000 0.000000 
#    y 0.000000 4.706440 0.000000 
#    z 0.000000 0.000000 5.611240 
# 
# 
# High freq. dielectric constant tensor:
#      x y z
#    x 2.184850 0.000000 0.000000 
#    y 0.000000 2.144820 0.000000 
#    z 0.000000 0.000000 2.168650 
# 
# From -- ./inp_files/17464.got.cif
#   From: 2010.06.25/outbox.cif.g09.slc.cpg/sg52_9_cif.got.tgz:17464.got - 2010.06.26 19:32:48.
