data_PCOD8217825
_publ_section_title
;
Structure prediction by ZEFSAII (Michael W. Deem and Ramdas Pophale) SiO2 
 PCOD8217825
Probable space group: P M N A
;
_chemical_formula_sum "Si O2"
_cell_formula_units_Z 56
_cell_length_a 7.861519
_cell_length_b 17.602877
_cell_length_c 24.982117
_cell_angle_alpha 90.000000
_cell_angle_beta 90.000000
_cell_angle_gamma 90.000000
_cell_volume 3457.159055
_symmetry_space_group_name_H-M "P M N A"
_symmetry_group_IT_number 53
_symmetry_cell_setting 'orthorhombic'
loop_
_space_group_symop_operation_xyz
x,y,z
1/2-x,-y,1/2+z
x,-y,-z
1/2-x,y,1/2-z
-x,-y,-z
1/2+x,y,1/2-z
-x,y,z
1/2+x,-y,1/2+z
loop_
_atom_site_type_symbol
_atom_site_label
_atom_site_fract_x
_atom_site_fract_y
_atom_site_fract_z
Si Si1 0.800689 0.739309 0.307325
Si Si2 0.300818 0.570373 0.192195
Si Si3 0.188947 0.791177 0.513525
Si Si4 0.302818 0.513088 0.418832
Si Si5 0.298220 0.622351 0.509443
Si Si6 0.803713 0.145145 0.603854
Si Si7 0.000000 0.114081 0.039158
Si Si8 0.500000 0.953931 0.421199
O O1 0.750000 0.773915 0.250000
O O2 0.719138 0.654894 0.313492
O O3 0.732696 0.795730 0.352435
O O4 0.000000 0.732014 0.313177
O O5 0.250000 0.535206 0.250000
O O6 0.500000 0.574697 0.187596
O O7 0.235112 0.517715 0.144160
O O8 0.204602 0.701207 0.519276
O O9 0.213497 0.811946 0.451873
O O10 0.331105 0.835030 0.548367
O O11 0.000000 0.815655 0.533183
O O12 0.500000 0.511897 0.430247
O O13 0.234093 0.585484 0.452893
O O14 0.234655 0.433665 0.442909
O O15 0.500000 0.636871 0.509730
O O16 0.674833 0.073895 0.607011
O O17 0.000000 0.118868 0.614271
O O18 0.000000 0.045401 0.081734
O O19 0.000000 0.077283 0.981013
#
# Coordination Sequence:
#
# PCOD8217825 Si02
#       8
#     8   8   8   8   8   8   4   4
#     4   9  18  29  41  61  88 118 154 192 222 256
#     4  10  19  31  44  61  88 122 161 198 232 274
#     4  10  18  29  47  66  90 123 154 188 227 267
#     4   9  18  30  45  64  90 125 155 194 238 272
#     4   9  17  30  45  65  94 123 157 194 233 281
#     4   9  18  30  43  65  92 119 153 189 217 265
#     4   9  18  32  44  67  92 112 152 185 216 272
#     4   9  18  30  48  64  86 124 148 174 226 272
#
# _framework density 16.198270000000001
#
# number of rings (size 3 to 8) (size 9 to 14) (size 15 to 20)
#    0.000    2.714    0.714    2.143    1.000    3.429 
#    0.000    4.286    0.000    0.000    0.000    0.000 
#    0.000    1.143    0.857    0.000    0.000    0.000 
#
# Total GULP energy -694077.114312 kJ/mol
# GULP energy per Si atom -12394.234184 kJ/mol
# Density = 1.616140 g / cm^3
# Si number density = 16.198270 Si / 1000 Ang^3
#
#
#
# Elastic Constant Matrix: (Units=GPa)
#
#
# Indices 1 2 3 4 5 6 
#
# 1 71.4332 40.1575 19.0605 0.0000 0.0000 0.0000
# 2 40.1575 95.6437 35.5124 0.0000 0.0000 0.0000
# 3 19.0605 35.5124 77.4571 0.0000 0.0000 0.0000
# 4 0.0000 0.0000 0.0000 186.5867 0.0000 0.0000
# 5 0.0000 0.0000 0.0000 0.0000 18.0007 0.0000
# 6 0.0000 0.0000 0.0000 0.0000 0.0000 17.6303
#
#
#
# Elastic Compliance Matrix: (Units=1/GPa)
#
#
# Indices 1 2 3 4 5 6 
#
# 1 0.018415 -0.007290 -0.001189 0.000000 0.000000 0.000000
# 2 -0.007290 0.015487 -0.005306 0.000000 0.000000 0.000000
# 3 -0.001189 -0.005306 0.015636 0.000000 0.000000 0.000000
# 4 0.000000 0.000000 0.000000 0.005359 0.000000 0.000000
# 5 0.000000 0.000000 0.000000 0.000000 0.055553 0.000000
# 6 0.000000 0.000000 0.000000 0.000000 0.000000 0.056720
#
#
# Mechanical properties :
#
#
# Convention : Reuss Voigt Hill
#
# Bulk Modulus (GPa) = 45.52499 48.22165 46.87332
# Shear Modulus (GPa) = 24.74469 54.43045 39.58757
#
# Velocity S-wave (km/s) = 3.91271 5.80307 4.94898
# Velocity P-wave (km/s) = 6.96981 8.64494 7.85217
#
# Compressibility (1/GPa) = 0.02196596
#
# Stress axis : x y z
#
# Youngs Moduli (GPa) = 54.30442 64.57188 63.95582
#
# Poissons Ratio (x) = 0.47074 0.07605
# Poissons Ratio (y) = 0.39589 0.33937
# Poissons Ratio (z) = 0.06457 0.34264
#
# Static dielectric constant tensor:
#      x y z
#    x 3.127480 0.000000 0.000000 
#    y 0.000000 3.127940 0.000000 
#    z 0.000000 0.000000 1.907050 
# 
# 
# High freq. dielectric constant tensor:
#      x y z
#    x 1.632080 0.000000 0.000000 
#    y 0.000000 1.598990 0.000000 
#    z 0.000000 0.000000 1.590400 
# 
# From -- ./inp_files/34402.got.cif
#   From: 2010.03.12/outbox.cif.g09.slc.cpg/sg53_18_cif.got.tgz:34402.got - 2010.04.16 14:36:59.
