data_PCOD8217749
_publ_section_title
;
Structure prediction by ZEFSAII (Michael W. Deem and Ramdas Pophale) SiO2 
 PCOD8217749
Probable space group: P M N A
;
_chemical_formula_sum "Si O2"
_cell_formula_units_Z 56
_cell_length_a 9.065629
_cell_length_b 20.866347
_cell_length_c 18.027170
_cell_angle_alpha 90.000000
_cell_angle_beta 90.000000
_cell_angle_gamma 90.000000
_cell_volume 3410.137744
_symmetry_space_group_name_H-M "P M N A"
_symmetry_group_IT_number 53
_symmetry_cell_setting 'orthorhombic'
loop_
_space_group_symop_operation_xyz
x,y,z
1/2-x,-y,1/2+z
x,-y,-z
1/2-x,y,1/2-z
-x,-y,-z
1/2+x,y,1/2-z
-x,y,z
1/2+x,-y,1/2+z
loop_
_atom_site_type_symbol
_atom_site_label
_atom_site_fract_x
_atom_site_fract_y
_atom_site_fract_z
Si Si1 0.172826 0.998234 0.328448
Si Si2 0.833883 0.935235 0.953596
Si Si3 0.826766 0.749953 0.327492
Si Si4 0.666413 0.431791 0.460873
Si Si5 0.328712 0.127635 0.920445
Si Si6 0.827824 0.620373 0.405654
Si Si7 0.673375 0.487515 0.172007
O O1 0.250000 0.001865 0.250000
O O2 0.208347 0.929062 0.363190
O O3 0.000000 0.009846 0.319201
O O4 0.238579 0.054815 0.379443
O O5 0.000000 0.915409 0.932083
O O6 0.762120 0.879415 0.003413
O O7 0.831543 0.000000 0.000000
O O8 0.750000 0.762795 0.250000
O O9 0.779874 0.805779 0.383821
O O10 0.773727 0.682553 0.361161
O O11 0.000000 0.750339 0.313156
O O12 0.667824 0.500000 0.500000
O O13 0.500000 0.409770 0.442624
O O14 0.741055 0.381103 0.516540
O O15 0.760366 0.435845 0.385411
O O16 0.500000 0.126681 0.941653
O O17 0.790348 0.559314 0.354863
O O18 0.000000 0.623237 0.424948
O O19 0.750000 0.475720 0.250000
O O20 0.500000 0.475787 0.179284
#
# Coordination Sequence:
#
# PCOD8217749 Si02
#       7
#     8   8   8   8   8   8   8
#     4  10  18  28  44  66  92 119 148 184 226 268
#     4   9  17  29  45  64  86 114 149 187 226 268
#     4  10  20  32  46  66  93 124 157 188 218 256
#     4   9  17  29  45  64  86 114 149 187 226 268
#     4   9  18  31  45  63  90 123 154 185 221 261
#     4   9  18  31  45  63  90 123 154 185 221 261
#     4  10  18  28  44  66  92 119 148 184 226 268
#
# _framework density 16.421623
#
# number of rings (size 3 to 8) (size 9 to 14) (size 15 to 20)
#    0.000    2.571    0.000    2.571    0.000    5.714 
#    0.000    0.000    0.000    0.000    0.000    1.000 
#    0.000    0.000    0.000    0.000    0.000    0.000 
#
# Total GULP energy -694473.639173 kJ/mol
# GULP energy per Si atom -12401.314985 kJ/mol
# Density = 1.638425 g / cm^3
# Si number density = 16.421623 Si / 1000 Ang^3
#
#
#
# Elastic Constant Matrix: (Units=GPa)
#
#
# Indices 1 2 3 4 5 6 
#
# 1 87.1343 17.0183 54.4281 0.0000 0.0000 0.0000
# 2 17.0183 34.6246 15.9359 0.0000 0.0000 0.0000
# 3 54.4281 15.9359 92.5043 0.0000 0.0000 0.0000
# 4 0.0000 0.0000 0.0000 20.7887 0.0000 0.0000
# 5 0.0000 0.0000 0.0000 0.0000 38.0549 0.0000
# 6 0.0000 0.0000 0.0000 0.0000 0.0000 16.7403
#
#
#
# Elastic Compliance Matrix: (Units=1/GPa)
#
#
# Indices 1 2 3 4 5 6 
#
# 1 0.018770 -0.004499 -0.010269 0.000000 0.000000 0.000000
# 2 -0.004499 0.032447 -0.002942 0.000000 0.000000 0.000000
# 3 -0.010269 -0.002942 0.017359 0.000000 0.000000 0.000000
# 4 0.000000 0.000000 0.000000 0.048103 0.000000 0.000000
# 5 0.000000 0.000000 0.000000 0.000000 0.026278 0.000000
# 6 0.000000 0.000000 0.000000 0.000000 0.000000 0.059736
#
#
# Mechanical properties :
#
#
# Convention : Reuss Voigt Hill
#
# Bulk Modulus (GPa) = 30.16143 43.22532 36.69338
# Shear Modulus (GPa) = 20.06705 23.57550 21.82127
#
# Velocity S-wave (km/s) = 3.49949 3.79309 3.64924
# Velocity P-wave (km/s) = 5.89367 6.75002 6.33633
#
# Compressibility (1/GPa) = 0.03315492
#
# Stress axis : x y z
#
# Youngs Moduli (GPa) = 53.27770 30.81966 57.60665
#
# Poissons Ratio (x) = 0.13867 0.59154
# Poissons Ratio (y) = 0.23971 0.16950
# Poissons Ratio (z) = 0.54709 0.09068
#
# Static dielectric constant tensor:
#      x y z
#    x 3.217050 0.000000 0.000000 
#    y 0.000000 2.911160 0.000000 
#    z 0.000000 0.000000 3.107590 
# 
# 
# High freq. dielectric constant tensor:
#      x y z
#    x 1.643520 0.000000 0.000000 
#    y 0.000000 1.591920 0.000000 
#    z 0.000000 0.000000 1.632520 
# 
# From -- ./inp_files/26671.got.cif
#   From: 2010.03.12/outbox.cif.g09.slc.cpg/sg53_14_cif.got.tgz:26671.got - 2010.04.16 14:36:59.
