data_PCOD8217185
_publ_section_title
;
Structure prediction by ZEFSAII (Michael W. Deem and Ramdas Pophale) SiO2 
 PCOD8217185
Probable space group: P N N A
;
_chemical_formula_sum "Si O2"
_cell_formula_units_Z 32
_cell_length_a 16.340091
_cell_length_b 4.878474
_cell_length_c 18.851839
_cell_angle_alpha 90.000000
_cell_angle_beta 90.000000
_cell_angle_gamma 90.000000
_cell_volume 1502.768862
_symmetry_space_group_name_H-M "P N N A"
_symmetry_group_IT_number 52
_symmetry_cell_setting 'orthorhombic'
loop_
_space_group_symop_operation_xyz
x,y,z
1/2-x,-y,z
x,1/2-y,1/2-z
1/2-x,1/2+y,1/2-z
-x,-y,-z
1/2+x,y,-z
-x,1/2+y,1/2+z
1/2+x,1/2-y,1/2+z
loop_
_atom_site_type_symbol
_atom_site_label
_atom_site_fract_x
_atom_site_fract_y
_atom_site_fract_z
Si Si1 0.559743 0.061800 0.435655
Si Si2 0.196175 0.757253 0.124841
Si Si3 0.840564 0.078605 0.028505
Si Si4 0.543406 0.980516 0.702676
O O1 0.590699 0.373069 0.440903
O O2 0.513595 0.974898 0.364461
O O3 0.500000 0.000000 0.500000
O O4 0.640290 0.874915 0.439448
O O5 0.250000 0.500000 0.097683
O O6 0.130961 0.643345 0.180087
O O7 0.250000 0.000000 0.161683
O O8 0.153226 0.902805 0.057154
O O9 0.750000 0.000000 0.053643
O O10 0.499196 0.750000 0.750000
O O11 0.556369 0.250000 0.750000
#
# Coordination Sequence:
#
# PCOD8217185 Si02
#       4
#     8   8   8   8
#     4  12  24  42  71  97 129 175 225 275 325 385
#     4  11  23  40  66  97 138 177 220 263 331 409
#     4  11  23  40  70 102 131 163 221 283 334 380
#     4  12  27  43  65  95 139 181 222 267 330 396
#
# _framework density 21.294025000000001
#
# number of rings (size 3 to 8) (size 9 to 14) (size 15 to 20)
#    0.000    0.500    2.500    7.500    3.500    2.000 
#    0.000    0.000    0.000   15.000    0.000    0.000 
#    0.000    0.000    0.000    0.000    0.000    0.000 
#
# Total GULP energy -396811.998391 kJ/mol
# GULP energy per Si atom -12400.374950 kJ/mol
# Density = 2.124556 g / cm^3
# Si number density = 21.294025 Si / 1000 Ang^3
#
#
#
# Elastic Constant Matrix: (Units=GPa)
#
#
# Indices 1 2 3 4 5 6 
#
# 1 94.2271 38.4767 54.2195 0.0000 0.0000 0.0000
# 2 38.4767 128.7849 39.4223 0.0000 0.0000 0.0000
# 3 54.2195 39.4223 121.0847 0.0000 0.0000 0.0000
# 4 0.0000 0.0000 0.0000 45.3276 0.0000 0.0000
# 5 0.0000 0.0000 0.0000 0.0000 5.6733 0.0000
# 6 0.0000 0.0000 0.0000 0.0000 0.0000 44.1787
#
#
#
# Elastic Compliance Matrix: (Units=1/GPa)
#
#
# Indices 1 2 3 4 5 6 
#
# 1 0.015104 -0.002713 -0.005880 0.000000 0.000000 0.000000
# 2 -0.002713 0.009112 -0.001752 0.000000 0.000000 0.000000
# 3 -0.005880 -0.001752 0.011462 0.000000 0.000000 0.000000
# 4 0.000000 0.000000 0.000000 0.022062 0.000000 0.000000
# 5 0.000000 0.000000 0.000000 0.000000 0.176266 0.000000
# 6 0.000000 0.000000 0.000000 0.000000 0.000000 0.022635
#
#
# Mechanical properties :
#
#
# Convention : Reuss Voigt Hill
#
# Bulk Modulus (GPa) = 66.71826 67.59262 67.15544
# Shear Modulus (GPa) = 17.71008 33.16779 25.43894
#
# Velocity S-wave (km/s) = 2.88704 3.95094 3.46012
# Velocity P-wave (km/s) = 6.52022 7.25429 6.89702
#
# Compressibility (1/GPa) = 0.01498840
#
# Stress axis : x y z
#
# Youngs Moduli (GPa) = 66.20871 109.75054 87.24463
#
# Poissons Ratio (x) = 0.29771 0.51300
# Poissons Ratio (y) = 0.17960 0.15284
# Poissons Ratio (z) = 0.38931 0.19227
#
# Static dielectric constant tensor:
#      x y z
#    x 3.943560 0.000000 0.000000 
#    y 0.000000 4.222330 0.000000 
#    z 0.000000 0.000000 4.425930 
# 
# 
# High freq. dielectric constant tensor:
#      x y z
#    x 1.831010 0.000000 0.000000 
#    y 0.000000 1.863410 0.000000 
#    z 0.000000 0.000000 1.818200 
# 
# From -- ./inp_files/32598.got.cif
#   From: 2010.06.25/outbox.cif.g09.slc.cpg/sg52_17_cif.got.tgz:32598.got - 2010.06.26 19:32:48.
