data_PCOD8217373
_publ_section_title
;
Structure prediction by ZEFSAII (Michael W. Deem and Ramdas Pophale) SiO2 
 PCOD8217373
Probable space group: P N N A
;
_chemical_formula_sum "Si O2"
_cell_formula_units_Z 40
_cell_length_a 7.405543
_cell_length_b 17.777876
_cell_length_c 13.779248
_cell_angle_alpha 90.000000
_cell_angle_beta 90.000000
_cell_angle_gamma 90.000000
_cell_volume 1814.104486
_symmetry_space_group_name_H-M "P N N A"
_symmetry_group_IT_number 52
_symmetry_cell_setting 'orthorhombic'
loop_
_space_group_symop_operation_xyz
x,y,z
1/2-x,-y,z
x,1/2-y,1/2-z
1/2-x,1/2+y,1/2-z
-x,-y,-z
1/2+x,y,-z
-x,1/2+y,1/2+z
1/2+x,1/2-y,1/2+z
loop_
_atom_site_type_symbol
_atom_site_label
_atom_site_fract_x
_atom_site_fract_y
_atom_site_fract_z
Si Si1 0.839937 0.420535 0.635913
Si Si2 0.558053 0.218322 0.357879
Si Si3 0.192898 0.418309 0.759344
Si Si4 0.035807 0.174427 0.191136
Si Si5 0.646579 0.705869 0.490047
O O1 0.750000 0.500000 0.616416
O O2 0.717877 0.372827 0.712990
O O3 0.834608 0.377484 0.533752
O O4 0.041156 0.428154 0.676894
O O5 0.525359 0.250000 0.250000
O O6 0.615864 0.130967 0.350084
O O7 0.705698 0.269991 0.411027
O O8 0.379910 0.231137 0.424409
O O9 0.250000 0.500000 0.799813
O O10 0.363790 0.376883 0.714102
O O11 0.029916 0.250000 0.250000
O O12 0.035877 0.198053 0.076651
#
# Coordination Sequence:
#
# PCOD8217373 Si02
#       5
#     8   8   8   8   8
#     4  12  27  42  68 112 140 182 238 294 368 437
#     4  12  24  45  71 106 142 188 242 294 355 432
#     4  12  25  48  71 101 151 189 229 303 363 417
#     4  12  25  44  72 104 142 189 236 295 362 429
#     4  12  23  43  71 101 142 184 237 295 355 429
#
# _framework density 22.049446
#
# number of rings (size 3 to 8) (size 9 to 14) (size 15 to 20)
#    0.000    0.000   10.000    0.000    2.800    1.600 
#    0.000    1.000    0.000    0.000    0.000    0.000 
#    0.000    0.000    0.000    0.000    0.000    0.000 
#
# Total GULP energy -495848.533852 kJ/mol
# GULP energy per Si atom -12396.213346 kJ/mol
# Density = 2.199926 g / cm^3
# Si number density = 22.049446 Si / 1000 Ang^3
#
#
#
# Elastic Constant Matrix: (Units=GPa)
#
#
# Indices 1 2 3 4 5 6 
#
# 1 72.0167 36.3129 26.4481 0.0000 0.0000 0.0000
# 2 36.3129 194.1506 57.1712 0.0000 0.0000 0.0000
# 3 26.4481 57.1712 81.4409 0.0000 0.0000 0.0000
# 4 0.0000 0.0000 0.0000 23.0902 0.0000 0.0000
# 5 0.0000 0.0000 0.0000 0.0000 26.9445 0.0000
# 6 0.0000 0.0000 0.0000 0.0000 0.0000 43.0578
#
#
#
# Elastic Compliance Matrix: (Units=1/GPa)
#
#
# Indices 1 2 3 4 5 6 
#
# 1 0.016291 -0.001877 -0.003973 0.000000 0.000000 0.000000
# 2 -0.001877 0.006709 -0.004100 0.000000 0.000000 0.000000
# 3 -0.003973 -0.004100 0.016447 0.000000 0.000000 0.000000
# 4 0.000000 0.000000 0.000000 0.043308 0.000000 0.000000
# 5 0.000000 0.000000 0.000000 0.000000 0.037113 0.000000
# 6 0.000000 0.000000 0.000000 0.000000 0.000000 0.023225
#
#
# Mechanical properties :
#
#
# Convention : Reuss Voigt Hill
#
# Bulk Modulus (GPa) = 51.15789 65.27472 58.21630
# Shear Modulus (GPa) = 29.49679 33.79691 31.64685
#
# Velocity S-wave (km/s) = 3.66150 3.91932 3.79260
# Velocity P-wave (km/s) = 6.41306 7.08163 6.75562
#
# Compressibility (1/GPa) = 0.01954733
#
# Stress axis : x y z
#
# Youngs Moduli (GPa) = 61.38278 149.05139 60.80010
#
# Poissons Ratio (x) = 0.27979 0.24155
# Poissons Ratio (y) = 0.11522 0.24929
# Poissons Ratio (z) = 0.24387 0.61113
#
# Static dielectric constant tensor:
#      x y z
#    x 4.849570 0.000000 0.000000 
#    y 0.000000 4.250060 0.000000 
#    z 0.000000 0.000000 4.042290 
# 
# 
# High freq. dielectric constant tensor:
#      x y z
#    x 1.899460 0.000000 0.000000 
#    y 0.000000 1.864250 0.000000 
#    z 0.000000 0.000000 1.849850 
# 
# From -- ./inp_files/16658.got.cif
#   From: 2010.06.25/outbox.cif.g09.slc.cpg/sg52_9_cif.got.tgz:16658.got - 2010.06.26 19:32:48.
