data_PCOD8217664
_publ_section_title
;
Structure prediction by ZEFSAII (Michael W. Deem and Ramdas Pophale) SiO2 
 PCOD8217664
Probable space group: P M N A
;
_chemical_formula_sum "Si O2"
_cell_formula_units_Z 48
_cell_length_a 15.059176
_cell_length_b 10.222439
_cell_length_c 15.380468
_cell_angle_alpha 90.000000
_cell_angle_beta 90.000000
_cell_angle_gamma 90.000000
_cell_volume 2367.692438
_symmetry_space_group_name_H-M "P M N A"
_symmetry_group_IT_number 53
_symmetry_cell_setting 'orthorhombic'
loop_
_space_group_symop_operation_xyz
x,y,z
1/2-x,-y,1/2+z
x,-y,-z
1/2-x,y,1/2-z
-x,-y,-z
1/2+x,y,1/2-z
-x,y,z
1/2+x,-y,1/2+z
loop_
_atom_site_type_symbol
_atom_site_label
_atom_site_fract_x
_atom_site_fract_y
_atom_site_fract_z
Si Si1 0.298294 0.580073 0.156592
Si Si2 0.901465 0.819141 0.305269
Si Si3 0.718091 0.017106 0.095821
Si Si4 0.597626 0.117924 0.609207
Si Si5 0.229014 0.701749 0.650264
Si Si6 0.843177 0.358239 0.991618
O O1 0.250000 0.589746 0.250000
O O2 0.383519 0.673818 0.158414
O O3 0.330937 0.429876 0.140729
O O4 0.238424 0.627340 0.075853
O O5 0.891633 0.815310 0.202267
O O6 0.000000 0.861965 0.334664
O O7 0.827753 0.917780 0.339330
O O8 0.685883 0.162102 0.121334
O O9 0.825001 0.990190 0.095185
O O10 0.679796 0.000000 0.000000
O O11 0.500000 0.049647 0.600650
O O12 0.597731 0.237914 0.540847
O O13 0.250000 0.722731 0.750000
O O14 0.314384 0.679281 0.589340
O O15 0.892815 0.500000 0.000000
#
# Coordination Sequence:
#
# PCOD8217664 Si02
#       6
#     8   8   8   8   8   8
#     4  10  17  35  62  86 117 157 200 248 302 363
#     4  11  22  37  63  93 120 159 211 255 301 363
#     4  12  22  41  62  86 124 166 205 258 303 361
#     4  11  22  37  62  93 124 162 205 251 305 371
#     4  10  21  34  59  87 116 162 203 242 304 360
#     4  10  19  35  59  90 120 154 199 249 305 362
#
# _framework density 20.272902999999999
#
# number of rings (size 3 to 8) (size 9 to 14) (size 15 to 20)
#    0.000    1.333    5.000    1.500    0.000    1.000 
#    0.000    0.833    0.000   13.500    0.000    0.000 
#    0.000    0.000    0.000    0.000    0.000    0.000 
#
# Total GULP energy -594655.182770 kJ/mol
# GULP energy per Si atom -12388.649641 kJ/mol
# Density = 2.022676 g / cm^3
# Si number density = 20.272903 Si / 1000 Ang^3
#
#
#
# Elastic Constant Matrix: (Units=GPa)
#
#
# Indices 1 2 3 4 5 6 
#
# 1 64.5969 29.2123 19.0321 0.0000 0.0000 0.0000
# 2 29.2123 138.6404 22.7620 0.0000 0.0000 0.0000
# 3 19.0321 22.7620 110.7411 0.0000 0.0000 0.0000
# 4 0.0000 0.0000 0.0000 36.5445 0.0000 0.0000
# 5 0.0000 0.0000 0.0000 0.0000 23.2694 0.0000
# 6 0.0000 0.0000 0.0000 0.0000 0.0000 6.4991
#
#
#
# Elastic Compliance Matrix: (Units=1/GPa)
#
#
# Indices 1 2 3 4 5 6 
#
# 1 0.017684 -0.003340 -0.002353 0.000000 0.000000 0.000000
# 2 -0.003340 0.008096 -0.001090 0.000000 0.000000 0.000000
# 3 -0.002353 -0.001090 0.009658 0.000000 0.000000 0.000000
# 4 0.000000 0.000000 0.000000 0.027364 0.000000 0.000000
# 5 0.000000 0.000000 0.000000 0.000000 0.042975 0.000000
# 6 0.000000 0.000000 0.000000 0.000000 0.000000 0.153866
#
#
# Mechanical properties :
#
#
# Convention : Reuss Voigt Hill
#
# Bulk Modulus (GPa) = 45.71843 50.66567 48.19205
# Shear Modulus (GPa) = 17.82533 29.46074 23.64304
#
# Velocity S-wave (km/s) = 2.96846 3.81623 3.41873
# Velocity P-wave (km/s) = 5.86084 6.66815 6.27749
#
# Compressibility (1/GPa) = 0.02187301
#
# Stress axis : x y z
#
# Youngs Moduli (GPa) = 56.54770 123.52406 103.53620
#
# Poissons Ratio (x) = 0.41256 0.24359
# Poissons Ratio (y) = 0.18886 0.11285
# Poissons Ratio (z) = 0.13304 0.13464
#
# Static dielectric constant tensor:
#      x y z
#    x 3.421140 0.000000 0.000000 
#    y 0.000000 4.204730 0.000000 
#    z 0.000000 0.000000 3.973340 
# 
# 
# High freq. dielectric constant tensor:
#      x y z
#    x 1.732530 0.000000 0.000000 
#    y 0.000000 1.810730 0.000000 
#    z 0.000000 0.000000 1.816400 
# 
# From -- ./inp_files/22664.got.cif
#   From: 2010.03.12/outbox.cif.g09.slc.cpg/sg53_12_cif.got.tgz:22664.got - 2010.04.16 14:36:59.
