data_PCOD8217609
_publ_section_title
;
Structure prediction by ZEFSAII (Michael W. Deem and Ramdas Pophale) SiO2 
 PCOD8217609
Probable space group: P M N A
;
_chemical_formula_sum "Si O2"
_cell_formula_units_Z 64
_cell_length_a 8.876022
_cell_length_b 15.042314
_cell_length_c 29.732514
_cell_angle_alpha 90.000000
_cell_angle_beta 90.000000
_cell_angle_gamma 90.000000
_cell_volume 3969.763663
_symmetry_space_group_name_H-M "P M N A"
_symmetry_group_IT_number 53
_symmetry_cell_setting 'orthorhombic'
loop_
_space_group_symop_operation_xyz
x,y,z
1/2-x,-y,1/2+z
x,-y,-z
1/2-x,y,1/2-z
-x,-y,-z
1/2+x,y,1/2-z
-x,y,z
1/2+x,-y,1/2+z
loop_
_atom_site_type_symbol
_atom_site_label
_atom_site_fract_x
_atom_site_fract_y
_atom_site_fract_z
Si Si1 0.323191 0.017682 0.204321
Si Si2 0.678273 0.816400 0.042034
Si Si3 0.179445 0.617352 0.466860
Si Si4 0.323463 0.222505 0.204698
Si Si5 0.320615 0.964545 0.107847
Si Si6 0.327080 0.287557 0.381888
Si Si7 0.178515 0.858575 0.557786
Si Si8 0.173874 0.552801 0.942925
O O1 0.250000 0.978798 0.250000
O O2 0.500000 0.007111 0.209953
O O3 0.264312 0.965663 0.159832
O O4 0.276780 0.120105 0.197088
O O5 0.500000 0.816595 0.044617
O O6 0.736592 0.715481 0.047468
O O7 0.743827 0.877157 0.082585
O O8 0.726833 0.859298 0.994459
O O9 0.256897 0.545227 0.433771
O O10 0.231872 0.599222 0.517544
O O11 0.000000 0.609353 0.464234
O O12 0.250000 0.259863 0.250000
O O13 0.500000 0.233960 0.208136
O O14 0.263231 0.281277 0.164152
O O15 0.500000 0.965517 0.107247
O O16 0.263350 0.051222 0.081040
O O17 0.500000 0.261489 0.373806
O O18 0.259090 0.224165 0.419552
O O19 0.309954 0.389211 0.398027
O O20 0.000000 0.846490 0.563809
O O21 0.000000 0.545039 0.957723
#
# Coordination Sequence:
#
# PCOD8217609 Si02
#       8
#     8   8   8   8   8   8   8   8
#     4   9  17  29  46  66  90 119 152 189 228 272
#     4   9  17  27  45  70  94 120 157 202 237 273
#     4  10  18  29  47  70  91 115 154 202 238 271
#     4  10  19  32  49  71  95 124 157 193 236 282
#     4   9  16  28  45  68  93 123 158 191 233 280
#     4  11  21  31  46  68  95 128 161 194 232 280
#     4  10  17  29  46  66  93 126 162 193 227 273
#     4  10  20  32  46  64  91 126 156 187 235 285
#
# _framework density 16.121865
#
# number of rings (size 3 to 8) (size 9 to 14) (size 15 to 20)
#    0.000    2.250    2.500    2.625    0.000    3.500 
#    0.000    0.000    0.000    5.250    0.000    0.875 
#    0.000    4.000    0.000    0.000    0.000    0.000 
#
# Total GULP energy -793422.871418 kJ/mol
# GULP energy per Si atom -12397.232366 kJ/mol
# Density = 1.608517 g / cm^3
# Si number density = 16.121865 Si / 1000 Ang^3
#
#
#
# Elastic Constant Matrix: (Units=GPa)
#
#
# Indices 1 2 3 4 5 6 
#
# 1 42.1501 22.5300 26.2575 0.0000 0.0000 0.0000
# 2 22.5300 102.4305 59.3045 0.0000 0.0000 0.0000
# 3 26.2575 59.3045 125.8524 0.0000 0.0000 0.0000
# 4 0.0000 0.0000 0.0000 24.9896 0.0000 0.0000
# 5 0.0000 0.0000 0.0000 0.0000 22.5731 0.0000
# 6 0.0000 0.0000 0.0000 0.0000 0.0000 4.6622
#
#
#
# Elastic Compliance Matrix: (Units=1/GPa)
#
#
# Indices 1 2 3 4 5 6 
#
# 1 0.028339 -0.003864 -0.004092 0.000000 0.000000 0.000000
# 2 -0.003864 0.013952 -0.005768 0.000000 0.000000 0.000000
# 3 -0.004092 -0.005768 0.011518 0.000000 0.000000 0.000000
# 4 0.000000 0.000000 0.000000 0.040017 0.000000 0.000000
# 5 0.000000 0.000000 0.000000 0.000000 0.044301 0.000000
# 6 0.000000 0.000000 0.000000 0.000000 0.000000 0.214492
#
#
# Mechanical properties :
#
#
# Convention : Reuss Voigt Hill
#
# Bulk Modulus (GPa) = 37.93566 54.06857 46.00211
# Shear Modulus (GPa) = 12.85829 21.26771 17.06300
#
# Velocity S-wave (km/s) = 2.82719 3.63600 3.25680
# Velocity P-wave (km/s) = 5.85141 7.15804 6.53745
#
# Compressibility (1/GPa) = 0.02636042
#
# Stress axis : x y z
#
# Youngs Moduli (GPa) = 35.28683 71.67175 86.82276
#
# Poissons Ratio (x) = 0.27697 0.35525
# Poissons Ratio (y) = 0.13636 0.50084
# Poissons Ratio (z) = 0.14438 0.41344
#
# Static dielectric constant tensor:
#      x y z
#    x 2.922900 0.000000 0.000000 
#    y 0.000000 3.222710 0.000000 
#    z 0.000000 0.000000 3.104320 
# 
# 
# High freq. dielectric constant tensor:
#      x y z
#    x 1.607600 0.000000 0.000000 
#    y 0.000000 1.603230 0.000000 
#    z 0.000000 0.000000 1.609410 
# 
# From -- ./inp_files/38478.got.cif
#   From: 2010.03.12/outbox.cif.g09.slc.cpg/sg53_20_cif.got.tgz:38478.got - 2010.04.16 14:36:59.
