data_PCOD8217675
_publ_section_title
;
Structure prediction by ZEFSAII (Michael W. Deem and Ramdas Pophale) SiO2 
 PCOD8217675
Probable space group: P M N A
;
_chemical_formula_sum "Si O2"
_cell_formula_units_Z 56
_cell_length_a 8.843345
_cell_length_b 17.869712
_cell_length_c 22.375165
_cell_angle_alpha 90.000000
_cell_angle_beta 90.000000
_cell_angle_gamma 90.000000
_cell_volume 3535.903207
_symmetry_space_group_name_H-M "P M N A"
_symmetry_group_IT_number 53
_symmetry_cell_setting 'orthorhombic'
loop_
_space_group_symop_operation_xyz
x,y,z
1/2-x,-y,1/2+z
x,-y,-z
1/2-x,y,1/2-z
-x,-y,-z
1/2+x,y,1/2-z
-x,y,z
1/2+x,-y,1/2+z
loop_
_atom_site_type_symbol
_atom_site_label
_atom_site_fract_x
_atom_site_fract_y
_atom_site_fract_z
Si Si1 0.180233 0.369235 0.597960
Si Si2 0.677046 0.832677 0.535694
Si Si3 0.819100 0.320662 0.468423
Si Si4 0.333804 0.524422 0.931627
Si Si5 0.677079 0.875839 0.400820
Si Si6 0.329451 0.022105 0.068779
Si Si7 0.679309 0.757700 0.185248
O O1 0.235279 0.329847 0.536990
O O2 0.248221 0.454791 0.603007
O O3 0.235118 0.318947 0.653304
O O4 0.000000 0.375779 0.595693
O O5 0.500000 0.836034 0.547054
O O6 0.742651 0.753505 0.557927
O O7 0.717514 0.844191 0.466151
O O8 0.753641 0.896656 0.576183
O O9 0.757225 0.392904 0.430160
O O10 0.000000 0.314477 0.464417
O O11 0.500000 0.534283 0.903648
O O12 0.348629 0.500000 0.000000
O O13 0.500000 0.872134 0.387581
O O14 0.765772 0.828635 0.351870
O O15 0.732871 0.961358 0.394448
O O16 0.500000 0.024519 0.093797
O O17 0.327428 0.000000 0.000000
O O18 0.750000 0.759756 0.250000
O O19 0.500000 0.760588 0.189672
#
# Coordination Sequence:
#
# PCOD8217675 Si02
#       7
#     8   8   8   8   8   8   8
#     4   8  14  25  41  59  80 108 142 180 217 251
#     4  10  18  26  39  61  90 117 141 171 211 259
#     4   9  14  23  41  62  83 109 143 175 208 255
#     4   7  11  20  37  60  80 102 137 177 210 247
#     4  10  19  31  44  59  83 113 144 179 219 256
#     4   9  17  28  43  61  81 109 145 177 209 254
#     4  11  21  32  46  63  84 112 150 187 219 254
#
# _framework density 15.837536999999999
#
# number of rings (size 3 to 8) (size 9 to 14) (size 15 to 20)
#    0.000    2.857    1.429    3.429    0.000    2.857 
#    0.000    0.000    0.000    5.571    0.000    0.000 
#    0.000    1.143    0.000    8.000    0.000    3.714 
#
# Total GULP energy -693850.917421 kJ/mol
# GULP energy per Si atom -12390.194954 kJ/mol
# Density = 1.580149 g / cm^3
# Si number density = 15.837537 Si / 1000 Ang^3
#
#
#
# Elastic Constant Matrix: (Units=GPa)
#
#
# Indices 1 2 3 4 5 6 
#
# 1 52.4464 40.3901 19.5963 0.0000 0.0000 0.0000
# 2 40.3901 167.0891 37.9839 0.0000 0.0000 0.0000
# 3 19.5963 37.9839 43.6577 0.0000 0.0000 0.0000
# 4 0.0000 0.0000 0.0000 -13.9888 0.0000 0.0000
# 5 0.0000 0.0000 0.0000 0.0000 13.1010 0.0000
# 6 0.0000 0.0000 0.0000 0.0000 0.0000 13.8384
#
#
#
# Elastic Compliance Matrix: (Units=1/GPa)
#
#
# Indices 1 2 3 4 5 6 
#
# 1 0.025261 -0.004399 -0.007512 0.000000 0.000000 0.000000
# 2 -0.004399 0.008226 -0.005183 0.000000 0.000000 0.000000
# 3 -0.007512 -0.005183 0.030786 0.000000 0.000000 0.000000
# 4 0.000000 0.000000 0.000000 -0.071486 0.000000 0.000000
# 5 0.000000 0.000000 0.000000 0.000000 0.076330 0.000000
# 6 0.000000 0.000000 0.000000 0.000000 0.000000 0.072263
#
#
# Mechanical properties :
#
#
# Convention : Reuss Voigt Hill
#
# Bulk Modulus (GPa) = 33.23640 51.01486 42.12563
# Shear Modulus (GPa) = 26.94006 13.60497 20.27251
#
# Velocity S-wave (km/s) = 4.12882 2.93411 3.58163
# Velocity P-wave (km/s) = 6.61521 6.61513 6.61517
#
# Compressibility (1/GPa) = 0.03008750
#
# Stress axis : x y z
#
# Youngs Moduli (GPa) = 39.58607 121.56106 32.48185
#
# Poissons Ratio (x) = 0.53472 0.24400
# Poissons Ratio (y) = 0.17413 0.16835
# Poissons Ratio (z) = 0.29736 0.63002
#
# Static dielectric constant tensor:
#      x y z
#    x 2.822520 0.000000 0.000000 
#    y 0.000000 3.470450 0.000000 
#    z 0.000000 0.000000 2.652390 
# 
# 
# High freq. dielectric constant tensor:
#      x y z
#    x 1.592630 0.000000 0.000000 
#    y 0.000000 1.632040 0.000000 
#    z 0.000000 0.000000 1.535160 
# 
# From -- ./inp_files/34366.got.cif
#   From: 2010.03.12/outbox.cif.g09.slc.cpg/sg53_18_cif.got.tgz:34366.got - 2010.04.16 14:36:59.
