data_PCOD8217738
_publ_section_title
;
Structure prediction by ZEFSAII (Michael W. Deem and Ramdas Pophale) SiO2 
 PCOD8217738
Probable space group: P M N A
;
_chemical_formula_sum "Si O2"
_cell_formula_units_Z 48
_cell_length_a 8.789563
_cell_length_b 15.032655
_cell_length_c 20.639105
_cell_angle_alpha 90.000000
_cell_angle_beta 90.000000
_cell_angle_gamma 90.000000
_cell_volume 2727.054606
_symmetry_space_group_name_H-M "P M N A"
_symmetry_group_IT_number 53
_symmetry_cell_setting 'orthorhombic'
loop_
_space_group_symop_operation_xyz
x,y,z
1/2-x,-y,1/2+z
x,-y,-z
1/2-x,y,1/2-z
-x,-y,-z
1/2+x,y,1/2-z
-x,y,z
1/2+x,-y,1/2+z
loop_
_atom_site_type_symbol
_atom_site_label
_atom_site_fract_x
_atom_site_fract_y
_atom_site_fract_z
Si Si1 0.821776 0.423929 0.549831
Si Si2 0.671164 0.754505 0.487370
Si Si3 0.669817 0.801330 0.342746
Si Si4 0.318188 0.391706 0.684087
Si Si5 0.181475 0.992471 0.185498
Si Si6 0.818779 0.929255 0.948227
O O1 0.770267 0.500000 0.500000
O O2 0.779134 0.330848 0.515968
O O3 0.738322 0.440711 0.618811
O O4 0.000000 0.426515 0.563387
O O5 0.500000 0.722610 0.505154
O O6 0.668064 0.806792 0.419935
O O7 0.735403 0.827810 0.537826
O O8 0.500000 0.799350 0.314978
O O9 0.748255 0.709693 0.319070
O O10 0.749416 0.891431 0.317648
O O11 0.250000 0.435523 0.750000
O O12 0.500000 0.396126 0.684601
O O13 0.250000 0.037883 0.250000
O O14 0.000000 0.992176 0.186940
O O15 0.240585 0.046789 0.123417
O O16 0.000000 0.932341 0.952369
O O17 0.751158 0.000000 0.000000
#
# Coordination Sequence:
#
# PCOD8217738 Si02
#       6
#     8   8   8   8   8   8
#     4  10  21  36  53  74 102 134 168 210 263 310
#     4   9  16  29  51  76  95 121 166 212 251 292
#     4   8  14  25  43  68  96 126 157 192 236 288
#     4  10  19  31  50  76 105 135 166 202 249 306
#     4  10  18  28  43  65  96 131 165 200 241 285
#     4   9  15  27  50  72  93 126 169 207 238 284
#
# _framework density 17.601407999999999
#
# number of rings (size 3 to 8) (size 9 to 14) (size 15 to 20)
#    0.000    2.667    1.667    2.500    0.000    1.333 
#    0.000    4.167    0.000    2.000    0.000    4.667 
#    0.000    0.000    0.000    0.000    0.000    0.000 
#
# Total GULP energy -594812.635183 kJ/mol
# GULP energy per Si atom -12391.929900 kJ/mol
# Density = 1.756135 g / cm^3
# Si number density = 17.601408 Si / 1000 Ang^3
#
#
#
# Elastic Constant Matrix: (Units=GPa)
#
#
# Indices 1 2 3 4 5 6 
#
# 1 43.5323 23.1462 37.5323 0.0000 0.0000 0.0000
# 2 23.1462 71.6899 62.4065 0.0000 0.0000 0.0000
# 3 37.5323 62.4065 148.7943 0.0000 0.0000 0.0000
# 4 0.0000 0.0000 0.0000 20.5183 0.0000 0.0000
# 5 0.0000 0.0000 0.0000 0.0000 26.4355 0.0000
# 6 0.0000 0.0000 0.0000 0.0000 0.0000 13.2840
#
#
#
# Elastic Compliance Matrix: (Units=1/GPa)
#
#
# Indices 1 2 3 4 5 6 
#
# 1 0.030432 -0.004951 -0.005600 0.000000 0.000000 0.000000
# 2 -0.004951 0.022776 -0.008304 0.000000 0.000000 0.000000
# 3 -0.005600 -0.008304 0.011616 0.000000 0.000000 0.000000
# 4 0.000000 0.000000 0.000000 0.048737 0.000000 0.000000
# 5 0.000000 0.000000 0.000000 0.000000 0.037828 0.000000
# 6 0.000000 0.000000 0.000000 0.000000 0.000000 0.075278
#
#
# Mechanical properties :
#
#
# Convention : Reuss Voigt Hill
#
# Bulk Modulus (GPa) = 36.87997 56.68739 46.78368
# Shear Modulus (GPa) = 18.28731 21.44299 19.86515
#
# Velocity S-wave (km/s) = 3.22680 3.49414 3.36313
# Velocity P-wave (km/s) = 5.90604 6.96812 6.45895
#
# Compressibility (1/GPa) = 0.02711499
#
# Stress axis : x y z
#
# Youngs Moduli (GPa) = 32.86044 43.90625 86.08896
#
# Poissons Ratio (x) = 0.21737 0.48208
# Poissons Ratio (y) = 0.16268 0.71486
# Poissons Ratio (z) = 0.18401 0.36459
#
# Static dielectric constant tensor:
#      x y z
#    x 2.901790 0.000000 0.000000 
#    y 0.000000 3.162180 0.000000 
#    z 0.000000 0.000000 3.417840 
# 
# 
# High freq. dielectric constant tensor:
#      x y z
#    x 1.648930 0.000000 0.000000 
#    y 0.000000 1.652200 0.000000 
#    z 0.000000 0.000000 1.683510 
# 
# From -- ./inp_files/30938.got.cif
#   From: 2010.03.12/outbox.cif.g09.slc.cpg/sg53_16_cif.got.tgz:30938.got - 2010.04.16 14:36:59.
