data_PCOD8217308
_publ_section_title
;
Structure prediction by ZEFSAII (Michael W. Deem and Ramdas Pophale) SiO2 
 PCOD8217308
Probable space group: P N N A
;
_chemical_formula_sum "Si O2"
_cell_formula_units_Z 32
_cell_length_a 12.218301
_cell_length_b 12.636921
_cell_length_c 8.683977
_cell_angle_alpha 90.000000
_cell_angle_beta 90.000000
_cell_angle_gamma 90.000000
_cell_volume 1340.820851
_symmetry_space_group_name_H-M "P N N A"
_symmetry_group_IT_number 52
_symmetry_cell_setting 'orthorhombic'
loop_
_space_group_symop_operation_xyz
x,y,z
1/2-x,-y,z
x,1/2-y,1/2-z
1/2-x,1/2+y,1/2-z
-x,-y,-z
1/2+x,y,-z
-x,1/2+y,1/2+z
1/2+x,1/2-y,1/2+z
loop_
_atom_site_type_symbol
_atom_site_label
_atom_site_fract_x
_atom_site_fract_y
_atom_site_fract_z
Si Si1 0.551816 0.568657 0.721011
Si Si2 0.482633 0.151925 0.886946
Si Si3 0.250000 0.000000 0.352711
Si Si4 0.604369 0.159970 0.477630
Si Si5 0.779301 0.250000 0.250000
O O1 0.537094 0.441143 0.711753
O O2 0.514886 0.623802 0.566261
O O3 0.682260 0.584832 0.749369
O O4 0.487234 0.623696 0.858230
O O5 0.359682 0.160550 0.820183
O O6 0.549109 0.264873 0.888752
O O7 0.344468 0.945400 0.451846
O O8 0.704810 0.215522 0.391642
#
# Coordination Sequence:
#
# PCOD8217308 Si02
#       5
#     8   8   4   8   4
#     4  11  25  46  68 106 144 185 247 308 355 452
#     4  11  25  45  71 101 148 186 247 298 371 443
#     4  12  26  40  76  96 146 184 240 298 376 422
#     4  12  24  47  67 107 142 192 239 307 362 447
#     4  12  24  42  74  98 140 196 230 298 378 424
#
# _framework density 23.865978999999999
#
# number of rings (size 3 to 8) (size 9 to 14) (size 15 to 20)
#    0.000    0.500    2.500    5.250    3.500    0.000 
#    0.000    0.000    0.000    0.000    0.000    0.000 
#    0.000    0.000    0.000    0.000    0.000    0.000 
#
# Total GULP energy -396721.187722 kJ/mol
# GULP energy per Si atom -12397.537116 kJ/mol
# Density = 2.381166 g / cm^3
# Si number density = 23.865979 Si / 1000 Ang^3
#
#
#
# Elastic Constant Matrix: (Units=GPa)
#
#
# Indices 1 2 3 4 5 6 
#
# 1 133.7648 6.7686 18.9379 0.0000 0.0000 0.0000
# 2 6.7686 84.2938 8.5155 0.0000 0.0000 0.0000
# 3 18.9379 8.5155 45.3218 0.0000 0.0000 0.0000
# 4 0.0000 0.0000 0.0000 29.4507 0.0000 0.0000
# 5 0.0000 0.0000 0.0000 0.0000 31.5110 0.0000
# 6 0.0000 0.0000 0.0000 0.0000 0.0000 32.7081
#
#
#
# Elastic Compliance Matrix: (Units=1/GPa)
#
#
# Indices 1 2 3 4 5 6 
#
# 1 0.007954 -0.000309 -0.003265 0.000000 0.000000 0.000000
# 2 -0.000309 0.012105 -0.002145 0.000000 0.000000 0.000000
# 3 -0.003265 -0.002145 0.023832 0.000000 0.000000 0.000000
# 4 0.000000 0.000000 0.000000 0.033955 0.000000 0.000000
# 5 0.000000 0.000000 0.000000 0.000000 0.031735 0.000000
# 6 0.000000 0.000000 0.000000 0.000000 0.000000 0.030573
#
#
# Mechanical properties :
#
#
# Convention : Reuss Voigt Hill
#
# Bulk Modulus (GPa) = 30.81537 36.86937 33.84237
# Shear Modulus (GPa) = 30.78622 34.01119 32.39871
#
# Velocity S-wave (km/s) = 3.59550 3.77913 3.68846
# Velocity P-wave (km/s) = 5.49333 5.87576 5.68776
#
# Compressibility (1/GPa) = 0.03245133
#
# Stress axis : x y z
#
# Youngs Moduli (GPa) = 125.72686 82.61193 41.96036
#
# Poissons Ratio (x) = 0.02551 0.13702
# Poissons Ratio (y) = 0.03882 0.09002
# Poissons Ratio (z) = 0.41056 0.17723
#
# Static dielectric constant tensor:
#      x y z
#    x 4.494630 0.000000 0.000000 
#    y 0.000000 4.460190 0.000000 
#    z 0.000000 0.000000 4.579620 
# 
# 
# High freq. dielectric constant tensor:
#      x y z
#    x 1.958660 0.000000 0.000000 
#    y 0.000000 1.944970 0.000000 
#    z 0.000000 0.000000 1.975880 
# 
# From -- ./inp_files/8257.got.cif
#   From: 2010.06.25/outbox.cif.g09.slc.cpg/sg52_5_cif.got.tgz:8257.got - 2010.06.26 19:32:48.
