data_PCOD8217186
_publ_section_title
;
Structure prediction by ZEFSAII (Michael W. Deem and Ramdas Pophale) SiO2 
 PCOD8217186
Probable space group: P N N A
;
_chemical_formula_sum "Si O2"
_cell_formula_units_Z 40
_cell_length_a 9.562955
_cell_length_b 25.650324
_cell_length_c 7.438612
_cell_angle_alpha 90.000000
_cell_angle_beta 90.000000
_cell_angle_gamma 90.000000
_cell_volume 1824.638666
_symmetry_space_group_name_H-M "P N N A"
_symmetry_group_IT_number 52
_symmetry_cell_setting 'orthorhombic'
loop_
_space_group_symop_operation_xyz
x,y,z
1/2-x,-y,z
x,1/2-y,1/2-z
1/2-x,1/2+y,1/2-z
-x,-y,-z
1/2+x,y,-z
-x,1/2+y,1/2+z
1/2+x,1/2-y,1/2+z
loop_
_atom_site_type_symbol
_atom_site_label
_atom_site_fract_x
_atom_site_fract_y
_atom_site_fract_z
Si Si1 0.293666 0.623056 0.530973
Si Si2 0.116572 0.535885 0.911911
Si Si3 0.359268 0.691189 0.194239
Si Si4 0.341615 0.352744 0.909273
Si Si5 0.545844 0.941892 0.027789
O O1 0.303296 0.665446 0.376612
O O2 0.234660 0.647480 0.714533
O O3 0.444584 0.598585 0.570830
O O4 0.199779 0.573995 0.459326
O O5 0.250000 0.500000 0.865176
O O6 0.162354 0.589611 0.011149
O O7 0.044816 0.563932 0.741996
O O8 0.000000 0.500000 0.000000
O O9 0.388202 0.750000 0.250000
O O10 0.500854 0.666814 0.115867
O O11 0.240861 0.686454 0.040446
O O12 0.500000 0.000000 0.000000
#
# Coordination Sequence:
#
# PCOD8217186 Si02
#       5
#     8   8   8   8   8
#     4  11  24  47  68 104 149 184 243 300 353 432
#     4  11  23  40  68 105 144 187 235 287 361 435
#     4  12  29  48  77 105 136 197 243 304 368 414
#     4  11  27  50  72 110 146 183 248 296 360 441
#     4  11  23  40  67 101 142 195 231 284 360 428
#
# _framework density 21.922146999999999
#
# number of rings (size 3 to 8) (size 9 to 14) (size 15 to 20)
#    0.000    0.800    4.000    4.200    8.400    0.000 
#    0.000    0.000    0.000    0.000    0.000    0.000 
#    0.000    0.000    0.000    0.000    0.000    0.000 
#
# Total GULP energy -495631.488353 kJ/mol
# GULP energy per Si atom -12390.787209 kJ/mol
# Density = 2.187225 g / cm^3
# Si number density = 21.922147 Si / 1000 Ang^3
#
#
#
# Elastic Constant Matrix: (Units=GPa)
#
#
# Indices 1 2 3 4 5 6 
#
# 1 109.4653 36.4614 47.4667 0.0000 0.0000 0.0000
# 2 36.4614 133.4779 35.5133 0.0000 0.0000 0.0000
# 3 47.4667 35.5133 85.0029 0.0000 0.0000 0.0000
# 4 0.0000 0.0000 0.0000 36.8522 0.0000 0.0000
# 5 0.0000 0.0000 0.0000 0.0000 35.4365 0.0000
# 6 0.0000 0.0000 0.0000 0.0000 0.0000 35.8574
#
#
#
# Elastic Compliance Matrix: (Units=1/GPa)
#
#
# Indices 1 2 3 4 5 6 
#
# 1 0.012403 -0.001739 -0.006199 0.000000 0.000000 0.000000
# 2 -0.001739 0.008672 -0.002652 0.000000 0.000000 0.000000
# 3 -0.006199 -0.002652 0.016334 0.000000 0.000000 0.000000
# 4 0.000000 0.000000 0.000000 0.027135 0.000000 0.000000
# 5 0.000000 0.000000 0.000000 0.000000 0.028219 0.000000
# 6 0.000000 0.000000 0.000000 0.000000 0.000000 0.027888
#
#
# Mechanical properties :
#
#
# Convention : Reuss Voigt Hill
#
# Bulk Modulus (GPa) = 61.61970 62.98100 62.30035
# Shear Modulus (GPa) = 33.95748 35.52954 34.74351
#
# Velocity S-wave (km/s) = 3.94001 4.03018 3.98535
# Velocity P-wave (km/s) = 6.99054 7.10269 7.04684
#
# Compressibility (1/GPa) = 0.01622858
#
# Stress axis : x y z
#
# Youngs Moduli (GPa) = 80.62818 115.30706 61.22073
#
# Poissons Ratio (x) = 0.20046 0.37953
# Poissons Ratio (y) = 0.14017 0.16239
# Poissons Ratio (z) = 0.49985 0.30585
#
# Static dielectric constant tensor:
#      x y z
#    x 3.958610 0.000000 0.000000 
#    y 0.000000 4.453500 0.000000 
#    z 0.000000 0.000000 3.345420 
# 
# 
# High freq. dielectric constant tensor:
#      x y z
#    x 1.878920 0.000000 0.000000 
#    y 0.000000 1.866320 0.000000 
#    z 0.000000 0.000000 1.854740 
# 
# From -- ./inp_files/7395.got.cif
#   From: 2010.06.25/outbox.cif.g09.slc.cpg/sg52_4_cif.got.tgz:7395.got - 2010.06.26 19:32:48.
