data_PCOD8217412
_publ_section_title
;
Structure prediction by ZEFSAII (Michael W. Deem and Ramdas Pophale) SiO2 
 PCOD8217412
Probable space group: P N N A
;
_chemical_formula_sum "Si O2"
_cell_formula_units_Z 40
_cell_length_a 9.557398
_cell_length_b 21.357741
_cell_length_c 8.830956
_cell_angle_alpha 90.000000
_cell_angle_beta 90.000000
_cell_angle_gamma 90.000000
_cell_volume 1802.613870
_symmetry_space_group_name_H-M "P N N A"
_symmetry_group_IT_number 52
_symmetry_cell_setting 'orthorhombic'
loop_
_space_group_symop_operation_xyz
x,y,z
1/2-x,-y,z
x,1/2-y,1/2-z
1/2-x,1/2+y,1/2-z
-x,-y,-z
1/2+x,y,-z
-x,1/2+y,1/2+z
1/2+x,1/2-y,1/2+z
loop_
_atom_site_type_symbol
_atom_site_label
_atom_site_fract_x
_atom_site_fract_y
_atom_site_fract_z
Si Si1 0.384878 0.745017 0.424035
Si Si2 0.159000 0.828563 0.918446
Si Si3 0.882901 0.040591 0.928556
Si Si4 0.973989 0.437736 0.905852
Si Si5 0.745939 0.138484 0.409765
O O1 0.343482 0.750000 0.250000
O O2 0.301456 0.687712 0.497038
O O3 0.547935 0.727600 0.447259
O O4 0.342661 0.809329 0.502393
O O5 0.183942 0.833189 0.739528
O O6 0.108115 0.893421 0.986946
O O7 0.895716 0.047704 0.749249
O O8 0.750000 0.000000 0.969125
O O9 0.000000 0.000000 0.000000
O O10 0.128875 0.412453 0.868549
O O11 0.000000 0.500000 0.000000
O O12 0.874023 0.389569 0.994508
#
# Coordination Sequence:
#
# PCOD8217412 Si02
#       5
#     8   8   8   8   8
#     4  12  25  44  67  96 131 171 219 273 333 400
#     4  12  26  45  68  98 133 175 222 277 337 403
#     4  12  25  44  67  97 134 177 225 279 341 408
#     4  12  25  44  70 102 139 182 229 284 345 413
#     4  12  25  45  70 101 137 179 229 283 343 412
#
# _framework density 22.190000000000001
#
# number of rings (size 3 to 8) (size 9 to 14) (size 15 to 20)
#    0.000    0.000    0.000   12.000    0.000    1.600 
#    0.000    0.000    0.000    0.000    0.000    0.000 
#    0.000    0.000    0.000    0.000    0.000    0.000 
#
# Total GULP energy -496164.182411 kJ/mol
# GULP energy per Si atom -12404.104560 kJ/mol
# Density = 2.213949 g / cm^3
# Si number density = 22.190000 Si / 1000 Ang^3
#
#
#
# Elastic Constant Matrix: (Units=GPa)
#
#
# Indices 1 2 3 4 5 6 
#
# 1 134.3449 33.3398 36.9525 0.0000 0.0000 0.0000
# 2 33.3398 110.7705 39.8682 0.0000 0.0000 0.0000
# 3 36.9525 39.8682 145.7188 0.0000 0.0000 0.0000
# 4 0.0000 0.0000 0.0000 45.7926 0.0000 0.0000
# 5 0.0000 0.0000 0.0000 0.0000 7.4323 0.0000
# 6 0.0000 0.0000 0.0000 0.0000 0.0000 59.7670
#
#
#
# Elastic Compliance Matrix: (Units=1/GPa)
#
#
# Indices 1 2 3 4 5 6 
#
# 1 0.008363 -0.001945 -0.001589 0.000000 0.000000 0.000000
# 2 -0.001945 0.010466 -0.002370 0.000000 0.000000 0.000000
# 3 -0.001589 -0.002370 0.007914 0.000000 0.000000 0.000000
# 4 0.000000 0.000000 0.000000 0.021838 0.000000 0.000000
# 5 0.000000 0.000000 0.000000 0.000000 0.134548 0.000000
# 6 0.000000 0.000000 0.000000 0.000000 0.000000 0.016732
#
#
# Mechanical properties :
#
#
# Convention : Reuss Voigt Hill
#
# Bulk Modulus (GPa) = 66.95675 67.90613 67.43144
# Shear Modulus (GPa) = 23.07901 41.30997 32.19449
#
# Velocity S-wave (km/s) = 3.22850 4.31936 3.81314
# Velocity P-wave (km/s) = 6.64360 7.45281 7.05981
#
# Compressibility (1/GPa) = 0.01493501
#
# Stress axis : x y z
#
# Youngs Moduli (GPa) = 119.57061 95.54484 126.36077
#
# Poissons Ratio (x) = 0.18588 0.20073
# Poissons Ratio (y) = 0.23262 0.29950
# Poissons Ratio (z) = 0.18994 0.22646
#
# Static dielectric constant tensor:
#      x y z
#    x 4.814060 0.000000 0.000000 
#    y 0.000000 4.193380 0.000000 
#    z 0.000000 0.000000 4.578600 
# 
# 
# High freq. dielectric constant tensor:
#      x y z
#    x 1.896820 0.000000 0.000000 
#    y 0.000000 1.894170 0.000000 
#    z 0.000000 0.000000 1.886640 
# 
# From -- ./inp_files/7421.got.cif
#   From: 2010.06.25/outbox.cif.g09.slc.cpg/sg52_4_cif.got.tgz:7421.got - 2010.06.26 19:32:48.
