data_PCOD8217553
_publ_section_title
;
Structure prediction by ZEFSAII (Michael W. Deem and Ramdas Pophale) SiO2 
 PCOD8217553
Probable space group: P M N A
;
_chemical_formula_sum "Si O2"
_cell_formula_units_Z 64
_cell_length_a 8.913939
_cell_length_b 22.020899
_cell_length_c 18.965344
_cell_angle_alpha 90.000000
_cell_angle_beta 90.000000
_cell_angle_gamma 90.000000
_cell_volume 3722.763329
_symmetry_space_group_name_H-M "P M N A"
_symmetry_group_IT_number 53
_symmetry_cell_setting 'orthorhombic'
loop_
_space_group_symop_operation_xyz
x,y,z
1/2-x,-y,1/2+z
x,-y,-z
1/2-x,y,1/2-z
-x,-y,-z
1/2+x,y,1/2-z
-x,y,z
1/2+x,-y,1/2+z
loop_
_atom_site_type_symbol
_atom_site_label
_atom_site_fract_x
_atom_site_fract_y
_atom_site_fract_z
Si Si1 0.324260 0.020622 0.596282
Si Si2 0.322768 0.441969 0.539583
Si Si3 0.672785 0.136080 0.677375
Si Si4 0.825343 0.499624 0.819278
Si Si5 0.178068 0.679277 0.971252
Si Si6 0.178320 0.915693 0.536710
Si Si7 0.321663 0.192809 0.529919
Si Si8 0.176782 0.362513 0.178145
O O1 0.500000 0.017048 0.577024
O O2 0.300691 0.063581 0.664600
O O3 0.231331 0.051477 0.533999
O O4 0.253144 0.952670 0.603308
O O5 0.252515 0.500000 0.500000
O O6 0.500000 0.440957 0.525678
O O7 0.282247 0.451184 0.621090
O O8 0.252511 0.378976 0.511877
O O9 0.750000 0.156502 0.750000
O O10 0.500000 0.150955 0.687732
O O11 0.731594 0.174453 0.609277
O O12 0.750000 0.473123 0.750000
O O13 0.769922 0.568126 0.836565
O O14 0.000000 0.502345 0.806658
O O15 0.229917 0.677518 0.889183
O O16 0.000000 0.676148 0.974015
O O17 0.232834 0.739236 0.012060
O O18 0.242127 0.847616 0.530709
O O19 0.000000 0.915380 0.544682
O O20 0.500000 0.183824 0.523298
O O21 0.250000 0.336914 0.250000
O O22 0.000000 0.358603 0.187744
#
# Coordination Sequence:
#
# PCOD8217553 Si02
#       8
#     8   8   8   8   8   8   8   8
#     4   9  16  28  46  69  94 120 150 187 230 273
#     4   9  14  24  44  70  92 113 152 206 246 277
#     4   9  18  30  46  67  93 125 160 198 237 276
#     4   9  16  26  43  66  93 118 145 185 239 294
#     4   9  16  28  48  69  90 121 165 205 237 282
#     4  10  17  26  44  70  95 119 148 187 232 275
#     4   9  18  32  47  66  92 126 167 205 240 283
#     4   9  16  27  45  69  91 114 143 185 238 292
#
# _framework density 17.19153
#
# number of rings (size 3 to 8) (size 9 to 14) (size 15 to 20)
#    0.000    2.875    1.250    3.000    0.000    2.500 
#    0.000    1.250    0.000    2.625    0.000    1.750 
#    0.000    0.000    0.000    0.000    0.000    0.000 
#
# Total GULP energy -792894.684374 kJ/mol
# GULP energy per Si atom -12388.979443 kJ/mol
# Density = 1.715240 g / cm^3
# Si number density = 17.191530 Si / 1000 Ang^3
#
#
#
# Elastic Constant Matrix: (Units=GPa)
#
#
# Indices 1 2 3 4 5 6 
#
# 1 37.5382 27.6140 30.3491 0.0000 0.0000 0.0000
# 2 27.6140 126.6796 68.0662 0.0000 0.0000 0.0000
# 3 30.3491 68.0662 109.8038 0.0000 0.0000 0.0000
# 4 0.0000 0.0000 0.0000 24.2175 0.0000 0.0000
# 5 0.0000 0.0000 0.0000 0.0000 24.1629 0.0000
# 6 0.0000 0.0000 0.0000 0.0000 0.0000 12.7445
#
#
#
# Elastic Compliance Matrix: (Units=1/GPa)
#
#
# Indices 1 2 3 4 5 6 
#
# 1 0.035419 -0.003690 -0.007503 0.000000 0.000000 0.000000
# 2 -0.003690 0.012221 -0.006556 0.000000 0.000000 0.000000
# 3 -0.007503 -0.006556 0.015245 0.000000 0.000000 0.000000
# 4 0.000000 0.000000 0.000000 0.041292 0.000000 0.000000
# 5 0.000000 0.000000 0.000000 0.000000 0.041386 0.000000
# 6 0.000000 0.000000 0.000000 0.000000 0.000000 0.078465
#
#
# Mechanical properties :
#
#
# Convention : Reuss Voigt Hill
#
# Bulk Modulus (GPa) = 36.51105 58.45335 47.48220
# Shear Modulus (GPa) = 18.61137 22.09115 20.35126
#
# Velocity S-wave (km/s) = 3.29384 3.58858 3.44437
# Velocity P-wave (km/s) = 5.97911 7.15860 6.59528
#
# Compressibility (1/GPa) = 0.02738897
#
# Stress axis : x y z
#
# Youngs Moduli (GPa) = 28.23312 81.82896 65.59719
#
# Poissons Ratio (x) = 0.30192 0.49214
# Poissons Ratio (y) = 0.10417 0.43003
# Poissons Ratio (z) = 0.21182 0.53644
#
# Static dielectric constant tensor:
#      x y z
#    x 2.916880 0.000000 0.000000 
#    y 0.000000 3.608200 0.000000 
#    z 0.000000 0.000000 3.223440 
# 
# 
# High freq. dielectric constant tensor:
#      x y z
#    x 1.635490 0.000000 0.000000 
#    y 0.000000 1.650580 0.000000 
#    z 0.000000 0.000000 1.647940 
# 
# From -- ./inp_files/31386.got.cif
#   From: 2010.03.12/outbox.cif.g09.slc.cpg/sg53_16_cif.got.tgz:31386.got - 2010.04.16 14:36:59.
