data_PCOD8217164
_publ_section_title
;
Structure prediction by ZEFSAII (Michael W. Deem and Ramdas Pophale) SiO2 
 PCOD8217164
Probable space group: P N N A
;
_chemical_formula_sum "Si O2"
_cell_formula_units_Z 64
_cell_length_a 13.271295
_cell_length_b 13.146985
_cell_length_c 17.393456
_cell_angle_alpha 90.000000
_cell_angle_beta 90.000000
_cell_angle_gamma 90.000000
_cell_volume 3034.767003
_symmetry_space_group_name_H-M "P N N A"
_symmetry_group_IT_number 52
_symmetry_cell_setting 'orthorhombic'
loop_
_space_group_symop_operation_xyz
x,y,z
1/2-x,-y,z
x,1/2-y,1/2-z
1/2-x,1/2+y,1/2-z
-x,-y,-z
1/2+x,y,-z
-x,1/2+y,1/2+z
1/2+x,1/2-y,1/2+z
loop_
_atom_site_type_symbol
_atom_site_label
_atom_site_fract_x
_atom_site_fract_y
_atom_site_fract_z
Si Si1 0.636005 0.002840 0.638132
Si Si2 0.016705 0.331865 0.681315
Si Si3 0.717530 0.109403 0.102829
Si Si4 0.927483 0.553163 0.698440
Si Si5 0.510750 0.165275 0.562325
Si Si6 0.102462 0.790772 0.826740
Si Si7 0.884929 0.207038 0.580411
Si Si8 0.178136 0.328572 0.437234
O O1 0.627305 0.064157 0.718776
O O2 0.566303 0.057612 0.573922
O O3 0.750000 0.000000 0.607670
O O4 0.607048 0.884119 0.642836
O O5 0.009797 0.250000 0.750000
O O6 0.132005 0.352672 0.660570
O O7 0.954609 0.434689 0.695309
O O8 0.967047 0.288822 0.604389
O O9 0.813948 0.182512 0.110370
O O10 0.750000 0.000000 0.133314
O O11 0.690380 0.102513 0.012979
O O12 0.850046 0.594798 0.633035
O O13 0.031219 0.613904 0.692344
O O14 0.463283 0.196758 0.643550
O O15 0.419635 0.160199 0.501180
O O16 0.590099 0.251806 0.539877
O O17 0.156389 0.750000 0.750000
O O18 0.775790 0.260428 0.581411
#
# Coordination Sequence:
#
# PCOD8217164 Si02
#       8
#     8   8   8   8   8   8   8   8
#     4  12  25  44  69  99 140 179 232 284 341 418
#     4  12  26  45  68  98 140 179 225 285 350 411
#     4  12  25  43  69  98 137 179 230 285 339 413
#     4  11  26  43  66 104 135 176 231 281 350 415
#     4  11  23  45  70  98 136 179 230 286 346 420
#     4  11  22  43  72  94 134 181 228 287 342 411
#     4  12  25  44  71  96 139 182 223 288 346 409
#     4  11  26  42  67 106 135 173 232 282 347 415
#
# _framework density 21.088934999999999
#
# number of rings (size 3 to 8) (size 9 to 14) (size 15 to 20)
#    0.000    0.500    7.500    0.750    3.500    0.500 
#    0.000    0.000    0.000    0.000    0.000    0.000 
#    0.000    0.000    0.000    0.000    0.000    0.000 
#
# Total GULP energy -793333.711579 kJ/mol
# GULP energy per Si atom -12395.839243 kJ/mol
# Density = 2.104094 g / cm^3
# Si number density = 21.088935 Si / 1000 Ang^3
#
#
#
# Elastic Constant Matrix: (Units=GPa)
#
#
# Indices 1 2 3 4 5 6 
#
# 1 114.1676 39.5762 42.9283 0.0000 0.0000 0.0000
# 2 39.5762 101.6880 40.6746 0.0000 0.0000 0.0000
# 3 42.9283 40.6746 106.1649 0.0000 0.0000 0.0000
# 4 0.0000 0.0000 0.0000 29.1673 0.0000 0.0000
# 5 0.0000 0.0000 0.0000 0.0000 36.5043 0.0000
# 6 0.0000 0.0000 0.0000 0.0000 0.0000 38.3647
#
#
#
# Elastic Compliance Matrix: (Units=1/GPa)
#
#
# Indices 1 2 3 4 5 6 
#
# 1 0.011038 -0.002965 -0.003327 0.000000 0.000000 0.000000
# 2 -0.002965 0.012410 -0.003556 0.000000 0.000000 0.000000
# 3 -0.003327 -0.003556 0.012127 0.000000 0.000000 0.000000
# 4 0.000000 0.000000 0.000000 0.034285 0.000000 0.000000
# 5 0.000000 0.000000 0.000000 0.000000 0.027394 0.000000
# 6 0.000000 0.000000 0.000000 0.000000 0.000000 0.026066
#
#
# Mechanical properties :
#
#
# Convention : Reuss Voigt Hill
#
# Bulk Modulus (GPa) = 62.97584 63.15319 63.06451
# Shear Modulus (GPa) = 33.71339 34.06336 33.88837
#
# Velocity S-wave (km/s) = 4.00262 4.02335 4.01300
# Velocity P-wave (km/s) = 7.16158 7.18291 7.17225
#
# Compressibility (1/GPa) = 0.01587911
#
# Stress axis : x y z
#
# Youngs Moduli (GPa) = 90.59639 80.57852 82.46045
#
# Poissons Ratio (x) = 0.23892 0.27437
# Poissons Ratio (y) = 0.26862 0.29321
# Poissons Ratio (z) = 0.30144 0.28652
#
# Static dielectric constant tensor:
#      x y z
#    x 3.809630 0.000000 0.000000 
#    y 0.000000 3.863100 0.000000 
#    z 0.000000 0.000000 3.647550 
# 
# 
# High freq. dielectric constant tensor:
#      x y z
#    x 1.832470 0.000000 0.000000 
#    y 0.000000 1.834050 0.000000 
#    z 0.000000 0.000000 1.826330 
# 
# From -- ./inp_files/33290.got.cif
#   From: 2010.06.25/outbox.cif.g09.slc.cpg/sg52_17_cif.got.tgz:33290.got - 2010.06.26 19:32:48.
