data_PCOD8217275
_publ_section_title
;
Structure prediction by ZEFSAII (Michael W. Deem and Ramdas Pophale) SiO2 
 PCOD8217275
Probable space group: P N N A
;
_chemical_formula_sum "Si O2"
_cell_formula_units_Z 36
_cell_length_a 9.093293
_cell_length_b 21.218566
_cell_length_c 7.535098
_cell_angle_alpha 90.000000
_cell_angle_beta 90.000000
_cell_angle_gamma 90.000000
_cell_volume 1453.871824
_symmetry_space_group_name_H-M "P N N A"
_symmetry_group_IT_number 52
_symmetry_cell_setting 'orthorhombic'
loop_
_space_group_symop_operation_xyz
x,y,z
1/2-x,-y,z
x,1/2-y,1/2-z
1/2-x,1/2+y,1/2-z
-x,-y,-z
1/2+x,y,-z
-x,1/2+y,1/2+z
1/2+x,1/2-y,1/2+z
loop_
_atom_site_type_symbol
_atom_site_label
_atom_site_fract_x
_atom_site_fract_y
_atom_site_fract_z
Si Si1 0.941107 0.570772 0.494125
Si Si2 0.375975 0.750000 0.750000
Si Si3 0.006938 0.642023 0.031001
Si Si4 0.760765 0.571208 0.846965
Si Si5 0.693216 0.862260 0.171930
O O1 0.832270 0.577432 0.657979
O O2 0.834961 0.588822 0.327269
O O3 0.000000 0.500000 0.500000
O O4 0.076465 0.619454 0.519318
O O5 0.478600 0.711157 0.887155
O O6 0.269682 0.795019 0.867501
O O7 0.094726 0.598381 0.172489
O O8 0.110205 0.641797 0.858536
O O9 0.849488 0.611733 0.991455
O O10 0.750000 0.500000 0.916117
#
# Coordination Sequence:
#
# PCOD8217275 Si02
#       5
#     8   4   8   8   8
#     4  11  26  47  77 112 155 198 259 320 395 459
#     4  12  28  48  76 102 162 196 270 308 384 462
#     4  11  26  48  73 111 147 204 252 318 382 459
#     4  11  24  44  74 110 150 192 249 315 393 451
#     4  11  27  47  77 112 149 207 254 317 386 461
#
# _framework density 24.761465999999999
#
# number of rings (size 3 to 8) (size 9 to 14) (size 15 to 20)
#    0.000    0.889    2.222    2.667    9.333    3.556 
#    0.000    0.000    0.000    0.000    0.000    0.000 
#    0.000    0.000    0.000    0.000    0.000    0.000 
#
# Total GULP energy -446194.172402 kJ/mol
# GULP energy per Si atom -12394.282567 kJ/mol
# Density = 2.470511 g / cm^3
# Si number density = 24.761466 Si / 1000 Ang^3
#
#
#
# Elastic Constant Matrix: (Units=GPa)
#
#
# Indices 1 2 3 4 5 6 
#
# 1 176.0816 72.2801 48.2188 0.0000 0.0000 0.0000
# 2 72.2801 176.1206 43.0149 0.0000 0.0000 0.0000
# 3 48.2188 43.0149 69.0817 0.0000 0.0000 0.0000
# 4 0.0000 0.0000 0.0000 41.0434 0.0000 0.0000
# 5 0.0000 0.0000 0.0000 0.0000 27.1854 0.0000
# 6 0.0000 0.0000 0.0000 0.0000 0.0000 64.6361
#
#
#
# Elastic Compliance Matrix: (Units=1/GPa)
#
#
# Indices 1 2 3 4 5 6 
#
# 1 0.007665 -0.002169 -0.004000 0.000000 0.000000 0.000000
# 2 -0.002169 0.007310 -0.003038 0.000000 0.000000 0.000000
# 3 -0.004000 -0.003038 0.019159 0.000000 0.000000 0.000000
# 4 0.000000 0.000000 0.000000 0.024364 0.000000 0.000000
# 5 0.000000 0.000000 0.000000 0.000000 0.036784 0.000000
# 6 0.000000 0.000000 0.000000 0.000000 0.000000 0.015471
#
#
# Mechanical properties :
#
#
# Convention : Reuss Voigt Hill
#
# Bulk Modulus (GPa) = 63.60845 83.14572 73.37709
# Shear Modulus (GPa) = 37.20065 43.75765 40.47915
#
# Velocity S-wave (km/s) = 3.88023 4.20833 4.04761
# Velocity P-wave (km/s) = 6.76899 7.56736 7.17928
#
# Compressibility (1/GPa) = 0.01572118
#
# Stress axis : x y z
#
# Youngs Moduli (GPa) = 130.46843 136.79986 52.19528
#
# Poissons Ratio (x) = 0.29669 0.20876
# Poissons Ratio (y) = 0.28296 0.15856
# Poissons Ratio (z) = 0.52181 0.41558
#
# Static dielectric constant tensor:
#      x y z
#    x 5.254960 0.000000 0.000000 
#    y 0.000000 4.652610 0.000000 
#    z 0.000000 0.000000 4.485630 
# 
# 
# High freq. dielectric constant tensor:
#      x y z
#    x 2.029410 0.000000 0.000000 
#    y 0.000000 1.971350 0.000000 
#    z 0.000000 0.000000 1.993250 
# 
# From -- ./inp_files/7272.got.cif
#   From: 2010.06.25/outbox.cif.g09.slc.cpg/sg52_4_cif.got.tgz:7272.got - 2010.06.26 19:32:48.
