data_PCOD8217078
_publ_section_title
;
Structure prediction by ZEFSAII (Michael W. Deem and Ramdas Pophale) SiO2 
 PCOD8217078
Probable space group: P N N A
;
_chemical_formula_sum "Si O2"
_cell_formula_units_Z 48
_cell_length_a 8.556338
_cell_length_b 13.763782
_cell_length_c 19.259267
_cell_angle_alpha 90.000000
_cell_angle_beta 90.000000
_cell_angle_gamma 90.000000
_cell_volume 2268.117093
_symmetry_space_group_name_H-M "P N N A"
_symmetry_group_IT_number 52
_symmetry_cell_setting 'orthorhombic'
loop_
_space_group_symop_operation_xyz
x,y,z
1/2-x,-y,z
x,1/2-y,1/2-z
1/2-x,1/2+y,1/2-z
-x,-y,-z
1/2+x,y,-z
-x,1/2+y,1/2+z
1/2+x,1/2-y,1/2+z
loop_
_atom_site_type_symbol
_atom_site_label
_atom_site_fract_x
_atom_site_fract_y
_atom_site_fract_z
Si Si1 0.175426 0.689972 0.318317
Si Si2 0.250000 0.500000 0.833146
Si Si3 0.202649 0.672204 0.920538
Si Si4 0.750000 0.500000 0.846098
Si Si5 0.510079 0.993625 0.762161
Si Si6 0.459952 0.309252 0.681632
Si Si7 0.069022 0.667910 0.072732
O O1 0.130673 0.750000 0.250000
O O2 0.107953 0.581564 0.308726
O O3 0.357422 0.696969 0.336248
O O4 0.092079 0.732705 0.385841
O O5 0.147638 0.576678 0.878111
O O6 0.374823 0.557941 0.784176
O O7 0.385523 0.650678 0.928204
O O8 0.149646 0.769550 0.880298
O O9 0.123086 0.678268 0.994439
O O10 0.625335 0.450807 0.792908
O O11 0.832418 0.418549 0.892228
O O12 0.425918 0.076028 0.808602
O O13 0.414512 0.250000 0.750000
#
# Coordination Sequence:
#
# PCOD8217078 Si02
#       7
#     8   4   8   4   8   8   8
#     4  11  21  41  68  98 135 177 227 283 343 414
#     4  12  25  40  68 102 139 174 226 294 351 412
#     4  12  27  43  63  98 137 183 227 283 353 413
#     4  12  21  44  70 102 135 174 230 288 357 414
#     4  12  23  41  71 105 134 178 230 288 348 410
#     4  11  22  41  68  97 137 176 227 284 343 414
#     4  12  27  42  66  95 139 180 228 284 348 423
#
# _framework density 21.162928999999998
#
# number of rings (size 3 to 8) (size 9 to 14) (size 15 to 20)
#    0.000    0.333    6.667    2.500    4.667    2.000 
#    0.000    0.833    0.000    0.000    0.000    0.000 
#    0.000    0.000    0.000    0.000    0.000    0.000 
#
# Total GULP energy -595007.715562 kJ/mol
# GULP energy per Si atom -12395.994074 kJ/mol
# Density = 2.111476 g / cm^3
# Si number density = 21.162929 Si / 1000 Ang^3
#
#
#
# Elastic Constant Matrix: (Units=GPa)
#
#
# Indices 1 2 3 4 5 6 
#
# 1 98.2118 36.7834 54.0985 0.0000 0.0000 0.0000
# 2 36.7834 134.3999 64.0284 0.0000 0.0000 0.0000
# 3 54.0985 64.0284 113.8687 0.0000 0.0000 0.0000
# 4 0.0000 0.0000 0.0000 27.7572 0.0000 0.0000
# 5 0.0000 0.0000 0.0000 0.0000 34.5675 0.0000
# 6 0.0000 0.0000 0.0000 0.0000 0.0000 33.2259
#
#
#
# Elastic Compliance Matrix: (Units=1/GPa)
#
#
# Indices 1 2 3 4 5 6 
#
# 1 0.013870 -0.000897 -0.006085 0.000000 0.000000 0.000000
# 2 -0.000897 0.010221 -0.005321 0.000000 0.000000 0.000000
# 3 -0.006085 -0.005321 0.014665 0.000000 0.000000 0.000000
# 4 0.000000 0.000000 0.000000 0.036027 0.000000 0.000000
# 5 0.000000 0.000000 0.000000 0.000000 0.028929 0.000000
# 6 0.000000 0.000000 0.000000 0.000000 0.000000 0.030097
#
#
# Mechanical properties :
#
#
# Convention : Reuss Voigt Hill
#
# Bulk Modulus (GPa) = 70.67381 72.92233 71.79807
# Shear Modulus (GPa) = 30.65010 31.88147 31.26578
#
# Velocity S-wave (km/s) = 3.80977 3.88555 3.84785
# Velocity P-wave (km/s) = 7.26774 7.39340 7.33084
#
# Compressibility (1/GPa) = 0.01414951
#
# Stress axis : x y z
#
# Youngs Moduli (GPa) = 72.09825 97.83822 68.18905
#
# Poissons Ratio (x) = 0.08776 0.41494
# Poissons Ratio (y) = 0.06468 0.36284
# Poissons Ratio (z) = 0.43873 0.52060
#
# Static dielectric constant tensor:
#      x y z
#    x 4.073060 0.000000 0.000000 
#    y 0.000000 3.734150 0.000000 
#    z 0.000000 0.000000 3.871640 
# 
# 
# High freq. dielectric constant tensor:
#      x y z
#    x 1.850410 0.000000 0.000000 
#    y 0.000000 1.817560 0.000000 
#    z 0.000000 0.000000 1.815860 
# 
# From -- ./inp_files/31276.got.cif
#   From: 2010.06.25/outbox.cif.g09.slc.cpg/sg52_16_cif.got.tgz:31276.got - 2010.06.26 19:32:48.
