data_PCOD8217733
_publ_section_title
;
Structure prediction by ZEFSAII (Michael W. Deem and Ramdas Pophale) SiO2 
 PCOD8217733
Probable space group: P M N A
;
_chemical_formula_sum "Si O2"
_cell_formula_units_Z 64
_cell_length_a 8.889086
_cell_length_b 16.959839
_cell_length_c 26.326221
_cell_angle_alpha 90.000000
_cell_angle_beta 90.000000
_cell_angle_gamma 90.000000
_cell_volume 3968.874405
_symmetry_space_group_name_H-M "P M N A"
_symmetry_group_IT_number 53
_symmetry_cell_setting 'orthorhombic'
loop_
_space_group_symop_operation_xyz
x,y,z
1/2-x,-y,1/2+z
x,-y,-z
1/2-x,y,1/2-z
-x,-y,-z
1/2+x,y,1/2-z
-x,y,z
1/2+x,-y,1/2+z
loop_
_atom_site_type_symbol
_atom_site_label
_atom_site_fract_x
_atom_site_fract_y
_atom_site_fract_z
Si Si1 0.830677 0.516311 0.940664
Si Si2 0.324545 0.974088 0.891194
Si Si3 0.822540 0.905977 0.303357
Si Si4 0.822324 0.358889 0.576200
Si Si5 0.329144 0.903597 0.456921
Si Si6 0.823538 0.833181 0.935524
Si Si7 0.327062 0.779557 0.369527
Si Si8 0.322415 0.672755 0.960605
O O1 0.740784 0.446200 0.913103
O O2 0.746670 0.598570 0.930516
O O3 0.000000 0.520548 0.918972
O O4 0.832229 0.500000 0.000000
O O5 0.500000 0.956622 0.893754
O O6 0.236916 0.890548 0.890887
O O7 0.279425 0.022477 0.840898
O O8 0.277315 0.024921 0.940373
O O9 0.750000 0.928310 0.250000
O O10 0.754658 0.823590 0.323154
O O11 0.000000 0.895839 0.298238
O O12 0.751924 0.303547 0.619514
O O13 0.774843 0.328867 0.519982
O O14 0.000000 0.359859 0.582254
O O15 0.500000 0.935402 0.456282
O O16 0.279586 0.875411 0.512067
O O17 0.309677 0.829729 0.420330
O O18 0.740937 0.749757 0.932891
O O19 0.000000 0.818787 0.929733
O O20 0.500000 0.765652 0.354602
O O21 0.500000 0.669737 0.954839
#
# Coordination Sequence:
#
# PCOD8217733 Si02
#       8
#     8   8   8   8   8   8   8   8
#     4   9  17  28  42  59  84 120 160 195 228 268
#     4  10  21  33  46  66  89 115 150 190 233 279
#     4  10  21  37  54  71  92 118 150 191 239 287
#     4  10  18  28  43  64  91 121 157 196 231 270
#     4   9  18  30  43  61  88 121 155 189 225 268
#     4  11  20  30  44  63  90 123 159 193 228 272
#     4  10  18  30  48  69  93 122 156 192 232 277
#     4  10  19  29  42  61  89 124 160 197 235 268
#
# _framework density 16.12548
#
# number of rings (size 3 to 8) (size 9 to 14) (size 15 to 20)
#    0.000    2.125    1.250    3.000    0.000    7.000 
#    0.000    0.000    0.000    0.000    0.000    0.000 
#    0.000    1.000    0.000    8.500    0.000    5.750 
#
# Total GULP energy -793707.023195 kJ/mol
# GULP energy per Si atom -12401.672237 kJ/mol
# Density = 1.608878 g / cm^3
# Si number density = 16.125480 Si / 1000 Ang^3
#
#
#
# Elastic Constant Matrix: (Units=GPa)
#
#
# Indices 1 2 3 4 5 6 
#
# 1 87.9145 58.5577 24.7381 0.0000 0.0000 0.0000
# 2 58.5577 130.5598 40.2581 0.0000 0.0000 0.0000
# 3 24.7381 40.2581 42.6211 0.0000 0.0000 0.0000
# 4 0.0000 0.0000 0.0000 12.0898 0.0000 0.0000
# 5 0.0000 0.0000 0.0000 0.0000 17.6712 0.0000
# 6 0.0000 0.0000 0.0000 0.0000 0.0000 34.6728
#
#
#
# Elastic Compliance Matrix: (Units=1/GPa)
#
#
# Indices 1 2 3 4 5 6 
#
# 1 0.016619 -0.006320 -0.003676 0.000000 0.000000 0.000000
# 2 -0.006320 0.013211 -0.008810 0.000000 0.000000 0.000000
# 3 -0.003676 -0.008810 0.033917 0.000000 0.000000 0.000000
# 4 0.000000 0.000000 0.000000 0.082714 0.000000 0.000000
# 5 0.000000 0.000000 0.000000 0.000000 0.056589 0.000000
# 6 0.000000 0.000000 0.000000 0.000000 0.000000 0.028841
#
#
# Mechanical properties :
#
#
# Convention : Reuss Voigt Hill
#
# Bulk Modulus (GPa) = 38.26308 56.46700 47.36504
# Shear Modulus (GPa) = 17.97171 22.05619 20.01395
#
# Velocity S-wave (km/s) = 3.34202 3.70237 3.52680
# Velocity P-wave (km/s) = 6.21868 7.30548 6.78388
#
# Compressibility (1/GPa) = 0.02613485
#
# Stress axis : x y z
#
# Youngs Moduli (GPa) = 60.17266 75.69731 29.48333
#
# Poissons Ratio (x) = 0.47843 0.10838
# Poissons Ratio (y) = 0.38031 0.25974
# Poissons Ratio (z) = 0.22120 0.66687
#
# Static dielectric constant tensor:
#      x y z
#    x 3.154450 0.000000 0.000000 
#    y 0.000000 3.159190 0.000000 
#    z 0.000000 0.000000 2.659990 
# 
# 
# High freq. dielectric constant tensor:
#      x y z
#    x 1.637770 0.000000 0.000000 
#    y 0.000000 1.625420 0.000000 
#    z 0.000000 0.000000 1.559430 
# 
# From -- ./inp_files/34475.got.cif
#   From: 2010.03.12/outbox.cif.g09.slc.cpg/sg53_18_cif.got.tgz:34475.got - 2010.04.16 14:36:59.
