data_PCOD8217728
_publ_section_title
;
Structure prediction by ZEFSAII (Michael W. Deem and Ramdas Pophale) SiO2 
 PCOD8217728
Probable space group: P M N A
;
_chemical_formula_sum "Si O2"
_cell_formula_units_Z 64
_cell_length_a 9.275931
_cell_length_b 16.954737
_cell_length_c 26.043177
_cell_angle_alpha 90.000000
_cell_angle_beta 90.000000
_cell_angle_gamma 90.000000
_cell_volume 4095.835723
_symmetry_space_group_name_H-M "P M N A"
_symmetry_group_IT_number 53
_symmetry_cell_setting 'orthorhombic'
loop_
_space_group_symop_operation_xyz
x,y,z
1/2-x,-y,1/2+z
x,-y,-z
1/2-x,y,1/2-z
-x,-y,-z
1/2+x,y,1/2-z
-x,y,z
1/2+x,-y,1/2+z
loop_
_atom_site_type_symbol
_atom_site_label
_atom_site_fract_x
_atom_site_fract_y
_atom_site_fract_z
Si Si1 0.668668 0.665988 0.459177
Si Si2 0.162744 0.906589 0.956828
Si Si3 0.831958 0.975487 0.392326
Si Si4 0.162948 0.483276 0.560082
Si Si5 0.832201 0.159750 0.932896
Si Si6 0.332044 0.366941 0.424333
Si Si7 0.831137 0.094893 0.301927
Si Si8 0.336704 0.213517 0.366558
O O1 0.500000 0.649322 0.452378
O O2 0.755566 0.598609 0.428704
O O3 0.713467 0.748707 0.433266
O O4 0.709177 0.667011 0.519528
O O5 0.176683 0.832761 0.919537
O O6 0.000000 0.940179 0.956359
O O7 0.267304 0.977069 0.940514
O O8 0.208251 0.876674 0.012298
O O9 0.757641 0.889018 0.390085
O O10 0.000000 0.964693 0.401185
O O11 0.798050 0.022735 0.340221
O O12 0.168826 0.500000 0.500000
O O13 0.242097 0.554784 0.589286
O O14 0.000000 0.477004 0.580469
O O15 0.000000 0.151261 0.920304
O O16 0.500000 0.388662 0.423126
O O17 0.293658 0.303187 0.380290
O O18 0.750000 0.072931 0.250000
O O19 0.770477 0.177375 0.324287
O O20 0.000000 0.105603 0.291860
O O21 0.500000 0.208792 0.345104
#
# Coordination Sequence:
#
# PCOD8217728 Si02
#       8
#     8   8   8   8   8   8   8   8
#     4   9  16  27  41  58  82 116 156 189 214 245
#     4   9  16  28  43  60  84 115 150 182 211 250
#     4  10  21  32  42  62  87 111 141 178 223 269
#     4   9  17  26  36  55  83 116 151 184 219 253
#     4  10  18  28  43  62  85 116 153 186 214 251
#     4   9  15  26  43  61  83 114 151 185 214 250
#     4  10  21  36  51  66  86 112 143 181 226 272
#     4   9  16  28  47  68  88 113 147 184 222 261
#
# _framework density 15.625626
#
# number of rings (size 3 to 8) (size 9 to 14) (size 15 to 20)
#    0.000    2.625    1.250    1.500    0.000    6.000 
#    0.000    0.000    0.000    0.000    0.000    0.000 
#    0.000    1.000    0.000    7.000    0.000    5.125 
#
# Total GULP energy -793494.397079 kJ/mol
# GULP energy per Si atom -12398.349954 kJ/mol
# Density = 1.559006 g / cm^3
# Si number density = 15.625626 Si / 1000 Ang^3
#
#
#
# Elastic Constant Matrix: (Units=GPa)
#
#
# Indices 1 2 3 4 5 6 
#
# 1 89.0505 71.4640 32.4545 0.0000 0.0000 0.0000
# 2 71.4640 136.1654 35.6300 0.0000 0.0000 0.0000
# 3 32.4545 35.6300 39.2861 0.0000 0.0000 0.0000
# 4 0.0000 0.0000 0.0000 9.8729 0.0000 0.0000
# 5 0.0000 0.0000 0.0000 0.0000 15.5213 0.0000
# 6 0.0000 0.0000 0.0000 0.0000 0.0000 20.2145
#
#
#
# Elastic Compliance Matrix: (Units=1/GPa)
#
#
# Indices 1 2 3 4 5 6 
#
# 1 0.022109 -0.008948 -0.010150 0.000000 0.000000 0.000000
# 2 -0.008948 0.013250 -0.004625 0.000000 0.000000 0.000000
# 3 -0.010150 -0.004625 0.038034 0.000000 0.000000 0.000000
# 4 0.000000 0.000000 0.000000 0.101288 0.000000 0.000000
# 5 0.000000 0.000000 0.000000 0.000000 0.064428 0.000000
# 6 0.000000 0.000000 0.000000 0.000000 0.000000 0.049469
#
#
# Mechanical properties :
#
#
# Convention : Reuss Voigt Hill
#
# Bulk Modulus (GPa) = 38.53863 60.39989 49.46926
# Shear Modulus (GPa) = 14.50648 17.45196 15.97922
#
# Velocity S-wave (km/s) = 3.05023 3.34560 3.20133
# Velocity P-wave (km/s) = 6.09283 7.32546 6.73739
#
# Compressibility (1/GPa) = 0.02594799
#
# Stress axis : x y z
#
# Youngs Moduli (GPa) = 45.22963 75.46892 26.29239
#
# Poissons Ratio (x) = 0.67529 0.26686
# Poissons Ratio (y) = 0.40471 0.12161
# Poissons Ratio (z) = 0.45906 0.34907
#
# Static dielectric constant tensor:
#      x y z
#    x 3.016660 0.000000 0.000000 
#    y 0.000000 3.169730 0.000000 
#    z 0.000000 0.000000 2.584090 
# 
# 
# High freq. dielectric constant tensor:
#      x y z
#    x 1.603120 0.000000 0.000000 
#    y 0.000000 1.605070 0.000000 
#    z 0.000000 0.000000 1.542690 
# 
# From -- ./inp_files/36517.got.cif
#   From: 2010.03.12/outbox.cif.g09.slc.cpg/sg53_19_cif.got.tgz:36517.got - 2010.04.16 14:36:59.
