data_PCOD8217600
_publ_section_title
;
Structure prediction by ZEFSAII (Michael W. Deem and Ramdas Pophale) SiO2 
 PCOD8217600
Probable space group: P M N A
;
_chemical_formula_sum "Si O2"
_cell_formula_units_Z 48
_cell_length_a 14.654633
_cell_length_b 12.031415
_cell_length_c 14.797742
_cell_angle_alpha 90.000000
_cell_angle_beta 90.000000
_cell_angle_gamma 90.000000
_cell_volume 2609.078254
_symmetry_space_group_name_H-M "P M N A"
_symmetry_group_IT_number 53
_symmetry_cell_setting 'orthorhombic'
loop_
_space_group_symop_operation_xyz
x,y,z
1/2-x,-y,1/2+z
x,-y,-z
1/2-x,y,1/2-z
-x,-y,-z
1/2+x,y,1/2-z
-x,y,z
1/2+x,-y,1/2+z
loop_
_atom_site_type_symbol
_atom_site_label
_atom_site_fract_x
_atom_site_fract_y
_atom_site_fract_z
Si Si1 0.398996 0.665883 0.849661
Si Si2 0.654791 0.155873 0.291092
Si Si3 0.291062 0.335672 0.428691
Si Si4 0.394482 0.287580 0.604364
Si Si5 0.603233 0.494977 0.307436
Si Si6 0.103220 0.957522 0.093398
O O1 0.500000 0.659400 0.894712
O O2 0.399870 0.773920 0.783934
O O3 0.320053 0.671991 0.925339
O O4 0.377841 0.554471 0.791822
O O5 0.750000 0.118448 0.250000
O O6 0.666257 0.228904 0.380332
O O7 0.606502 0.043006 0.322984
O O8 0.327280 0.338702 0.529598
O O9 0.324713 0.445457 0.377874
O O10 0.500000 0.288499 0.570777
O O11 0.384899 0.370376 0.690868
O O12 0.358919 0.162769 0.626509
O O13 0.500000 0.462220 0.336867
O O14 0.000000 0.935879 0.066411
O O15 0.152801 0.000000 0.000000
#
# Coordination Sequence:
#
# PCOD8217600 Si02
#       6
#     8   8   8   8   8   8
#     4   9  18  31  49  69  92 123 160 200 232 269
#     4   9  17  29  45  68  96 125 158 195 237 277
#     4  10  17  28  46  70  95 121 155 195 237 279
#     4  10  19  29  46  74 101 125 149 186 243 292
#     4   9  17  29  45  67  95 121 149 187 235 286
#     4  10  18  28  45  70 101 128 150 187 241 289
#
# _framework density 18.397302
#
# number of rings (size 3 to 8) (size 9 to 14) (size 15 to 20)
#    0.000    2.500    1.667    3.000    0.000    2.667 
#    0.000    1.667    0.000    2.000    0.000   10.500 
#    0.000    0.000    0.000    0.000    0.000    0.000 
#
# Total GULP energy -594668.505492 kJ/mol
# GULP energy per Si atom -12388.927198 kJ/mol
# Density = 1.835543 g / cm^3
# Si number density = 18.397302 Si / 1000 Ang^3
#
#
#
# Elastic Constant Matrix: (Units=GPa)
#
#
# Indices 1 2 3 4 5 6 
#
# 1 77.9045 26.8026 17.2097 0.0000 0.0000 0.0000
# 2 26.8026 114.0435 16.4455 0.0000 0.0000 0.0000
# 3 17.2097 16.4455 29.6839 0.0000 0.0000 0.0000
# 4 0.0000 0.0000 0.0000 12.7216 0.0000 0.0000
# 5 0.0000 0.0000 0.0000 0.0000 19.0095 0.0000
# 6 0.0000 0.0000 0.0000 0.0000 0.0000 18.2764
#
#
#
# Elastic Compliance Matrix: (Units=1/GPa)
#
#
# Indices 1 2 3 4 5 6 
#
# 1 0.015364 -0.002528 -0.007507 0.000000 0.000000 0.000000
# 2 -0.002528 0.009946 -0.004044 0.000000 0.000000 0.000000
# 3 -0.007507 -0.004044 0.040281 0.000000 0.000000 0.000000
# 4 0.000000 0.000000 0.000000 0.078607 0.000000 0.000000
# 5 0.000000 0.000000 0.000000 0.000000 0.052605 0.000000
# 6 0.000000 0.000000 0.000000 0.000000 0.000000 0.054715
#
#
# Mechanical properties :
#
#
# Convention : Reuss Voigt Hill
#
# Bulk Modulus (GPa) = 26.71500 38.06083 32.38792
# Shear Modulus (GPa) = 17.11415 20.74645 18.93030
#
# Velocity S-wave (km/s) = 3.05331 3.36175 3.21124
# Velocity P-wave (km/s) = 5.19451 5.98345 5.60289
#
# Compressibility (1/GPa) = 0.03743216
#
# Stress axis : x y z
#
# Youngs Moduli (GPa) = 65.08518 100.54260 24.82539
#
# Poissons Ratio (x) = 0.25422 0.18636
# Poissons Ratio (y) = 0.16456 0.10040
# Poissons Ratio (z) = 0.48860 0.40663
#
# Static dielectric constant tensor:
#      x y z
#    x 3.328750 0.000000 0.000000 
#    y 0.000000 3.579160 0.000000 
#    z 0.000000 0.000000 2.879070 
# 
# 
# High freq. dielectric constant tensor:
#      x y z
#    x 1.701300 0.000000 0.000000 
#    y 0.000000 1.720740 0.000000 
#    z 0.000000 0.000000 1.658810 
# 
# From -- ./inp_files/22641.got.cif
#   From: 2010.03.12/outbox.cif.g09.slc.cpg/sg53_12_cif.got.tgz:22641.got - 2010.04.16 14:36:59.
