data_PCOD8217525
_publ_section_title
;
Structure prediction by ZEFSAII (Michael W. Deem and Ramdas Pophale) SiO2 
 PCOD8217525
Probable space group: P M N A
;
_chemical_formula_sum "Si O2"
_cell_formula_units_Z 40
_cell_length_a 17.681220
_cell_length_b 13.319790
_cell_length_c 7.401820
_cell_angle_alpha 90.000000
_cell_angle_beta 90.000000
_cell_angle_gamma 90.000000
_cell_volume 1743.203645
_symmetry_space_group_name_H-M "P M N A"
_symmetry_group_IT_number 53
_symmetry_cell_setting 'orthorhombic'
loop_
_space_group_symop_operation_xyz
x,y,z
1/2-x,-y,1/2+z
x,-y,-z
1/2-x,y,1/2-z
-x,-y,-z
1/2+x,y,1/2-z
-x,y,z
1/2+x,-y,1/2+z
loop_
_atom_site_type_symbol
_atom_site_label
_atom_site_fract_x
_atom_site_fract_y
_atom_site_fract_z
Si Si1 0.663734 0.995210 0.710456
Si Si2 0.089260 0.595867 0.179872
Si Si3 0.085281 0.798091 0.781505
Si Si4 0.584063 0.188579 0.711570
Si Si5 0.338510 0.598669 0.710703
O O1 0.750000 0.975941 0.750000
O O2 0.619118 0.901801 0.798584
O O3 0.645264 0.000000 0.500000
O O4 0.638805 0.102879 0.793475
O O5 0.103380 0.700163 0.290399
O O6 0.118258 0.499523 0.295171
O O7 0.000000 0.586797 0.129608
O O8 0.140833 0.599405 0.000796
O O9 0.131335 0.702745 0.702738
O O10 0.000000 0.788004 0.711703
O O11 0.090211 0.800636 0.996691
O O12 0.500000 0.155424 0.766844
O O13 0.250000 0.589050 0.750000
#
# Coordination Sequence:
#
# PCOD8217525 Si02
#       5
#     8   8   8   8   8
#     4  10  19  30  46  70  96 120 149 191 238 278
#     4   9  17  31  47  65  90 120 155 191 229 275
#     4   9  16  28  46  66  87 114 151 189 225 271
#     4   8  15  28  47  66  84 113 154 192 222 264
#     4  10  17  25  42  69  93 113 144 190 237 273
#
# _framework density 22.946256999999999
#
# number of rings (size 3 to 8) (size 9 to 14) (size 15 to 20)
#    0.000    2.800    0.000    4.800    0.000    3.200 
#    0.000    0.000    0.000    2.400    0.000   30.800 
#    0.000    0.000    0.000    0.000    0.000    0.000 
#
# Total GULP energy -495548.797403 kJ/mol
# GULP energy per Si atom -12388.719935 kJ/mol
# Density = 2.289403 g / cm^3
# Si number density = 22.946257 Si / 1000 Ang^3
#
#
#
# Elastic Constant Matrix: (Units=GPa)
#
#
# Indices 1 2 3 4 5 6 
#
# 1 182.1970 103.4109 6.5018 0.0000 0.0000 0.0000
# 2 103.4109 267.5533 -0.9493 0.0000 0.0000 0.0000
# 3 6.5018 -0.9493 22.2168 0.0000 0.0000 0.0000
# 4 0.0000 0.0000 0.0000 -5.7034 0.0000 0.0000
# 5 0.0000 0.0000 0.0000 0.0000 6.3800 0.0000
# 6 0.0000 0.0000 0.0000 0.0000 0.0000 42.4646
#
#
#
# Elastic Compliance Matrix: (Units=1/GPa)
#
#
# Indices 1 2 3 4 5 6 
#
# 1 0.007138 -0.002767 -0.002207 0.000000 0.000000 0.000000
# 2 -0.002767 0.004810 0.001015 0.000000 0.000000 0.000000
# 3 -0.002207 0.001015 0.045700 0.000000 0.000000 0.000000
# 4 0.000000 0.000000 0.000000 -0.175335 0.000000 0.000000
# 5 0.000000 0.000000 0.000000 0.000000 0.156740 0.000000
# 6 0.000000 0.000000 0.000000 0.000000 0.000000 0.023549
#
#
# Mechanical properties :
#
#
# Convention : Reuss Voigt Hill
#
# Bulk Modulus (GPa) = 20.10799 76.65488 48.38143
# Shear Modulus (GPa) = 57.40748 32.82848 45.11798
#
# Velocity S-wave (km/s) = 5.00725 3.78652 4.43905
# Velocity P-wave (km/s) = 6.49709 7.25229 6.88505
#
# Compressibility (1/GPa) = 0.04973148
#
# Stress axis : x y z
#
# Youngs Moduli (GPa) = 140.10421 207.88052 21.88171
#
# Poissons Ratio (x) = 0.57511 0.04829
# Poissons Ratio (y) = 0.38760 -0.02221
# Poissons Ratio (z) = 0.30921 -0.21103
#
# Static dielectric constant tensor:
#      x y z
#    x 3.921740 0.000000 0.000000 
#    y 0.000000 5.417370 0.000000 
#    z 0.000000 0.000000 3.336140 
# 
# 
# High freq. dielectric constant tensor:
#      x y z
#    x 1.899050 0.000000 0.000000 
#    y 0.000000 1.946360 0.000000 
#    z 0.000000 0.000000 1.839520 
# 
# From -- ./inp_files/8437.got.cif
#   From: 2010.03.12/outbox.cif.g09.slc.cpg/sg53_5_cif.got.tgz:8437.got - 2010.04.16 14:36:59.
