data_PCOD8217100
_publ_section_title
;
Structure prediction by ZEFSAII (Michael W. Deem and Ramdas Pophale) SiO2 
 PCOD8217100
Probable space group: P N N A
;
_chemical_formula_sum "Si O2"
_cell_formula_units_Z 48
_cell_length_a 15.481821
_cell_length_b 9.685705
_cell_length_c 17.065919
_cell_angle_alpha 90.000000
_cell_angle_beta 90.000000
_cell_angle_gamma 90.000000
_cell_volume 2559.074677
_symmetry_space_group_name_H-M "P N N A"
_symmetry_group_IT_number 52
_symmetry_cell_setting 'orthorhombic'
loop_
_space_group_symop_operation_xyz
x,y,z
1/2-x,-y,z
x,1/2-y,1/2-z
1/2-x,1/2+y,1/2-z
-x,-y,-z
1/2+x,y,-z
-x,1/2+y,1/2+z
1/2+x,1/2-y,1/2+z
loop_
_atom_site_type_symbol
_atom_site_label
_atom_site_fract_x
_atom_site_fract_y
_atom_site_fract_z
Si Si1 0.152350 0.750903 0.935428
Si Si2 0.416884 0.886323 0.799155
Si Si3 0.250000 0.500000 0.628457
Si Si4 0.475708 0.362833 0.807521
Si Si5 0.250000 0.000000 0.507812
Si Si6 0.929194 0.594918 0.956912
Si Si7 0.000428 0.652453 0.465146
O O1 0.196071 0.898526 0.926282
O O2 0.099913 0.709891 0.857700
O O3 0.225567 0.633991 0.941629
O O4 0.090636 0.769222 0.012235
O O5 0.422159 0.750000 0.750000
O O6 0.317236 0.911527 0.820909
O O7 0.481460 0.865255 0.873011
O O8 0.444867 0.009496 0.743266
O O9 0.515742 0.250000 0.750000
O O10 0.551152 0.408159 0.865229
O O11 0.333836 0.966210 0.457400
O O12 0.927768 0.748684 0.995232
O O13 0.000000 0.500000 0.000000
O O14 0.000000 0.500000 0.500000
#
# Coordination Sequence:
#
# PCOD8217100 Si02
#       7
#     8   8   4   8   4   8   8
#     4  11  25  41  67  95 130 171 223 262 322 391
#     4  12  26  36  63  93 134 166 205 272 332 392
#     4  12  24  41  56 103 134 166 214 264 336 395
#     4  11  22  44  62  91 128 174 204 265 334 390
#     4  12  24  41  74  95 124 172 230 278 304 385
#     4  11  22  43  68  92 127 171 225 260 319 385
#     4  11  21  45  63  91 128 175 217 258 315 396
#
# _framework density 18.756779999999999
#
# number of rings (size 3 to 8) (size 9 to 14) (size 15 to 20)
#    0.000    0.667    6.667    3.000    4.667    0.000 
#    0.000    0.000    3.667    0.000    0.000    0.000 
#    0.000    0.000    0.000    0.000    0.000    0.000 
#
# Total GULP energy -594917.876702 kJ/mol
# GULP energy per Si atom -12394.122431 kJ/mol
# Density = 1.871409 g / cm^3
# Si number density = 18.756780 Si / 1000 Ang^3
#
#
#
# Elastic Constant Matrix: (Units=GPa)
#
#
# Indices 1 2 3 4 5 6 
#
# 1 116.9411 49.8094 61.9638 0.0000 0.0000 0.0000
# 2 49.8094 119.6717 51.7472 0.0000 0.0000 0.0000
# 3 61.9638 51.7472 135.2496 0.0000 0.0000 0.0000
# 4 0.0000 0.0000 0.0000 41.2607 0.0000 0.0000
# 5 0.0000 0.0000 0.0000 0.0000 8.6484 0.0000
# 6 0.0000 0.0000 0.0000 0.0000 0.0000 40.1604
#
#
#
# Elastic Compliance Matrix: (Units=1/GPa)
#
#
# Indices 1 2 3 4 5 6 
#
# 1 0.012235 -0.003198 -0.004382 0.000000 0.000000 0.000000
# 2 -0.003198 0.010848 -0.002686 0.000000 0.000000 0.000000
# 3 -0.004382 -0.002686 0.010429 0.000000 0.000000 0.000000
# 4 0.000000 0.000000 0.000000 0.024236 0.000000 0.000000
# 5 0.000000 0.000000 0.000000 0.000000 0.115628 0.000000
# 6 0.000000 0.000000 0.000000 0.000000 0.000000 0.024900
#
#
# Mechanical properties :
#
#
# Convention : Reuss Voigt Hill
#
# Bulk Modulus (GPa) = 77.03108 77.65591 77.34349
# Shear Modulus (GPa) = 22.40794 31.90337 27.15565
#
# Velocity S-wave (km/s) = 3.46013 4.12867 3.80910
# Velocity P-wave (km/s) = 7.55784 8.01369 7.78910
#
# Compressibility (1/GPa) = 0.01298177
#
# Stress axis : x y z
#
# Youngs Moduli (GPa) = 81.73105 92.17926 95.88740
#
# Poissons Ratio (x) = 0.29476 0.42018
# Poissons Ratio (y) = 0.26135 0.25752
# Poissons Ratio (z) = 0.35815 0.24756
#
# Static dielectric constant tensor:
#      x y z
#    x 3.439850 0.000000 0.000000 
#    y 0.000000 3.690990 0.000000 
#    z 0.000000 0.000000 3.499480 
# 
# 
# High freq. dielectric constant tensor:
#      x y z
#    x 1.715360 0.000000 0.000000 
#    y 0.000000 1.763870 0.000000 
#    z 0.000000 0.000000 1.718570 
# 
# From -- ./inp_files/33101.got.cif
#   From: 2010.06.25/outbox.cif.g09.slc.cpg/sg52_17_cif.got.tgz:33101.got - 2010.06.26 19:32:48.
