data_PCOD8217444
_publ_section_title
;
Structure prediction by ZEFSAII (Michael W. Deem and Ramdas Pophale) SiO2 
 PCOD8217444
Probable space group: P N N A
;
_chemical_formula_sum "Si O2"
_cell_formula_units_Z 24
_cell_length_a 9.089459
_cell_length_b 5.029439
_cell_length_c 20.651922
_cell_angle_alpha 90.000000
_cell_angle_beta 90.000000
_cell_angle_gamma 90.000000
_cell_volume 944.100127
_symmetry_space_group_name_H-M "P N N A"
_symmetry_group_IT_number 52
_symmetry_cell_setting 'orthorhombic'
loop_
_space_group_symop_operation_xyz
x,y,z
1/2-x,-y,z
x,1/2-y,1/2-z
1/2-x,1/2+y,1/2-z
-x,-y,-z
1/2+x,y,-z
-x,1/2+y,1/2+z
1/2+x,1/2-y,1/2+z
loop_
_atom_site_type_symbol
_atom_site_label
_atom_site_fract_x
_atom_site_fract_y
_atom_site_fract_z
Si Si1 0.250000 0.000000 0.041007
Si Si2 0.250000 0.500000 0.949779
Si Si3 0.250000 0.000000 0.795474
Si Si4 0.006868 0.237876 0.872912
Si Si5 0.661943 0.750000 0.750000
O O1 0.393680 0.075914 0.082226
O O2 0.226521 0.247795 0.994854
O O3 0.399186 0.521398 0.906355
O O4 0.230803 0.750000 0.750000
O O5 0.386588 0.986692 0.844242
O O6 0.928440 0.370923 0.810592
O O7 0.750000 0.500000 0.721609
#
# Coordination Sequence:
#
# PCOD8217444 Si02
#       5
#     4   4   4   8   4
#     4  12  29  52  82 112 164 209 274 322 396 476
#     4  12  29  52  80 118 154 219 268 328 390 478
#     4  12  28  46  76 120 158 198 254 320 404 476
#     4  12  28  52  83 116 162 208 268 336 402 482
#     4  12  30  48  80 120 158 204 260 336 412 472
#
# _framework density 25.421033000000001
#
# number of rings (size 3 to 8) (size 9 to 14) (size 15 to 20)
#    0.000    0.000    3.333    4.000    4.667    8.000 
#    0.000    0.000    0.000    0.000    0.000    0.000 
#    0.000    0.000    0.000    0.000    0.000    0.000 
#
# Total GULP energy -297396.742657 kJ/mol
# GULP energy per Si atom -12391.530944 kJ/mol
# Density = 2.536317 g / cm^3
# Si number density = 25.421033 Si / 1000 Ang^3
#
#
#
# Elastic Constant Matrix: (Units=GPa)
#
#
# Indices 1 2 3 4 5 6 
#
# 1 155.0961 26.8204 59.7311 0.0000 0.0000 0.0000
# 2 26.8204 97.4862 26.7754 0.0000 0.0000 0.0000
# 3 59.7311 26.7754 152.9437 0.0000 0.0000 0.0000
# 4 0.0000 0.0000 0.0000 26.4090 0.0000 0.0000
# 5 0.0000 0.0000 0.0000 0.0000 37.1130 0.0000
# 6 0.0000 0.0000 0.0000 0.0000 0.0000 46.3991
#
#
#
# Elastic Compliance Matrix: (Units=1/GPa)
#
#
# Indices 1 2 3 4 5 6 
#
# 1 0.007759 -0.001368 -0.002791 0.000000 0.000000 0.000000
# 2 -0.001368 0.011017 -0.001394 0.000000 0.000000 0.000000
# 3 -0.002791 -0.001394 0.007872 0.000000 0.000000 0.000000
# 4 0.000000 0.000000 0.000000 0.037866 0.000000 0.000000
# 5 0.000000 0.000000 0.000000 0.000000 0.026945 0.000000
# 6 0.000000 0.000000 0.000000 0.000000 0.000000 0.021552
#
#
# Mechanical properties :
#
#
# Convention : Reuss Voigt Hill
#
# Bulk Modulus (GPa) = 64.34171 70.24221 67.29196
# Shear Modulus (GPa) = 38.67018 41.46417 40.06717
#
# Velocity S-wave (km/s) = 3.90447 4.04307 3.97437
# Velocity P-wave (km/s) = 6.75958 7.03468 6.89850
#
# Compressibility (1/GPa) = 0.01554202
#
# Stress axis : x y z
#
# Youngs Moduli (GPa) = 128.88314 90.76661 127.02674
#
# Poissons Ratio (x) = 0.12418 0.35449
# Poissons Ratio (y) = 0.17633 0.17713
# Poissons Ratio (z) = 0.35967 0.12657
#
# Static dielectric constant tensor:
#      x y z
#    x 5.261390 0.000000 0.000000 
#    y 0.000000 4.496760 0.000000 
#    z 0.000000 0.000000 5.221280 
# 
# 
# High freq. dielectric constant tensor:
#      x y z
#    x 2.029390 0.000000 0.000000 
#    y 0.000000 2.005100 0.000000 
#    z 0.000000 0.000000 2.051640 
# 
# From -- ./inp_files/39064.got.cif
#   From: 2010.06.25/outbox.cif.g09.slc.cpg/sg52_20_cif.got.tgz:39064.got - 2010.06.26 19:32:48.
