data_PCOD8217122
_publ_section_title
;
Structure prediction by ZEFSAII (Michael W. Deem and Ramdas Pophale) SiO2 
 PCOD8217122
Probable space group: P N N A
;
_chemical_formula_sum "Si O2"
_cell_formula_units_Z 32
_cell_length_a 5.015169
_cell_length_b 7.726271
_cell_length_c 36.365418
_cell_angle_alpha 90.000000
_cell_angle_beta 90.000000
_cell_angle_gamma 90.000000
_cell_volume 1409.107392
_symmetry_space_group_name_H-M "P N N A"
_symmetry_group_IT_number 52
_symmetry_cell_setting 'orthorhombic'
loop_
_space_group_symop_operation_xyz
x,y,z
1/2-x,-y,z
x,1/2-y,1/2-z
1/2-x,1/2+y,1/2-z
-x,-y,-z
1/2+x,y,-z
-x,1/2+y,1/2+z
1/2+x,1/2-y,1/2+z
loop_
_atom_site_type_symbol
_atom_site_label
_atom_site_fract_x
_atom_site_fract_y
_atom_site_fract_z
Si Si1 0.508590 0.111793 0.719930
Si Si2 0.736996 0.205757 0.478561
Si Si3 0.162193 0.308114 0.352803
Si Si4 0.671567 0.199670 0.395789
O O1 0.412774 0.250000 0.750000
O O2 0.631304 0.199395 0.684059
O O3 0.250000 0.000000 0.708966
O O4 0.750000 0.000000 0.737260
O O5 0.516114 0.279229 0.506681
O O6 0.672951 0.269713 0.437495
O O7 0.750000 0.000000 0.479129
O O8 0.250000 0.500000 0.341879
O O9 0.377663 0.217714 0.379130
O O10 0.880230 0.316711 0.373510
O O11 0.750000 0.000000 0.393457
#
# Coordination Sequence:
#
# PCOD8217122 Si02
#       4
#     8   8   8   8
#     4  12  26  46  71  99 131 166 209 256 312 374
#     4   9  17  31  55  88 121 156 206 266 319 370
#     4  12  25  42  64  93 131 171 212 259 315 375
#     4  11  22  39  65  94 125 166 217 269 319 374
#
# _framework density 22.709413000000001
#
# number of rings (size 3 to 8) (size 9 to 14) (size 15 to 20)
#    0.000    1.000    0.000    8.250    0.000    6.000 
#    0.000    0.000    0.000   15.000    0.000    0.000 
#    0.000    0.000    0.000    0.000    0.000    0.000 
#
# Total GULP energy -396972.713907 kJ/mol
# GULP energy per Si atom -12405.397310 kJ/mol
# Density = 2.265773 g / cm^3
# Si number density = 22.709413 Si / 1000 Ang^3
#
#
#
# Elastic Constant Matrix: (Units=GPa)
#
#
# Indices 1 2 3 4 5 6 
#
# 1 118.8405 20.9257 38.7315 0.0000 0.0000 0.0000
# 2 20.9257 83.3337 27.6356 0.0000 0.0000 0.0000
# 3 38.7315 27.6356 147.6117 0.0000 0.0000 0.0000
# 4 0.0000 0.0000 0.0000 12.8321 0.0000 0.0000
# 5 0.0000 0.0000 0.0000 0.0000 53.4502 0.0000
# 6 0.0000 0.0000 0.0000 0.0000 0.0000 36.1332
#
#
#
# Elastic Compliance Matrix: (Units=1/GPa)
#
#
# Indices 1 2 3 4 5 6 
#
# 1 0.009409 -0.001646 -0.002161 0.000000 0.000000 0.000000
# 2 -0.001646 0.013082 -0.002017 0.000000 0.000000 0.000000
# 3 -0.002161 -0.002017 0.007719 0.000000 0.000000 0.000000
# 4 0.000000 0.000000 0.000000 0.077930 0.000000 0.000000
# 5 0.000000 0.000000 0.000000 0.000000 0.018709 0.000000
# 6 0.000000 0.000000 0.000000 0.000000 0.000000 0.027675
#
#
# Mechanical properties :
#
#
# Convention : Reuss Voigt Hill
#
# Bulk Modulus (GPa) = 53.87314 58.26352 56.06833
# Shear Modulus (GPa) = 29.00914 37.98264 33.49589
#
# Velocity S-wave (km/s) = 3.57796 4.09412 3.84471
# Velocity P-wave (km/s) = 6.39088 6.93260 6.66724
#
# Compressibility (1/GPa) = 0.01856212
#
# Stress axis : x y z
#
# Youngs Moduli (GPa) = 106.28544 76.43922 129.54859
#
# Poissons Ratio (x) = 0.12583 0.27989
# Poissons Ratio (y) = 0.17495 0.26134
# Poissons Ratio (z) = 0.22963 0.15420
#
# Static dielectric constant tensor:
#      x y z
#    x 4.382550 0.000000 0.000000 
#    y 0.000000 3.943020 0.000000 
#    z 0.000000 0.000000 4.185800 
# 
# 
# High freq. dielectric constant tensor:
#      x y z
#    x 1.912870 0.000000 0.000000 
#    y 0.000000 1.882580 0.000000 
#    z 0.000000 0.000000 1.904590 
# 
# From -- ./inp_files/43556.got.cif
#   From: 2010.06.25/outbox.cif.g09.slc.cpg/sg52_22_cif.got.tgz:43556.got - 2010.06.26 19:32:48.
