data_PCOD8217667
_publ_section_title
;
Structure prediction by ZEFSAII (Michael W. Deem and Ramdas Pophale) SiO2 
 PCOD8217667
Probable space group: P M N A
;
_chemical_formula_sum "Si O2"
_cell_formula_units_Z 64
_cell_length_a 8.842455
_cell_length_b 20.379466
_cell_length_c 22.753368
_cell_angle_alpha 90.000000
_cell_angle_beta 90.000000
_cell_angle_gamma 90.000000
_cell_volume 4100.259555
_symmetry_space_group_name_H-M "P M N A"
_symmetry_group_IT_number 53
_symmetry_cell_setting 'orthorhombic'
loop_
_space_group_symop_operation_xyz
x,y,z
1/2-x,-y,1/2+z
x,-y,-z
1/2-x,y,1/2-z
-x,-y,-z
1/2+x,y,1/2-z
-x,y,z
1/2+x,-y,1/2+z
loop_
_atom_site_type_symbol
_atom_site_label
_atom_site_fract_x
_atom_site_fract_y
_atom_site_fract_z
Si Si1 0.822110 0.108881 0.402126
Si Si2 0.332756 0.982506 0.431893
Si Si3 0.825981 0.719120 0.476832
Si Si4 0.174758 0.682809 0.902855
Si Si5 0.322082 0.151107 0.523358
Si Si6 0.825862 0.541494 0.924269
Si Si7 0.322947 0.794863 0.686929
Si Si8 0.325038 0.577459 0.045156
O O1 0.758824 0.142079 0.460895
O O2 0.750272 0.143487 0.345917
O O3 0.000000 0.117250 0.400671
O O4 0.781178 0.031287 0.398699
O O5 0.500000 0.990004 0.403803
O O6 0.277503 0.906348 0.430043
O O7 0.340577 0.000000 0.500000
O O8 0.780444 0.705281 0.543915
O O9 0.729099 0.779079 0.449835
O O10 0.799018 0.653657 0.436844
O O11 0.000000 0.740082 0.475959
O O12 0.206892 0.606427 0.884822
O O13 0.212372 0.727299 0.846987
O O14 0.000000 0.690968 0.922780
O O15 0.500000 0.149662 0.511245
O O16 0.727995 0.476389 0.905639
O O17 0.000000 0.521282 0.921209
O O18 0.780978 0.563036 0.989820
O O19 0.250000 0.787510 0.750000
O O20 0.500000 0.808016 0.692779
O O21 0.500000 0.566346 0.028867
#
# Coordination Sequence:
#
# PCOD8217667 Si02
#       8
#     8   8   8   8   8   8   8   8
#     4  11  20  30  45  63  81 104 137 174 212 254
#     4   8  16  29  43  59  80 107 136 167 206 249
#     4  10  18  25  38  58  82 109 140 170 202 244
#     4   9  18  30  43  56  75 104 136 171 213 250
#     4  10  18  28  42  60  83 111 141 171 207 248
#     4   9  15  24  38  54  70  97 135 167 196 239
#     4  11  22  35  48  62  82 108 140 180 220 256
#     4   9  16  24  33  52  78 104 130 164 201 233
#
# _framework density 15.608768
#
# number of rings (size 3 to 8) (size 9 to 14) (size 15 to 20)
#    0.000    2.375    1.250    4.500    0.000    5.250 
#    0.000    0.000    0.000    0.000    0.000    0.000 
#    0.000    0.000    0.000    1.125    0.000   17.500 
#
# Total GULP energy -793018.269189 kJ/mol
# GULP energy per Si atom -12390.910456 kJ/mol
# Density = 1.557324 g / cm^3
# Si number density = 15.608768 Si / 1000 Ang^3
#
#
#
# Elastic Constant Matrix: (Units=GPa)
#
#
# Indices 1 2 3 4 5 6 
#
# 1 83.0712 55.8184 21.4498 0.0000 0.0000 0.0000
# 2 55.8184 158.0357 32.4639 0.0000 0.0000 0.0000
# 3 21.4498 32.4639 31.5201 0.0000 0.0000 0.0000
# 4 0.0000 0.0000 0.0000 13.1538 0.0000 0.0000
# 5 0.0000 0.0000 0.0000 0.0000 14.4866 0.0000
# 6 0.0000 0.0000 0.0000 0.0000 0.0000 27.1177
#
#
#
# Elastic Compliance Matrix: (Units=1/GPa)
#
#
# Indices 1 2 3 4 5 6 
#
# 1 0.016851 -0.004561 -0.006769 0.000000 0.000000 0.000000
# 2 -0.004561 0.009260 -0.006434 0.000000 0.000000 0.000000
# 3 -0.006769 -0.006434 0.042959 0.000000 0.000000 0.000000
# 4 0.000000 0.000000 0.000000 0.076024 0.000000 0.000000
# 5 0.000000 0.000000 0.000000 0.000000 0.069029 0.000000
# 6 0.000000 0.000000 0.000000 0.000000 0.000000 0.036876
#
#
# Mechanical properties :
#
#
# Convention : Reuss Voigt Hill
#
# Bulk Modulus (GPa) = 29.81396 54.67682 42.24539
# Shear Modulus (GPa) = 16.79501 21.81128 19.30315
#
# Velocity S-wave (km/s) = 3.28380 3.74220 3.52047
# Velocity P-wave (km/s) = 5.78965 7.33333 6.60673
#
# Compressibility (1/GPa) = 0.03354133
#
# Stress axis : x y z
#
# Youngs Moduli (GPa) = 59.34539 107.98817 23.27813
#
# Poissons Ratio (x) = 0.49254 0.15758
# Poissons Ratio (y) = 0.27068 0.14976
# Poissons Ratio (z) = 0.40173 0.69476
#
# Static dielectric constant tensor:
#      x y z
#    x 3.069830 0.000000 0.000000 
#    y 0.000000 3.883140 0.000000 
#    z 0.000000 0.000000 2.378160 
# 
# 
# High freq. dielectric constant tensor:
#      x y z
#    x 1.614140 0.000000 0.000000 
#    y 0.000000 1.627500 0.000000 
#    z 0.000000 0.000000 1.504280 
# 
# From -- ./inp_files/34571.got.cif
#   From: 2010.03.12/outbox.cif.g09.slc.cpg/sg53_18_cif.got.tgz:34571.got - 2010.04.16 14:36:59.
