data_PCOD8217197
_publ_section_title
;
Structure prediction by ZEFSAII (Michael W. Deem and Ramdas Pophale) SiO2 
 PCOD8217197
Probable space group: P N N A
;
_chemical_formula_sum "Si O2"
_cell_formula_units_Z 48
_cell_length_a 9.762706
_cell_length_b 13.962889
_cell_length_c 16.784225
_cell_angle_alpha 90.000000
_cell_angle_beta 90.000000
_cell_angle_gamma 90.000000
_cell_volume 2287.951369
_symmetry_space_group_name_H-M "P N N A"
_symmetry_group_IT_number 52
_symmetry_cell_setting 'orthorhombic'
loop_
_space_group_symop_operation_xyz
x,y,z
1/2-x,-y,z
x,1/2-y,1/2-z
1/2-x,1/2+y,1/2-z
-x,-y,-z
1/2+x,y,-z
-x,1/2+y,1/2+z
1/2+x,1/2-y,1/2+z
loop_
_atom_site_type_symbol
_atom_site_label
_atom_site_fract_x
_atom_site_fract_y
_atom_site_fract_z
Si Si1 0.891224 0.053907 0.056363
Si Si2 0.530854 0.019906 0.779604
Si Si3 0.747564 0.778559 0.969921
Si Si4 0.906845 0.490193 0.113374
Si Si5 0.503434 0.656833 0.987792
Si Si6 0.275517 0.151391 0.203680
O O1 0.950483 0.059546 0.144567
O O2 0.750000 0.000000 0.053780
O O3 0.847322 0.159934 0.029963
O O4 0.000000 0.000000 0.000000
O O5 0.424268 0.020247 0.707534
O O6 0.653304 0.091946 0.755737
O O7 0.586780 0.912470 0.795512
O O8 0.652849 0.687104 0.957204
O O9 0.770963 0.833789 0.887511
O O10 0.894705 0.744640 0.004173
O O11 0.750000 0.500000 0.089642
O O12 0.968398 0.589855 0.085761
O O13 0.982509 0.401081 0.070506
O O14 0.302148 0.250000 0.250000
#
# Coordination Sequence:
#
# PCOD8217197 Si02
#       6
#     8   8   8   8   8   8
#     4  12  24  43  67  95 134 183 220 273 337 397
#     4  11  24  42  67  99 136 179 222 280 341 405
#     4  12  23  41  69  98 136 171 234 272 333 413
#     4  11  23  45  67  95 140 173 224 275 345 400
#     4  11  24  42  70 101 129 181 219 281 335 402
#     4  11  23  41  66  99 134 177 226 279 336 403
#
# _framework density 20.979467
#
# number of rings (size 3 to 8) (size 9 to 14) (size 15 to 20)
#    0.000    0.667    3.333    5.500    0.000    1.333 
#    0.000    0.000    0.000    0.000    0.000    0.000 
#    0.000    0.000    0.000    0.000    0.000    0.000 
#
# Total GULP energy -595187.750977 kJ/mol
# GULP energy per Si atom -12399.744812 kJ/mol
# Density = 2.093172 g / cm^3
# Si number density = 20.979467 Si / 1000 Ang^3
#
#
#
# Elastic Constant Matrix: (Units=GPa)
#
#
# Indices 1 2 3 4 5 6 
#
# 1 95.1612 21.7469 15.8820 0.0000 0.0000 0.0000
# 2 21.7469 93.2237 25.4382 0.0000 0.0000 0.0000
# 3 15.8820 25.4382 114.5130 0.0000 0.0000 0.0000
# 4 0.0000 0.0000 0.0000 380.8887 0.0000 0.0000
# 5 0.0000 0.0000 0.0000 0.0000 38.3128 0.0000
# 6 0.0000 0.0000 0.0000 0.0000 0.0000 45.0561
#
#
#
# Elastic Compliance Matrix: (Units=1/GPa)
#
#
# Indices 1 2 3 4 5 6 
#
# 1 0.011215 -0.002333 -0.001037 0.000000 0.000000 0.000000
# 2 -0.002333 0.011904 -0.002321 0.000000 0.000000 0.000000
# 3 -0.001037 -0.002321 0.009392 0.000000 0.000000 0.000000
# 4 0.000000 0.000000 0.000000 0.002625 0.000000 0.000000
# 5 0.000000 0.000000 0.000000 0.000000 0.026101 0.000000
# 6 0.000000 0.000000 0.000000 0.000000 0.000000 0.022195
#
#
# Mechanical properties :
#
#
# Convention : Reuss Voigt Hill
#
# Bulk Modulus (GPa) = 47.32838 47.67023 47.49930
# Shear Modulus (GPa) = 49.08823 108.84026 78.96424
#
# Velocity S-wave (km/s) = 4.84242 7.21055 6.14170
# Velocity P-wave (km/s) = 7.33987 9.59658 8.54307
#
# Compressibility (1/GPa) = 0.02112897
#
# Stress axis : x y z
#
# Youngs Moduli (GPa) = 89.16820 84.00215 106.47315
#
# Poissons Ratio (x) = 0.19599 0.11042
# Poissons Ratio (y) = 0.20804 0.24711
# Poissons Ratio (z) = 0.09248 0.19496
#
# Static dielectric constant tensor:
#      x y z
#    x 3.962090 0.000000 0.000000 
#    y 0.000000 3.880610 0.000000 
#    z 0.000000 0.000000 3.607720 
# 
# 
# High freq. dielectric constant tensor:
#      x y z
#    x 1.836460 0.000000 0.000000 
#    y 0.000000 1.832750 0.000000 
#    z 0.000000 0.000000 1.817320 
# 
# From -- ./inp_files/31249.got.cif
#   From: 2010.06.25/outbox.cif.g09.slc.cpg/sg52_16_cif.got.tgz:31249.got - 2010.06.26 19:32:48.
