data_PCOD8217755
_publ_section_title
;
Structure prediction by ZEFSAII (Michael W. Deem and Ramdas Pophale) SiO2 
 PCOD8217755
Probable space group: P M N A
;
_chemical_formula_sum "Si O2"
_cell_formula_units_Z 56
_cell_length_a 9.638518
_cell_length_b 15.614793
_cell_length_c 19.168709
_cell_angle_alpha 90.000000
_cell_angle_beta 90.000000
_cell_angle_gamma 90.000000
_cell_volume 2884.957093
_symmetry_space_group_name_H-M "P M N A"
_symmetry_group_IT_number 53
_symmetry_cell_setting 'orthorhombic'
loop_
_space_group_symop_operation_xyz
x,y,z
1/2-x,-y,1/2+z
x,-y,-z
1/2-x,y,1/2-z
-x,-y,-z
1/2+x,y,1/2-z
-x,y,z
1/2+x,-y,1/2+z
loop_
_atom_site_type_symbol
_atom_site_label
_atom_site_fract_x
_atom_site_fract_y
_atom_site_fract_z
Si Si1 0.840140 0.409635 0.463414
Si Si2 0.340358 0.994728 0.684359
Si Si3 0.151458 0.576055 0.692155
Si Si4 0.348948 0.770679 0.806338
Si Si5 0.156434 0.159343 0.088798
Si Si6 0.661993 0.190316 0.683552
Si Si7 0.841237 0.733698 0.038099
O O1 0.827775 0.500000 0.500000
O O2 0.781784 0.424540 0.385079
O O3 0.752691 0.340578 0.506132
O O4 0.000000 0.377605 0.458966
O O5 0.250000 0.963411 0.750000
O O6 0.500000 0.986684 0.706490
O O7 0.302352 0.092043 0.665053
O O8 0.308006 0.936894 0.615262
O O9 0.250000 0.530265 0.750000
O O10 0.129342 0.673397 0.716301
O O11 0.000000 0.529990 0.692073
O O12 0.250000 0.818603 0.750000
O O13 0.500000 0.816208 0.809857
O O14 0.269078 0.775118 0.879627
O O15 0.000000 0.183012 0.113847
O O16 0.169491 0.176567 0.005901
O O17 0.750000 0.222199 0.750000
O O18 0.500000 0.201782 0.700730
O O19 0.706743 0.246673 0.616855
O O20 0.000000 0.701348 0.037136
#
# Coordination Sequence:
#
# PCOD8217755 Si02
#       7
#     8   8   8   8   8   8   8
#     4  10  21  39  60  82 110 143 179 220 273 330
#     4   9  18  32  50  74 107 145 185 222 262 308
#     4   9  18  32  51  76 103 137 174 210 255 312
#     4  10  18  28  44  68 101 139 176 210 247 300
#     4  10  19  30  47  75 108 141 175 216 264 314
#     4   9  19  37  58  79 104 140 184 229 270 316
#     4  10  21  36  56  82 109 137 177 223 273 325
#
# _framework density 19.411033
#
# number of rings (size 3 to 8) (size 9 to 14) (size 15 to 20)
#    0.000    2.429    1.429    0.857    0.000    4.286 
#    0.000    3.571    0.000    3.429    0.000    6.000 
#    0.000    0.000    0.000    0.000    0.000    0.000 
#
# Total GULP energy -693935.240463 kJ/mol
# GULP energy per Si atom -12391.700723 kJ/mol
# Density = 1.936685 g / cm^3
# Si number density = 19.411033 Si / 1000 Ang^3
#
#
#
# Elastic Constant Matrix: (Units=GPa)
#
#
# Indices 1 2 3 4 5 6 
#
# 1 97.8853 26.8990 67.8158 0.0000 0.0000 0.0000
# 2 26.8990 48.7143 44.4044 0.0000 0.0000 0.0000
# 3 67.8158 44.4044 156.8355 0.0000 0.0000 0.0000
# 4 0.0000 0.0000 0.0000 18.0775 0.0000 0.0000
# 5 0.0000 0.0000 0.0000 0.0000 32.1089 0.0000
# 6 0.0000 0.0000 0.0000 0.0000 0.0000 15.3520
#
#
#
# Elastic Compliance Matrix: (Units=1/GPa)
#
#
# Indices 1 2 3 4 5 6 
#
# 1 0.014943 -0.003183 -0.005560 0.000000 0.000000 0.000000
# 2 -0.003183 0.028346 -0.006649 0.000000 0.000000 0.000000
# 3 -0.005560 -0.006649 0.010663 0.000000 0.000000 0.000000
# 4 0.000000 0.000000 0.000000 0.055317 0.000000 0.000000
# 5 0.000000 0.000000 0.000000 0.000000 0.031144 0.000000
# 6 0.000000 0.000000 0.000000 0.000000 0.000000 0.065138
#
#
# Mechanical properties :
#
#
# Convention : Reuss Voigt Hill
#
# Bulk Modulus (GPa) = 43.16407 64.63039 53.89723
# Shear Modulus (GPa) = 20.48688 24.06209 22.27448
#
# Velocity S-wave (km/s) = 3.25225 3.52463 3.39118
# Velocity P-wave (km/s) = 6.03225 7.06626 6.56963
#
# Compressibility (1/GPa) = 0.02316742
#
# Stress axis : x y z
#
# Youngs Moduli (GPa) = 66.92184 35.27777 93.78301
#
# Poissons Ratio (x) = 0.11229 0.52144
# Poissons Ratio (y) = 0.21301 0.62360
# Poissons Ratio (z) = 0.37209 0.23457
#
# Static dielectric constant tensor:
#      x y z
#    x 3.851050 0.000000 0.000000 
#    y 0.000000 3.205920 0.000000 
#    z 0.000000 0.000000 3.583410 
# 
# 
# High freq. dielectric constant tensor:
#      x y z
#    x 1.757780 0.000000 0.000000 
#    y 0.000000 1.722460 0.000000 
#    z 0.000000 0.000000 1.753320 
# 
# From -- ./inp_files/30874.got.cif
#   From: 2010.03.12/outbox.cif.g09.slc.cpg/sg53_16_cif.got.tgz:30874.got - 2010.04.16 14:36:59.
