data_PCOD8217627
_publ_section_title
;
Structure prediction by ZEFSAII (Michael W. Deem and Ramdas Pophale) SiO2 
 PCOD8217627
Probable space group: P M N A
;
_chemical_formula_sum "Si O2"
_cell_formula_units_Z 64
_cell_length_a 8.931629
_cell_length_b 15.010776
_cell_length_c 29.677687
_cell_angle_alpha 90.000000
_cell_angle_beta 90.000000
_cell_angle_gamma 90.000000
_cell_volume 3978.907743
_symmetry_space_group_name_H-M "P M N A"
_symmetry_group_IT_number 53
_symmetry_cell_setting 'orthorhombic'
loop_
_space_group_symop_operation_xyz
x,y,z
1/2-x,-y,1/2+z
x,-y,-z
1/2-x,y,1/2-z
-x,-y,-z
1/2+x,y,1/2-z
-x,y,z
1/2+x,-y,1/2+z
loop_
_atom_site_type_symbol
_atom_site_label
_atom_site_fract_x
_atom_site_fract_y
_atom_site_fract_z
Si Si1 0.677726 0.536424 0.894612
Si Si2 0.324279 0.216655 0.887252
Si Si3 0.824231 0.320704 0.043939
Si Si4 0.673951 0.052515 0.940279
Si Si5 0.324261 0.368137 0.557325
Si Si6 0.675380 0.493350 0.795020
Si Si7 0.322604 0.133785 0.032967
Si Si8 0.175200 0.289745 0.706128
O O1 0.500000 0.532194 0.899137
O O2 0.741348 0.624521 0.917325
O O3 0.741479 0.449784 0.919287
O O4 0.724760 0.540396 0.841684
O O5 0.500000 0.239231 0.893277
O O6 0.289805 0.112239 0.896508
O O7 0.232210 0.275985 0.921982
O O8 0.268819 0.234710 0.836874
O O9 0.766920 0.220200 0.048294
O O10 0.000000 0.322718 0.053163
O O11 0.786501 0.365238 0.995763
O O12 0.500000 0.045463 0.950364
O O13 0.727417 0.949933 0.934876
O O14 0.737057 0.105132 0.983646
O O15 0.500000 0.378959 0.565604
O O16 0.750000 0.536159 0.750000
O O17 0.500000 0.500922 0.787838
O O18 0.728192 0.391248 0.799965
O O19 0.500000 0.154715 0.034809
O O20 0.250000 0.246265 0.750000
O O21 0.000000 0.282919 0.712082
#
# Coordination Sequence:
#
# PCOD8217627 Si02
#       8
#     8   8   8   8   8   8   8   8
#     4  11  22  36  52  70  92 127 170 202 233 282
#     4  10  17  30  50  70  95 127 163 197 231 279
#     4  11  23  35  46  68 100 132 164 201 245 285
#     4   8  15  27  49  74  93 117 158 201 235 275
#     4  11  22  33  45  67 100 132 163 198 235 282
#     4   9  18  32  49  71  94 119 155 195 238 285
#     4   9  16  30  50  71  92 122 160 199 238 278
#     4   9  17  29  45  67  94 123 155 193 234 282
#
# _framework density 16.084816
#
# number of rings (size 3 to 8) (size 9 to 14) (size 15 to 20)
#    0.000    2.250    2.500    2.250    0.000    4.500 
#    0.000    1.875    0.000    0.000    0.000    0.875 
#    0.000    2.000    0.000    0.000    0.000    0.000 
#
# Total GULP energy -793279.973120 kJ/mol
# GULP energy per Si atom -12394.999580 kJ/mol
# Density = 1.604821 g / cm^3
# Si number density = 16.084816 Si / 1000 Ang^3
#
#
#
# Elastic Constant Matrix: (Units=GPa)
#
#
# Indices 1 2 3 4 5 6 
#
# 1 52.0508 35.1850 47.3509 0.0000 0.0000 0.0000
# 2 35.1850 98.2565 59.7694 0.0000 0.0000 0.0000
# 3 47.3509 59.7694 131.8237 0.0000 0.0000 0.0000
# 4 0.0000 0.0000 0.0000 22.1717 0.0000 0.0000
# 5 0.0000 0.0000 0.0000 0.0000 24.7278 0.0000
# 6 0.0000 0.0000 0.0000 0.0000 0.0000 12.2336
#
#
#
# Elastic Compliance Matrix: (Units=1/GPa)
#
#
# Indices 1 2 3 4 5 6 
#
# 1 0.030866 -0.005950 -0.008389 0.000000 0.000000 0.000000
# 2 -0.005950 0.015200 -0.004755 0.000000 0.000000 0.000000
# 3 -0.008389 -0.004755 0.012755 0.000000 0.000000 0.000000
# 4 0.000000 0.000000 0.000000 0.045103 0.000000 0.000000
# 5 0.000000 0.000000 0.000000 0.000000 0.040440 0.000000
# 6 0.000000 0.000000 0.000000 0.000000 0.000000 0.081742
#
#
# Mechanical properties :
#
#
# Convention : Reuss Voigt Hill
#
# Bulk Modulus (GPa) = 48.46442 62.97129 55.71785
# Shear Modulus (GPa) = 18.43852 21.14831 19.79342
#
# Velocity S-wave (km/s) = 3.38942 3.62995 3.51175
# Velocity P-wave (km/s) = 6.74637 7.53679 7.15251
#
# Compressibility (1/GPa) = 0.02063369
#
# Stress axis : x y z
#
# Youngs Moduli (GPa) = 32.39854 65.78828 78.39954
#
# Poissons Ratio (x) = 0.39141 0.65772
# Poissons Ratio (y) = 0.19276 0.37277
# Poissons Ratio (z) = 0.27180 0.31281
#
# Static dielectric constant tensor:
#      x y z
#    x 2.965920 0.000000 0.000000 
#    y 0.000000 3.067520 0.000000 
#    z 0.000000 0.000000 3.162820 
# 
# 
# High freq. dielectric constant tensor:
#      x y z
#    x 1.611070 0.000000 0.000000 
#    y 0.000000 1.602820 0.000000 
#    z 0.000000 0.000000 1.608480 
# 
# From -- ./inp_files/38462.got.cif
#   From: 2010.03.12/outbox.cif.g09.slc.cpg/sg53_20_cif.got.tgz:38462.got - 2010.04.16 14:36:59.
