data_PCOD8217415
_publ_section_title
;
Structure prediction by ZEFSAII (Michael W. Deem and Ramdas Pophale) SiO2 
 PCOD8217415
Probable space group: P N N A
;
_chemical_formula_sum "Si O2"
_cell_formula_units_Z 16
_cell_length_a 17.838314
_cell_length_b 7.718479
_cell_length_c 4.907589
_cell_angle_alpha 90.000000
_cell_angle_beta 90.000000
_cell_angle_gamma 90.000000
_cell_volume 675.699684
_symmetry_space_group_name_H-M "P N N A"
_symmetry_group_IT_number 52
_symmetry_cell_setting 'orthorhombic'
loop_
_space_group_symop_operation_xyz
x,y,z
1/2-x,-y,z
x,1/2-y,1/2-z
1/2-x,1/2+y,1/2-z
-x,-y,-z
1/2+x,y,-z
-x,1/2+y,1/2+z
1/2+x,1/2-y,1/2+z
loop_
_atom_site_type_symbol
_atom_site_label
_atom_site_fract_x
_atom_site_fract_y
_atom_site_fract_z
Si Si1 0.192122 0.141164 0.984771
Si Si2 0.449402 0.049431 0.755443
O O1 0.235549 0.250000 0.750000
O O2 0.250000 0.000000 0.102226
O O3 0.125194 0.062102 0.801323
O O4 0.164220 0.250000 0.250000
O O5 0.426601 0.250000 0.750000
O O6 0.500000 0.000000 0.500000
O O7 0.500000 0.000000 0.000000
#
# Coordination Sequence:
#
# PCOD8217415 Si02
#       2
#     8   8
#     4  12  26  46  71 104 142 187 236 291 354 423
#     4  12  25  44  70 102 140 185 233 287 348 417
#
# _framework density 23.679158000000001
#
# number of rings (size 3 to 8) (size 9 to 14) (size 15 to 20)
#    0.000    0.000    0.000   12.000    0.000    4.000 
#    0.000    0.000    0.000    0.000    0.000    0.000 
#    0.000    0.000    0.000    0.000    0.000    0.000 
#
# Total GULP energy -198253.865857 kJ/mol
# GULP energy per Si atom -12390.866616 kJ/mol
# Density = 2.362526 g / cm^3
# Si number density = 23.679158 Si / 1000 Ang^3
#
#
#
# Elastic Constant Matrix: (Units=GPa)
#
#
# Indices 1 2 3 4 5 6 
#
# 1 120.8082 46.5083 54.4251 0.0000 0.0000 0.0000
# 2 46.5083 156.7864 72.2235 0.0000 0.0000 0.0000
# 3 54.4251 72.2235 202.7904 0.0000 0.0000 0.0000
# 4 0.0000 0.0000 0.0000 48.9819 0.0000 0.0000
# 5 0.0000 0.0000 0.0000 0.0000 40.1464 0.0000
# 6 0.0000 0.0000 0.0000 0.0000 0.0000 31.7914
#
#
#
# Elastic Compliance Matrix: (Units=1/GPa)
#
#
# Indices 1 2 3 4 5 6 
#
# 1 0.009942 -0.002057 -0.001935 0.000000 0.000000 0.000000
# 2 -0.002057 0.008056 -0.002317 0.000000 0.000000 0.000000
# 3 -0.001935 -0.002317 0.006276 0.000000 0.000000 0.000000
# 4 0.000000 0.000000 0.000000 0.020416 0.000000 0.000000
# 5 0.000000 0.000000 0.000000 0.000000 0.024909 0.000000
# 6 0.000000 0.000000 0.000000 0.000000 0.000000 0.031455
#
#
# Mechanical properties :
#
#
# Convention : Reuss Voigt Hill
#
# Bulk Modulus (GPa) = 85.81012 91.85542 88.83277
# Shear Modulus (GPa) = 42.53277 44.66582 43.59929
#
# Velocity S-wave (km/s) = 4.24277 4.34786 4.29564
# Velocity P-wave (km/s) = 7.76652 8.00506 7.88669
#
# Compressibility (1/GPa) = 0.01165364
#
# Stress axis : x y z
#
# Youngs Moduli (GPa) = 100.58781 124.13616 159.34362
#
# Poissons Ratio (x) = 0.25541 0.30839
# Poissons Ratio (y) = 0.20696 0.36917
# Poissons Ratio (z) = 0.19467 0.28760
#
# Static dielectric constant tensor:
#      x y z
#    x 6.401620 0.000000 0.000000 
#    y 0.000000 4.905090 0.000000 
#    z 0.000000 0.000000 4.253810 
# 
# 
# High freq. dielectric constant tensor:
#      x y z
#    x 1.936340 0.000000 0.000000 
#    y 0.000000 1.961400 0.000000 
#    z 0.000000 0.000000 1.962130 
# 
# From -- ./inp_files/1546.got.cif
#   From: 2010.06.25/outbox.cif.g09.slc.cpg/sg52_1_cif.got.tgz:1546.got - 2010.06.26 19:32:48.
