data_PCOD8217307
_publ_section_title
;
Structure prediction by ZEFSAII (Michael W. Deem and Ramdas Pophale) SiO2 
 PCOD8217307
Probable space group: P N N A
;
_chemical_formula_sum "Si O2"
_cell_formula_units_Z 36
_cell_length_a 13.067350
_cell_length_b 11.330447
_cell_length_c 11.239275
_cell_angle_alpha 90.000000
_cell_angle_beta 90.000000
_cell_angle_gamma 90.000000
_cell_volume 1664.074880
_symmetry_space_group_name_H-M "P N N A"
_symmetry_group_IT_number 52
_symmetry_cell_setting 'orthorhombic'
loop_
_space_group_symop_operation_xyz
x,y,z
1/2-x,-y,z
x,1/2-y,1/2-z
1/2-x,1/2+y,1/2-z
-x,-y,-z
1/2+x,y,-z
-x,1/2+y,1/2+z
1/2+x,1/2-y,1/2+z
loop_
_atom_site_type_symbol
_atom_site_label
_atom_site_fract_x
_atom_site_fract_y
_atom_site_fract_z
Si Si1 0.753917 0.825026 0.029675
Si Si2 0.398651 0.985417 0.070067
Si Si3 0.377893 0.750000 0.750000
Si Si4 0.488503 0.033790 0.322338
Si Si5 0.652856 0.922015 0.460717
O O1 0.802970 0.821656 0.161612
O O2 0.692285 0.706566 0.005294
O O3 0.674525 0.928340 0.004141
O O4 0.849865 0.853138 0.940271
O O5 0.420094 0.014155 0.206279
O O6 0.500000 0.000000 0.000000
O O7 0.451025 0.841711 0.680699
O O8 0.404867 0.028073 0.425210
O O9 0.573120 0.930811 0.348916
O O10 0.750000 0.000000 0.426915
#
# Coordination Sequence:
#
# PCOD8217307 Si02
#       5
#     8   8   4   8   8
#     4  11  26  42  71 104 139 186 235 288 360 413
#     4  11  25  46  70 104 141 184 235 292 350 424
#     4  12  22  44  74 100 146 188 230 296 342 438
#     4  11  25  45  70 101 146 185 237 292 356 418
#     4  11  25  46  70 104 139 189 234 289 355 427
#
# _framework density 21.633642999999999
#
# number of rings (size 3 to 8) (size 9 to 14) (size 15 to 20)
#    0.000    0.889    4.444    1.333    6.222    0.000 
#    0.000    2.222    0.000    0.000    0.000    0.000 
#    0.000    0.000    0.000    0.000    0.000    0.000 
#
# Total GULP energy -445976.463014 kJ/mol
# GULP energy per Si atom -12388.235084 kJ/mol
# Density = 2.158440 g / cm^3
# Si number density = 21.633643 Si / 1000 Ang^3
#
#
#
# Elastic Constant Matrix: (Units=GPa)
#
#
# Indices 1 2 3 4 5 6 
#
# 1 146.5684 49.5077 45.4269 0.0000 0.0000 0.0000
# 2 49.5077 103.4136 18.6717 0.0000 0.0000 0.0000
# 3 45.4269 18.6717 97.4247 0.0000 0.0000 0.0000
# 4 0.0000 0.0000 0.0000 31.0411 0.0000 0.0000
# 5 0.0000 0.0000 0.0000 0.0000 32.9014 0.0000
# 6 0.0000 0.0000 0.0000 0.0000 0.0000 49.5751
#
#
#
# Elastic Compliance Matrix: (Units=1/GPa)
#
#
# Indices 1 2 3 4 5 6 
#
# 1 0.009199 -0.003759 -0.003569 0.000000 0.000000 0.000000
# 2 -0.003759 0.011553 -0.000461 0.000000 0.000000 0.000000
# 3 -0.003569 -0.000461 0.012017 0.000000 0.000000 0.000000
# 4 0.000000 0.000000 0.000000 0.032215 0.000000 0.000000
# 5 0.000000 0.000000 0.000000 0.000000 0.030394 0.000000
# 6 0.000000 0.000000 0.000000 0.000000 0.000000 0.020171
#
#
# Mechanical properties :
#
#
# Convention : Reuss Voigt Hill
#
# Bulk Modulus (GPa) = 58.17405 63.84660 61.01032
# Shear Modulus (GPa) = 36.53439 38.29019 37.41229
#
# Velocity S-wave (km/s) = 4.11393 4.21163 4.16307
# Velocity P-wave (km/s) = 7.03668 7.29569 7.16735
#
# Compressibility (1/GPa) = 0.01718979
#
# Stress axis : x y z
#
# Youngs Moduli (GPa) = 108.71173 86.55812 83.21746
#
# Poissons Ratio (x) = 0.32540 0.29697
# Poissons Ratio (y) = 0.40869 0.03838
# Poissons Ratio (z) = 0.38795 0.03992
#
# Static dielectric constant tensor:
#      x y z
#    x 6.448960 0.000000 0.000000 
#    y 0.000000 1.176660 0.000000 
#    z 0.000000 0.000000 -4.134880 
# 
# 
# High freq. dielectric constant tensor:
#      x y z
#    x 1.886790 0.000000 0.000000 
#    y 0.000000 1.839670 0.000000 
#    z 0.000000 0.000000 1.844650 
# 
# From -- ./inp_files/17776.got.cif
#   From: 2010.06.25/outbox.cif.g09.slc.cpg/sg52_9_cif.got.tgz:17776.got - 2010.06.26 19:32:48.
