data_PCOD8217881
_publ_section_title
;
Structure prediction by ZEFSAII (Michael W. Deem and Ramdas Pophale) SiO2 
 PCOD8217881
Probable space group: P M N A
;
_chemical_formula_sum "Si O2"
_cell_formula_units_Z 64
_cell_length_a 8.847539
_cell_length_b 18.390169
_cell_length_c 26.075052
_cell_angle_alpha 90.000000
_cell_angle_beta 90.000000
_cell_angle_gamma 90.000000
_cell_volume 4242.612715
_symmetry_space_group_name_H-M "P M N A"
_symmetry_group_IT_number 53
_symmetry_cell_setting 'orthorhombic'
loop_
_space_group_symop_operation_xyz
x,y,z
1/2-x,-y,1/2+z
x,-y,-z
1/2-x,y,1/2-z
-x,-y,-z
1/2+x,y,1/2-z
-x,y,z
1/2+x,-y,1/2+z
loop_
_atom_site_type_symbol
_atom_site_label
_atom_site_fract_x
_atom_site_fract_y
_atom_site_fract_z
Si Si1 0.820074 0.668817 0.195682
Si Si2 0.823364 0.918340 0.398898
Si Si3 0.171099 0.954997 0.947991
Si Si4 0.830081 0.457345 0.052939
Si Si5 0.321440 0.831375 0.002254
Si Si6 0.321052 0.822044 0.196639
Si Si7 0.176900 0.416347 0.605531
Si Si8 0.322761 0.333298 0.998211
O O1 0.750000 0.645244 0.250000
O O2 0.753506 0.746669 0.178776
O O3 0.772374 0.609555 0.154099
O O4 0.000000 0.673464 0.200082
O O5 0.765568 0.864186 0.443544
O O6 0.780967 0.883498 0.344590
O O7 0.000000 0.931336 0.404868
O O8 0.744647 0.997157 0.402679
O O9 0.000000 0.938724 0.932956
O O10 0.254568 0.877864 0.955010
O O11 0.187753 0.000000 0.000000
O O12 0.728031 0.501189 0.093580
O O13 0.000000 0.449373 0.074356
O O14 0.828633 0.500000 0.000000
O O15 0.760173 0.377862 0.043179
O O16 0.500000 0.833745 0.998376
O O17 0.262435 0.749005 0.998655
O O18 0.250000 0.848646 0.250000
O O19 0.500000 0.810001 0.202065
O O20 0.216577 0.364066 0.557925
O O21 0.000000 0.414946 0.618444
O O22 0.500000 0.339119 0.008485
#
# Coordination Sequence:
#
# PCOD8217881 Si02
#       8
#     8   8   8   8   8   8   8   8
#     4  11  21  32  45  62  85 112 143 178 215 250
#     4   9  17  29  44  59  79 111 145 173 204 247
#     4   9  17  27  39  58  82 106 135 172 211 247
#     4   9  17  28  41  60  85 111 140 174 211 249
#     4   9  16  27  42  59  81 110 143 173 204 246
#     4  10  19  31  45  62  84 110 142 177 212 247
#     4  10  18  30  46  62  83 112 146 178 210 249
#     4   9  17  28  43  62  84 113 145 175 208 249
#
# _framework density 15.085044
#
# number of rings (size 3 to 8) (size 9 to 14) (size 15 to 20)
#    0.000    2.500    0.000    4.125    0.000    7.000 
#    0.000    2.500    0.000    0.000    0.000    0.000 
#    0.000    1.000    0.000    5.250    0.000    5.000 
#
# Total GULP energy -793587.582803 kJ/mol
# GULP energy per Si atom -12399.805981 kJ/mol
# Density = 1.505071 g / cm^3
# Si number density = 15.085044 Si / 1000 Ang^3
#
#
#
# Elastic Constant Matrix: (Units=GPa)
#
#
# Indices 1 2 3 4 5 6 
#
# 1 74.1153 41.1950 36.9318 0.0000 0.0000 0.0000
# 2 41.1950 110.2871 48.9190 0.0000 0.0000 0.0000
# 3 36.9318 48.9190 67.5278 0.0000 0.0000 0.0000
# 4 0.0000 0.0000 0.0000 24.4400 0.0000 0.0000
# 5 0.0000 0.0000 0.0000 0.0000 21.4433 0.0000
# 6 0.0000 0.0000 0.0000 0.0000 0.0000 23.3773
#
#
#
# Elastic Compliance Matrix: (Units=1/GPa)
#
#
# Indices 1 2 3 4 5 6 
#
# 1 0.019558 -0.003773 -0.007963 0.000000 0.000000 0.000000
# 2 -0.003773 0.014088 -0.008142 0.000000 0.000000 0.000000
# 3 -0.007963 -0.008142 0.025062 0.000000 0.000000 0.000000
# 4 0.000000 0.000000 0.000000 0.040917 0.000000 0.000000
# 5 0.000000 0.000000 0.000000 0.000000 0.046635 0.000000
# 6 0.000000 0.000000 0.000000 0.000000 0.000000 0.042777
#
#
# Mechanical properties :
#
#
# Convention : Reuss Voigt Hill
#
# Bulk Modulus (GPa) = 52.76684 56.22464 54.49574
# Shear Modulus (GPa) = 21.26666 22.17774 21.72220
#
# Velocity S-wave (km/s) = 3.75878 3.83845 3.79883
# Velocity P-wave (km/s) = 7.34122 7.54968 7.44618
#
# Compressibility (1/GPa) = 0.01895130
#
# Stress axis : x y z
#
# Youngs Moduli (GPa) = 51.13079 70.98110 39.90068
#
# Poissons Ratio (x) = 0.26783 0.31772
# Poissons Ratio (y) = 0.19293 0.32488
# Poissons Ratio (z) = 0.40715 0.57795
#
# Static dielectric constant tensor:
#      x y z
#    x 2.973210 0.000000 0.000000 
#    y 0.000000 2.958310 0.000000 
#    z 0.000000 0.000000 2.703610 
# 
# 
# High freq. dielectric constant tensor:
#      x y z
#    x 1.589620 0.000000 0.000000 
#    y 0.000000 1.567430 0.000000 
#    z 0.000000 0.000000 1.542080 
# 
# From -- ./inp_files/34414.got.cif
#   From: 2010.03.12/outbox.cif.g09.slc.cpg/sg53_18_cif.got.tgz:34414.got - 2010.04.16 14:36:59.
