data_PCOD8217735
_publ_section_title
;
Structure prediction by ZEFSAII (Michael W. Deem and Ramdas Pophale) SiO2 
 PCOD8217735
Probable space group: P M N A
;
_chemical_formula_sum "Si O2"
_cell_formula_units_Z 48
_cell_length_a 9.404525
_cell_length_b 15.126928
_cell_length_c 19.044942
_cell_angle_alpha 90.000000
_cell_angle_beta 90.000000
_cell_angle_gamma 90.000000
_cell_volume 2709.363398
_symmetry_space_group_name_H-M "P M N A"
_symmetry_group_IT_number 53
_symmetry_cell_setting 'orthorhombic'
loop_
_space_group_symop_operation_xyz
x,y,z
1/2-x,-y,1/2+z
x,-y,-z
1/2-x,y,1/2-z
-x,-y,-z
1/2+x,y,1/2-z
-x,y,z
1/2+x,-y,1/2+z
loop_
_atom_site_type_symbol
_atom_site_label
_atom_site_fract_x
_atom_site_fract_y
_atom_site_fract_z
Si Si1 0.336057 0.716419 0.683566
Si Si2 0.169056 0.625549 0.052446
Si Si3 0.668740 0.441781 0.403836
Si Si4 0.668973 0.033203 0.676658
Si Si5 0.835368 0.125551 0.081475
Si Si6 0.831512 0.820404 0.068122
O O1 0.250000 0.751070 0.750000
O O2 0.500000 0.715583 0.705288
O O3 0.280194 0.618564 0.661311
O O4 0.308731 0.781213 0.618764
O O5 0.217325 0.544627 0.104225
O O6 0.230850 0.720578 0.077027
O O7 0.000000 0.630986 0.050965
O O8 0.228726 0.601000 0.975568
O O9 0.500000 0.436328 0.408450
O O10 0.750000 0.031399 0.750000
O O11 0.500000 0.024975 0.690210
O O12 0.709450 0.123989 0.636835
O O13 0.729876 0.953696 0.628048
O O14 0.000000 0.102539 0.074278
O O15 0.769330 0.133275 0.002914
O O16 0.000000 0.815477 0.058795
#
# Coordination Sequence:
#
# PCOD8217735 Si02
#       6
#     8   8   8   8   8   8
#     4  10  18  28  43  65  94 122 147 182 227 273
#     4   8  12  21  40  65  88 108 140 187 227 253
#     4   8  13  22  38  62  90 114 138 178 227 263
#     4  10  20  32  47  67  93 122 149 182 226 273
#     4   9  16  28  46  68  90 114 150 193 229 259
#     4   9  15  26  46  70  89 111 151 197 227 254
#
# _framework density 17.716338
#
# number of rings (size 3 to 8) (size 9 to 14) (size 15 to 20)
#    0.000    3.000    1.667    2.000    0.000    2.000 
#    0.000    0.833    0.000    3.000    0.000    2.333 
#    0.000    0.000    0.000    0.000    0.000    0.000 
#
# Total GULP energy -594657.314228 kJ/mol
# GULP energy per Si atom -12388.694046 kJ/mol
# Density = 1.767602 g / cm^3
# Si number density = 17.716338 Si / 1000 Ang^3
#
#
#
# Elastic Constant Matrix: (Units=GPa)
#
#
# Indices 1 2 3 4 5 6 
#
# 1 14.9797 17.0203 19.0284 0.0000 0.0000 0.0000
# 2 17.0203 139.0460 44.6700 0.0000 0.0000 0.0000
# 3 19.0284 44.6700 78.0281 0.0000 0.0000 0.0000
# 4 0.0000 0.0000 0.0000 13.3095 0.0000 0.0000
# 5 0.0000 0.0000 0.0000 0.0000 18.2419 0.0000
# 6 0.0000 0.0000 0.0000 0.0000 0.0000 7.6624
#
#
#
# Elastic Compliance Matrix: (Units=1/GPa)
#
#
# Indices 1 2 3 4 5 6 
#
# 1 0.099915 -0.005395 -0.021277 0.000000 0.000000 0.000000
# 2 -0.005395 0.009104 -0.003896 0.000000 0.000000 0.000000
# 3 -0.021277 -0.003896 0.020235 0.000000 0.000000 0.000000
# 4 0.000000 0.000000 0.000000 0.075134 0.000000 0.000000
# 5 0.000000 0.000000 0.000000 0.000000 0.054819 0.000000
# 6 0.000000 0.000000 0.000000 0.000000 0.000000 0.130507
#
#
# Mechanical properties :
#
#
# Convention : Reuss Voigt Hill
#
# Bulk Modulus (GPa) = 14.68055 43.72124 29.20090
# Shear Modulus (GPa) = 10.55837 17.93175 14.24506
#
# Velocity S-wave (km/s) = 2.44389 3.18490 2.83868
# Velocity P-wave (km/s) = 4.03335 6.18521 5.22134
#
# Compressibility (1/GPa) = 0.06811733
#
# Stress axis : x y z
#
# Youngs Moduli (GPa) = 10.00850 109.84238 49.41855
#
# Poissons Ratio (x) = 0.59257 1.05150
# Poissons Ratio (y) = 0.05399 0.19255
# Poissons Ratio (z) = 0.21296 0.42798
#
# Static dielectric constant tensor:
#      x y z
#    x 2.559840 0.000000 0.000000 
#    y 0.000000 3.810690 0.000000 
#    z 0.000000 0.000000 3.212740 
# 
# 
# High freq. dielectric constant tensor:
#      x y z
#    x 1.599700 0.000000 0.000000 
#    y 0.000000 1.708840 0.000000 
#    z 0.000000 0.000000 1.674060 
# 
# From -- ./inp_files/21784.got.cif
#   From: 2010.03.12/outbox.cif.g09.slc.cpg/sg53_11_cif.got.tgz:21784.got - 2010.04.16 14:36:59.
