data_PCOD8217212
_publ_section_title
;
Structure prediction by ZEFSAII (Michael W. Deem and Ramdas Pophale) SiO2 
 PCOD8217212
Probable space group: P N N A
;
_chemical_formula_sum "Si O2"
_cell_formula_units_Z 48
_cell_length_a 8.802644
_cell_length_b 9.445228
_cell_length_c 27.327414
_cell_angle_alpha 90.000000
_cell_angle_beta 90.000000
_cell_angle_gamma 90.000000
_cell_volume 2272.082624
_symmetry_space_group_name_H-M "P N N A"
_symmetry_group_IT_number 52
_symmetry_cell_setting 'orthorhombic'
loop_
_space_group_symop_operation_xyz
x,y,z
1/2-x,-y,z
x,1/2-y,1/2-z
1/2-x,1/2+y,1/2-z
-x,-y,-z
1/2+x,y,-z
-x,1/2+y,1/2+z
1/2+x,1/2-y,1/2+z
loop_
_atom_site_type_symbol
_atom_site_label
_atom_site_fract_x
_atom_site_fract_y
_atom_site_fract_z
Si Si1 0.586577 0.049645 0.357862
Si Si2 0.249773 0.834224 0.032577
Si Si3 0.420858 0.782620 0.936112
Si Si4 0.580568 0.003857 0.151291
Si Si5 0.903971 0.732231 0.873775
Si Si6 0.886345 0.235347 0.805203
O O1 0.472703 0.922391 0.368731
O O2 0.750000 0.000000 0.338122
O O3 0.613510 0.138610 0.407285
O O4 0.513061 0.146155 0.315775
O O5 0.365096 0.758259 0.069626
O O6 0.083541 0.770003 0.038586
O O7 0.250000 0.000000 0.044528
O O8 0.293807 0.803186 0.976975
O O9 0.416788 0.917718 0.900754
O O10 0.463404 0.081660 0.187740
O O11 0.750000 0.000000 0.173934
O O12 0.528322 0.843166 0.144765
O O13 0.751287 0.746196 0.842418
O O14 0.826432 0.250000 0.750000
#
# Coordination Sequence:
#
# PCOD8217212 Si02
#       6
#     8   8   8   8   8   8
#     4  11  26  46  65  98 139 176 217 275 342 396
#     4  12  23  40  65 101 132 178 234 274 323 389
#     4  11  25  41  64  96 136 182 226 272 324 392
#     4  11  23  43  69  99 135 174 219 274 335 397
#     4  12  23  43  69  97 137 175 221 280 331 396
#     4  11  25  47  72  99 130 172 224 276 337 403
#
# _framework density 21.125992
#
# number of rings (size 3 to 8) (size 9 to 14) (size 15 to 20)
#    0.000    0.667    5.000    4.000    4.667    4.000 
#    0.000    1.667    0.000    0.000    0.000    0.000 
#    0.000    0.000    0.000    0.000    0.000    0.000 
#
# Total GULP energy -595512.713121 kJ/mol
# GULP energy per Si atom -12406.514857 kJ/mol
# Density = 2.107791 g / cm^3
# Si number density = 21.125992 Si / 1000 Ang^3
#
#
#
# Elastic Constant Matrix: (Units=GPa)
#
#
# Indices 1 2 3 4 5 6 
#
# 1 90.1395 4.7738 -3.6727 0.0000 0.0000 0.0000
# 2 4.7738 88.5685 7.9773 0.0000 0.0000 0.0000
# 3 -3.6727 7.9773 88.8282 0.0000 0.0000 0.0000
# 4 0.0000 0.0000 0.0000 9.7974 0.0000 0.0000
# 5 0.0000 0.0000 0.0000 0.0000 131.0236 0.0000
# 6 0.0000 0.0000 0.0000 0.0000 0.0000 44.8431
#
#
#
# Elastic Compliance Matrix: (Units=1/GPa)
#
#
# Indices 1 2 3 4 5 6 
#
# 1 0.011149 -0.000648 0.000519 0.000000 0.000000 0.000000
# 2 -0.000648 0.011420 -0.001052 0.000000 0.000000 0.000000
# 3 0.000519 -0.001052 0.011374 0.000000 0.000000 0.000000
# 4 0.000000 0.000000 0.000000 0.102068 0.000000 0.000000
# 5 0.000000 0.000000 0.000000 0.000000 0.007632 0.000000
# 6 0.000000 0.000000 0.000000 0.000000 0.000000 0.022300
#
#
# Mechanical properties :
#
#
# Convention : Reuss Voigt Hill
#
# Bulk Modulus (GPa) = 31.66409 31.74368 31.70388
# Shear Modulus (GPa) = 27.95912 54.36336 41.16124
#
# Velocity S-wave (km/s) = 3.64187 5.07827 4.41882
# Velocity P-wave (km/s) = 5.71883 7.03161 6.40892
#
# Compressibility (1/GPa) = 0.03158151
#
# Stress axis : x y z
#
# Youngs Moduli (GPa) = 89.69116 87.56265 87.92242
#
# Poissons Ratio (x) = 0.05672 -0.04565
# Poissons Ratio (y) = 0.05809 0.09253
# Poissons Ratio (z) = -0.04656 0.09215
#
# Static dielectric constant tensor:
#      x y z
#    x 4.002900 0.000000 0.000000 
#    y 0.000000 3.908740 0.000000 
#    z 0.000000 0.000000 3.651280 
# 
# 
# High freq. dielectric constant tensor:
#      x y z
#    x 1.846510 0.000000 0.000000 
#    y 0.000000 1.834530 0.000000 
#    z 0.000000 0.000000 1.813140 
# 
# From -- ./inp_files/44406.got.cif
#   From: 2010.06.25/outbox.cif.g09.slc.cpg/sg52_23_cif.got.tgz:44406.got - 2010.06.26 19:32:48.
