data_PCOD8217651
_publ_section_title
;
Structure prediction by ZEFSAII (Michael W. Deem and Ramdas Pophale) SiO2 
 PCOD8217651
Probable space group: P M N A
;
_chemical_formula_sum "Si O2"
_cell_formula_units_Z 48
_cell_length_a 22.882579
_cell_length_b 11.244247
_cell_length_c 11.152317
_cell_angle_alpha 90.000000
_cell_angle_beta 90.000000
_cell_angle_gamma 90.000000
_cell_volume 2869.461837
_symmetry_space_group_name_H-M "P M N A"
_symmetry_group_IT_number 53
_symmetry_cell_setting 'orthorhombic'
loop_
_space_group_symop_operation_xyz
x,y,z
1/2-x,-y,1/2+z
x,-y,-z
1/2-x,y,1/2-z
-x,-y,-z
1/2+x,y,1/2-z
-x,y,z
1/2+x,-y,1/2+z
loop_
_atom_site_type_symbol
_atom_site_label
_atom_site_fract_x
_atom_site_fract_y
_atom_site_fract_z
Si Si1 0.187355 0.824327 0.881122
Si Si2 0.839473 0.375220 0.942452
Si Si3 0.934095 0.794373 0.168277
Si Si4 0.846800 0.148724 0.632134
Si Si5 0.099706 0.000000 0.000000
Si Si6 0.750000 0.690260 0.250000
Si Si7 0.683711 0.880989 0.875378
O O1 0.137625 0.914101 0.919094
O O2 0.176805 0.795630 0.739933
O O3 0.248359 0.888119 0.910501
O O4 0.187365 0.700843 0.950152
O O5 0.897575 0.310505 0.894733
O O6 0.789848 0.389994 0.838949
O O7 0.857580 0.500000 0.000000
O O8 0.906010 0.816530 0.299100
O O9 0.000000 0.749057 0.187547
O O10 0.937209 0.915273 0.088888
O O11 0.792310 0.226523 0.673764
O O12 0.854296 0.166241 0.488260
O O13 0.834819 0.012368 0.663038
#
# Coordination Sequence:
#
# PCOD8217651 Si02
#       7
#     8   8   8   8   4   4   8
#     4  10  18  29  51  77 109 134 168 205 272 323
#     4  10  22  36  53  78 106 139 178 225 262 311
#     4  10  21  35  55  74 104 145 184 225 263 309
#     4  10  18  30  50  76 111 135 171 207 269 321
#     4  10  17  32  50  78 102 132 173 220 270 312
#     4  10  18  34  50  74 108 134 168 214 270 318
#     4  10  18  27  50  82 109 140 162 207 261 347
#
# _framework density 16.727875999999998
#
# number of rings (size 3 to 8) (size 9 to 14) (size 15 to 20)
#    0.000    2.000    3.333    2.250    2.333    1.667 
#    0.000    1.667    0.000    0.000    0.000    1.167 
#    0.000    0.000    0.000    0.000    0.000    0.000 
#
# Total GULP energy -594922.647318 kJ/mol
# GULP energy per Si atom -12394.221819 kJ/mol
# Density = 1.668980 g / cm^3
# Si number density = 16.727876 Si / 1000 Ang^3
#
#
#
# Elastic Constant Matrix: (Units=GPa)
#
#
# Indices 1 2 3 4 5 6 
#
# 1 95.4217 29.7755 38.8059 0.0000 0.0000 0.0000
# 2 29.7755 77.9465 37.1442 0.0000 0.0000 0.0000
# 3 38.8059 37.1442 118.1341 0.0000 0.0000 0.0000
# 4 0.0000 0.0000 0.0000 -221.6594 0.0000 0.0000
# 5 0.0000 0.0000 0.0000 0.0000 11.6348 0.0000
# 6 0.0000 0.0000 0.0000 0.0000 0.0000 3.0874
#
#
#
# Elastic Compliance Matrix: (Units=1/GPa)
#
#
# Indices 1 2 3 4 5 6 
#
# 1 0.012818 -0.003399 -0.003142 0.000000 0.000000 0.000000
# 2 -0.003399 0.015992 -0.003912 0.000000 0.000000 0.000000
# 3 -0.003142 -0.003912 0.010727 0.000000 0.000000 0.000000
# 4 0.000000 0.000000 0.000000 -0.004511 0.000000 0.000000
# 5 0.000000 0.000000 0.000000 0.000000 0.085949 0.000000
# 6 0.000000 0.000000 0.000000 0.000000 0.000000 0.323895
#
#
# Mechanical properties :
#
#
# Convention : Reuss Voigt Hill
#
# Bulk Modulus (GPa) = 53.67254 55.88369 54.77812
# Shear Modulus (GPa) = 10.59354 -29.00232 -9.20439
#
# Velocity S-wave (km/s) = 2.51925 -4.16838 -2.34827
# Velocity P-wave (km/s) = 6.37319 3.21137 5.04631
#
# Compressibility (1/GPa) = 0.01863150
#
# Stress axis : x y z
#
# Youngs Moduli (GPa) = 78.01379 62.53179 93.22352
#
# Poissons Ratio (x) = 0.21257 0.29289
# Poissons Ratio (y) = 0.26520 0.36465
# Poissons Ratio (z) = 0.24511 0.24460
#
# Static dielectric constant tensor:
#      x y z
#    x 2.906370 0.000000 0.000000 
#    y 0.000000 2.987970 0.000000 
#    z 0.000000 0.000000 3.443940 
# 
# 
# High freq. dielectric constant tensor:
#      x y z
#    x 1.621690 0.000000 0.000000 
#    y 0.000000 1.616380 0.000000 
#    z 0.000000 0.000000 1.662420 
# 
# From -- ./inp_files/18402.got.cif
#   From: 2010.03.12/outbox.cif.g09.slc.cpg/sg53_10_cif.got.tgz:18402.got - 2010.04.16 14:36:59.
