data_PCOD8217994
_publ_section_title
;
Structure prediction by ZEFSAII (Michael W. Deem and Ramdas Pophale) SiO2 
 PCOD8217994
Probable space group: P M N A
;
_chemical_formula_sum "Si O2"
_cell_formula_units_Z 48
_cell_length_a 8.914795
_cell_length_b 14.862401
_cell_length_c 20.775643
_cell_angle_alpha 90.000000
_cell_angle_beta 90.000000
_cell_angle_gamma 90.000000
_cell_volume 2752.674182
_symmetry_space_group_name_H-M "P M N A"
_symmetry_group_IT_number 53
_symmetry_cell_setting 'orthorhombic'
loop_
_space_group_symop_operation_xyz
x,y,z
1/2-x,-y,1/2+z
x,-y,-z
1/2-x,y,1/2-z
-x,-y,-z
1/2+x,y,1/2-z
-x,y,z
1/2+x,-y,1/2+z
loop_
_atom_site_type_symbol
_atom_site_label
_atom_site_fract_x
_atom_site_fract_y
_atom_site_fract_z
Si Si1 0.672440 0.298076 0.152091
Si Si2 0.329352 0.497891 0.187569
Si Si3 0.677542 0.881295 0.686255
Si Si4 0.323705 0.278833 0.479085
Si Si5 0.324098 0.922965 0.545220
Si Si6 0.822212 0.573062 0.446742
O O1 0.500000 0.265242 0.149853
O O2 0.688470 0.390455 0.190494
O O3 0.774901 0.223203 0.185925
O O4 0.730637 0.317805 0.080529
O O5 0.250000 0.540042 0.250000
O O6 0.500000 0.527541 0.191372
O O7 0.261774 0.538563 0.121996
O O8 0.750000 0.927717 0.750000
O O9 0.500000 0.887164 0.691953
O O10 0.735992 0.926860 0.619431
O O11 0.500000 0.293934 0.467862
O O12 0.287652 0.172933 0.487143
O O13 0.264163 0.332958 0.540901
O O14 0.500000 0.939540 0.549057
O O15 0.249419 0.000000 0.500000
O O16 0.775184 0.500000 0.500000
O O17 0.000000 0.589119 0.447668
#
# Coordination Sequence:
#
# PCOD8217994 Si02
#       6
#     8   8   8   8   8   8
#     4  10  18  31  48  68  99 136 166 196 244 301
#     4  10  21  33  47  67  94 132 169 205 246 293
#     4  10  19  30  47  73 101 130 163 200 250 306
#     4  10  19  30  50  79 100 124 167 213 252 292
#     4   8  16  32  52  73  99 129 163 203 250 300
#     4  10  19  35  52  68  97 136 172 201 246 301
#
# _framework density 17.437588999999999
#
# number of rings (size 3 to 8) (size 9 to 14) (size 15 to 20)
#    0.000    2.333    1.667    3.000    0.000    3.667 
#    0.000    0.000    0.000   19.000    0.000    4.667 
#    0.000    0.000    0.000    0.000    0.000    0.000 
#
# Total GULP energy -594995.195411 kJ/mol
# GULP energy per Si atom -12395.733238 kJ/mol
# Density = 1.739790 g / cm^3
# Si number density = 17.437589 Si / 1000 Ang^3
#
#
#
# Elastic Constant Matrix: (Units=GPa)
#
#
# Indices 1 2 3 4 5 6 
#
# 1 48.0199 24.7356 35.4030 0.0000 0.0000 0.0000
# 2 24.7356 68.7433 58.0401 0.0000 0.0000 0.0000
# 3 35.4030 58.0401 152.7158 0.0000 0.0000 0.0000
# 4 0.0000 0.0000 0.0000 21.3353 0.0000 0.0000
# 5 0.0000 0.0000 0.0000 0.0000 30.2064 0.0000
# 6 0.0000 0.0000 0.0000 0.0000 0.0000 14.7536
#
#
#
# Elastic Compliance Matrix: (Units=1/GPa)
#
#
# Indices 1 2 3 4 5 6 
#
# 1 0.026964 -0.006515 -0.003775 0.000000 0.000000 0.000000
# 2 -0.006515 0.022994 -0.007229 0.000000 0.000000 0.000000
# 3 -0.003775 -0.007229 0.010170 0.000000 0.000000 0.000000
# 4 0.000000 0.000000 0.000000 0.046871 0.000000 0.000000
# 5 0.000000 0.000000 0.000000 0.000000 0.033106 0.000000
# 6 0.000000 0.000000 0.000000 0.000000 0.000000 0.067780
#
#
# Mechanical properties :
#
#
# Convention : Reuss Voigt Hill
#
# Bulk Modulus (GPa) = 39.85445 56.20404 48.02925
# Shear Modulus (GPa) = 19.89765 23.34575 21.62170
#
# Velocity S-wave (km/s) = 3.38165 3.66295 3.52511
# Velocity P-wave (km/s) = 6.17677 7.08457 6.64619
#
# Compressibility (1/GPa) = 0.02509130
#
# Stress axis : x y z
#
# Youngs Moduli (GPa) = 37.08692 43.48871 98.32398
#
# Poissons Ratio (x) = 0.28334 0.37114
# Poissons Ratio (y) = 0.24163 0.71076
# Poissons Ratio (z) = 0.13999 0.31437
#
# Static dielectric constant tensor:
#      x y z
#    x 3.113910 0.000000 0.000000 
#    y 0.000000 3.102350 0.000000 
#    z 0.000000 0.000000 3.565150 
# 
# 
# High freq. dielectric constant tensor:
#      x y z
#    x 1.664010 0.000000 0.000000 
#    y 0.000000 1.637720 0.000000 
#    z 0.000000 0.000000 1.679040 
# 
# From -- ./inp_files/30470.got.cif
#   From: 2010.03.12/outbox.cif.g09.slc.cpg/sg53_16_cif.got.tgz:30470.got - 2010.04.16 14:36:59.
