data_PCOD8217697
_publ_section_title
;
Structure prediction by ZEFSAII (Michael W. Deem and Ramdas Pophale) SiO2 
 PCOD8217697
Probable space group: P M N A
;
_chemical_formula_sum "Si O2"
_cell_formula_units_Z 64
_cell_length_a 9.082186
_cell_length_b 18.102411
_cell_length_c 26.446478
_cell_angle_alpha 90.000000
_cell_angle_beta 90.000000
_cell_angle_gamma 90.000000
_cell_volume 4348.051266
_symmetry_space_group_name_H-M "P M N A"
_symmetry_group_IT_number 53
_symmetry_cell_setting 'orthorhombic'
loop_
_space_group_symop_operation_xyz
x,y,z
1/2-x,-y,1/2+z
x,-y,-z
1/2-x,y,1/2-z
-x,-y,-z
1/2+x,y,1/2-z
-x,y,z
1/2+x,-y,1/2+z
loop_
_atom_site_type_symbol
_atom_site_label
_atom_site_fract_x
_atom_site_fract_y
_atom_site_fract_z
Si Si1 0.325640 0.907464 0.103268
Si Si2 0.671915 0.164119 0.508582
Si Si3 0.173297 0.583130 0.100777
Si Si4 0.828031 0.331320 0.800808
Si Si5 0.333729 0.456282 0.052165
Si Si6 0.161614 0.949879 0.549173
Si Si7 0.326291 0.839059 0.301686
Si Si8 0.670515 0.334058 0.499767
O O1 0.500000 0.892861 0.107047
O O2 0.262659 0.857434 0.058138
O O3 0.244010 0.887644 0.154514
O O4 0.291391 0.994673 0.094267
O O5 0.500000 0.151685 0.519571
O O6 0.720900 0.115393 0.459949
O O7 0.707827 0.248211 0.495090
O O8 0.230151 0.620093 0.152475
O O9 0.250458 0.503585 0.094968
O O10 0.000000 0.570013 0.101945
O O11 0.218102 0.637969 0.055299
O O12 0.750000 0.359205 0.750000
O O13 0.789756 0.246400 0.812659
O O14 0.000000 0.341928 0.792713
O O15 0.500000 0.443786 0.070105
O O16 0.258443 0.376691 0.044279
O O17 0.323534 0.500000 0.000000
O O18 0.000000 0.915226 0.559973
O O19 0.151710 0.000000 0.500000
O O20 0.250000 0.864671 0.250000
O O21 0.500000 0.853503 0.298583
O O22 0.500000 0.350605 0.490677
#
# Coordination Sequence:
#
# PCOD8217697 Si02
#       8
#     8   8   8   8   8   8   8   8
#     4  10  19  30  43  59  82 113 144 172 207 247
#     4  10  18  27  42  63  84 108 141 175 205 243
#     4   9  16  28  43  56  77 110 140 165 200 242
#     4   9  18  30  43  60  82 108 138 172 207 241
#     4   9  17  27  39  58  80 102 133 170 203 237
#     4   8  16  29  41  56  81 110 138 169 206 246
#     4  10  19  31  45  62  84 109 141 177 210 244
#     4   9  17  28  41  58  81 109 138 167 202 245
#
# _framework density 14.719238000000001
#
# number of rings (size 3 to 8) (size 9 to 14) (size 15 to 20)
#    0.000    2.750    0.000    3.000    0.000    8.250 
#    0.000    2.500    0.000    0.000    0.000    0.000 
#    0.000    1.000    0.000    5.500    0.000    4.250 
#
# Total GULP energy -793477.670717 kJ/mol
# GULP energy per Si atom -12398.088605 kJ/mol
# Density = 1.468574 g / cm^3
# Si number density = 14.719238 Si / 1000 Ang^3
#
#
#
# Elastic Constant Matrix: (Units=GPa)
#
#
# Indices 1 2 3 4 5 6 
#
# 1 75.8310 50.9520 44.4703 0.0000 0.0000 0.0000
# 2 50.9520 91.8660 54.1219 0.0000 0.0000 0.0000
# 3 44.4703 54.1219 89.3175 0.0000 0.0000 0.0000
# 4 0.0000 0.0000 0.0000 26.4964 0.0000 0.0000
# 5 0.0000 0.0000 0.0000 0.0000 22.9867 0.0000
# 6 0.0000 0.0000 0.0000 0.0000 0.0000 20.4086
#
#
#
# Elastic Compliance Matrix: (Units=1/GPa)
#
#
# Indices 1 2 3 4 5 6 
#
# 1 0.022761 -0.009250 -0.005728 0.000000 0.000000 0.000000
# 2 -0.009250 0.020688 -0.007930 0.000000 0.000000 0.000000
# 3 -0.005728 -0.007930 0.018853 0.000000 0.000000 0.000000
# 4 0.000000 0.000000 0.000000 0.037741 0.000000 0.000000
# 5 0.000000 0.000000 0.000000 0.000000 0.043503 0.000000
# 6 0.000000 0.000000 0.000000 0.000000 0.000000 0.048999
#
#
# Mechanical properties :
#
#
# Convention : Reuss Voigt Hill
#
# Bulk Modulus (GPa) = 60.65565 61.78921 61.22243
# Shear Modulus (GPa) = 20.50384 21.14301 20.82342
#
# Velocity S-wave (km/s) = 3.73633 3.79412 3.76534
# Velocity P-wave (km/s) = 7.74025 7.82710 7.78380
#
# Compressibility (1/GPa) = 0.01648651
#
# Stress axis : x y z
#
# Youngs Moduli (GPa) = 43.93440 48.33776 53.04142
#
# Poissons Ratio (x) = 0.44711 0.30380
# Poissons Ratio (y) = 0.40638 0.42064
# Poissons Ratio (z) = 0.25164 0.38334
#
# Static dielectric constant tensor:
#      x y z
#    x 2.941240 0.000000 0.000000 
#    y 0.000000 2.904870 0.000000 
#    z 0.000000 0.000000 2.776640 
# 
# 
# High freq. dielectric constant tensor:
#      x y z
#    x 1.573960 0.000000 0.000000 
#    y 0.000000 1.549290 0.000000 
#    z 0.000000 0.000000 1.531650 
# 
# From -- ./inp_files/34506.got.cif
#   From: 2010.03.12/outbox.cif.g09.slc.cpg/sg53_18_cif.got.tgz:34506.got - 2010.04.16 14:36:59.
