data_PCOD8217824
_publ_section_title
;
Structure prediction by ZEFSAII (Michael W. Deem and Ramdas Pophale) SiO2 
 PCOD8217824
Probable space group: P M N A
;
_chemical_formula_sum "Si O2"
_cell_formula_units_Z 64
_cell_length_a 17.954646
_cell_length_b 9.495835
_cell_length_c 24.643597
_cell_angle_alpha 90.000000
_cell_angle_beta 90.000000
_cell_angle_gamma 90.000000
_cell_volume 4201.594198
_symmetry_space_group_name_H-M "P M N A"
_symmetry_group_IT_number 53
_symmetry_cell_setting 'orthorhombic'
loop_
_space_group_symop_operation_xyz
x,y,z
1/2-x,-y,1/2+z
x,-y,-z
1/2-x,y,1/2-z
-x,-y,-z
1/2+x,y,1/2-z
-x,y,z
1/2+x,-y,1/2+z
loop_
_atom_site_type_symbol
_atom_site_label
_atom_site_fract_x
_atom_site_fract_y
_atom_site_fract_z
Si Si1 0.583444 0.610079 0.041646
Si Si2 0.671775 0.218194 0.140442
Si Si3 0.584021 0.127751 0.033961
Si Si4 0.586145 0.457337 0.747095
Si Si5 0.205806 0.042965 0.194188
Si Si6 0.913785 0.219284 0.248694
Si Si7 0.796088 0.276558 0.805134
Si Si8 0.325238 0.546305 0.143974
O O1 0.500000 0.560977 0.059016
O O2 0.634784 0.618558 0.093719
O O3 0.619201 0.500000 0.000000
O O4 0.581155 0.755793 0.011688
O O5 0.633823 0.166038 0.085426
O O6 0.746993 0.128177 0.149284
O O7 0.615618 0.194430 0.190374
O O8 0.692935 0.382144 0.134918
O O9 0.500000 0.094497 0.054687
O O10 0.619448 0.000000 0.000000
O O11 0.500000 0.417286 0.748528
O O12 0.599258 0.619552 0.730449
O O13 0.625160 0.354285 0.703802
O O14 0.619698 0.430804 0.806054
O O15 0.250000 0.043074 0.250000
O O16 0.127574 0.121142 0.204831
O O17 0.191161 0.883172 0.173990
O O18 0.000000 0.177808 0.248021
O O19 0.750000 0.275230 0.750000
O O20 0.751357 0.368384 0.849013
#
# Coordination Sequence:
#
# PCOD8217824 Si02
#       8
#     8   8   8   8   8   8   8   8
#     4  10  19  31  46  65  90 119 154 191 222 255
#     4  10  18  30  47  64  88 122 156 186 221 262
#     4  10  21  33  44  63  92 123 154 190 226 259
#     4   9  17  29  46  67  90 116 149 186 224 267
#     4   9  18  30  43  62  89 118 148 183 222 268
#     4   9  17  29  47  67  88 117 152 185 220 268
#     4   9  18  30  43  63  90 116 146 185 226 268
#     4  10  18  29  47  66  88 120 154 187 224 262
#
# _framework density 15.232313
#
# number of rings (size 3 to 8) (size 9 to 14) (size 15 to 20)
#    0.000    2.500    1.250    1.500    1.750    4.500 
#    0.000    0.000    0.000    0.000    0.000    0.000 
#    0.000    2.000    0.000    0.125    0.000    0.000 
#
# Total GULP energy -793425.581152 kJ/mol
# GULP energy per Si atom -12397.274705 kJ/mol
# Density = 1.519764 g / cm^3
# Si number density = 15.232313 Si / 1000 Ang^3
#
#
#
# Elastic Constant Matrix: (Units=GPa)
#
#
# Indices 1 2 3 4 5 6 
#
# 1 96.3959 55.0701 43.1605 0.0000 0.0000 0.0000
# 2 55.0701 101.5367 39.5480 0.0000 0.0000 0.0000
# 3 43.1605 39.5480 66.8953 0.0000 0.0000 0.0000
# 4 0.0000 0.0000 0.0000 19.4395 0.0000 0.0000
# 5 0.0000 0.0000 0.0000 0.0000 31.9648 0.0000
# 6 0.0000 0.0000 0.0000 0.0000 0.0000 23.4857
#
#
#
# Elastic Compliance Matrix: (Units=1/GPa)
#
#
# Indices 1 2 3 4 5 6 
#
# 1 0.017430 -0.006591 -0.007349 0.000000 0.000000 0.000000
# 2 -0.006591 0.015287 -0.004785 0.000000 0.000000 0.000000
# 3 -0.007349 -0.004785 0.022519 0.000000 0.000000 0.000000
# 4 0.000000 0.000000 0.000000 0.051442 0.000000 0.000000
# 5 0.000000 0.000000 0.000000 0.000000 0.031284 0.000000
# 6 0.000000 0.000000 0.000000 0.000000 0.000000 0.042579
#
#
# Mechanical properties :
#
#
# Convention : Reuss Voigt Hill
#
# Bulk Modulus (GPa) = 56.22471 60.04279 58.13375
# Shear Modulus (GPa) = 22.32939 23.44797 22.88868
#
# Velocity S-wave (km/s) = 3.83289 3.92772 3.88060
# Velocity P-wave (km/s) = 7.52195 7.75067 7.63717
#
# Compressibility (1/GPa) = 0.01778577
#
# Stress axis : x y z
#
# Youngs Moduli (GPa) = 57.37347 65.41455 44.40629
#
# Poissons Ratio (x) = 0.43114 0.32635
# Poissons Ratio (y) = 0.37814 0.21250
# Poissons Ratio (z) = 0.42164 0.31303
#
# Static dielectric constant tensor:
#      x y z
#    x 2.895200 0.000000 0.000000 
#    y 0.000000 3.124290 0.000000 
#    z 0.000000 0.000000 2.666510 
# 
# 
# High freq. dielectric constant tensor:
#      x y z
#    x 1.568140 0.000000 0.000000 
#    y 0.000000 1.599630 0.000000 
#    z 0.000000 0.000000 1.550460 
# 
# From -- ./inp_files/33080.got.cif
#   From: 2010.03.12/outbox.cif.g09.slc.cpg/sg53_17_cif.got.tgz:33080.got - 2010.04.16 14:36:59.
