data_PCOD8217767
_publ_section_title
;
Structure prediction by ZEFSAII (Michael W. Deem and Ramdas Pophale) SiO2 
 PCOD8217767
Probable space group: P M N A
;
_chemical_formula_sum "Si O2"
_cell_formula_units_Z 64
_cell_length_a 9.245630
_cell_length_b 14.053506
_cell_length_c 28.552231
_cell_angle_alpha 90.000000
_cell_angle_beta 90.000000
_cell_angle_gamma 90.000000
_cell_volume 3709.891783
_symmetry_space_group_name_H-M "P M N A"
_symmetry_group_IT_number 53
_symmetry_cell_setting 'orthorhombic'
loop_
_space_group_symop_operation_xyz
x,y,z
1/2-x,-y,1/2+z
x,-y,-z
1/2-x,y,1/2-z
-x,-y,-z
1/2+x,y,1/2-z
-x,y,z
1/2+x,-y,1/2+z
loop_
_atom_site_type_symbol
_atom_site_label
_atom_site_fract_x
_atom_site_fract_y
_atom_site_fract_z
Si Si1 0.332832 0.011286 0.942508
Si Si2 0.340424 0.806222 0.008314
Si Si3 0.339631 0.296484 0.089171
Si Si4 0.835286 0.001502 0.797160
Si Si5 0.669187 0.868558 0.616979
Si Si6 0.664379 0.319975 0.576610
Si Si7 0.334938 0.141092 0.627248
Si Si8 0.171425 0.501498 0.553679
O O1 0.500000 0.983202 0.933780
O O2 0.314491 0.075747 0.992024
O O3 0.283798 0.095922 0.907171
O O4 0.232353 0.921043 0.929509
O O5 0.500000 0.790315 0.031648
O O6 0.217019 0.747651 0.034568
O O7 0.347123 0.766784 0.956836
O O8 0.500000 0.305652 0.111230
O O9 0.234361 0.237936 0.123564
O O10 0.276865 0.401085 0.078127
O O11 0.750000 0.985686 0.750000
O O12 0.787460 0.925467 0.836413
O O13 0.000000 0.986256 0.783272
O O14 0.806616 0.106324 0.819438
O O15 0.500000 0.859516 0.609536
O O16 0.500000 0.350135 0.566188
O O17 0.676467 0.256159 0.623978
O O18 0.759202 0.414469 0.582090
O O19 0.500000 0.108260 0.613082
O O20 0.225818 0.500000 0.500000
O O21 0.000000 0.491185 0.555158
#
# Coordination Sequence:
#
# PCOD8217767 Si02
#       8
#     8   8   8   8   8   8   8   8
#     4   9  16  27  46  66  87 121 164 198 226 275
#     4   9  17  30  45  63  89 124 164 203 241 273
#     4  10  20  33  48  64  88 126 169 206 238 276
#     4   9  18  33  53  75  99 124 149 182 231 287
#     4  10  21  35  47  65  98 127 150 192 244 287
#     4  10  18  28  46  69  95 126 162 200 240 287
#     4   8  16  30  45  68 101 128 148 185 238 282
#     4  10  19  33  49  65  92 128 166 211 251 274
#
# _framework density 17.251177999999999
#
# number of rings (size 3 to 8) (size 9 to 14) (size 15 to 20)
#    0.000    2.625    1.250    1.875    0.000    5.250 
#    0.000    2.500    0.000    0.000    0.000    0.875 
#    0.000    2.000    0.000    0.000    0.000    0.000 
#
# Total GULP energy -793042.879420 kJ/mol
# GULP energy per Si atom -12391.294991 kJ/mol
# Density = 1.721191 g / cm^3
# Si number density = 17.251178 Si / 1000 Ang^3
#
#
#
# Elastic Constant Matrix: (Units=GPa)
#
#
# Indices 1 2 3 4 5 6 
#
# 1 67.0403 47.5201 31.9421 0.0000 0.0000 0.0000
# 2 47.5201 143.1007 30.2995 0.0000 0.0000 0.0000
# 3 31.9421 30.2995 50.7797 0.0000 0.0000 0.0000
# 4 0.0000 0.0000 0.0000 12.6933 0.0000 0.0000
# 5 0.0000 0.0000 0.0000 0.0000 22.1840 0.0000
# 6 0.0000 0.0000 0.0000 0.0000 0.0000 27.3000
#
#
#
# Elastic Compliance Matrix: (Units=1/GPa)
#
#
# Indices 1 2 3 4 5 6 
#
# 1 0.024710 -0.005625 -0.012187 0.000000 0.000000 0.000000
# 2 -0.005625 0.009279 -0.001998 0.000000 0.000000 0.000000
# 3 -0.012187 -0.001998 0.028551 0.000000 0.000000 0.000000
# 4 0.000000 0.000000 0.000000 0.078782 0.000000 0.000000
# 5 0.000000 0.000000 0.000000 0.000000 0.045078 0.000000
# 6 0.000000 0.000000 0.000000 0.000000 0.000000 0.036630
#
#
# Mechanical properties :
#
#
# Convention : Reuss Voigt Hill
#
# Bulk Modulus (GPa) = 43.63075 53.38266 48.50670
# Shear Modulus (GPa) = 18.49853 22.51272 20.50562
#
# Velocity S-wave (km/s) = 3.27816 3.61639 3.45142
# Velocity P-wave (km/s) = 6.29879 6.96055 6.63792
#
# Compressibility (1/GPa) = 0.02291961
#
# Stress axis : x y z
#
# Youngs Moduli (GPa) = 40.46872 107.76798 35.02454
#
# Poissons Ratio (x) = 0.60622 0.42685
# Poissons Ratio (y) = 0.22765 0.06999
# Poissons Ratio (z) = 0.49320 0.21535
#
# Static dielectric constant tensor:
#      x y z
#    x 3.354340 0.000000 0.000000 
#    y 0.000000 3.545550 0.000000 
#    z 0.000000 0.000000 2.905160 
# 
# 
# High freq. dielectric constant tensor:
#      x y z
#    x 1.671610 0.000000 0.000000 
#    y 0.000000 1.677310 0.000000 
#    z 0.000000 0.000000 1.613740 
# 
# From -- ./inp_files/38456.got.cif
#   From: 2010.03.12/outbox.cif.g09.slc.cpg/sg53_20_cif.got.tgz:38456.got - 2010.04.16 14:36:59.
