data_PCOD8217475
_publ_section_title
;
Structure prediction by ZEFSAII (Michael W. Deem and Ramdas Pophale) SiO2 
 PCOD8217475
Probable space group: P M N A
;
_chemical_formula_sum "Si O2"
_cell_formula_units_Z 64
_cell_length_a 8.960689
_cell_length_b 15.192927
_cell_length_c 29.588337
_cell_angle_alpha 90.000000
_cell_angle_beta 90.000000
_cell_angle_gamma 90.000000
_cell_volume 4028.129388
_symmetry_space_group_name_H-M "P M N A"
_symmetry_group_IT_number 53
_symmetry_cell_setting 'orthorhombic'
loop_
_space_group_symop_operation_xyz
x,y,z
1/2-x,-y,1/2+z
x,-y,-z
1/2-x,y,1/2-z
-x,-y,-z
1/2+x,y,1/2-z
-x,y,z
1/2+x,-y,1/2+z
loop_
_atom_site_type_symbol
_atom_site_label
_atom_site_fract_x
_atom_site_fract_y
_atom_site_fract_z
Si Si1 0.322508 0.536279 0.112193
Si Si2 0.676599 0.493977 0.296655
Si Si3 0.322555 0.873636 0.032370
Si Si4 0.676473 0.944290 0.937795
Si Si5 0.322589 0.679318 0.040495
Si Si6 0.673950 0.291741 0.295005
Si Si7 0.673604 0.789838 0.877970
Si Si8 0.174091 0.369406 0.442903
O O1 0.500000 0.530610 0.119446
O O2 0.244461 0.546427 0.160890
O O3 0.273617 0.621152 0.083137
O O4 0.258143 0.450829 0.085573
O O5 0.750000 0.528681 0.250000
O O6 0.500000 0.508420 0.294060
O O7 0.721694 0.392282 0.304152
O O8 0.500000 0.867226 0.031056
O O9 0.258489 0.778581 0.047559
O O10 0.271820 0.953203 0.066253
O O11 0.258731 0.898706 0.982997
O O12 0.500000 0.940794 0.942638
O O13 0.724109 0.887087 0.894377
O O14 0.500000 0.681802 0.036402
O O15 0.258709 0.637476 0.993667
O O16 0.750000 0.255457 0.250000
O O17 0.500000 0.283098 0.288487
O O18 0.726088 0.230317 0.335292
O O19 0.500000 0.785318 0.864359
O O20 0.708664 0.721656 0.917923
O O21 0.000000 0.388226 0.446764
#
# Coordination Sequence:
#
# PCOD8217475 Si02
#       8
#     8   8   8   8   8   8   8   8
#     4  10  18  27  42  64  89 119 151 181 217 257
#     4  10  20  33  48  64  85 111 143 181 221 263
#     4   8  12  20  33  57  90 117 145 183 217 243
#     4   8  13  20  35  59  88 117 144 178 218 250
#     4   9  15  23  37  60  90 122 155 187 214 245
#     4  10  20  32  46  64  86 113 143 177 218 264
#     4  10  16  25  43  65  89 117 147 179 216 256
#     4   9  15  23  36  59  90 120 151 181 207 244
#
# _framework density 15.888268
#
# number of rings (size 3 to 8) (size 9 to 14) (size 15 to 20)
#    0.000    2.750    2.500    1.875    0.000    2.500 
#    0.000    0.000    0.000    2.250    0.000    3.500 
#    0.000    0.000    0.000    0.000    0.000    0.000 
#
# Total GULP energy -793157.317188 kJ/mol
# GULP energy per Si atom -12393.083081 kJ/mol
# Density = 1.585211 g / cm^3
# Si number density = 15.888268 Si / 1000 Ang^3
#
#
#
# Elastic Constant Matrix: (Units=GPa)
#
#
# Indices 1 2 3 4 5 6 
#
# 1 27.9012 16.9611 30.2891 0.0000 0.0000 0.0000
# 2 16.9611 89.6037 47.1870 0.0000 0.0000 0.0000
# 3 30.2891 47.1870 118.7585 0.0000 0.0000 0.0000
# 4 0.0000 0.0000 0.0000 9.8711 0.0000 0.0000
# 5 0.0000 0.0000 0.0000 0.0000 19.6146 0.0000
# 6 0.0000 0.0000 0.0000 0.0000 0.0000 9.0734
#
#
#
# Elastic Compliance Matrix: (Units=1/GPa)
#
#
# Indices 1 2 3 4 5 6 
#
# 1 0.050420 -0.003505 -0.011467 0.000000 0.000000 0.000000
# 2 -0.003505 0.014357 -0.004811 0.000000 0.000000 0.000000
# 3 -0.011467 -0.004811 0.013256 0.000000 0.000000 0.000000
# 4 0.000000 0.000000 0.000000 0.101306 0.000000 0.000000
# 5 0.000000 0.000000 0.000000 0.000000 0.050982 0.000000
# 6 0.000000 0.000000 0.000000 0.000000 0.000000 0.110213
#
#
# Mechanical properties :
#
#
# Convention : Reuss Voigt Hill
#
# Bulk Modulus (GPa) = 25.99558 47.23753 36.61655
# Shear Modulus (GPa) = 12.72516 17.16689 14.94603
#
# Velocity S-wave (km/s) = 2.83312 3.29062 3.07040
# Velocity P-wave (km/s) = 5.20568 6.65081 5.97211
#
# Compressibility (1/GPa) = 0.03846808
#
# Stress axis : x y z
#
# Youngs Moduli (GPa) = 19.83350 69.65185 75.43540
#
# Poissons Ratio (x) = 0.24416 0.86499
# Poissons Ratio (y) = 0.06952 0.36289
# Poissons Ratio (z) = 0.22742 0.33506
#
# Static dielectric constant tensor:
#      x y z
#    x 2.555440 0.000000 0.000000 
#    y 0.000000 3.237620 0.000000 
#    z 0.000000 0.000000 2.160180 
# 
# 
# High freq. dielectric constant tensor:
#      x y z
#    x 1.563600 0.000000 0.000000 
#    y 0.000000 1.598300 0.000000 
#    z 0.000000 0.000000 1.600740 
# 
# From -- ./inp_files/38407.got.cif
#   From: 2010.03.12/outbox.cif.g09.slc.cpg/sg53_20_cif.got.tgz:38407.got - 2010.04.16 14:36:59.
