data_PCOD8217028
_publ_section_title
;
Structure prediction by ZEFSAII (Michael W. Deem and Ramdas Pophale) SiO2 
 PCOD8217028
Probable space group: P N N A
;
_chemical_formula_sum "Si O2"
_cell_formula_units_Z 36
_cell_length_a 10.233926
_cell_length_b 9.538167
_cell_length_c 19.659119
_cell_angle_alpha 90.000000
_cell_angle_beta 90.000000
_cell_angle_gamma 90.000000
_cell_volume 1918.983524
_symmetry_space_group_name_H-M "P N N A"
_symmetry_group_IT_number 52
_symmetry_cell_setting 'orthorhombic'
loop_
_space_group_symop_operation_xyz
x,y,z
1/2-x,-y,z
x,1/2-y,1/2-z
1/2-x,1/2+y,1/2-z
-x,-y,-z
1/2+x,y,-z
-x,1/2+y,1/2+z
1/2+x,1/2-y,1/2+z
loop_
_atom_site_type_symbol
_atom_site_label
_atom_site_fract_x
_atom_site_fract_y
_atom_site_fract_z
Si Si1 0.901190 0.029225 0.759872
Si Si2 0.267551 0.336516 0.873505
Si Si3 0.440271 0.250000 0.750000
Si Si4 0.373446 0.095309 0.487215
Si Si5 0.522819 0.765758 0.641627
O O1 0.956379 0.108444 0.694379
O O2 0.927913 0.119072 0.827797
O O3 0.750000 0.000000 0.750394
O O4 0.970390 0.881558 0.765901
O O5 0.250000 0.500000 0.857605
O O6 0.350803 0.266172 0.815250
O O7 0.129714 0.256813 0.876557
O O8 0.342007 0.316328 0.944995
O O9 0.396123 0.204751 0.426678
O O10 0.250000 0.000000 0.467428
O O11 0.500000 0.000000 0.500000
#
# Coordination Sequence:
#
# PCOD8217028 Si02
#       5
#     8   8   4   8   8
#     4  11  24  40  63  94 125 166 208 263 328 374
#     4  11  22  38  63  96 120 166 213 257 326 372
#     4  12  22  40  66  88 128 164 210 262 320 392
#     4  11  20  37  63  94 127 165 217 261 311 382
#     4  11  22  41  64  93 128 158 214 272 309 383
#
# _framework density 18.759931000000002
#
# number of rings (size 3 to 8) (size 9 to 14) (size 15 to 20)
#    0.000    0.889    6.667    3.333    0.000    1.778 
#    0.000    1.111    0.000    0.000    0.000    0.000 
#    0.000    0.000    0.000    0.000    0.000    0.000 
#
# Total GULP energy -446552.937341 kJ/mol
# GULP energy per Si atom -12404.248259 kJ/mol
# Density = 1.871723 g / cm^3
# Si number density = 18.759931 Si / 1000 Ang^3
#
#
#
# Elastic Constant Matrix: (Units=GPa)
#
#
# Indices 1 2 3 4 5 6 
#
# 1 135.3141 34.1820 67.3416 0.0000 0.0000 0.0000
# 2 34.1820 100.8066 60.1334 0.0000 0.0000 0.0000
# 3 67.3416 60.1334 170.6703 0.0000 0.0000 0.0000
# 4 0.0000 0.0000 0.0000 -24.3945 0.0000 0.0000
# 5 0.0000 0.0000 0.0000 0.0000 42.4343 0.0000
# 6 0.0000 0.0000 0.0000 0.0000 0.0000 19.9912
#
#
#
# Elastic Compliance Matrix: (Units=1/GPa)
#
#
# Indices 1 2 3 4 5 6 
#
# 1 0.009314 -0.001223 -0.003244 0.000000 0.000000 0.000000
# 2 -0.001223 0.012720 -0.003999 0.000000 0.000000 0.000000
# 3 -0.003244 -0.003999 0.008548 0.000000 0.000000 0.000000
# 4 0.000000 0.000000 0.000000 -0.040993 0.000000 0.000000
# 5 0.000000 0.000000 0.000000 0.000000 0.023566 0.000000
# 6 0.000000 0.000000 0.000000 0.000000 0.000000 0.050022
#
#
# Mechanical properties :
#
#
# Convention : Reuss Voigt Hill
#
# Bulk Modulus (GPa) = 73.26137 81.12277 77.19207
# Shear Modulus (GPa) = 59.06004 23.94847 41.50426
#
# Velocity S-wave (km/s) = 5.61697 3.57680 4.70871
# Velocity P-wave (km/s) = 9.01132 7.77138 8.41423
#
# Compressibility (1/GPa) = 0.01364976
#
# Stress axis : x y z
#
# Youngs Moduli (GPa) = 107.37014 78.61421 116.98205
#
# Poissons Ratio (x) = 0.09614 0.37949
# Poissons Ratio (y) = 0.13131 0.46784
# Poissons Ratio (z) = 0.34830 0.31440
#
# Static dielectric constant tensor:
#      x y z
#    x 3.582450 0.000000 0.000000 
#    y 0.000000 3.317850 0.000000 
#    z 0.000000 0.000000 3.669460 
# 
# 
# High freq. dielectric constant tensor:
#      x y z
#    x 1.752470 0.000000 0.000000 
#    y 0.000000 1.708220 0.000000 
#    z 0.000000 0.000000 1.739380 
# 
# From -- ./inp_files/35544.got.cif
#   From: 2010.06.25/outbox.cif.g09.slc.cpg/sg52_18_cif.got.tgz:35544.got - 2010.06.26 19:32:48.
