data_PCOD8217220
_publ_section_title
;
Structure prediction by ZEFSAII (Michael W. Deem and Ramdas Pophale) SiO2 
 PCOD8217220
Probable space group: P N N A
;
_chemical_formula_sum "Si O2"
_cell_formula_units_Z 40
_cell_length_a 11.321806
_cell_length_b 9.522097
_cell_length_c 16.792139
_cell_angle_alpha 90.000000
_cell_angle_beta 90.000000
_cell_angle_gamma 90.000000
_cell_volume 1810.315754
_symmetry_space_group_name_H-M "P N N A"
_symmetry_group_IT_number 52
_symmetry_cell_setting 'orthorhombic'
loop_
_space_group_symop_operation_xyz
x,y,z
1/2-x,-y,z
x,1/2-y,1/2-z
1/2-x,1/2+y,1/2-z
-x,-y,-z
1/2+x,y,-z
-x,1/2+y,1/2+z
1/2+x,1/2-y,1/2+z
loop_
_atom_site_type_symbol
_atom_site_label
_atom_site_fract_x
_atom_site_fract_y
_atom_site_fract_z
Si Si1 0.242631 0.669212 0.167906
Si Si2 0.982811 0.790551 0.584593
Si Si3 0.617551 0.480331 0.168124
Si Si4 0.385308 0.468189 0.648899
Si Si5 0.497548 0.240258 0.096950
O O1 0.250000 0.500000 0.179723
O O2 0.219715 0.750000 0.250000
O O3 0.359802 0.733417 0.129368
O O4 0.137368 0.713484 0.108985
O O5 0.082033 0.682326 0.614166
O O6 0.961484 0.780176 0.491202
O O7 0.030638 0.943759 0.606437
O O8 0.750000 0.500000 0.138796
O O9 0.598923 0.538207 0.256460
O O10 0.582112 0.317119 0.161554
O O11 0.250000 0.500000 0.625015
O O12 0.479136 0.575891 0.610832
#
# Coordination Sequence:
#
# PCOD8217220 Si02
#       5
#     8   8   8   8   8
#     4  12  28  48  76 106 145 191 238 288 357 437
#     4  12  27  44  71 103 145 182 234 296 353 417
#     4  11  23  43  75  97 133 181 237 291 347 419
#     4  11  25  47  71 101 137 185 235 289 353 421
#     4  12  27  44  71 103 145 182 234 296 353 417
#
# _framework density 22.095592
#
# number of rings (size 3 to 8) (size 9 to 14) (size 15 to 20)
#    0.000    0.400    2.000    6.000    8.400    3.200 
#    0.000    0.000    0.000    0.000    0.000    0.000 
#    0.000    0.000    0.000    0.000    0.000    0.000 
#
# Total GULP energy -496263.959112 kJ/mol
# GULP energy per Si atom -12406.598978 kJ/mol
# Density = 2.204530 g / cm^3
# Si number density = 22.095592 Si / 1000 Ang^3
#
#
#
# Elastic Constant Matrix: (Units=GPa)
#
#
# Indices 1 2 3 4 5 6 
#
# 1 120.5083 19.4915 24.1624 0.0000 0.0000 0.0000
# 2 19.4915 79.6440 25.4500 0.0000 0.0000 0.0000
# 3 24.1624 25.4500 73.5429 0.0000 0.0000 0.0000
# 4 0.0000 0.0000 0.0000 33.6086 0.0000 0.0000
# 5 0.0000 0.0000 0.0000 0.0000 28.1798 0.0000
# 6 0.0000 0.0000 0.0000 0.0000 0.0000 40.6976
#
#
#
# Elastic Compliance Matrix: (Units=1/GPa)
#
#
# Indices 1 2 3 4 5 6 
#
# 1 0.009024 -0.001418 -0.002474 0.000000 0.000000 0.000000
# 2 -0.001418 0.014340 -0.004497 0.000000 0.000000 0.000000
# 3 -0.002474 -0.004497 0.015966 0.000000 0.000000 0.000000
# 4 0.000000 0.000000 0.000000 0.029754 0.000000 0.000000
# 5 0.000000 0.000000 0.000000 0.000000 0.035486 0.000000
# 6 0.000000 0.000000 0.000000 0.000000 0.000000 0.024572
#
#
# Mechanical properties :
#
#
# Convention : Reuss Voigt Hill
#
# Bulk Modulus (GPa) = 44.34011 45.76699 45.05355
# Shear Modulus (GPa) = 32.58683 34.13661 33.36172
#
# Velocity S-wave (km/s) = 3.84449 3.93485 3.88993
# Velocity P-wave (km/s) = 6.31014 6.43446 6.37260
#
# Compressibility (1/GPa) = 0.02255294
#
# Stress axis : x y z
#
# Youngs Moduli (GPa) = 110.82101 69.73642 62.63153
#
# Poissons Ratio (x) = 0.09887 0.15495
# Poissons Ratio (y) = 0.15712 0.28162
# Poissons Ratio (z) = 0.27418 0.31357
#
# Static dielectric constant tensor:
#      x y z
#    x 4.055080 0.000000 0.000000 
#    y 0.000000 4.015620 0.000000 
#    z 0.000000 0.000000 3.840030 
# 
# 
# High freq. dielectric constant tensor:
#      x y z
#    x 1.882430 0.000000 0.000000 
#    y 0.000000 1.882050 0.000000 
#    z 0.000000 0.000000 1.872070 
# 
# From -- ./inp_files/31988.got.cif
#   From: 2010.06.25/outbox.cif.g09.slc.cpg/sg52_16_cif.got.tgz:31988.got - 2010.06.26 19:32:48.
