data_PCOD8217472
_publ_section_title
;
Structure prediction by ZEFSAII (Michael W. Deem and Ramdas Pophale) SiO2 
 PCOD8217472
Probable space group: P M N A
;
_chemical_formula_sum "Si O2"
_cell_formula_units_Z 48
_cell_length_a 8.851431
_cell_length_b 15.298995
_cell_length_c 21.753857
_cell_angle_alpha 90.000000
_cell_angle_beta 90.000000
_cell_angle_gamma 90.000000
_cell_volume 2945.863777
_symmetry_space_group_name_H-M "P M N A"
_symmetry_group_IT_number 53
_symmetry_cell_setting 'orthorhombic'
loop_
_space_group_symop_operation_xyz
x,y,z
1/2-x,-y,1/2+z
x,-y,-z
1/2-x,y,1/2-z
-x,-y,-z
1/2+x,y,1/2-z
-x,y,z
1/2+x,-y,1/2+z
loop_
_atom_site_type_symbol
_atom_site_label
_atom_site_fract_x
_atom_site_fract_y
_atom_site_fract_z
Si Si1 0.177732 0.882035 0.043518
Si Si2 0.332953 0.470663 0.929790
Si Si3 0.176584 0.691472 0.032031
Si Si4 0.679061 0.341500 0.098362
Si Si5 0.320722 0.939711 0.588249
Si Si6 0.320210 0.799203 0.683477
O O1 0.218949 0.783742 0.065270
O O2 0.000000 0.893578 0.038767
O O3 0.235703 0.958238 0.090344
O O4 0.242503 0.897810 0.974926
O O5 0.500000 0.440744 0.909291
O O6 0.222498 0.387436 0.922098
O O7 0.280588 0.555491 0.890887
O O8 0.334878 0.500000 0.000000
O O9 0.000000 0.685418 0.017204
O O10 0.265137 0.689014 0.968197
O O11 0.500000 0.326690 0.101828
O O12 0.763243 0.289307 0.151616
O O13 0.500000 0.933652 0.590377
O O14 0.258654 0.883279 0.645306
O O15 0.250000 0.807165 0.750000
O O16 0.500000 0.795979 0.687811
#
# Coordination Sequence:
#
# PCOD8217472 Si02
#       6
#     8   8   8   8   8   8
#     4   8  13  23  42  67  91 116 147 184 226 272
#     4   8  16  28  40  58  88 123 149 174 219 269
#     4  10  16  24  43  70  93 116 149 186 225 270
#     4  10  19  31  44  60  89 124 154 185 223 270
#     4   8  14  26  43  63  89 118 149 184 224 270
#     4  11  21  33  49  68  89 119 155 190 228 268
#
# _framework density 16.294034
#
# number of rings (size 3 to 8) (size 9 to 14) (size 15 to 20)
#    0.000    2.833    1.667    3.500    0.000    3.667 
#    0.000    0.000    0.000    5.000    0.000    1.167 
#    0.000    5.333    0.000    0.000    0.000    0.000 
#
# Total GULP energy -594630.678147 kJ/mol
# GULP energy per Si atom -12388.139128 kJ/mol
# Density = 1.625695 g / cm^3
# Si number density = 16.294034 Si / 1000 Ang^3
#
#
#
# Elastic Constant Matrix: (Units=GPa)
#
#
# Indices 1 2 3 4 5 6 
#
# 1 54.1760 44.5178 24.3900 0.0000 0.0000 0.0000
# 2 44.5178 168.0270 58.3508 0.0000 0.0000 0.0000
# 3 24.3900 58.3508 71.6204 0.0000 0.0000 0.0000
# 4 0.0000 0.0000 0.0000 14.4065 0.0000 0.0000
# 5 0.0000 0.0000 0.0000 0.0000 14.0001 0.0000
# 6 0.0000 0.0000 0.0000 0.0000 0.0000 4.8080
#
#
#
# Elastic Compliance Matrix: (Units=1/GPa)
#
#
# Indices 1 2 3 4 5 6 
#
# 1 0.024493 -0.005010 -0.004259 0.000000 0.000000 0.000000
# 2 -0.005010 0.009325 -0.005891 0.000000 0.000000 0.000000
# 3 -0.004259 -0.005891 0.020212 0.000000 0.000000 0.000000
# 4 0.000000 0.000000 0.000000 0.069413 0.000000 0.000000
# 5 0.000000 0.000000 0.000000 0.000000 0.071428 0.000000
# 6 0.000000 0.000000 0.000000 0.000000 0.000000 0.207988
#
#
# Mechanical properties :
#
#
# Convention : Reuss Voigt Hill
#
# Bulk Modulus (GPa) = 42.17682 60.92672 51.55177
# Shear Modulus (GPa) = 11.33579 17.74726 14.54152
#
# Velocity S-wave (km/s) = 2.64048 3.30386 2.99062
# Velocity P-wave (km/s) = 5.93609 7.21299 6.60547
#
# Compressibility (1/GPa) = 0.02370971
#
# Stress axis : x y z
#
# Youngs Moduli (GPa) = 40.82842 107.24427 49.47517
#
# Poissons Ratio (x) = 0.53731 0.21071
# Poissons Ratio (y) = 0.20456 0.29144
# Poissons Ratio (z) = 0.17389 0.63174
#
# Static dielectric constant tensor:
#      x y z
#    x 2.930090 0.000000 0.000000 
#    y 0.000000 3.746150 0.000000 
#    z 0.000000 0.000000 2.717920 
# 
# 
# High freq. dielectric constant tensor:
#      x y z
#    x 1.609290 0.000000 0.000000 
#    y 0.000000 1.649810 0.000000 
#    z 0.000000 0.000000 1.563580 
# 
# From -- ./inp_files/30502.got.cif
#   From: 2010.03.12/outbox.cif.g09.slc.cpg/sg53_16_cif.got.tgz:30502.got - 2010.04.16 14:36:59.
