data_PCOD8217570
_publ_section_title
;
Structure prediction by ZEFSAII (Michael W. Deem and Ramdas Pophale) SiO2 
 PCOD8217570
Probable space group: P M N A
;
_chemical_formula_sum "Si O2"
_cell_formula_units_Z 64
_cell_length_a 9.193570
_cell_length_b 14.486185
_cell_length_c 30.105991
_cell_angle_alpha 90.000000
_cell_angle_beta 90.000000
_cell_angle_gamma 90.000000
_cell_volume 4009.508530
_symmetry_space_group_name_H-M "P M N A"
_symmetry_group_IT_number 53
_symmetry_cell_setting 'orthorhombic'
loop_
_space_group_symop_operation_xyz
x,y,z
1/2-x,-y,1/2+z
x,-y,-z
1/2-x,y,1/2-z
-x,-y,-z
1/2+x,y,1/2-z
-x,y,z
1/2+x,-y,1/2+z
loop_
_atom_site_type_symbol
_atom_site_label
_atom_site_fract_x
_atom_site_fract_y
_atom_site_fract_z
Si Si1 0.831383 0.929159 0.114973
Si Si2 0.169900 0.149768 0.794544
Si Si3 0.330669 0.416011 0.878361
Si Si4 0.830432 0.635103 0.205226
Si Si5 0.170099 0.445900 0.456536
Si Si6 0.164146 0.266415 0.028439
Si Si7 0.325797 0.939154 0.541210
Si Si8 0.837966 0.736711 0.074975
O O1 0.764438 0.909615 0.164009
O O2 0.804527 0.843747 0.082156
O O3 0.000000 0.944697 0.123435
O O4 0.768761 0.017520 0.088174
O O5 0.250000 0.117453 0.750000
O O6 0.198779 0.257174 0.805449
O O7 0.000000 0.132140 0.787372
O O8 0.500000 0.412504 0.866327
O O9 0.237538 0.428038 0.833582
O O10 0.293208 0.498161 0.912029
O O11 0.286719 0.320312 0.901058
O O12 0.750000 0.605843 0.250000
O O13 0.000000 0.613279 0.210126
O O14 0.231813 0.500000 0.500000
O O15 0.242438 0.346505 0.448903
O O16 0.000000 0.430189 0.463145
O O17 0.232429 0.165783 0.039076
O O18 0.000000 0.272081 0.046866
O O19 0.167041 0.285151 0.976454
O O20 0.500000 0.939771 0.538840
O O21 0.265318 0.000000 0.500000
O O22 0.000000 0.712449 0.094186
#
# Coordination Sequence:
#
# PCOD8217570 Si02
#       8
#     8   8   8   8   8   8   8   8
#     4   9  15  26  43  65  94 126 153 181 229 282
#     4   9  17  28  43  64  91 123 152 182 222 270
#     4  11  21  32  47  67  92 129 169 197 234 282
#     4  10  19  32  49  71  99 125 156 193 237 286
#     4  10  21  35  47  63  93 132 165 195 239 289
#     4  10  19  29  47  72  93 120 161 204 239 274
#     4   9  15  25  44  70  96 119 149 191 235 282
#     4  10  17  27  44  67  95 124 156 195 236 277
#
# _framework density 15.962056
#
# number of rings (size 3 to 8) (size 9 to 14) (size 15 to 20)
#    0.000    2.250    3.750    0.750    0.000    1.750 
#    0.000    0.000    0.000    1.875    0.000    0.875 
#    0.000    4.000    0.000    0.000    0.000    0.000 
#
# Total GULP energy -793327.180794 kJ/mol
# GULP energy per Si atom -12395.737200 kJ/mol
# Density = 1.592573 g / cm^3
# Si number density = 15.962056 Si / 1000 Ang^3
#
#
#
# Elastic Constant Matrix: (Units=GPa)
#
#
# Indices 1 2 3 4 5 6 
#
# 1 49.3415 34.9369 44.3559 0.0000 0.0000 0.0000
# 2 34.9369 87.6230 51.8041 0.0000 0.0000 0.0000
# 3 44.3559 51.8041 110.0484 0.0000 0.0000 0.0000
# 4 0.0000 0.0000 0.0000 23.3968 0.0000 0.0000
# 5 0.0000 0.0000 0.0000 0.0000 22.8235 0.0000
# 6 0.0000 0.0000 0.0000 0.0000 0.0000 10.2844
#
#
#
# Elastic Compliance Matrix: (Units=1/GPa)
#
#
# Indices 1 2 3 4 5 6 
#
# 1 0.035287 -0.007844 -0.010530 0.000000 0.000000 0.000000
# 2 -0.007844 0.017557 -0.005103 0.000000 0.000000 0.000000
# 3 -0.010530 -0.005103 0.015734 0.000000 0.000000 0.000000
# 4 0.000000 0.000000 0.000000 0.042741 0.000000 0.000000
# 5 0.000000 0.000000 0.000000 0.000000 0.043815 0.000000
# 6 0.000000 0.000000 0.000000 0.000000 0.000000 0.097234
#
#
# Mechanical properties :
#
#
# Convention : Reuss Voigt Hill
#
# Bulk Modulus (GPa) = 46.24745 56.57853 51.41299
# Shear Modulus (GPa) = 16.31158 19.02867 17.67012
#
# Velocity S-wave (km/s) = 3.20018 3.45645 3.33078
# Velocity P-wave (km/s) = 6.53385 7.17301 6.86087
#
# Compressibility (1/GPa) = 0.02162281
#
# Stress axis : x y z
#
# Youngs Moduli (GPa) = 28.33879 56.95667 63.55832
#
# Poissons Ratio (x) = 0.44677 0.66929
# Poissons Ratio (y) = 0.22229 0.32436
# Poissons Ratio (z) = 0.29842 0.29067
#
# Static dielectric constant tensor:
#      x y z
#    x 2.839970 0.000000 0.000000 
#    y 0.000000 2.935080 0.000000 
#    z 0.000000 0.000000 3.161850 
# 
# 
# High freq. dielectric constant tensor:
#      x y z
#    x 1.590390 0.000000 0.000000 
#    y 0.000000 1.586750 0.000000 
#    z 0.000000 0.000000 1.612680 
# 
# From -- ./inp_files/38433.got.cif
#   From: 2010.03.12/outbox.cif.g09.slc.cpg/sg53_20_cif.got.tgz:38433.got - 2010.04.16 14:36:59.
