data_PCOD8217851
_publ_section_title
;
Structure prediction by ZEFSAII (Michael W. Deem and Ramdas Pophale) SiO2 
 PCOD8217851
Probable space group: P M N A
;
_chemical_formula_sum "Si O2"
_cell_formula_units_Z 52
_cell_length_a 17.942053
_cell_length_b 11.126323
_cell_length_c 14.214525
_cell_angle_alpha 90.000000
_cell_angle_beta 90.000000
_cell_angle_gamma 90.000000
_cell_volume 2837.632505
_symmetry_space_group_name_H-M "P M N A"
_symmetry_group_IT_number 53
_symmetry_cell_setting 'orthorhombic'
loop_
_space_group_symop_operation_xyz
x,y,z
1/2-x,-y,1/2+z
x,-y,-z
1/2-x,y,1/2-z
-x,-y,-z
1/2+x,y,1/2-z
-x,y,z
1/2+x,-y,1/2+z
loop_
_atom_site_type_symbol
_atom_site_label
_atom_site_fract_x
_atom_site_fract_y
_atom_site_fract_z
Si Si1 0.818759 0.500000 0.000000
Si Si2 0.082428 0.001833 0.601229
Si Si3 0.411258 0.921077 0.296427
Si Si4 0.265039 0.342675 0.145388
Si Si5 0.585744 0.278685 0.559128
Si Si6 0.638973 0.832345 0.628110
Si Si7 0.580907 0.738860 0.816403
O O1 0.765540 0.441958 0.076164
O O2 0.868358 0.598589 0.053228
O O3 0.116285 0.083805 0.686468
O O4 0.000000 0.054054 0.580316
O O5 0.126465 0.000000 0.500000
O O6 0.078198 0.869663 0.640768
O O7 0.500000 0.950355 0.301446
O O8 0.392210 0.795027 0.346408
O O9 0.366040 0.026624 0.349646
O O10 0.250000 0.388936 0.250000
O O11 0.225398 0.212451 0.127483
O O12 0.354115 0.333368 0.130099
O O13 0.500000 0.315750 0.562921
O O14 0.600356 0.191412 0.471366
O O15 0.597232 0.750058 0.705313
O O16 0.500000 0.675335 0.829985
#
# Coordination Sequence:
#
# PCOD8217851 Si02
#       7
#     4   8   8   8   8   8   8
#     4  10  21  36  49  66  98 140 176 204 249 304
#     4   8  14  26  44  67  98 131 158 192 242 295
#     4   9  16  26  45  75 105 130 163 205 245 293
#     4   9  19  35  53  70  95 128 164 207 250 299
#     4  10  18  29  48  74 104 135 166 202 246 303
#     4   9  16  28  49  76 103 127 152 194 254 306
#     4   9  16  29  50  73  92 118 164 210 244 286
#
# _framework density 18.325135
#
# number of rings (size 3 to 8) (size 9 to 14) (size 15 to 20)
#    0.000    2.923    0.000    3.000    0.000    1.231 
#    0.000    5.769    0.000    2.769    0.000    0.000 
#    0.000    1.231    0.000    0.000    0.000    0.000 
#
# Total GULP energy -644310.379539 kJ/mol
# GULP energy per Si atom -12390.584222 kJ/mol
# Density = 1.828343 g / cm^3
# Si number density = 18.325135 Si / 1000 Ang^3
#
#
#
# Elastic Constant Matrix: (Units=GPa)
#
#
# Indices 1 2 3 4 5 6 
#
# 1 119.0679 46.8093 39.3884 0.0000 0.0000 0.0000
# 2 46.8093 85.2621 54.3678 0.0000 0.0000 0.0000
# 3 39.3884 54.3678 135.6276 0.0000 0.0000 0.0000
# 4 0.0000 0.0000 0.0000 17.0038 0.0000 0.0000
# 5 0.0000 0.0000 0.0000 0.0000 16.9023 0.0000
# 6 0.0000 0.0000 0.0000 0.0000 0.0000 38.3351
#
#
#
# Elastic Compliance Matrix: (Units=1/GPa)
#
#
# Indices 1 2 3 4 5 6 
#
# 1 0.010815 -0.005286 -0.001022 0.000000 0.000000 0.000000
# 2 -0.005286 0.018339 -0.005816 0.000000 0.000000 0.000000
# 3 -0.001022 -0.005816 0.010002 0.000000 0.000000 0.000000
# 4 0.000000 0.000000 0.000000 0.058810 0.000000 0.000000
# 5 0.000000 0.000000 0.000000 0.000000 0.059164 0.000000
# 6 0.000000 0.000000 0.000000 0.000000 0.000000 0.026086
#
#
# Mechanical properties :
#
#
# Convention : Reuss Voigt Hill
#
# Bulk Modulus (GPa) = 67.08109 69.00983 68.04546
# Shear Modulus (GPa) = 23.53694 27.74106 25.63900
#
# Velocity S-wave (km/s) = 3.58775 3.89501 3.74453
# Velocity P-wave (km/s) = 7.33813 7.61370 7.47719
#
# Compressibility (1/GPa) = 0.01490733
#
# Stress axis : x y z
#
# Youngs Moduli (GPa) = 92.46781 54.52782 99.98496
#
# Poissons Ratio (x) = 0.28821 0.10218
# Poissons Ratio (y) = 0.48875 0.58156
# Poissons Ratio (z) = 0.09450 0.31716
#
# Static dielectric constant tensor:
#      x y z
#    x 3.482830 0.000000 0.000000 
#    y 0.000000 3.021660 0.000000 
#    z 0.000000 0.000000 3.697500 
# 
# 
# High freq. dielectric constant tensor:
#      x y z
#    x 1.696260 0.000000 0.000000 
#    y 0.000000 1.672160 0.000000 
#    z 0.000000 0.000000 1.718660 
# 
# From -- ./inp_files/23811.got.cif
#   From: 2010.03.12/outbox.cif.g09.slc.cpg/sg53_12_cif.got.tgz:23811.got - 2010.04.16 14:36:59.
