data_PCOD8217052
_publ_section_title
;
Structure prediction by ZEFSAII (Michael W. Deem and Ramdas Pophale) SiO2 
 PCOD8217052
Probable space group: P N N A
;
_chemical_formula_sum "Si O2"
_cell_formula_units_Z 48
_cell_length_a 9.325945
_cell_length_b 23.266749
_cell_length_c 9.759308
_cell_angle_alpha 90.000000
_cell_angle_beta 90.000000
_cell_angle_gamma 90.000000
_cell_volume 2117.617801
_symmetry_space_group_name_H-M "P N N A"
_symmetry_group_IT_number 52
_symmetry_cell_setting 'orthorhombic'
loop_
_space_group_symop_operation_xyz
x,y,z
1/2-x,-y,z
x,1/2-y,1/2-z
1/2-x,1/2+y,1/2-z
-x,-y,-z
1/2+x,y,-z
-x,1/2+y,1/2+z
1/2+x,1/2-y,1/2+z
loop_
_atom_site_type_symbol
_atom_site_label
_atom_site_fract_x
_atom_site_fract_y
_atom_site_fract_z
Si Si1 0.408897 0.304651 0.159463
Si Si2 0.046496 0.387915 0.354419
Si Si3 0.905965 0.507519 0.340406
Si Si4 0.107650 0.163074 0.419893
Si Si5 0.383883 0.393146 0.393322
Si Si6 0.628066 0.038637 0.458030
O O1 0.447741 0.250000 0.250000
O O2 0.249820 0.299248 0.099167
O O3 0.425952 0.362535 0.250691
O O4 0.510607 0.304230 0.028370
O O5 0.977507 0.447185 0.300729
O O6 0.949443 0.359143 0.475587
O O7 0.034528 0.343013 0.229246
O O8 0.212008 0.398453 0.402393
O O9 0.750000 0.500000 0.418183
O O10 0.864471 0.544326 0.205810
O O11 0.028762 0.545698 0.418164
O O12 0.144243 0.100127 0.473874
O O13 0.750000 0.000000 0.523280
O O14 0.500000 0.000000 0.500000
#
# Coordination Sequence:
#
# PCOD8217052 Si02
#       6
#     8   8   8   8   8   8
#     4  11  27  48  73  99 132 175 233 297 347 397
#     4  11  24  39  66  96 140 184 220 272 337 419
#     4  11  22  36  61  99 141 181 222 263 339 412
#     4  11  24  45  72 102 136 178 230 284 347 412
#     4  11  24  43  63  97 142 181 230 280 340 401
#     4  11  21  34  64 102 139 175 217 271 336 414
#
# _framework density 22.666981
#
# number of rings (size 3 to 8) (size 9 to 14) (size 15 to 20)
#    0.000    1.000    3.333    3.000    4.667    4.000 
#    0.000    0.833    0.000    0.000    0.000    0.000 
#    0.000    0.000    0.000    0.000    0.000    0.000 
#
# Total GULP energy -594912.622095 kJ/mol
# GULP energy per Si atom -12394.012960 kJ/mol
# Density = 2.261539 g / cm^3
# Si number density = 22.666981 Si / 1000 Ang^3
#
#
#
# Elastic Constant Matrix: (Units=GPa)
#
#
# Indices 1 2 3 4 5 6 
#
# 1 171.4298 45.1258 69.3390 0.0000 0.0000 0.0000
# 2 45.1258 57.1766 17.7092 0.0000 0.0000 0.0000
# 3 69.3390 17.7092 131.9394 0.0000 0.0000 0.0000
# 4 0.0000 0.0000 0.0000 30.4525 0.0000 0.0000
# 5 0.0000 0.0000 0.0000 0.0000 47.4804 0.0000
# 6 0.0000 0.0000 0.0000 0.0000 0.0000 25.2032
#
#
#
# Elastic Compliance Matrix: (Units=1/GPa)
#
#
# Indices 1 2 3 4 5 6 
#
# 1 0.008962 -0.005858 -0.003924 0.000000 0.000000 0.000000
# 2 -0.005858 0.022077 0.000115 0.000000 0.000000 0.000000
# 3 -0.003924 0.000115 0.009626 0.000000 0.000000 0.000000
# 4 0.000000 0.000000 0.000000 0.032838 0.000000 0.000000
# 5 0.000000 0.000000 0.000000 0.000000 0.021061 0.000000
# 6 0.000000 0.000000 0.000000 0.000000 0.000000 0.039678
#
#
# Mechanical properties :
#
#
# Convention : Reuss Voigt Hill
#
# Bulk Modulus (GPa) = 46.87667 69.43265 58.15466
# Shear Modulus (GPa) = 31.11649 35.85199 33.48424
#
# Velocity S-wave (km/s) = 3.70911 3.98135 3.84764
# Velocity P-wave (km/s) = 6.25050 7.19952 6.74173
#
# Compressibility (1/GPa) = 0.02133257
#
# Stress axis : x y z
#
# Youngs Moduli (GPa) = 111.57706 45.29521 103.88705
#
# Poissons Ratio (x) = 0.26535 0.40763
# Poissons Ratio (y) = 0.65364 -0.01199
# Poissons Ratio (z) = 0.43780 -0.00523
#
# Static dielectric constant tensor:
#      x y z
#    x 4.281110 0.000000 0.000000 
#    y 0.000000 3.658140 0.000000 
#    z 0.000000 0.000000 6.144670 
# 
# 
# High freq. dielectric constant tensor:
#      x y z
#    x 1.907400 0.000000 0.000000 
#    y 0.000000 1.859500 0.000000 
#    z 0.000000 0.000000 1.917150 
# 
# From -- ./inp_files/16974.got.cif
#   From: 2010.06.25/outbox.cif.g09.slc.cpg/sg52_9_cif.got.tgz:16974.got - 2010.06.26 19:32:48.
