data_PCOD8217427
_publ_section_title
;
Structure prediction by ZEFSAII (Michael W. Deem and Ramdas Pophale) SiO2 
 PCOD8217427
Probable space group: P N N A
;
_chemical_formula_sum "Si O2"
_cell_formula_units_Z 32
_cell_length_a 29.090016
_cell_length_b 7.398660
_cell_length_c 5.988002
_cell_angle_alpha 90.000000
_cell_angle_beta 90.000000
_cell_angle_gamma 90.000000
_cell_volume 1288.780531
_symmetry_space_group_name_H-M "P N N A"
_symmetry_group_IT_number 52
_symmetry_cell_setting 'orthorhombic'
loop_
_space_group_symop_operation_xyz
x,y,z
1/2-x,-y,z
x,1/2-y,1/2-z
1/2-x,1/2+y,1/2-z
-x,-y,-z
1/2+x,y,-z
-x,1/2+y,1/2+z
1/2+x,1/2-y,1/2+z
loop_
_atom_site_type_symbol
_atom_site_label
_atom_site_fract_x
_atom_site_fract_y
_atom_site_fract_z
Si Si1 0.171395 0.021243 0.514097
Si Si2 0.386974 0.250000 0.250000
Si Si3 0.232272 0.250000 0.250000
Si Si4 0.750000 0.000000 0.126706
Si Si5 0.452513 0.421988 0.587658
Si Si6 0.895831 0.750000 0.250000
O O1 0.143922 0.842379 0.442518
O O2 0.203505 0.068791 0.304455
O O3 0.202691 0.000706 0.734832
O O4 0.137107 0.191891 0.545432
O O5 0.420298 0.387946 0.375459
O O6 0.257440 0.314575 0.477937
O O7 0.460230 0.250000 0.750000
O O8 0.500000 0.500000 0.500000
O O9 0.427647 0.577581 0.722553
#
# Coordination Sequence:
#
# PCOD8217427 Si02
#       6
#     8   4   4   4   8   4
#     4  12  27  51  78 114 163 212 276 335 403 484
#     4  12  29  51  84 120 156 216 266 338 415 485
#     4  12  26  49  72 107 152 222 261 334 406 467
#     4  12  28  50  72 112 156 218 274 334 396 486
#     4  12  29  52  82 123 162 213 271 338 418 502
#     4  12  25  56  78 111 172 202 271 340 399 492
#
# _framework density 24.829671999999999
#
# number of rings (size 3 to 8) (size 9 to 14) (size 15 to 20)
#    0.000    0.000    5.000    3.000    3.500    8.000 
#    4.500    0.000    0.000    0.000    0.000    0.000 
#    0.000    0.000    0.000    0.000    0.000    0.000 
#
# Total GULP energy -396634.396907 kJ/mol
# GULP energy per Si atom -12394.824903 kJ/mol
# Density = 2.477316 g / cm^3
# Si number density = 24.829672 Si / 1000 Ang^3
#
#
#
# Elastic Constant Matrix: (Units=GPa)
#
#
# Indices 1 2 3 4 5 6 
#
# 1 156.6328 69.4169 73.6258 0.0000 0.0000 0.0000
# 2 69.4169 140.5536 60.5308 0.0000 0.0000 0.0000
# 3 73.6258 60.5308 132.8600 0.0000 0.0000 0.0000
# 4 0.0000 0.0000 0.0000 64.2256 0.0000 0.0000
# 5 0.0000 0.0000 0.0000 0.0000 37.2701 0.0000
# 6 0.0000 0.0000 0.0000 0.0000 0.0000 47.7906
#
#
#
# Elastic Compliance Matrix: (Units=1/GPa)
#
#
# Indices 1 2 3 4 5 6 
#
# 1 0.009575 -0.003040 -0.003921 0.000000 0.000000 0.000000
# 2 -0.003040 0.009817 -0.002788 0.000000 0.000000 0.000000
# 3 -0.003921 -0.002788 0.010970 0.000000 0.000000 0.000000
# 4 0.000000 0.000000 0.000000 0.015570 0.000000 0.000000
# 5 0.000000 0.000000 0.000000 0.000000 0.026831 0.000000
# 6 0.000000 0.000000 0.000000 0.000000 0.000000 0.020925
#
#
# Mechanical properties :
#
#
# Convention : Reuss Voigt Hill
#
# Bulk Modulus (GPa) = 92.05118 93.02148 92.53633
# Shear Modulus (GPa) = 42.80611 44.95545 43.88078
#
# Velocity S-wave (km/s) = 4.15660 4.25968 4.20845
# Velocity P-wave (km/s) = 7.75822 7.85737 7.80795
#
# Compressibility (1/GPa) = 0.01086352
#
# Stress axis : x y z
#
# Youngs Moduli (GPa) = 104.44153 101.86602 91.16139
#
# Poissons Ratio (x) = 0.30970 0.35743
# Poissons Ratio (y) = 0.31753 0.25413
# Poissons Ratio (z) = 0.40949 0.28398
#
# Static dielectric constant tensor:
#      x y z
#    x 5.084230 0.000000 0.000000 
#    y 0.000000 4.726950 0.000000 
#    z 0.000000 0.000000 4.570520 
# 
# 
# High freq. dielectric constant tensor:
#      x y z
#    x 1.999970 0.000000 0.000000 
#    y 0.000000 2.008950 0.000000 
#    z 0.000000 0.000000 1.995720 
# 
# From -- ./inp_files/6188.got.cif
#   From: 2010.06.25/outbox.cif.g09.slc.cpg/sg52_4_cif.got.tgz:6188.got - 2010.06.26 19:32:48.
