data_PCOD8217938
_publ_section_title
;
Structure prediction by ZEFSAII (Michael W. Deem and Ramdas Pophale) SiO2 
 PCOD8217938
Probable space group: P M N A
;
_chemical_formula_sum "Si O2"
_cell_formula_units_Z 64
_cell_length_a 9.063786
_cell_length_b 11.687268
_cell_length_c 33.622045
_cell_angle_alpha 90.000000
_cell_angle_beta 90.000000
_cell_angle_gamma 90.000000
_cell_volume 3561.613355
_symmetry_space_group_name_H-M "P M N A"
_symmetry_group_IT_number 53
_symmetry_cell_setting 'orthorhombic'
loop_
_space_group_symop_operation_xyz
x,y,z
1/2-x,-y,1/2+z
x,-y,-z
1/2-x,y,1/2-z
-x,-y,-z
1/2+x,y,1/2-z
-x,y,z
1/2+x,-y,1/2+z
loop_
_atom_site_type_symbol
_atom_site_label
_atom_site_fract_x
_atom_site_fract_y
_atom_site_fract_z
Si Si1 0.826033 0.511009 0.289972
Si Si2 0.333916 0.461149 0.412803
Si Si3 0.669868 0.134182 0.124314
Si Si4 0.166189 0.681884 0.832375
Si Si5 0.668858 0.114490 0.900032
Si Si6 0.668836 0.643169 0.131887
Si Si7 0.327054 0.270123 0.045224
Si Si8 0.826348 0.878763 0.017941
O O1 0.750000 0.557261 0.250000
O O2 0.763035 0.384919 0.299863
O O3 0.781823 0.600659 0.324523
O O4 0.000000 0.502119 0.283766
O O5 0.500000 0.479737 0.428222
O O6 0.329974 0.387551 0.373013
O O7 0.262421 0.584026 0.403269
O O8 0.241114 0.395229 0.446432
O O9 0.500000 0.160337 0.133788
O O10 0.765429 0.193177 0.159048
O O11 0.711226 0.183232 0.080941
O O12 0.706303 0.999587 0.124793
O O13 0.000000 0.696025 0.816229
O O14 0.500000 0.108759 0.915831
O O15 0.692062 0.220750 0.870259
O O16 0.779473 0.126957 0.936459
O O17 0.500000 0.607398 0.124584
O O18 0.500000 0.284122 0.038643
O O19 0.255067 0.222479 0.005235
O O20 0.000000 0.860207 0.014118
O O21 0.776588 0.000000 0.000000
#
# Coordination Sequence:
#
# PCOD8217938 Si02
#       8
#     8   8   8   8   8   8   8   8
#     4  10  19  33  55  82 108 133 163 202 248 296
#     4   9  17  30  49  72 100 131 165 210 261 308
#     4   9  17  29  48  73  99 130 167 208 253 301
#     4   9  17  29  48  75 104 131 161 200 246 297
#     4  10  20  35  53  73 100 138 181 217 255 305
#     4   9  19  35  54  76 103 135 174 214 250 302
#     4  10  18  30  50  72  96 129 172 217 263 312
#     4  11  22  33  47  71 103 134 171 221 272 314
#
# _framework density 17.969384000000002
#
# number of rings (size 3 to 8) (size 9 to 14) (size 15 to 20)
#    0.000    2.375    1.250    1.875    0.000    5.500 
#    0.000    0.625    0.000    4.500    0.000    1.750 
#    0.000    0.000    0.000    0.000    0.000    0.000 
#
# Total GULP energy -793719.136701 kJ/mol
# GULP energy per Si atom -12401.861511 kJ/mol
# Density = 1.792848 g / cm^3
# Si number density = 17.969384 Si / 1000 Ang^3
#
#
#
# Elastic Constant Matrix: (Units=GPa)
#
#
# Indices 1 2 3 4 5 6 
#
# 1 89.4354 36.9928 33.2267 0.0000 0.0000 0.0000
# 2 36.9928 104.1249 32.3953 0.0000 0.0000 0.0000
# 3 33.2267 32.3953 62.0353 0.0000 0.0000 0.0000
# 4 0.0000 0.0000 0.0000 20.7457 0.0000 0.0000
# 5 0.0000 0.0000 0.0000 0.0000 28.5593 0.0000
# 6 0.0000 0.0000 0.0000 0.0000 0.0000 21.4955
#
#
#
# Elastic Compliance Matrix: (Units=1/GPa)
#
#
# Indices 1 2 3 4 5 6 
#
# 1 0.014878 -0.003351 -0.006219 0.000000 0.000000 0.000000
# 2 -0.003351 0.012222 -0.004587 0.000000 0.000000 0.000000
# 3 -0.006219 -0.004587 0.021846 0.000000 0.000000 0.000000
# 4 0.000000 0.000000 0.000000 0.048203 0.000000 0.000000
# 5 0.000000 0.000000 0.000000 0.000000 0.035015 0.000000
# 6 0.000000 0.000000 0.000000 0.000000 0.000000 0.046521
#
#
# Mechanical properties :
#
#
# Convention : Reuss Voigt Hill
#
# Bulk Modulus (GPa) = 48.46990 51.20279 49.83635
# Shear Modulus (GPa) = 23.37809 24.35884 23.86847
#
# Velocity S-wave (km/s) = 3.61084 3.68581 3.64852
# Velocity P-wave (km/s) = 6.66456 6.83154 6.74857
#
# Compressibility (1/GPa) = 0.02063136
#
# Stress axis : x y z
#
# Youngs Moduli (GPa) = 67.21500 81.82265 45.77435
#
# Poissons Ratio (x) = 0.27417 0.28466
# Poissons Ratio (y) = 0.22523 0.20999
# Poissons Ratio (z) = 0.41799 0.37536
#
# Static dielectric constant tensor:
#      x y z
#    x 3.417390 0.000000 0.000000 
#    y 0.000000 3.342410 0.000000 
#    z 0.000000 0.000000 3.033600 
# 
# 
# High freq. dielectric constant tensor:
#      x y z
#    x 1.705130 0.000000 0.000000 
#    y 0.000000 1.689320 0.000000 
#    z 0.000000 0.000000 1.661700 
# 
# From -- ./inp_files/38280.got.cif
#   From: 2010.03.12/outbox.cif.g09.slc.cpg/sg53_20_cif.got.tgz:38280.got - 2010.04.16 14:36:59.
