data_PCOD8217360
_publ_section_title
;
Structure prediction by ZEFSAII (Michael W. Deem and Ramdas Pophale) SiO2 
 PCOD8217360
Probable space group: P N N A
;
_chemical_formula_sum "Si O2"
_cell_formula_units_Z 24
_cell_length_a 13.021496
_cell_length_b 13.012442
_cell_length_c 6.116980
_cell_angle_alpha 90.000000
_cell_angle_beta 90.000000
_cell_angle_gamma 90.000000
_cell_volume 1036.470031
_symmetry_space_group_name_H-M "P N N A"
_symmetry_group_IT_number 52
_symmetry_cell_setting 'orthorhombic'
loop_
_space_group_symop_operation_xyz
x,y,z
1/2-x,-y,z
x,1/2-y,1/2-z
1/2-x,1/2+y,1/2-z
-x,-y,-z
1/2+x,y,-z
-x,1/2+y,1/2+z
1/2+x,1/2-y,1/2+z
loop_
_atom_site_type_symbol
_atom_site_label
_atom_site_fract_x
_atom_site_fract_y
_atom_site_fract_z
Si Si1 0.894195 0.347423 0.875512
Si Si2 0.473645 0.750000 0.250000
Si Si3 0.250000 0.500000 0.882840
Si Si4 0.906567 0.858680 0.141082
O O1 0.842742 0.250000 0.750000
O O2 0.979408 0.397908 0.713141
O O3 0.807741 0.425943 0.949000
O O4 0.954414 0.311775 0.088123
O O5 0.404989 0.664788 0.380012
O O6 0.176128 0.441432 0.715126
O O7 0.879857 0.750000 0.250000
#
# Coordination Sequence:
#
# PCOD8217360 Si02
#       4
#     8   4   4   8
#     4   9  21  43  67  95 142 176 221 287 334 407
#     4   8  18  44  62  88 142 184 212 278 356 372
#     4  12  22  38  76 108 128 178 242 268 348 404
#     4   9  21  43  67  94 142 176 221 289 331 409
#
# _framework density 23.155515000000001
#
# number of rings (size 3 to 8) (size 9 to 14) (size 15 to 20)
#    0.000    3.333    0.000    1.000    2.333    1.333 
#   12.000   16.667    0.000    0.000    0.000    0.000 
#    0.000    0.000    0.000    0.000    0.000    0.000 
#
# Total GULP energy -297395.592496 kJ/mol
# GULP energy per Si atom -12391.483021 kJ/mol
# Density = 2.310281 g / cm^3
# Si number density = 23.155515 Si / 1000 Ang^3
#
#
#
# Elastic Constant Matrix: (Units=GPa)
#
#
# Indices 1 2 3 4 5 6 
#
# 1 129.0644 93.3079 70.1913 0.0000 0.0000 0.0000
# 2 93.3079 132.6395 72.9644 0.0000 0.0000 0.0000
# 3 70.1913 72.9644 173.0013 0.0000 0.0000 0.0000
# 4 0.0000 0.0000 0.0000 29.8253 0.0000 0.0000
# 5 0.0000 0.0000 0.0000 0.0000 6.2796 0.0000
# 6 0.0000 0.0000 0.0000 0.0000 0.0000 47.6402
#
#
#
# Elastic Compliance Matrix: (Units=1/GPa)
#
#
# Indices 1 2 3 4 5 6 
#
# 1 0.016462 -0.010295 -0.002337 0.000000 0.000000 0.000000
# 2 -0.010295 0.016255 -0.002679 0.000000 0.000000 0.000000
# 3 -0.002337 -0.002679 0.007858 0.000000 0.000000 0.000000
# 4 0.000000 0.000000 0.000000 0.033529 0.000000 0.000000
# 5 0.000000 0.000000 0.000000 0.000000 0.159247 0.000000
# 6 0.000000 0.000000 0.000000 0.000000 0.000000 0.020991
#
#
# Mechanical properties :
#
#
# Convention : Reuss Voigt Hill
#
# Bulk Modulus (GPa) = 100.46463 100.84805 100.65634
# Shear Modulus (GPa) = 17.34426 29.96511 23.65469
#
# Velocity S-wave (km/s) = 2.73982 3.60124 3.19965
# Velocity P-wave (km/s) = 7.31368 7.80634 7.56402
#
# Compressibility (1/GPa) = 0.00995375
#
# Stress axis : x y z
#
# Youngs Moduli (GPa) = 60.74712 61.52040 127.25385
#
# Poissons Ratio (x) = 0.63333 0.29741
# Poissons Ratio (y) = 0.62537 0.34088
# Poissons Ratio (z) = 0.14197 0.16480
#
# Static dielectric constant tensor:
#      x y z
#    x 4.151210 0.000000 0.000000 
#    y 0.000000 4.147610 0.000000 
#    z 0.000000 0.000000 4.732830 
# 
# 
# High freq. dielectric constant tensor:
#      x y z
#    x 1.902390 0.000000 0.000000 
#    y 0.000000 1.905690 0.000000 
#    z 0.000000 0.000000 1.931260 
# 
# From -- ./inp_files/836.got.cif
#   From: 2010.06.25/outbox.cif.g09.slc.cpg/sg52_1_cif.got.tgz:836.got - 2010.06.26 19:32:48.
