data_PCOD8217608
_publ_section_title
;
Structure prediction by ZEFSAII (Michael W. Deem and Ramdas Pophale) SiO2 
 PCOD8217608
Probable space group: P M N A
;
_chemical_formula_sum "Si O2"
_cell_formula_units_Z 56
_cell_length_a 8.753681
_cell_length_b 14.456163
_cell_length_c 26.918642
_cell_angle_alpha 90.000000
_cell_angle_beta 90.000000
_cell_angle_gamma 90.000000
_cell_volume 3406.409845
_symmetry_space_group_name_H-M "P M N A"
_symmetry_group_IT_number 53
_symmetry_cell_setting 'orthorhombic'
loop_
_space_group_symop_operation_xyz
x,y,z
1/2-x,-y,1/2+z
x,-y,-z
1/2-x,y,1/2-z
-x,-y,-z
1/2+x,y,1/2-z
-x,y,z
1/2+x,-y,1/2+z
loop_
_atom_site_type_symbol
_atom_site_label
_atom_site_fract_x
_atom_site_fract_y
_atom_site_fract_z
Si Si1 0.319039 0.113368 0.195956
Si Si2 0.320353 0.384242 0.538778
Si Si3 0.326980 0.115551 0.042776
Si Si4 0.317198 0.564855 0.933784
Si Si5 0.673183 0.734575 0.876808
Si Si6 0.325392 0.987841 0.381341
Si Si7 0.175542 0.177545 0.944908
O O1 0.250000 0.108088 0.250000
O O2 0.500000 0.118183 0.199237
O O3 0.249477 0.204283 0.167248
O O4 0.276653 0.021172 0.165023
O O5 0.500000 0.399284 0.532252
O O6 0.241168 0.393490 0.485551
O O7 0.252752 0.463149 0.575398
O O8 0.280880 0.284989 0.563054
O O9 0.500000 0.077758 0.045066
O O10 0.313364 0.212391 0.071157
O O11 0.216495 0.041422 0.068202
O O12 0.280904 0.130790 0.986231
O O13 0.500000 0.560811 0.935478
O O14 0.259271 0.632251 0.888542
O O15 0.500000 0.722285 0.860006
O O16 0.500000 0.008292 0.367381
O O17 0.299624 0.878594 0.393209
O O18 0.000000 0.169606 0.962547
#
# Coordination Sequence:
#
# PCOD8217608 Si02
#       7
#     8   8   8   8   8   8   8
#     4  10  20  36  54  75  96 119 150 192 240 291
#     4  10  19  29  41  63  93 127 162 199 229 267
#     4  10  18  29  44  65  93 126 161 198 233 274
#     4  10  17  29  45  64  89 125 161 195 232 273
#     4   8  16  29  46  67  93 121 154 190 231 279
#     4  10  20  33  47  66  92 125 159 195 237 283
#     4  10  20  31  43  62  94 131 164 196 234 276
#
# _framework density 16.439595000000001
#
# number of rings (size 3 to 8) (size 9 to 14) (size 15 to 20)
#    0.000    2.286    1.429    4.286    0.000    3.429 
#    0.000    2.143    0.000    0.000    0.000    1.000 
#    0.000    4.571    0.000    0.000    0.000    0.000 
#
# Total GULP energy -693956.408929 kJ/mol
# GULP energy per Si atom -12392.078731 kJ/mol
# Density = 1.640218 g / cm^3
# Si number density = 16.439595 Si / 1000 Ang^3
#
#
#
# Elastic Constant Matrix: (Units=GPa)
#
#
# Indices 1 2 3 4 5 6 
#
# 1 52.1638 27.5278 23.6446 0.0000 0.0000 0.0000
# 2 27.5278 118.4180 54.5177 0.0000 0.0000 0.0000
# 3 23.6446 54.5177 85.5064 0.0000 0.0000 0.0000
# 4 0.0000 0.0000 0.0000 12.3980 0.0000 0.0000
# 5 0.0000 0.0000 0.0000 0.0000 18.1690 0.0000
# 6 0.0000 0.0000 0.0000 0.0000 0.0000 20.4975
#
#
#
# Elastic Compliance Matrix: (Units=1/GPa)
#
#
# Indices 1 2 3 4 5 6 
#
# 1 0.022846 -0.003401 -0.004149 0.000000 0.000000 0.000000
# 2 -0.003401 0.012460 -0.007004 0.000000 0.000000 0.000000
# 3 -0.004149 -0.007004 0.017308 0.000000 0.000000 0.000000
# 4 0.000000 0.000000 0.000000 0.080658 0.000000 0.000000
# 5 0.000000 0.000000 0.000000 0.000000 0.055039 0.000000
# 6 0.000000 0.000000 0.000000 0.000000 0.000000 0.048786
#
#
# Mechanical properties :
#
#
# Convention : Reuss Voigt Hill
#
# Bulk Modulus (GPa) = 42.54214 51.94094 47.24154
# Shear Modulus (GPa) = 18.24559 20.23944 19.24251
#
# Velocity S-wave (km/s) = 3.33506 3.51257 3.42497
# Velocity P-wave (km/s) = 6.38469 6.93646 6.66628
#
# Compressibility (1/GPa) = 0.02350610
#
# Stress axis : x y z
#
# Youngs Moduli (GPa) = 43.77200 80.25977 57.77724
#
# Poissons Ratio (x) = 0.27293 0.23973
# Poissons Ratio (y) = 0.14885 0.40465
# Poissons Ratio (z) = 0.18162 0.56212
#
# Static dielectric constant tensor:
#      x y z
#    x 3.108770 0.000000 0.000000 
#    y 0.000000 3.494130 0.000000 
#    z 0.000000 0.000000 2.846050 
# 
# 
# High freq. dielectric constant tensor:
#      x y z
#    x 1.636240 0.000000 0.000000 
#    y 0.000000 1.638890 0.000000 
#    z 0.000000 0.000000 1.583700 
# 
# From -- ./inp_files/38324.got.cif
#   From: 2010.03.12/outbox.cif.g09.slc.cpg/sg53_20_cif.got.tgz:38324.got - 2010.04.16 14:36:59.
