data_PCOD8217646
_publ_section_title
;
Structure prediction by ZEFSAII (Michael W. Deem and Ramdas Pophale) SiO2 
 PCOD8217646
Probable space group: P M N A
;
_chemical_formula_sum "Si O2"
_cell_formula_units_Z 48
_cell_length_a 19.157759
_cell_length_b 12.171553
_cell_length_c 9.738722
_cell_angle_alpha 90.000000
_cell_angle_beta 90.000000
_cell_angle_gamma 90.000000
_cell_volume 2270.872070
_symmetry_space_group_name_H-M "P M N A"
_symmetry_group_IT_number 53
_symmetry_cell_setting 'orthorhombic'
loop_
_space_group_symop_operation_xyz
x,y,z
1/2-x,-y,1/2+z
x,-y,-z
1/2-x,y,1/2-z
-x,-y,-z
1/2+x,y,1/2-z
-x,y,z
1/2+x,-y,1/2+z
loop_
_atom_site_type_symbol
_atom_site_label
_atom_site_fract_x
_atom_site_fract_y
_atom_site_fract_z
Si Si1 0.422308 0.143884 0.357122
Si Si2 0.078252 0.051063 0.643851
Si Si3 0.310627 0.476702 0.844688
Si Si4 0.270017 0.107565 0.414051
Si Si5 0.577880 0.346643 0.162806
Si Si6 0.662968 0.245555 0.924895
O O1 0.500000 0.133636 0.430673
O O2 0.352415 0.131418 0.447817
O O3 0.418037 0.262038 0.287684
O O4 0.414509 0.044497 0.252228
O O5 0.132466 0.149671 0.673219
O O6 0.000000 0.098774 0.639165
O O7 0.100639 0.000000 0.500000
O O8 0.250000 0.523809 0.750000
O O9 0.379697 0.543119 0.803211
O O10 0.318152 0.345676 0.823463
O O11 0.288878 0.500000 0.000000
O O12 0.250000 0.097120 0.250000
O O13 0.227987 0.208710 0.480493
O O14 0.248033 0.000000 0.500000
O O15 0.500000 0.387404 0.137809
O O16 0.602466 0.286195 0.025925
#
# Coordination Sequence:
#
# PCOD8217646 Si02
#       6
#     8   8   8   8   8   8
#     4  10  21  36  59  88 120 164 208 248 301 369
#     4  10  17  31  56  86 123 156 193 247 306 361
#     4  10  25  41  63  90 124 161 205 259 311 371
#     4  12  24  39  64  93 130 167 208 254 307 373
#     4  10  20  37  63  89 117 156 209 259 306 366
#     4  11  21  34  58  92 125 158 201 255 314 366
#
# _framework density 21.137253999999999
#
# number of rings (size 3 to 8) (size 9 to 14) (size 15 to 20)
#    0.000    1.500    3.333    2.000    4.667    6.000 
#    0.000    0.000    0.000    1.500    0.000    0.000 
#    0.000    0.000    0.000    0.000    0.000    0.000 
#
# Total GULP energy -594875.806252 kJ/mol
# GULP energy per Si atom -12393.245964 kJ/mol
# Density = 2.108914 g / cm^3
# Si number density = 21.137254 Si / 1000 Ang^3
#
#
#
# Elastic Constant Matrix: (Units=GPa)
#
#
# Indices 1 2 3 4 5 6 
#
# 1 178.5411 69.2482 34.4054 0.0000 0.0000 0.0000
# 2 69.2482 135.8044 31.2185 0.0000 0.0000 0.0000
# 3 34.4054 31.2185 25.6366 0.0000 0.0000 0.0000
# 4 0.0000 0.0000 0.0000 18.2725 0.0000 0.0000
# 5 0.0000 0.0000 0.0000 0.0000 22.6893 0.0000
# 6 0.0000 0.0000 0.0000 0.0000 0.0000 25.8074
#
#
#
# Elastic Compliance Matrix: (Units=1/GPa)
#
#
# Indices 1 2 3 4 5 6 
#
# 1 0.008018 -0.002243 -0.008030 0.000000 0.000000 0.000000
# 2 -0.002243 0.010853 -0.010207 0.000000 0.000000 0.000000
# 3 -0.008030 -0.010207 0.062212 0.000000 0.000000 0.000000
# 4 0.000000 0.000000 0.000000 0.054727 0.000000 0.000000
# 5 0.000000 0.000000 0.000000 0.000000 0.044074 0.000000
# 6 0.000000 0.000000 0.000000 0.000000 0.000000 0.038749
#
#
# Mechanical properties :
#
#
# Convention : Reuss Voigt Hill
#
# Bulk Modulus (GPa) = 24.92196 67.74737 46.33466
# Shear Modulus (GPa) = 18.31729 27.02784 22.67256
#
# Velocity S-wave (km/s) = 2.94698 3.57975 3.27866
# Velocity P-wave (km/s) = 4.83691 7.01476 6.02506
#
# Compressibility (1/GPa) = 0.04012525
#
# Stress axis : x y z
#
# Youngs Moduli (GPa) = 124.71730 92.13688 16.07408
#
# Poissons Ratio (x) = 0.20663 0.12907
# Poissons Ratio (y) = 0.27970 0.16406
# Poissons Ratio (z) = 1.00144 0.94042
#
# Static dielectric constant tensor:
#      x y z
#    x 4.368560 0.000000 0.000000 
#    y 0.000000 4.021900 0.000000 
#    z 0.000000 0.000000 3.384410 
# 
# 
# High freq. dielectric constant tensor:
#      x y z
#    x 1.851750 0.000000 0.000000 
#    y 0.000000 1.836720 0.000000 
#    z 0.000000 0.000000 1.781120 
# 
# From -- ./inp_files/16902.got.cif
#   From: 2010.03.12/outbox.cif.g09.slc.cpg/sg53_9_cif.got.tgz:16902.got - 2010.04.16 14:36:59.
