data_PCOD8217337
_publ_section_title
;
Structure prediction by ZEFSAII (Michael W. Deem and Ramdas Pophale) SiO2 
 PCOD8217337
Probable space group: P N N A
;
_chemical_formula_sum "Si O2"
_cell_formula_units_Z 40
_cell_length_a 8.589866
_cell_length_b 16.525383
_cell_length_c 12.356077
_cell_angle_alpha 90.000000
_cell_angle_beta 90.000000
_cell_angle_gamma 90.000000
_cell_volume 1753.955331
_symmetry_space_group_name_H-M "P N N A"
_symmetry_group_IT_number 52
_symmetry_cell_setting 'orthorhombic'
loop_
_space_group_symop_operation_xyz
x,y,z
1/2-x,-y,z
x,1/2-y,1/2-z
1/2-x,1/2+y,1/2-z
-x,-y,-z
1/2+x,y,-z
-x,1/2+y,1/2+z
1/2+x,1/2-y,1/2+z
loop_
_atom_site_type_symbol
_atom_site_label
_atom_site_fract_x
_atom_site_fract_y
_atom_site_fract_z
Si Si1 0.665944 0.835366 0.838874
Si Si2 0.373050 0.440283 0.541890
Si Si3 0.299461 0.407692 0.924510
Si Si4 0.471084 0.159657 0.375833
Si Si5 0.510480 0.838102 0.236388
O O1 0.548560 0.872082 0.748082
O O2 0.590794 0.752058 0.882959
O O3 0.825561 0.826333 0.771850
O O4 0.697517 0.894749 0.937915
O O5 0.250000 0.500000 0.598318
O O6 0.500000 0.500000 0.500000
O O7 0.428385 0.374291 0.625334
O O8 0.250000 0.500000 0.912069
O O9 0.438269 0.391587 0.838782
O O10 0.153305 0.347609 0.905566
O O11 0.368721 0.394460 0.043447
O O12 0.588028 0.750000 0.250000
#
# Coordination Sequence:
#
# PCOD8217337 Si02
#       5
#     8   8   8   8   8
#     4  11  26  47  74 106 147 193 249 306 365 447
#     4  12  27  45  74 109 149 191 243 313 376 438
#     4  12  28  47  76 107 151 195 246 310 375 451
#     4  11  26  47  73 107 145 195 251 300 373 442
#     4  12  26  48  73 104 150 196 250 304 375 442
#
# _framework density 22.805598
#
# number of rings (size 3 to 8) (size 9 to 14) (size 15 to 20)
#    0.000    0.400    4.000    3.600   11.200    0.800 
#    0.000    0.000    0.000    0.000    0.000    0.000 
#    0.000    0.000    0.000    0.000    0.000    0.000 
#
# Total GULP energy -495923.947684 kJ/mol
# GULP energy per Si atom -12398.098692 kJ/mol
# Density = 2.275369 g / cm^3
# Si number density = 22.805598 Si / 1000 Ang^3
#
#
#
# Elastic Constant Matrix: (Units=GPa)
#
#
# Indices 1 2 3 4 5 6 
#
# 1 112.3961 42.6256 11.6894 0.0000 0.0000 0.0000
# 2 42.6256 127.8933 50.8001 0.0000 0.0000 0.0000
# 3 11.6894 50.8001 113.4249 0.0000 0.0000 0.0000
# 4 0.0000 0.0000 0.0000 40.0938 0.0000 0.0000
# 5 0.0000 0.0000 0.0000 0.0000 30.4129 0.0000
# 6 0.0000 0.0000 0.0000 0.0000 0.0000 35.3173
#
#
#
# Elastic Compliance Matrix: (Units=1/GPa)
#
#
# Indices 1 2 3 4 5 6 
#
# 1 0.010215 -0.003633 0.000574 0.000000 0.000000 0.000000
# 2 -0.003633 0.010803 -0.004464 0.000000 0.000000 0.000000
# 3 0.000574 -0.004464 0.010757 0.000000 0.000000 0.000000
# 4 0.000000 0.000000 0.000000 0.024941 0.000000 0.000000
# 5 0.000000 0.000000 0.000000 0.000000 0.032881 0.000000
# 6 0.000000 0.000000 0.000000 0.000000 0.000000 0.028315
#
#
# Mechanical properties :
#
#
# Convention : Reuss Voigt Hill
#
# Bulk Modulus (GPa) = 59.77409 62.66051 61.21730
# Shear Modulus (GPa) = 36.09255 37.73809 36.91532
#
# Velocity S-wave (km/s) = 3.98253 4.07230 4.02767
# Velocity P-wave (km/s) = 6.88582 7.04607 6.96641
#
# Compressibility (1/GPa) = 0.01672966
#
# Stress axis : x y z
#
# Youngs Moduli (GPa) = 97.89477 92.56818 92.96700
#
# Poissons Ratio (x) = 0.33627 -0.05338
# Poissons Ratio (y) = 0.35562 0.41500
# Poissons Ratio (z) = -0.05621 0.41322
#
# Static dielectric constant tensor:
#      x y z
#    x 4.185590 0.000000 0.000000 
#    y 0.000000 4.035520 0.000000 
#    z 0.000000 0.000000 4.250050 
# 
# 
# High freq. dielectric constant tensor:
#      x y z
#    x 1.909180 0.000000 0.000000 
#    y 0.000000 1.905000 0.000000 
#    z 0.000000 0.000000 1.913490 
# 
# From -- ./inp_files/16630.got.cif
#   From: 2010.06.25/outbox.cif.g09.slc.cpg/sg52_9_cif.got.tgz:16630.got - 2010.06.26 19:32:48.
