data_PCOD8217374
_publ_section_title
;
Structure prediction by ZEFSAII (Michael W. Deem and Ramdas Pophale) SiO2 
 PCOD8217374
Probable space group: P N N A
;
_chemical_formula_sum "Si O2"
_cell_formula_units_Z 32
_cell_length_a 9.443079
_cell_length_b 21.074581
_cell_length_c 7.247555
_cell_angle_alpha 90.000000
_cell_angle_beta 90.000000
_cell_angle_gamma 90.000000
_cell_volume 1442.328189
_symmetry_space_group_name_H-M "P N N A"
_symmetry_group_IT_number 52
_symmetry_cell_setting 'orthorhombic'
loop_
_space_group_symop_operation_xyz
x,y,z
1/2-x,-y,z
x,1/2-y,1/2-z
1/2-x,1/2+y,1/2-z
-x,-y,-z
1/2+x,y,-z
-x,1/2+y,1/2+z
1/2+x,1/2-y,1/2+z
loop_
_atom_site_type_symbol
_atom_site_label
_atom_site_fract_x
_atom_site_fract_y
_atom_site_fract_z
Si Si1 0.569703 0.363428 0.877454
Si Si2 0.722878 0.572507 0.158791
Si Si3 0.208162 0.152007 0.981383
Si Si4 0.959057 0.236269 0.945537
O O1 0.444041 0.414667 0.867455
O O2 0.658898 0.361229 0.688913
O O3 0.684769 0.382402 0.028393
O O4 0.499795 0.295566 0.925891
O O5 0.750000 0.500000 0.108755
O O6 0.773818 0.586384 0.368748
O O7 0.356762 0.187972 0.949153
O O8 0.097273 0.197916 0.883186
O O9 0.881352 0.250000 0.750000
#
# Coordination Sequence:
#
# PCOD8217374 Si02
#       4
#     8   8   8   8
#     4  12  26  47  75 105 143 189 242 301 361 421
#     4  12  28  49  72 105 148 197 245 287 351 437
#     4  12  26  44  70 109 142 186 231 301 362 422
#     4  12  23  43  71 105 145 177 236 300 366 418
#
# _framework density 22.186350000000001
#
# number of rings (size 3 to 8) (size 9 to 14) (size 15 to 20)
#    0.000    0.000    5.000    6.000    0.000    2.000 
#    0.000    0.000    0.000    0.000    0.000    0.000 
#    0.000    0.000    0.000    0.000    0.000    0.000 
#
# Total GULP energy -396808.535513 kJ/mol
# GULP energy per Si atom -12400.266735 kJ/mol
# Density = 2.213585 g / cm^3
# Si number density = 22.186350 Si / 1000 Ang^3
#
#
#
# Elastic Constant Matrix: (Units=GPa)
#
#
# Indices 1 2 3 4 5 6 
#
# 1 -177.1653 49.7906 228.1261 0.0000 0.0000 0.0000
# 2 49.7906 81.9402 6.4543 0.0000 0.0000 0.0000
# 3 228.1261 6.4543 -20.3747 0.0000 0.0000 0.0000
# 4 0.0000 0.0000 0.0000 26.7066 0.0000 0.0000
# 5 0.0000 0.0000 0.0000 0.0000 33.3403 0.0000
# 6 0.0000 0.0000 0.0000 0.0000 0.0000 40.7097
#
#
#
# Elastic Compliance Matrix: (Units=1/GPa)
#
#
# Indices 1 2 3 4 5 6 
#
# 1 0.000455 -0.000661 0.004881 0.000000 0.000000 0.000000
# 2 -0.000661 0.012867 -0.003321 0.000000 0.000000 0.000000
# 3 0.004881 -0.003321 0.004515 0.000000 0.000000 0.000000
# 4 0.000000 0.000000 0.000000 0.037444 0.000000 0.000000
# 5 0.000000 0.000000 0.000000 0.000000 0.029994 0.000000
# 6 0.000000 0.000000 0.000000 0.000000 0.000000 0.024564
#
#
# Mechanical properties :
#
#
# Convention : Reuss Voigt Hill
#
# Bulk Modulus (GPa) = 50.93096 50.34914 50.64005
# Shear Modulus (GPa) = 43.63512 -6.51341 18.56085
#
# Velocity S-wave (km/s) = 4.43962 -1.71527 2.89552
# Velocity P-wave (km/s) = 7.02041 4.33822 5.83551
#
# Compressibility (1/GPa) = 0.01963442
#
# Stress axis : x y z
#
# Youngs Moduli (GPa) = 2199.67496 77.71752 221.46311
#
# Poissons Ratio (x) = 0.05135 -1.08092
# Poissons Ratio (y) = 1.45332 0.73558
# Poissons Ratio (z) = -10.73617 0.25814
#
# Static dielectric constant tensor:
#      x y z
#    x 4.230290 0.000000 0.000000 
#    y 0.000000 3.739830 0.000000 
#    z 0.000000 0.000000 3.955850 
# 
# 
# High freq. dielectric constant tensor:
#      x y z
#    x 1.895830 0.000000 0.000000 
#    y 0.000000 1.856330 0.000000 
#    z 0.000000 0.000000 1.890110 
# 
# From -- ./inp_files/7199.got.cif
#   From: 2010.06.25/outbox.cif.g09.slc.cpg/sg52_4_cif.got.tgz:7199.got - 2010.06.26 19:32:48.
