data_PCOD8217577
_publ_section_title
;
Structure prediction by ZEFSAII (Michael W. Deem and Ramdas Pophale) SiO2 
 PCOD8217577
Probable space group: P M N A
;
_chemical_formula_sum "Si O2"
_cell_formula_units_Z 64
_cell_length_a 9.759831
_cell_length_b 14.765583
_cell_length_c 29.309221
_cell_angle_alpha 90.000000
_cell_angle_beta 90.000000
_cell_angle_gamma 90.000000
_cell_volume 4223.739959
_symmetry_space_group_name_H-M "P M N A"
_symmetry_group_IT_number 53
_symmetry_cell_setting 'orthorhombic'
loop_
_space_group_symop_operation_xyz
x,y,z
1/2-x,-y,1/2+z
x,-y,-z
1/2-x,y,1/2-z
-x,-y,-z
1/2+x,y,1/2-z
-x,y,z
1/2+x,-y,1/2+z
loop_
_atom_site_type_symbol
_atom_site_label
_atom_site_fract_x
_atom_site_fract_y
_atom_site_fract_z
Si Si1 0.156500 0.440319 0.566563
Si Si2 0.840776 0.986449 0.207521
Si Si3 0.657008 0.365293 0.032427
Si Si4 0.845672 0.776598 0.210201
Si Si5 0.837867 0.964654 0.891836
Si Si6 0.661444 0.194191 0.456852
Si Si7 0.838239 0.139837 0.942738
Si Si8 0.158548 0.690747 0.114213
O O1 0.195021 0.393969 0.518701
O O2 0.179490 0.548036 0.564838
O O3 0.256002 0.400091 0.604953
O O4 0.000000 0.418597 0.579336
O O5 0.750000 0.021801 0.250000
O O6 0.791493 0.036627 0.161174
O O7 0.000000 0.006122 0.218396
O O8 0.813785 0.880693 0.198332
O O9 0.500000 0.331880 0.035191
O O10 0.757154 0.287024 0.049655
O O11 0.750000 0.739099 0.250000
O O12 0.818695 0.715722 0.166466
O O13 0.000000 0.766917 0.227732
O O14 0.792273 0.871608 0.915808
O O15 0.000000 0.975072 0.893954
O O16 0.773658 0.049793 0.919691
O O17 0.500000 0.215833 0.455624
O O18 0.701775 0.144629 0.504108
O O19 0.781384 0.228632 0.917202
O O20 0.000000 0.137259 0.935973
O O21 0.000000 0.672058 0.103019
#
# Coordination Sequence:
#
# PCOD8217577 Si02
#       8
#     8   8   8   8   8   8   8   8
#     4   9  18  31  46  62  84 118 151 176 215 269
#     4   9  16  28  44  61  85 115 147 182 217 255
#     4   9  18  32  45  60  87 119 147 179 220 261
#     4   9  17  28  43  63  89 118 147 179 219 261
#     4   9  16  27  43  64  90 120 149 179 217 261
#     4  10  18  27  45  68  87 115 155 188 215 253
#     4   9  15  25  40  63  92 119 147 177 211 253
#     4  10  17  27  45  68  91 115 146 186 222 251
#
# _framework density 15.152448
#
# number of rings (size 3 to 8) (size 9 to 14) (size 15 to 20)
#    0.000    2.750    2.500    1.125    0.000    2.500 
#    0.000    1.875    0.000    3.000    0.000    0.875 
#    0.000    2.000    0.000    0.000    0.000    0.000 
#
# Total GULP energy -793467.286248 kJ/mol
# GULP energy per Si atom -12397.926348 kJ/mol
# Density = 1.511796 g / cm^3
# Si number density = 15.152448 Si / 1000 Ang^3
#
#
#
# Elastic Constant Matrix: (Units=GPa)
#
#
# Indices 1 2 3 4 5 6 
#
# 1 56.0728 43.9144 48.0240 0.0000 0.0000 0.0000
# 2 43.9144 85.3631 49.4415 0.0000 0.0000 0.0000
# 3 48.0240 49.4415 92.8557 0.0000 0.0000 0.0000
# 4 0.0000 0.0000 0.0000 19.7645 0.0000 0.0000
# 5 0.0000 0.0000 0.0000 0.0000 23.1792 0.0000
# 6 0.0000 0.0000 0.0000 0.0000 0.0000 20.0085
#
#
#
# Elastic Compliance Matrix: (Units=1/GPa)
#
#
# Indices 1 2 3 4 5 6 
#
# 1 0.039161 -0.012168 -0.013775 0.000000 0.000000 0.000000
# 2 -0.012168 0.020719 -0.004739 0.000000 0.000000 0.000000
# 3 -0.013775 -0.004739 0.020417 0.000000 0.000000 0.000000
# 4 0.000000 0.000000 0.000000 0.050596 0.000000 0.000000
# 5 0.000000 0.000000 0.000000 0.000000 0.043142 0.000000
# 6 0.000000 0.000000 0.000000 0.000000 0.000000 0.049979
#
#
# Mechanical properties :
#
#
# Convention : Reuss Voigt Hill
#
# Bulk Modulus (GPa) = 52.81567 57.45016 55.13291
# Shear Modulus (GPa) = 17.14162 18.78457 17.96309
#
# Velocity S-wave (km/s) = 3.36710 3.52476 3.44683
# Velocity P-wave (km/s) = 7.07448 7.38663 7.23224
#
# Compressibility (1/GPa) = 0.01893378
#
# Stress axis : x y z
#
# Youngs Moduli (GPa) = 25.53559 48.26488 48.97918
#
# Poissons Ratio (x) = 0.58728 0.67468
# Poissons Ratio (y) = 0.31071 0.23211
# Poissons Ratio (z) = 0.35175 0.22872
#
# Static dielectric constant tensor:
#      x y z
#    x 2.717170 0.000000 0.000000 
#    y 0.000000 2.813640 0.000000 
#    z 0.000000 0.000000 2.903970 
# 
# 
# High freq. dielectric constant tensor:
#      x y z
#    x 1.558920 0.000000 0.000000 
#    y 0.000000 1.562660 0.000000 
#    z 0.000000 0.000000 1.570370 
# 
# From -- ./inp_files/35054.got.cif
#   From: 2010.03.12/outbox.cif.g09.slc.cpg/sg53_18_cif.got.tgz:35054.got - 2010.04.16 14:36:59.
