data_PCOD8217656
_publ_section_title
;
Structure prediction by ZEFSAII (Michael W. Deem and Ramdas Pophale) SiO2 
 PCOD8217656
Probable space group: P M N A
;
_chemical_formula_sum "Si O2"
_cell_formula_units_Z 48
_cell_length_a 16.736917
_cell_length_b 9.131947
_cell_length_c 17.637236
_cell_angle_alpha 90.000000
_cell_angle_beta 90.000000
_cell_angle_gamma 90.000000
_cell_volume 2695.686420
_symmetry_space_group_name_H-M "P M N A"
_symmetry_group_IT_number 53
_symmetry_cell_setting 'orthorhombic'
loop_
_space_group_symop_operation_xyz
x,y,z
1/2-x,-y,1/2+z
x,-y,-z
1/2-x,y,1/2-z
-x,-y,-z
1/2+x,y,1/2-z
-x,y,z
1/2+x,-y,1/2+z
loop_
_atom_site_type_symbol
_atom_site_label
_atom_site_fract_x
_atom_site_fract_y
_atom_site_fract_z
Si Si1 0.593609 0.830546 0.989996
Si Si2 0.187012 0.400632 0.573024
Si Si3 0.000000 0.127566 0.105527
Si Si4 0.673141 0.316878 0.152546
Si Si5 0.356590 0.699228 0.674958
Si Si6 0.133680 0.422606 0.919844
Si Si7 0.000000 0.197493 0.930074
O O1 0.500000 0.800633 0.992936
O O2 0.626155 0.778178 0.908976
O O3 0.632774 0.743040 0.061085
O O4 0.614895 0.000000 0.000000
O O5 0.178351 0.500000 0.500000
O O6 0.160571 0.507224 0.641735
O O7 0.278373 0.352579 0.583324
O O8 0.918498 0.183463 0.143077
O O9 0.000000 0.953531 0.115357
O O10 0.000000 0.174924 0.019224
O O11 0.638746 0.283645 0.234870
O O12 0.766625 0.272841 0.144678
O O13 0.382165 0.538001 0.647465
O O14 0.077497 0.286057 0.905079
O O15 0.115302 0.500000 0.000000
#
# Coordination Sequence:
#
# PCOD8217656 Si02
#       7
#     8   8   4   8   8   8   4
#     4  10  21  36  55  81 111 143 177 221 274 327
#     4   8  17  33  55  81 102 131 181 227 264 313
#     4  11  23  34  51  82 115 149 177 215 260 328
#     4   9  20  37  59  81 104 138 183 230 272 319
#     4  10  20  37  57  81 108 141 182 225 274 314
#     4  10  17  33  55  78 106 141 178 224 261 307
#     4  11  22  33  50  81 116 144 182 214 257 319
#
# _framework density 17.806225000000001
#
# number of rings (size 3 to 8) (size 9 to 14) (size 15 to 20)
#    0.000    2.333    1.667    1.750    1.167    4.333 
#    0.000    1.667    0.000    4.000    0.000    0.000 
#    0.000    0.000    0.000    0.000    0.000    0.000 
#
# Total GULP energy -595079.063962 kJ/mol
# GULP energy per Si atom -12397.480499 kJ/mol
# Density = 1.776570 g / cm^3
# Si number density = 17.806225 Si / 1000 Ang^3
#
#
#
# Elastic Constant Matrix: (Units=GPa)
#
#
# Indices 1 2 3 4 5 6 
#
# 1 118.0719 92.4885 43.6078 0.0000 0.0000 0.0000
# 2 92.4885 143.2167 49.9888 0.0000 0.0000 0.0000
# 3 43.6078 49.9888 71.4479 0.0000 0.0000 0.0000
# 4 0.0000 0.0000 0.0000 21.2684 0.0000 0.0000
# 5 0.0000 0.0000 0.0000 0.0000 -19.2284 0.0000
# 6 0.0000 0.0000 0.0000 0.0000 0.0000 33.6441
#
#
#
# Elastic Compliance Matrix: (Units=1/GPa)
#
#
# Indices 1 2 3 4 5 6 
#
# 1 0.017867 -0.010231 -0.003747 0.000000 0.000000 0.000000
# 2 -0.010231 0.015097 -0.004318 0.000000 0.000000 0.000000
# 3 -0.003747 -0.004318 0.019305 0.000000 0.000000 0.000000
# 4 0.000000 0.000000 0.000000 0.047018 0.000000 0.000000
# 5 0.000000 0.000000 0.000000 0.000000 -0.052006 0.000000
# 6 0.000000 0.000000 0.000000 0.000000 0.000000 0.029723
#
#
# Mechanical properties :
#
#
# Convention : Reuss Voigt Hill
#
# Bulk Modulus (GPa) = 63.79080 78.32297 71.05689
# Shear Modulus (GPa) = 42.08021 16.91357 29.49689
#
# Velocity S-wave (km/s) = 4.86658 3.08534 4.07449
# Velocity P-wave (km/s) = 8.21468 7.53486 7.88210
#
# Compressibility (1/GPa) = 0.01567624
#
# Stress axis : x y z
#
# Youngs Moduli (GPa) = 55.96810 66.24044 51.80124
#
# Poissons Ratio (x) = 0.67768 0.19412
# Poissons Ratio (y) = 0.57259 0.22368
# Poissons Ratio (z) = 0.20973 0.28603
#
# Static dielectric constant tensor:
#      x y z
#    x 3.430730 0.000000 0.000000 
#    y 0.000000 3.415030 0.000000 
#    z 0.000000 0.000000 3.451960 
# 
# 
# High freq. dielectric constant tensor:
#      x y z
#    x 1.700290 0.000000 0.000000 
#    y 0.000000 1.678530 0.000000 
#    z 0.000000 0.000000 1.676030 
# 
# From -- ./inp_files/28309.got.cif
#   From: 2010.03.12/outbox.cif.g09.slc.cpg/sg53_15_cif.got.tgz:28309.got - 2010.04.16 14:36:59.
