data_PCOD8217714
_publ_section_title
;
Structure prediction by ZEFSAII (Michael W. Deem and Ramdas Pophale) SiO2 
 PCOD8217714
Probable space group: P M N A
;
_chemical_formula_sum "Si O2"
_cell_formula_units_Z 48
_cell_length_a 31.743580
_cell_length_b 5.242276
_cell_length_c 19.932314
_cell_angle_alpha 90.000000
_cell_angle_beta 90.000000
_cell_angle_gamma 90.000000
_cell_volume 3316.908619
_symmetry_space_group_name_H-M "P M N A"
_symmetry_group_IT_number 53
_symmetry_cell_setting 'orthorhombic'
loop_
_space_group_symop_operation_xyz
x,y,z
1/2-x,-y,1/2+z
x,-y,-z
1/2-x,y,1/2-z
-x,-y,-z
1/2+x,y,1/2-z
-x,y,z
1/2+x,-y,1/2+z
loop_
_atom_site_type_symbol
_atom_site_label
_atom_site_fract_x
_atom_site_fract_y
_atom_site_fract_z
Si Si1 0.083713 0.296466 0.075956
Si Si2 0.331281 0.438837 0.364348
Si Si3 0.686321 0.055218 0.709116
Si Si4 0.548779 0.792445 0.427355
Si Si5 0.738472 0.446073 0.077773
Si Si6 0.279345 0.941701 0.151190
O O1 0.132160 0.384187 0.081617
O O2 0.055778 0.522819 0.110516
O O3 0.072035 0.026415 0.111581
O O4 0.071299 0.251941 0.998814
O O5 0.337756 0.702705 0.323559
O O6 0.287778 0.439608 0.404642
O O7 0.335113 0.208984 0.311585
O O8 0.685618 0.057873 0.790101
O O9 0.733802 0.053939 0.684020
O O10 0.500000 0.858643 0.436475
O O11 0.714161 0.676886 0.113088
O O12 0.716203 0.182530 0.100795
O O13 0.733249 0.500000 0.000000
#
# Coordination Sequence:
#
# PCOD8217714 Si02
#       6
#     8   8   8   8   8   8
#     4  10  18  28  41  57  75  96 126 167 204 239
#     4  10  19  28  40  61  77  99 121 167 217 241
#     4   9  17  30  43  54  73  96 136 155 189 253
#     4  10  19  31  43  55  74 109 139 159 193 248
#     4  10  19  28  40  59  81  97 124 159 208 257
#     4   9  17  30  43  54  70 105 127 157 190 237
#
# _framework density 14.471306
#
# number of rings (size 3 to 8) (size 9 to 14) (size 15 to 20)
#    0.000    2.333    0.000    5.000    2.333    4.000 
#    6.000    0.000    0.000    0.000    0.000    0.000 
#    0.000    0.000    0.000    0.000    0.000    0.000 
#
# Total GULP energy -594671.012872 kJ/mol
# GULP energy per Si atom -12388.979435 kJ/mol
# Density = 1.443837 g / cm^3
# Si number density = 14.471306 Si / 1000 Ang^3
#
#
#
# Elastic Constant Matrix: (Units=GPa)
#
#
# Indices 1 2 3 4 5 6 
#
# 1 25.2896 11.2536 13.5170 0.0000 0.0000 0.0000
# 2 11.2536 137.1714 23.5865 0.0000 0.0000 0.0000
# 3 13.5170 23.5865 60.5545 0.0000 0.0000 0.0000
# 4 0.0000 0.0000 0.0000 19.1063 0.0000 0.0000
# 5 0.0000 0.0000 0.0000 0.0000 9.3004 0.0000
# 6 0.0000 0.0000 0.0000 0.0000 0.0000 18.0048
#
#
#
# Elastic Compliance Matrix: (Units=1/GPa)
#
#
# Indices 1 2 3 4 5 6 
#
# 1 0.045471 -0.002128 -0.009321 0.000000 0.000000 0.000000
# 2 -0.002128 0.007913 -0.002607 0.000000 0.000000 0.000000
# 3 -0.009321 -0.002607 0.019610 0.000000 0.000000 0.000000
# 4 0.000000 0.000000 0.000000 0.052339 0.000000 0.000000
# 5 0.000000 0.000000 0.000000 0.000000 0.107522 0.000000
# 6 0.000000 0.000000 0.000000 0.000000 0.000000 0.055541
#
#
# Mechanical properties :
#
#
# Convention : Reuss Voigt Hill
#
# Bulk Modulus (GPa) = 22.28075 35.52551 28.90313
# Shear Modulus (GPa) = 15.08438 20.92620 18.00529
#
# Velocity S-wave (km/s) = 3.23207 3.80682 3.53116
# Velocity P-wave (km/s) = 5.41833 6.62757 6.05322
#
# Compressibility (1/GPa) = 0.04488180
#
# Stress axis : x y z
#
# Youngs Moduli (GPa) = 21.99213 126.37405 50.99367
#
# Poissons Ratio (x) = 0.26888 0.47532
# Poissons Ratio (y) = 0.04679 0.13295
# Poissons Ratio (z) = 0.20499 0.32949
#
# Static dielectric constant tensor:
#      x y z
#    x 2.550430 0.000000 0.000000 
#    y 0.000000 6.187540 0.000000 
#    z 0.000000 0.000000 2.662710 
# 
# 
# High freq. dielectric constant tensor:
#      x y z
#    x 1.505430 0.000000 0.000000 
#    y 0.000000 1.593080 0.000000 
#    z 0.000000 0.000000 1.510440 
# 
# From -- ./inp_files/29654.got.cif
#   From: 2010.03.12/outbox.cif.g09.slc.cpg/sg53_15_cif.got.tgz:29654.got - 2010.04.16 14:36:59.
