data_PCOD8217703
_publ_section_title
;
Structure prediction by ZEFSAII (Michael W. Deem and Ramdas Pophale) SiO2 
 PCOD8217703
Probable space group: P M N A
;
_chemical_formula_sum "Si O2"
_cell_formula_units_Z 48
_cell_length_a 8.858240
_cell_length_b 15.145763
_cell_length_c 21.491413
_cell_angle_alpha 90.000000
_cell_angle_beta 90.000000
_cell_angle_gamma 90.000000
_cell_volume 2883.391205
_symmetry_space_group_name_H-M "P M N A"
_symmetry_group_IT_number 53
_symmetry_cell_setting 'orthorhombic'
loop_
_space_group_symop_operation_xyz
x,y,z
1/2-x,-y,1/2+z
x,-y,-z
1/2-x,y,1/2-z
-x,-y,-z
1/2+x,y,1/2-z
-x,y,z
1/2+x,-y,1/2+z
loop_
_atom_site_type_symbol
_atom_site_label
_atom_site_fract_x
_atom_site_fract_y
_atom_site_fract_z
Si Si1 0.170092 0.979062 0.572424
Si Si2 0.176901 0.153351 0.901668
Si Si3 0.178038 0.440219 0.586212
Si Si4 0.176446 0.806133 0.956369
Si Si5 0.821475 0.373497 0.453954
Si Si6 0.179221 0.701298 0.317323
O O1 0.243799 0.883298 0.583162
O O2 0.000000 0.979160 0.598790
O O3 0.171953 0.000000 0.500000
O O4 0.268264 0.052771 0.607940
O O5 0.266189 0.211538 0.852234
O O6 0.000000 0.159066 0.888110
O O7 0.217731 0.186801 0.970738
O O8 0.223633 0.543688 0.590520
O O9 0.240114 0.396180 0.522974
O O10 0.237595 0.385557 0.645434
O O11 0.000000 0.433792 0.581552
O O12 0.236247 0.713272 0.929762
O O13 0.000000 0.814935 0.945115
O O14 0.000000 0.355739 0.453260
O O15 0.250000 0.696300 0.250000
O O16 0.000000 0.703821 0.312172
#
# Coordination Sequence:
#
# PCOD8217703 Si02
#       6
#     8   8   8   8   8   8
#     4   9  17  28  44  65  90 124 159 188 224 276
#     4  10  19  31  45  65  95 126 156 194 236 281
#     4   8  16  29  47  67  90 121 160 199 236 282
#     4  10  18  27  42  69 100 126 151 188 238 287
#     4   9  15  28  48  68  90 123 160 194 236 290
#     4  11  21  34  50  69  93 126 164 201 238 281
#
# _framework density 16.647065000000001
#
# number of rings (size 3 to 8) (size 9 to 14) (size 15 to 20)
#    0.000    2.500    1.667    3.000    0.000    3.333 
#    0.000    3.333    0.000    0.000    0.000    1.167 
#    0.000    2.667    0.000    0.000    0.000    0.000 
#
# Total GULP energy -595077.102872 kJ/mol
# GULP energy per Si atom -12397.439643 kJ/mol
# Density = 1.660918 g / cm^3
# Si number density = 16.647065 Si / 1000 Ang^3
#
#
#
# Elastic Constant Matrix: (Units=GPa)
#
#
# Indices 1 2 3 4 5 6 
#
# 1 67.4473 43.2553 26.9603 0.0000 0.0000 0.0000
# 2 43.2553 157.2313 43.3565 0.0000 0.0000 0.0000
# 3 26.9603 43.3565 61.6925 0.0000 0.0000 0.0000
# 4 0.0000 0.0000 0.0000 8.2586 0.0000 0.0000
# 5 0.0000 0.0000 0.0000 0.0000 16.4259 0.0000
# 6 0.0000 0.0000 0.0000 0.0000 0.0000 23.5736
#
#
#
# Elastic Compliance Matrix: (Units=1/GPa)
#
#
# Indices 1 2 3 4 5 6 
#
# 1 0.019606 -0.003760 -0.005926 0.000000 0.000000 0.000000
# 2 -0.003760 0.008610 -0.004408 0.000000 0.000000 0.000000
# 3 -0.005926 -0.004408 0.021897 0.000000 0.000000 0.000000
# 4 0.000000 0.000000 0.000000 0.121086 0.000000 0.000000
# 5 0.000000 0.000000 0.000000 0.000000 0.060879 0.000000
# 6 0.000000 0.000000 0.000000 0.000000 0.000000 0.042420
#
#
# Mechanical properties :
#
#
# Convention : Reuss Voigt Hill
#
# Bulk Modulus (GPa) = 45.60773 57.05725 51.33249
# Shear Modulus (GPa) = 16.12933 21.17155 18.65044
#
# Velocity S-wave (km/s) = 3.11609 3.57008 3.35079
# Velocity P-wave (km/s) = 6.35634 7.16541 6.77296
#
# Compressibility (1/GPa) = 0.02192611
#
# Stress axis : x y z
#
# Youngs Moduli (GPa) = 51.00397 116.14628 45.66871
#
# Poissons Ratio (x) = 0.43668 0.27063
# Poissons Ratio (y) = 0.19176 0.20130
# Poissons Ratio (z) = 0.30224 0.51195
#
# Static dielectric constant tensor:
#      x y z
#    x 3.042670 0.000000 0.000000 
#    y 0.000000 3.419810 0.000000 
#    z 0.000000 0.000000 2.801910 
# 
# 
# High freq. dielectric constant tensor:
#      x y z
#    x 1.639800 0.000000 0.000000 
#    y 0.000000 1.658920 0.000000 
#    z 0.000000 0.000000 1.578610 
# 
# From -- ./inp_files/26243.got.cif
#   From: 2010.03.12/outbox.cif.g09.slc.cpg/sg53_14_cif.got.tgz:26243.got - 2010.04.16 14:36:59.
