data_PCOD8217260
_publ_section_title
;
Structure prediction by ZEFSAII (Michael W. Deem and Ramdas Pophale) SiO2 
 PCOD8217260
Probable space group: P N N A
;
_chemical_formula_sum "Si O2"
_cell_formula_units_Z 56
_cell_length_a 9.018592
_cell_length_b 19.719102
_cell_length_c 15.070791
_cell_angle_alpha 90.000000
_cell_angle_beta 90.000000
_cell_angle_gamma 90.000000
_cell_volume 2680.167401
_symmetry_space_group_name_H-M "P N N A"
_symmetry_group_IT_number 52
_symmetry_cell_setting 'orthorhombic'
loop_
_space_group_symop_operation_xyz
x,y,z
1/2-x,-y,z
x,1/2-y,1/2-z
1/2-x,1/2+y,1/2-z
-x,-y,-z
1/2+x,y,-z
-x,1/2+y,1/2+z
1/2+x,1/2-y,1/2+z
loop_
_atom_site_type_symbol
_atom_site_label
_atom_site_fract_x
_atom_site_fract_y
_atom_site_fract_z
Si Si1 0.927576 0.757858 0.023991
Si Si2 0.151863 0.844532 0.942411
Si Si3 0.599948 0.909097 0.237287
Si Si4 0.885118 0.041320 0.941272
Si Si5 0.053802 0.436801 0.727449
Si Si6 0.581630 0.301659 0.826572
Si Si7 0.424982 0.310967 0.184172
O O1 0.771154 0.783211 0.065777
O O2 0.007706 0.704612 0.087984
O O3 0.923478 0.726312 0.925785
O O4 0.027245 0.823768 0.013555
O O5 0.068855 0.865633 0.851715
O O6 0.212139 0.910945 0.992322
O O7 0.775077 0.918166 0.236260
O O8 0.529044 0.866543 0.318549
O O9 0.524044 0.983172 0.242782
O O10 0.981765 0.080817 0.867437
O O11 0.750000 0.000000 0.895277
O O12 0.000000 0.000000 0.000000
O O13 0.980028 0.386580 0.796903
O O14 0.528344 0.250000 0.750000
O O15 0.750348 0.321020 0.809871
O O16 0.477264 0.250000 0.250000
#
# Coordination Sequence:
#
# PCOD8217260 Si02
#       7
#     8   8   8   8   8   8   8
#     4  12  25  44  66 101 138 185 234 288 348 415
#     4  12  23  39  66  99 140 181 226 282 348 414
#     4  11  24  43  66  99 138 178 235 283 351 421
#     4  12  24  39  63 101 145 186 227 281 353 439
#     4  11  26  42  65 100 138 185 227 285 353 418
#     4  11  25  43  68 103 135 184 238 293 347 416
#     4  11  25  45  67  98 138 178 236 286 347 424
#
# _framework density 20.894217999999999
#
# number of rings (size 3 to 8) (size 9 to 14) (size 15 to 20)
#    0.000    0.571    4.286    4.286    6.000    0.571 
#    0.000    0.714    0.000    0.000    0.000    0.000 
#    0.000    0.000    0.000    0.000    0.000    0.000 
#
# Total GULP energy -693793.180757 kJ/mol
# GULP energy per Si atom -12389.163942 kJ/mol
# Density = 2.084666 g / cm^3
# Si number density = 20.894218 Si / 1000 Ang^3
#
#
#
# Elastic Constant Matrix: (Units=GPa)
#
#
# Indices 1 2 3 4 5 6 
#
# 1 83.2736 51.9443 22.0509 0.0000 0.0000 0.0000
# 2 51.9443 121.6070 64.2733 0.0000 0.0000 0.0000
# 3 22.0509 64.2733 96.4547 0.0000 0.0000 0.0000
# 4 0.0000 0.0000 0.0000 47.6754 0.0000 0.0000
# 5 0.0000 0.0000 0.0000 0.0000 32.0550 0.0000
# 6 0.0000 0.0000 0.0000 0.0000 0.0000 35.8193
#
#
#
# Elastic Compliance Matrix: (Units=1/GPa)
#
#
# Indices 1 2 3 4 5 6 
#
# 1 0.016497 -0.007801 0.001427 0.000000 0.000000 0.000000
# 2 -0.007801 0.016382 -0.009133 0.000000 0.000000 0.000000
# 3 0.001427 -0.009133 0.016127 0.000000 0.000000 0.000000
# 4 0.000000 0.000000 0.000000 0.020975 0.000000 0.000000
# 5 0.000000 0.000000 0.000000 0.000000 0.031196 0.000000
# 6 0.000000 0.000000 0.000000 0.000000 0.000000 0.027918
#
#
# Mechanical properties :
#
#
# Convention : Reuss Voigt Hill
#
# Bulk Modulus (GPa) = 55.57991 64.20803 59.89397
# Shear Modulus (GPa) = 30.10096 33.98105 32.04100
#
# Velocity S-wave (km/s) = 3.79969 4.03716 3.92022
# Velocity P-wave (km/s) = 6.77558 7.24764 7.01559
#
# Compressibility (1/GPa) = 0.01799211
#
# Stress axis : x y z
#
# Youngs Moduli (GPa) = 60.61840 61.04112 62.00623
#
# Poissons Ratio (x) = 0.47615 -0.08846
# Poissons Ratio (y) = 0.47285 0.56632
# Poissons Ratio (z) = -0.08648 0.55750
#
# Static dielectric constant tensor:
#      x y z
#    x 4.006040 0.000000 0.000000 
#    y 0.000000 3.878170 0.000000 
#    z 0.000000 0.000000 3.698630 
# 
# 
# High freq. dielectric constant tensor:
#      x y z
#    x 1.832380 0.000000 0.000000 
#    y 0.000000 1.821010 0.000000 
#    z 0.000000 0.000000 1.799350 
# 
# From -- ./inp_files/24967.got.cif
#   From: 2010.06.25/outbox.cif.g09.slc.cpg/sg52_13_cif.got.tgz:24967.got - 2010.06.26 19:32:48.
