data_PCOD8217438
_publ_section_title
;
Structure prediction by ZEFSAII (Michael W. Deem and Ramdas Pophale) SiO2 
 PCOD8217438
Probable space group: P N N A
;
_chemical_formula_sum "Si O2"
_cell_formula_units_Z 16
_cell_length_a 7.696180
_cell_length_b 4.996221
_cell_length_c 16.352567
_cell_angle_alpha 90.000000
_cell_angle_beta 90.000000
_cell_angle_gamma 90.000000
_cell_volume 628.785900
_symmetry_space_group_name_H-M "P N N A"
_symmetry_group_IT_number 52
_symmetry_cell_setting 'orthorhombic'
loop_
_space_group_symop_operation_xyz
x,y,z
1/2-x,-y,z
x,1/2-y,1/2-z
1/2-x,1/2+y,1/2-z
-x,-y,-z
1/2+x,y,-z
-x,1/2+y,1/2+z
1/2+x,1/2-y,1/2+z
loop_
_atom_site_type_symbol
_atom_site_label
_atom_site_fract_x
_atom_site_fract_y
_atom_site_fract_z
Si Si1 0.250000 0.500000 0.456283
Si Si2 0.931840 0.846034 0.661227
Si Si3 0.750000 0.000000 0.431162
O O1 0.089513 0.413484 0.397663
O O2 0.200275 0.750873 0.512035
O O3 0.992285 0.750000 0.750000
O O4 0.080546 0.043147 0.625672
O O5 0.750000 0.000000 0.666573
#
# Coordination Sequence:
#
# PCOD8217438 Si02
#       3
#     4   8   4
#     4  12  26  52  78 114 152 202 256 320 382 458
#     4  12  28  49  79 112 158 204 255 318 390 456
#     4  12  30  48  80 114 152 200 260 316 382 462
#
# _framework density 25.445865000000001
#
# number of rings (size 3 to 8) (size 9 to 14) (size 15 to 20)
#    0.000    0.000    5.000    3.000    7.000    4.000 
#    0.000    0.000    0.000    0.000    0.000    0.000 
#    0.000    0.000    0.000    0.000    0.000    0.000 
#
# Total GULP energy -198381.100044 kJ/mol
# GULP energy per Si atom -12398.818753 kJ/mol
# Density = 2.538795 g / cm^3
# Si number density = 25.445865 Si / 1000 Ang^3
#
#
#
# Elastic Constant Matrix: (Units=GPa)
#
#
# Indices 1 2 3 4 5 6 
#
# 1 115.8670 24.4049 64.9592 0.0000 0.0000 0.0000
# 2 24.4049 134.4289 65.2479 0.0000 0.0000 0.0000
# 3 64.9592 65.2479 196.6726 0.0000 0.0000 0.0000
# 4 0.0000 0.0000 0.0000 44.6886 0.0000 0.0000
# 5 0.0000 0.0000 0.0000 0.0000 -32.8822 0.0000
# 6 0.0000 0.0000 0.0000 0.0000 0.0000 30.5363
#
#
#
# Elastic Compliance Matrix: (Units=1/GPa)
#
#
# Indices 1 2 3 4 5 6 
#
# 1 0.010600 -0.000268 -0.003412 0.000000 0.000000 0.000000
# 2 -0.000268 0.008873 -0.002855 0.000000 0.000000 0.000000
# 3 -0.003412 -0.002855 0.007159 0.000000 0.000000 0.000000
# 4 0.000000 0.000000 0.000000 0.022377 0.000000 0.000000
# 5 0.000000 0.000000 0.000000 0.000000 -0.030412 0.000000
# 6 0.000000 0.000000 0.000000 0.000000 0.000000 0.032748
#
#
# Mechanical properties :
#
#
# Convention : Reuss Voigt Hill
#
# Bulk Modulus (GPa) = 73.74026 84.02138 78.88082
# Shear Modulus (GPa) = 72.52975 27.95898 50.24436
#
# Velocity S-wave (km/s) = 5.34466 3.31836 4.44842
# Velocity P-wave (km/s) = 8.19325 6.91182 7.57967
#
# Compressibility (1/GPa) = 0.01356111
#
# Stress axis : x y z
#
# Youngs Moduli (GPa) = 94.33932 112.69603 139.68754
#
# Poissons Ratio (x) = 0.03023 0.47663
# Poissons Ratio (y) = 0.02531 0.39884
# Poissons Ratio (z) = 0.32190 0.32177
#
# Static dielectric constant tensor:
#      x y z
#    x 4.683480 0.000000 0.000000 
#    y 0.000000 1.061480 0.000000 
#    z 0.000000 0.000000 5.131530 
# 
# 
# High freq. dielectric constant tensor:
#      x y z
#    x 2.011040 0.000000 0.000000 
#    y 0.000000 2.010030 0.000000 
#    z 0.000000 0.000000 2.039600 
# 
# From -- ./inp_files/23799.got.cif
#   From: 2010.06.25/outbox.cif.g09.slc.cpg/sg52_12_cif.got.tgz:23799.got - 2010.06.26 19:32:48.
