data_PCOD8217166
_publ_section_title
;
Structure prediction by ZEFSAII (Michael W. Deem and Ramdas Pophale) SiO2 
 PCOD8217166
Probable space group: P N N A
;
_chemical_formula_sum "Si O2"
_cell_formula_units_Z 40
_cell_length_a 18.347994
_cell_length_b 9.618804
_cell_length_c 9.896312
_cell_angle_alpha 90.000000
_cell_angle_beta 90.000000
_cell_angle_gamma 90.000000
_cell_volume 1746.558126
_symmetry_space_group_name_H-M "P N N A"
_symmetry_group_IT_number 52
_symmetry_cell_setting 'orthorhombic'
loop_
_space_group_symop_operation_xyz
x,y,z
1/2-x,-y,z
x,1/2-y,1/2-z
1/2-x,1/2+y,1/2-z
-x,-y,-z
1/2+x,y,-z
-x,1/2+y,1/2+z
1/2+x,1/2-y,1/2+z
loop_
_atom_site_type_symbol
_atom_site_label
_atom_site_fract_x
_atom_site_fract_y
_atom_site_fract_z
Si Si1 0.510641 0.298165 0.104937
Si Si2 0.584042 0.039909 0.016314
Si Si3 0.174507 0.083811 0.250321
Si Si4 0.683610 0.590076 0.265005
Si Si5 0.898049 0.035029 0.486998
O O1 0.483580 0.250000 0.250000
O O2 0.577348 0.202044 0.054629
O O3 0.435214 0.312830 0.018016
O O4 0.542870 0.452705 0.103973
O O5 0.616999 0.942726 0.134133
O O6 0.631532 0.029504 0.881306
O O7 0.500000 0.000000 0.000000
O O8 0.188952 0.250000 0.250000
O O9 0.124415 0.045381 0.377561
O O10 0.250000 0.000000 0.257550
O O11 0.750000 0.500000 0.323287
O O12 0.704657 0.750000 0.250000
O O13 0.670736 0.549202 0.109572
#
# Coordination Sequence:
#
# PCOD8217166 Si02
#       5
#     8   8   8   8   8
#     4  11  22  43  75 108 142 188 242 304 370 426
#     4  12  26  45  76 106 148 190 250 304 370 440
#     4  12  28  48  73 108 151 197 246 303 374 447
#     4  12  29  48  75 108 148 196 250 303 368 442
#     4  11  25  45  75 107 145 189 246 306 364 439
#
# _framework density 22.902186
#
# number of rings (size 3 to 8) (size 9 to 14) (size 15 to 20)
#    0.000    0.400    4.000    3.600    5.600    8.000 
#    0.000    0.000    0.000    0.000    0.000    0.000 
#    0.000    0.000    0.000    0.000    0.000    0.000 
#
# Total GULP energy -495692.035704 kJ/mol
# GULP energy per Si atom -12392.300893 kJ/mol
# Density = 2.285006 g / cm^3
# Si number density = 22.902186 Si / 1000 Ang^3
#
#
#
# Elastic Constant Matrix: (Units=GPa)
#
#
# Indices 1 2 3 4 5 6 
#
# 1 123.4787 53.0721 42.1111 0.0000 0.0000 0.0000
# 2 53.0721 132.1703 53.2821 0.0000 0.0000 0.0000
# 3 42.1111 53.2821 134.1596 0.0000 0.0000 0.0000
# 4 0.0000 0.0000 0.0000 30.9441 0.0000 0.0000
# 5 0.0000 0.0000 0.0000 0.0000 40.2607 0.0000
# 6 0.0000 0.0000 0.0000 0.0000 0.0000 48.3293
#
#
#
# Elastic Compliance Matrix: (Units=1/GPa)
#
#
# Indices 1 2 3 4 5 6 
#
# 1 0.010167 -0.003329 -0.001869 0.000000 0.000000 0.000000
# 2 -0.003329 0.010098 -0.002966 0.000000 0.000000 0.000000
# 3 -0.001869 -0.002966 0.009218 0.000000 0.000000 0.000000
# 4 0.000000 0.000000 0.000000 0.032316 0.000000 0.000000
# 5 0.000000 0.000000 0.000000 0.000000 0.024838 0.000000
# 6 0.000000 0.000000 0.000000 0.000000 0.000000 0.020691
#
#
# Mechanical properties :
#
#
# Convention : Reuss Voigt Hill
#
# Bulk Modulus (GPa) = 76.01115 76.30436 76.15775
# Shear Modulus (GPa) = 39.04969 39.99637 39.52303
#
# Velocity S-wave (km/s) = 4.13372 4.18353 4.15870
# Velocity P-wave (km/s) = 7.48632 7.53165 7.50902
#
# Compressibility (1/GPa) = 0.01315597
#
# Stress axis : x y z
#
# Youngs Moduli (GPa) = 98.35934 99.02706 108.47938
#
# Poissons Ratio (x) = 0.32965 0.20276
# Poissons Ratio (y) = 0.32743 0.32171
# Poissons Ratio (z) = 0.18385 0.29368
#
# Static dielectric constant tensor:
#      x y z
#    x 4.596130 0.000000 0.000000 
#    y 0.000000 -18.868470 0.000000 
#    z 0.000000 0.000000 4.258420 
# 
# 
# High freq. dielectric constant tensor:
#      x y z
#    x 1.907160 0.000000 0.000000 
#    y 0.000000 1.915280 0.000000 
#    z 0.000000 0.000000 1.915380 
# 
# From -- ./inp_files/20323.got.cif
#   From: 2010.06.25/outbox.cif.g09.slc.cpg/sg52_11_cif.got.tgz:20323.got - 2010.06.26 19:32:48.
