data_PCOD8217202
_publ_section_title
;
Structure prediction by ZEFSAII (Michael W. Deem and Ramdas Pophale) SiO2 
 PCOD8217202
Probable space group: P N N A
;
_chemical_formula_sum "Si O2"
_cell_formula_units_Z 40
_cell_length_a 15.113162
_cell_length_b 18.808766
_cell_length_c 6.792417
_cell_angle_alpha 90.000000
_cell_angle_beta 90.000000
_cell_angle_gamma 90.000000
_cell_volume 1930.811965
_symmetry_space_group_name_H-M "P N N A"
_symmetry_group_IT_number 52
_symmetry_cell_setting 'orthorhombic'
loop_
_space_group_symop_operation_xyz
x,y,z
1/2-x,-y,z
x,1/2-y,1/2-z
1/2-x,1/2+y,1/2-z
-x,-y,-z
1/2+x,y,-z
-x,1/2+y,1/2+z
1/2+x,1/2-y,1/2+z
loop_
_atom_site_type_symbol
_atom_site_label
_atom_site_fract_x
_atom_site_fract_y
_atom_site_fract_z
Si Si1 0.714877 0.577126 0.482897
Si Si2 0.461377 0.894092 0.535082
Si Si3 0.789455 0.827458 0.334953
Si Si4 0.353984 0.170899 0.333664
Si Si5 0.041423 0.528054 0.698612
O O1 0.750000 0.500000 0.547286
O O2 0.786179 0.618004 0.348659
O O3 0.694307 0.619760 0.680067
O O4 0.629022 0.571534 0.347351
O O5 0.377388 0.842076 0.537308
O O6 0.547300 0.856194 0.625301
O O7 0.475749 0.916991 0.308214
O O8 0.435764 0.963559 0.658142
O O9 0.798725 0.750000 0.250000
O O10 0.701958 0.831881 0.467027
O O11 0.359249 0.250000 0.250000
O O12 0.000000 0.500000 0.500000
#
# Coordination Sequence:
#
# PCOD8217202 Si02
#       5
#     8   8   8   8   8
#     4  12  25  43  73 100 143 188 229 296 354 415
#     4  11  25  42  71 101 138 183 232 286 350 426
#     4  12  26  47  68 103 142 182 240 293 350 424
#     4  12  26  46  70 100 138 189 234 287 358 420
#     4  11  23  42  66 103 138 175 230 289 348 413
#
# _framework density 20.716674000000001
#
# number of rings (size 3 to 8) (size 9 to 14) (size 15 to 20)
#    0.000    0.400    8.000    0.600    2.800    0.800 
#    0.000    1.000    0.000    0.000    0.000    0.000 
#    0.000    0.000    0.000    0.000    0.000    0.000 
#
# Total GULP energy -496181.740041 kJ/mol
# GULP energy per Si atom -12404.543501 kJ/mol
# Density = 2.066952 g / cm^3
# Si number density = 20.716674 Si / 1000 Ang^3
#
#
#
# Elastic Constant Matrix: (Units=GPa)
#
#
# Indices 1 2 3 4 5 6 
#
# 1 86.5814 26.3951 20.8062 0.0000 0.0000 0.0000
# 2 26.3951 134.8233 48.5777 0.0000 0.0000 0.0000
# 3 20.8062 48.5777 95.0757 0.0000 0.0000 0.0000
# 4 0.0000 0.0000 0.0000 44.2104 0.0000 0.0000
# 5 0.0000 0.0000 0.0000 0.0000 31.6613 0.0000
# 6 0.0000 0.0000 0.0000 0.0000 0.0000 34.4230
#
#
#
# Elastic Compliance Matrix: (Units=1/GPa)
#
#
# Indices 1 2 3 4 5 6 
#
# 1 0.012536 -0.001797 -0.001825 0.000000 0.000000 0.000000
# 2 -0.001797 0.009348 -0.004383 0.000000 0.000000 0.000000
# 3 -0.001825 -0.004383 0.013157 0.000000 0.000000 0.000000
# 4 0.000000 0.000000 0.000000 0.022619 0.000000 0.000000
# 5 0.000000 0.000000 0.000000 0.000000 0.031584 0.000000
# 6 0.000000 0.000000 0.000000 0.000000 0.000000 0.029050
#
#
# Mechanical properties :
#
#
# Convention : Reuss Voigt Hill
#
# Bulk Modulus (GPa) = 52.54611 56.44870 54.49740
# Shear Modulus (GPa) = 35.54952 36.77238 36.16095
#
# Velocity S-wave (km/s) = 4.14694 4.21766 4.18245
# Velocity P-wave (km/s) = 6.95332 7.14320 7.04890
#
# Compressibility (1/GPa) = 0.01903091
#
# Stress axis : x y z
#
# Youngs Moduli (GPa) = 79.76903 106.97353 76.00560
#
# Poissons Ratio (x) = 0.19218 0.13875
# Poissons Ratio (y) = 0.14331 0.33314
# Poissons Ratio (z) = 0.14562 0.46888
#
# Static dielectric constant tensor:
#      x y z
#    x 3.003830 0.000000 0.000000 
#    y 0.000000 3.848490 0.000000 
#    z 0.000000 0.000000 3.838490 
# 
# 
# High freq. dielectric constant tensor:
#      x y z
#    x 1.817510 0.000000 0.000000 
#    y 0.000000 1.820910 0.000000 
#    z 0.000000 0.000000 1.820210 
# 
# From -- ./inp_files/3175.got.cif
#   From: 2010.06.25/outbox.cif.g09.slc.cpg/sg52_2_cif.got.tgz:3175.got - 2010.06.26 19:32:48.
