data_PCOD8217560
_publ_section_title
;
Structure prediction by ZEFSAII (Michael W. Deem and Ramdas Pophale) SiO2 
 PCOD8217560
Probable space group: P M N A
;
_chemical_formula_sum "Si O2"
_cell_formula_units_Z 64
_cell_length_a 9.298199
_cell_length_b 16.789094
_cell_length_c 26.434208
_cell_angle_alpha 90.000000
_cell_angle_beta 90.000000
_cell_angle_gamma 90.000000
_cell_volume 4126.600252
_symmetry_space_group_name_H-M "P M N A"
_symmetry_group_IT_number 53
_symmetry_cell_setting 'orthorhombic'
loop_
_space_group_symop_operation_xyz
x,y,z
1/2-x,-y,1/2+z
x,-y,-z
1/2-x,y,1/2-z
-x,-y,-z
1/2+x,y,1/2-z
-x,y,z
1/2+x,-y,1/2+z
loop_
_atom_site_type_symbol
_atom_site_label
_atom_site_fract_x
_atom_site_fract_y
_atom_site_fract_z
Si Si1 0.333791 0.166970 0.962312
Si Si2 0.662548 0.981908 0.440994
Si Si3 0.668208 0.866276 0.921746
Si Si4 0.836356 0.729521 0.875652
Si Si5 0.331975 0.654085 0.059503
Si Si6 0.669512 0.592263 0.697792
Si Si7 0.839768 0.605610 0.964924
Si Si8 0.835576 0.529822 0.113308
O O1 0.500000 0.145125 0.953619
O O2 0.237956 0.103194 0.932043
O O3 0.293729 0.252558 0.939320
O O4 0.299369 0.166509 0.022078
O O5 0.500000 0.979401 0.419803
O O6 0.663644 0.000000 0.500000
O O7 0.752608 0.049808 0.412272
O O8 0.500000 0.878225 0.912084
O O9 0.729971 0.804203 0.880826
O O10 0.792439 0.678133 0.826415
O O11 0.820057 0.674379 0.924200
O O12 0.000000 0.760584 0.870990
O O13 0.500000 0.639511 0.063322
O O14 0.256866 0.610467 0.107118
O O15 0.279108 0.615596 0.007439
O O16 0.750000 0.581847 0.750000
O O17 0.500000 0.585809 0.706286
O O18 0.722027 0.521654 0.660590
O O19 0.819594 0.520399 0.938378
O O20 0.000000 0.610964 0.988915
O O21 0.000000 0.553918 0.122642
#
# Coordination Sequence:
#
# PCOD8217560 Si02
#       8
#     8   8   8   8   8   8   8   8
#     4   9  18  29  38  55  86 119 149 184 223 254
#     4   9  17  27  40  58  79 111 154 187 212 251
#     4  10  17  27  42  60  86 117 147 183 222 257
#     4   9  17  29  45  65  87 114 149 185 219 263
#     4  11  20  28  40  62  89 116 149 187 221 255
#     4   9  19  35  52  68  88 113 144 185 230 272
#     4   9  17  29  43  57  82 118 150 180 217 258
#     4   9  19  33  45  61  84 114 148 180 220 269
#
# _framework density 15.509135000000001
#
# number of rings (size 3 to 8) (size 9 to 14) (size 15 to 20)
#    0.000    2.625    1.250    3.000    0.000    6.000 
#    0.000    2.500    0.000    0.000    0.000    0.000 
#    0.000    1.000    0.000    5.000    0.000    4.875 
#
# Total GULP energy -793517.615492 kJ/mol
# GULP energy per Si atom -12398.712742 kJ/mol
# Density = 1.547384 g / cm^3
# Si number density = 15.509135 Si / 1000 Ang^3
#
#
#
# Elastic Constant Matrix: (Units=GPa)
#
#
# Indices 1 2 3 4 5 6 
#
# 1 90.6172 68.2190 34.2588 0.0000 0.0000 0.0000
# 2 68.2190 112.8401 38.7656 0.0000 0.0000 0.0000
# 3 34.2588 38.7656 46.5496 0.0000 0.0000 0.0000
# 4 0.0000 0.0000 0.0000 11.7989 0.0000 0.0000
# 5 0.0000 0.0000 0.0000 0.0000 21.8131 0.0000
# 6 0.0000 0.0000 0.0000 0.0000 0.0000 30.9276
#
#
#
# Elastic Compliance Matrix: (Units=1/GPa)
#
#
# Indices 1 2 3 4 5 6 
#
# 1 0.021810 -0.010746 -0.007103 0.000000 0.000000 0.000000
# 2 -0.010746 0.017708 -0.006838 0.000000 0.000000 0.000000
# 3 -0.007103 -0.006838 0.032405 0.000000 0.000000 0.000000
# 4 0.000000 0.000000 0.000000 0.084753 0.000000 0.000000
# 5 0.000000 0.000000 0.000000 0.000000 0.045844 0.000000
# 6 0.000000 0.000000 0.000000 0.000000 0.000000 0.032334
#
#
# Mechanical properties :
#
#
# Convention : Reuss Voigt Hill
#
# Bulk Modulus (GPa) = 44.34738 59.16598 51.75668
# Shear Modulus (GPa) = 17.13833 20.15883 18.64858
#
# Velocity S-wave (km/s) = 3.32783 3.60919 3.47136
# Velocity P-wave (km/s) = 6.58957 7.45656 7.03643
#
# Compressibility (1/GPa) = 0.02254925
#
# Stress axis : x y z
#
# Youngs Moduli (GPa) = 45.84991 56.47254 30.85962
#
# Poissons Ratio (x) = 0.60683 0.21919
# Poissons Ratio (y) = 0.49268 0.21103
# Poissons Ratio (z) = 0.32567 0.38618
#
# Static dielectric constant tensor:
#      x y z
#    x 2.994530 0.000000 0.000000 
#    y 0.000000 3.072900 0.000000 
#    z 0.000000 0.000000 2.562190 
# 
# 
# High freq. dielectric constant tensor:
#      x y z
#    x 1.602140 0.000000 0.000000 
#    y 0.000000 1.598950 0.000000 
#    z 0.000000 0.000000 1.536250 
# 
# From -- ./inp_files/36500.got.cif
#   From: 2010.03.12/outbox.cif.g09.slc.cpg/sg53_19_cif.got.tgz:36500.got - 2010.04.16 14:36:59.
