data_PCOD8217195
_publ_section_title
;
Structure prediction by ZEFSAII (Michael W. Deem and Ramdas Pophale) SiO2 
 PCOD8217195
Probable space group: P N N A
;
_chemical_formula_sum "Si O2"
_cell_formula_units_Z 32
_cell_length_a 8.670618
_cell_length_b 15.998370
_cell_length_c 10.226943
_cell_angle_alpha 90.000000
_cell_angle_beta 90.000000
_cell_angle_gamma 90.000000
_cell_volume 1418.638118
_symmetry_space_group_name_H-M "P N N A"
_symmetry_group_IT_number 52
_symmetry_cell_setting 'orthorhombic'
loop_
_space_group_symop_operation_xyz
x,y,z
1/2-x,-y,z
x,1/2-y,1/2-z
1/2-x,1/2+y,1/2-z
-x,-y,-z
1/2+x,y,-z
-x,1/2+y,1/2+z
1/2+x,1/2-y,1/2+z
loop_
_atom_site_type_symbol
_atom_site_label
_atom_site_fract_x
_atom_site_fract_y
_atom_site_fract_z
Si Si1 0.431716 0.986144 0.141897
Si Si2 0.524785 0.201343 0.866788
Si Si3 0.406387 0.953310 0.612901
Si Si4 0.683018 0.267052 0.107680
O O1 0.486472 0.893511 0.182406
O O2 0.250000 0.000000 0.136929
O O3 0.497379 0.049114 0.251792
O O4 0.500000 0.000000 0.000000
O O5 0.613770 0.250000 0.750000
O O6 0.364393 0.249765 0.887855
O O7 0.617090 0.202357 0.002159
O O8 0.362322 0.860534 0.564517
O O9 0.250000 0.000000 0.644613
O O10 0.500000 0.000000 0.500000
O O11 0.609453 0.250000 0.250000
#
# Coordination Sequence:
#
# PCOD8217195 Si02
#       4
#     8   8   8   8
#     4  12  25  44  69 100 136 179 225 280 340 405
#     4  11  24  43  65  95 131 172 219 271 329 396
#     4  12  24  42  66  98 136 179 227 280 338 403
#     4  11  23  41  64  93 128 172 219 273 329 394
#
# _framework density 22.556846
#
# number of rings (size 3 to 8) (size 9 to 14) (size 15 to 20)
#    0.000    0.500    0.000   10.500    0.000    3.000 
#    0.000    0.000    0.000    0.000    0.000    0.000 
#    0.000    0.000    0.000    0.000    0.000    0.000 
#
# Total GULP energy -396842.394523 kJ/mol
# GULP energy per Si atom -12401.324829 kJ/mol
# Density = 2.250551 g / cm^3
# Si number density = 22.556846 Si / 1000 Ang^3
#
#
#
# Elastic Constant Matrix: (Units=GPa)
#
#
# Indices 1 2 3 4 5 6 
#
# 1 126.6415 21.2925 40.5254 0.0000 0.0000 0.0000
# 2 21.2925 114.4257 -1.5146 0.0000 0.0000 0.0000
# 3 40.5254 -1.5146 142.2780 0.0000 0.0000 0.0000
# 4 0.0000 0.0000 0.0000 41.6763 0.0000 0.0000
# 5 0.0000 0.0000 0.0000 0.0000 34.6386 0.0000
# 6 0.0000 0.0000 0.0000 0.0000 0.0000 26.0905
#
#
#
# Elastic Compliance Matrix: (Units=1/GPa)
#
#
# Indices 1 2 3 4 5 6 
#
# 1 0.009011 -0.001711 -0.002585 0.000000 0.000000 0.000000
# 2 -0.001711 0.009065 0.000584 0.000000 0.000000 0.000000
# 3 -0.002585 0.000584 0.007771 0.000000 0.000000 0.000000
# 4 0.000000 0.000000 0.000000 0.023994 0.000000 0.000000
# 5 0.000000 0.000000 0.000000 0.000000 0.028870 0.000000
# 6 0.000000 0.000000 0.000000 0.000000 0.000000 0.038328
#
#
# Mechanical properties :
#
#
# Convention : Reuss Voigt Hill
#
# Bulk Modulus (GPa) = 54.27870 55.99466 55.13668
# Shear Modulus (GPa) = 38.28343 42.01722 40.15033
#
# Velocity S-wave (km/s) = 4.12418 4.32061 4.22354
# Velocity P-wave (km/s) = 6.84060 7.05464 6.94844
#
# Compressibility (1/GPa) = 0.01842343
#
# Stress axis : x y z
#
# Youngs Moduli (GPa) = 110.97365 110.30940 128.68412
#
# Poissons Ratio (x) = 0.18874 0.33263
# Poissons Ratio (y) = 0.18988 -0.07513
# Poissons Ratio (z) = 0.28685 -0.06440
#
# Static dielectric constant tensor:
#      x y z
#    x 4.179970 0.000000 0.000000 
#    y 0.000000 5.042840 0.000000 
#    z 0.000000 0.000000 4.479970 
# 
# 
# High freq. dielectric constant tensor:
#      x y z
#    x 1.884690 0.000000 0.000000 
#    y 0.000000 1.899560 0.000000 
#    z 0.000000 0.000000 1.912790 
# 
# From -- ./inp_files/16410.got.cif
#   From: 2010.06.25/outbox.cif.g09.slc.cpg/sg52_9_cif.got.tgz:16410.got - 2010.06.26 19:32:48.
