data_PCOD8217180
_publ_section_title
;
Structure prediction by ZEFSAII (Michael W. Deem and Ramdas Pophale) SiO2 
 PCOD8217180
Probable space group: P N N A
;
_chemical_formula_sum "Si O2"
_cell_formula_units_Z 32
_cell_length_a 17.341772
_cell_length_b 16.841509
_cell_length_c 4.956526
_cell_angle_alpha 90.000000
_cell_angle_beta 90.000000
_cell_angle_gamma 90.000000
_cell_volume 1447.610960
_symmetry_space_group_name_H-M "P N N A"
_symmetry_group_IT_number 52
_symmetry_cell_setting 'orthorhombic'
loop_
_space_group_symop_operation_xyz
x,y,z
1/2-x,-y,z
x,1/2-y,1/2-z
1/2-x,1/2+y,1/2-z
-x,-y,-z
1/2+x,y,-z
-x,1/2+y,1/2+z
1/2+x,1/2-y,1/2+z
loop_
_atom_site_type_symbol
_atom_site_label
_atom_site_fract_x
_atom_site_fract_y
_atom_site_fract_z
Si Si1 0.144265 0.805484 0.499166
Si Si2 0.884201 0.561914 0.498032
Si Si3 0.968303 0.433055 0.203029
Si Si4 0.214352 0.080674 0.517925
O O1 0.157770 0.750000 0.750000
O O2 0.071313 0.863109 0.536735
O O3 0.223192 0.852838 0.453688
O O4 0.124522 0.750000 0.250000
O O5 0.905221 0.472463 0.401801
O O6 0.848171 0.610288 0.242781
O O7 0.962304 0.602840 0.613539
O O8 0.823542 0.556296 0.737141
O O9 0.000000 0.500000 0.000000
O O10 0.250000 0.000000 0.642732
#
# Coordination Sequence:
#
# PCOD8217180 Si02
#       4
#     8   8   8   8
#     4  12  29  47  72 109 154 189 236 312 385 425
#     4  11  23  39  76 103 136 179 259 291 335 417
#     4  11  24  46  76 111 139 192 251 295 356 450
#     4  12  23  43  72 105 138 195 242 293 349 439
#
# _framework density 22.105388999999999
#
# number of rings (size 3 to 8) (size 9 to 14) (size 15 to 20)
#    0.000    0.500    5.000    2.250   10.500    0.000 
#    0.000    5.000    0.000    0.000    0.000    0.000 
#    0.000    0.000    0.000    0.000    0.000    0.000 
#
# Total GULP energy -396814.516960 kJ/mol
# GULP energy per Si atom -12400.453655 kJ/mol
# Density = 2.205508 g / cm^3
# Si number density = 22.105389 Si / 1000 Ang^3
#
#
#
# Elastic Constant Matrix: (Units=GPa)
#
#
# Indices 1 2 3 4 5 6 
#
# 1 139.7657 78.9673 73.5583 0.0000 0.0000 0.0000
# 2 78.9673 115.6753 61.2972 0.0000 0.0000 0.0000
# 3 73.5583 61.2972 168.7588 0.0000 0.0000 0.0000
# 4 0.0000 0.0000 0.0000 42.4233 0.0000 0.0000
# 5 0.0000 0.0000 0.0000 0.0000 45.3031 0.0000
# 6 0.0000 0.0000 0.0000 0.0000 0.0000 43.1082
#
#
#
# Elastic Compliance Matrix: (Units=1/GPa)
#
#
# Indices 1 2 3 4 5 6 
#
# 1 0.012742 -0.007127 -0.002965 0.000000 0.000000 0.000000
# 2 -0.007127 0.014692 -0.002230 0.000000 0.000000 0.000000
# 3 -0.002965 -0.002230 0.008028 0.000000 0.000000 0.000000
# 4 0.000000 0.000000 0.000000 0.023572 0.000000 0.000000
# 5 0.000000 0.000000 0.000000 0.000000 0.022074 0.000000
# 6 0.000000 0.000000 0.000000 0.000000 0.000000 0.023197
#
#
# Mechanical properties :
#
#
# Convention : Reuss Voigt Hill
#
# Bulk Modulus (GPa) = 92.44307 94.64950 93.54628
# Shear Modulus (GPa) = 37.71972 40.19207 38.95590
#
# Velocity S-wave (km/s) = 4.13529 4.26866 4.20251
# Velocity P-wave (km/s) = 8.04431 8.19791 8.12147
#
# Compressibility (1/GPa) = 0.01081747
#
# Stress axis : x y z
#
# Youngs Moduli (GPa) = 78.47770 68.06342 124.56322
#
# Poissons Ratio (x) = 0.48512 0.36937
# Poissons Ratio (y) = 0.55935 0.27776
# Poissons Ratio (z) = 0.23271 0.15177
#
# Static dielectric constant tensor:
#      x y z
#    x 4.368700 0.000000 0.000000 
#    y 0.000000 3.754540 0.000000 
#    z 0.000000 0.000000 4.263380 
# 
# 
# High freq. dielectric constant tensor:
#      x y z
#    x 1.892470 0.000000 0.000000 
#    y 0.000000 1.822490 0.000000 
#    z 0.000000 0.000000 1.897630 
# 
# From -- ./inp_files/2995.got.cif
#   From: 2010.06.25/outbox.cif.g09.slc.cpg/sg52_2_cif.got.tgz:2995.got - 2010.06.26 19:32:48.
