data_PCOD8217516
_publ_section_title
;
Structure prediction by ZEFSAII (Michael W. Deem and Ramdas Pophale) SiO2 
 PCOD8217516
Probable space group: P M N A
;
_chemical_formula_sum "Si O2"
_cell_formula_units_Z 56
_cell_length_a 9.123324
_cell_length_b 16.131393
_cell_length_c 24.635525
_cell_angle_alpha 90.000000
_cell_angle_beta 90.000000
_cell_angle_gamma 90.000000
_cell_volume 3625.657635
_symmetry_space_group_name_H-M "P M N A"
_symmetry_group_IT_number 53
_symmetry_cell_setting 'orthorhombic'
loop_
_space_group_symop_operation_xyz
x,y,z
1/2-x,-y,1/2+z
x,-y,-z
1/2-x,y,1/2-z
-x,-y,-z
1/2+x,y,1/2-z
-x,y,z
1/2+x,-y,1/2+z
loop_
_atom_site_type_symbol
_atom_site_label
_atom_site_fract_x
_atom_site_fract_y
_atom_site_fract_z
Si Si1 0.173387 0.311233 0.488060
Si Si2 0.837549 0.545868 0.942497
Si Si3 0.327452 0.375168 0.594168
Si Si4 0.326815 0.919088 0.305642
Si Si5 0.173988 0.977709 0.411835
Si Si6 0.829604 0.728233 0.196581
Si Si7 0.327052 0.125668 0.013348
O O1 0.229470 0.375188 0.441738
O O2 0.236717 0.335264 0.545907
O O3 0.229657 0.218455 0.474569
O O4 0.000000 0.316307 0.490089
O O5 0.792614 0.473919 0.899545
O O6 0.000000 0.579891 0.930131
O O7 0.833706 0.500000 0.000000
O O8 0.500000 0.361722 0.582472
O O9 0.274056 0.329466 0.648033
O O10 0.250000 0.949029 0.250000
O O11 0.500000 0.935035 0.301279
O O12 0.260273 0.970118 0.355572
O O13 0.288894 0.823021 0.316384
O O14 0.227991 0.907195 0.454530
O O15 0.000000 0.972544 0.400874
O O16 0.221759 0.066043 0.437536
O O17 0.750000 0.695896 0.250000
O O18 0.000000 0.717529 0.206733
O O19 0.500000 0.123275 0.009885
#
# Coordination Sequence:
#
# PCOD8217516 Si02
#       7
#     8   8   8   8   8   8   8
#     4  10  17  25  40  63  86 107 137 172 202 237
#     4   8  15  27  40  55  79 110 138 162 196 240
#     4   9  17  29  42  57  82 114 140 165 202 243
#     4  10  19  30  44  64  87 111 141 175 211 248
#     4   9  16  30  47  61  83 115 146 172 207 255
#     4   9  18  30  43  60  83 109 137 169 202 240
#     4   8  16  28  43  63  87 115 141 170 213 258
#
# _framework density 15.445474000000001
#
# number of rings (size 3 to 8) (size 9 to 14) (size 15 to 20)
#    0.000    3.000    0.000    3.429    0.000    3.714 
#    0.000    3.571    0.000    0.000    0.000    1.000 
#    0.000    4.571    0.000    0.000    0.000    0.000 
#
# Total GULP energy -694080.433550 kJ/mol
# GULP energy per Si atom -12394.293456 kJ/mol
# Density = 1.541032 g / cm^3
# Si number density = 15.445474 Si / 1000 Ang^3
#
#
#
# Elastic Constant Matrix: (Units=GPa)
#
#
# Indices 1 2 3 4 5 6 
#
# 1 55.2932 42.0355 38.5265 0.0000 0.0000 0.0000
# 2 42.0355 115.2875 52.9902 0.0000 0.0000 0.0000
# 3 38.5265 52.9902 97.6503 0.0000 0.0000 0.0000
# 4 0.0000 0.0000 0.0000 25.9703 0.0000 0.0000
# 5 0.0000 0.0000 0.0000 0.0000 22.9994 0.0000
# 6 0.0000 0.0000 0.0000 0.0000 0.0000 14.6960
#
#
#
# Elastic Compliance Matrix: (Units=1/GPa)
#
#
# Indices 1 2 3 4 5 6 
#
# 1 0.028625 -0.006990 -0.007501 0.000000 0.000000 0.000000
# 2 -0.006990 0.013263 -0.004440 0.000000 0.000000 0.000000
# 3 -0.007501 -0.004440 0.015609 0.000000 0.000000 0.000000
# 4 0.000000 0.000000 0.000000 0.038506 0.000000 0.000000
# 5 0.000000 0.000000 0.000000 0.000000 0.043479 0.000000
# 6 0.000000 0.000000 0.000000 0.000000 0.000000 0.068046
#
#
# Mechanical properties :
#
#
# Convention : Reuss Voigt Hill
#
# Bulk Modulus (GPa) = 50.92275 59.48169 55.20222
# Shear Modulus (GPa) = 19.84647 21.71173 20.77910
#
# Velocity S-wave (km/s) = 3.58849 3.75334 3.67184
# Velocity P-wave (km/s) = 7.08595 7.57481 7.33445
#
# Compressibility (1/GPa) = 0.01963759
#
# Stress axis : x y z
#
# Youngs Moduli (GPa) = 34.93398 75.39725 64.06514
#
# Poissons Ratio (x) = 0.52700 0.48054
# Poissons Ratio (y) = 0.24418 0.28442
# Poissons Ratio (z) = 0.26203 0.33473
#
# Static dielectric constant tensor:
#      x y z
#    x 2.852810 0.000000 0.000000 
#    y 0.000000 3.356820 0.000000 
#    z 0.000000 0.000000 2.866080 
# 
# 
# High freq. dielectric constant tensor:
#      x y z
#    x 1.585600 0.000000 0.000000 
#    y 0.000000 1.587880 0.000000 
#    z 0.000000 0.000000 1.566500 
# 
# From -- ./inp_files/34386.got.cif
#   From: 2010.03.12/outbox.cif.g09.slc.cpg/sg53_18_cif.got.tgz:34386.got - 2010.04.16 14:36:59.
