data_PCOD8217571
_publ_section_title
;
Structure prediction by ZEFSAII (Michael W. Deem and Ramdas Pophale) SiO2 
 PCOD8217571
Probable space group: P M N A
;
_chemical_formula_sum "Si O2"
_cell_formula_units_Z 40
_cell_length_a 8.920226
_cell_length_b 10.334199
_cell_length_c 27.624496
_cell_angle_alpha 90.000000
_cell_angle_beta 90.000000
_cell_angle_gamma 90.000000
_cell_volume 2546.519705
_symmetry_space_group_name_H-M "P M N A"
_symmetry_group_IT_number 53
_symmetry_cell_setting 'orthorhombic'
loop_
_space_group_symop_operation_xyz
x,y,z
1/2-x,-y,1/2+z
x,-y,-z
1/2-x,y,1/2-z
-x,-y,-z
1/2+x,y,1/2-z
-x,y,z
1/2+x,-y,1/2+z
loop_
_atom_site_type_symbol
_atom_site_label
_atom_site_fract_x
_atom_site_fract_y
_atom_site_fract_z
Si Si1 0.833178 0.480189 0.378662
Si Si2 0.165405 0.234333 0.620402
Si Si3 0.676170 0.139116 0.979977
Si Si4 0.176933 0.622411 0.968275
Si Si5 0.323615 0.629231 0.301772
O O1 0.844368 0.622010 0.403549
O O2 0.748202 0.384103 0.414743
O O3 0.741807 0.499730 0.328027
O O4 0.000000 0.425488 0.367600
O O5 0.219725 0.140394 0.577266
O O6 0.279601 0.242765 0.666078
O O7 0.000000 0.192533 0.639338
O O8 0.500000 0.167718 0.986792
O O9 0.771615 0.244601 0.008137
O O10 0.722388 0.000000 0.000000
O O11 0.000000 0.622593 0.962388
O O12 0.230161 0.500000 0.000000
O O13 0.250000 0.645105 0.250000
O O14 0.500000 0.618086 0.296486
#
# Coordination Sequence:
#
# PCOD8217571 Si02
#       5
#     8   8   8   8   8
#     4   9  17  28  44  65  90 120 154 193 234 276
#     4   8  16  29  44  65  93 122 156 194 233 277
#     4  10  20  33  49  69  96 132 167 200 241 288
#     4  11  20  29  45  68  94 126 161 196 236 281
#     4  10  17  27  44  68  96 122 152 193 243 287
#
# _framework density 15.707713
#
# number of rings (size 3 to 8) (size 9 to 14) (size 15 to 20)
#    1.200    1.200    2.000    2.400    0.000    2.000 
#    0.000    0.000    0.000    0.000    0.000    1.400 
#    0.000    3.200    0.000    0.000    0.000    0.000 
#
# Total GULP energy -495528.893859 kJ/mol
# GULP energy per Si atom -12388.222346 kJ/mol
# Density = 1.567196 g / cm^3
# Si number density = 15.707713 Si / 1000 Ang^3
#
#
#
# Elastic Constant Matrix: (Units=GPa)
#
#
# Indices 1 2 3 4 5 6 
#
# 1 107.6486 29.7164 62.4331 0.0000 0.0000 0.0000
# 2 29.7164 54.6925 34.7588 0.0000 0.0000 0.0000
# 3 62.4331 34.7588 124.7154 0.0000 0.0000 0.0000
# 4 0.0000 0.0000 0.0000 17.7150 0.0000 0.0000
# 5 0.0000 0.0000 0.0000 0.0000 28.5057 0.0000
# 6 0.0000 0.0000 0.0000 0.0000 0.0000 14.4741
#
#
#
# Elastic Compliance Matrix: (Units=1/GPa)
#
#
# Indices 1 2 3 4 5 6 
#
# 1 0.013694 -0.003748 -0.005811 0.000000 0.000000 0.000000
# 2 -0.003748 0.023245 -0.004603 0.000000 0.000000 0.000000
# 3 -0.005811 -0.004603 0.012210 0.000000 0.000000 0.000000
# 4 0.000000 0.000000 0.000000 0.056449 0.000000 0.000000
# 5 0.000000 0.000000 0.000000 0.000000 0.035081 0.000000
# 6 0.000000 0.000000 0.000000 0.000000 0.000000 0.069089
#
#
# Mechanical properties :
#
#
# Convention : Reuss Voigt Hill
#
# Bulk Modulus (GPa) = 48.01355 60.09701 54.05528
# Shear Modulus (GPa) = 20.40543 22.81550 21.61047
#
# Velocity S-wave (km/s) = 3.60817 3.81531 3.71318
# Velocity P-wave (km/s) = 6.92761 7.59943 7.27128
#
# Compressibility (1/GPa) = 0.02082745
#
# Stress axis : x y z
#
# Youngs Moduli (GPa) = 73.02390 43.01949 81.90023
#
# Poissons Ratio (x) = 0.16122 0.47591
# Poissons Ratio (y) = 0.27366 0.37695
# Poissons Ratio (z) = 0.42433 0.19800
#
# Static dielectric constant tensor:
#      x y z
#    x 3.001100 0.000000 0.000000 
#    y 0.000000 2.604810 0.000000 
#    z 0.000000 0.000000 2.911390 
# 
# 
# High freq. dielectric constant tensor:
#      x y z
#    x 1.613030 0.000000 0.000000 
#    y 0.000000 1.549230 0.000000 
#    z 0.000000 0.000000 1.597830 
# 
# From -- ./inp_files/36120.got.cif
#   From: 2010.03.12/outbox.cif.g09.slc.cpg/sg53_19_cif.got.tgz:36120.got - 2010.04.16 14:36:59.
