data_PCOD8217587
_publ_section_title
;
Structure prediction by ZEFSAII (Michael W. Deem and Ramdas Pophale) SiO2 
 PCOD8217587
Probable space group: P M N A
;
_chemical_formula_sum "Si O2"
_cell_formula_units_Z 48
_cell_length_a 9.015900
_cell_length_b 10.441816
_cell_length_c 29.751451
_cell_angle_alpha 90.000000
_cell_angle_beta 90.000000
_cell_angle_gamma 90.000000
_cell_volume 2800.872075
_symmetry_space_group_name_H-M "P M N A"
_symmetry_group_IT_number 53
_symmetry_cell_setting 'orthorhombic'
loop_
_space_group_symop_operation_xyz
x,y,z
1/2-x,-y,1/2+z
x,-y,-z
1/2-x,y,1/2-z
-x,-y,-z
1/2+x,y,1/2-z
-x,y,z
1/2+x,-y,1/2+z
loop_
_atom_site_type_symbol
_atom_site_label
_atom_site_fract_x
_atom_site_fract_y
_atom_site_fract_z
Si Si1 0.324296 0.130121 0.475660
Si Si2 0.677683 0.232686 0.109132
Si Si3 0.827554 0.620813 0.025593
Si Si4 0.337007 0.215154 0.207647
Si Si5 0.333738 0.480157 0.793228
Si Si6 0.173320 0.501764 0.117313
O O1 0.500000 0.136081 0.467107
O O2 0.240187 0.135417 0.427936
O O3 0.263255 0.245562 0.507045
O O4 0.277596 0.000000 0.500000
O O5 0.500000 0.245645 0.107035
O O6 0.727948 0.179240 0.158412
O O7 0.749011 0.371627 0.100960
O O8 0.800967 0.608445 0.078907
O O9 0.000000 0.620726 0.013727
O O10 0.752670 0.500000 0.000000
O O11 0.250000 0.155660 0.250000
O O12 0.500000 0.157176 0.212162
O O13 0.339499 0.367769 0.210710
O O14 0.250000 0.421549 0.750000
O O15 0.500000 0.423699 0.795512
O O16 0.244601 0.440031 0.837749
O O17 0.000000 0.473349 0.125282
#
# Coordination Sequence:
#
# PCOD8217587 Si02
#       6
#     8   8   8   8   8   8
#     4  10  20  34  51  70  92 124 165 202 237 287
#     4  10  19  30  44  66  97 126 156 195 241 287
#     4   9  16  29  48  70  94 121 157 197 237 281
#     4   8  15  25  38  59  87 118 148 183 224 273
#     4   9  16  26  39  61  94 125 157 192 237 288
#     4  10  17  27  46  67  92 125 160 197 241 282
#
# _framework density 17.137519999999999
#
# number of rings (size 3 to 8) (size 9 to 14) (size 15 to 20)
#    0.000    2.667    1.667    2.500    0.000    5.000 
#    0.000    2.500    0.000    0.000    0.000    1.167 
#    0.000    2.667    0.000    0.000    0.000    0.000 
#
# Total GULP energy -594931.879272 kJ/mol
# GULP energy per Si atom -12394.414151 kJ/mol
# Density = 1.709851 g / cm^3
# Si number density = 17.137520 Si / 1000 Ang^3
#
#
#
# Elastic Constant Matrix: (Units=GPa)
#
#
# Indices 1 2 3 4 5 6 
#
# 1 81.2926 23.3585 59.1447 0.0000 0.0000 0.0000
# 2 23.3585 68.7270 53.2814 0.0000 0.0000 0.0000
# 3 59.1447 53.2814 161.2028 0.0000 0.0000 0.0000
# 4 0.0000 0.0000 0.0000 13.8841 0.0000 0.0000
# 5 0.0000 0.0000 0.0000 0.0000 32.8586 0.0000
# 6 0.0000 0.0000 0.0000 0.0000 0.0000 5.3538
#
#
#
# Elastic Compliance Matrix: (Units=1/GPa)
#
#
# Indices 1 2 3 4 5 6 
#
# 1 0.016861 -0.001257 -0.005771 0.000000 0.000000 0.000000
# 2 -0.001257 0.019657 -0.006036 0.000000 0.000000 0.000000
# 3 -0.005771 -0.006036 0.010316 0.000000 0.000000 0.000000
# 4 0.000000 0.000000 0.000000 0.072025 0.000000 0.000000
# 5 0.000000 0.000000 0.000000 0.000000 0.030433 0.000000
# 6 0.000000 0.000000 0.000000 0.000000 0.000000 0.186785
#
#
# Mechanical properties :
#
#
# Convention : Reuss Voigt Hill
#
# Bulk Modulus (GPa) = 48.29402 64.75464 56.52433
# Shear Modulus (GPa) = 13.54625 22.11514 17.83069
#
# Velocity S-wave (km/s) = 2.81453 3.59618 3.22910
# Velocity P-wave (km/s) = 6.22925 7.42366 6.85253
#
# Compressibility (1/GPa) = 0.02070650
#
# Stress axis : x y z
#
# Youngs Moduli (GPa) = 59.30863 50.87263 96.93939
#
# Poissons Ratio (x) = 0.06393 0.55942
# Poissons Ratio (y) = 0.07453 0.58513
# Poissons Ratio (z) = 0.34226 0.30707
#
# Static dielectric constant tensor:
#      x y z
#    x 3.191980 0.000000 0.000000 
#    y 0.000000 2.731620 0.000000 
#    z 0.000000 0.000000 3.492440 
# 
# 
# High freq. dielectric constant tensor:
#      x y z
#    x 1.653960 0.000000 0.000000 
#    y 0.000000 1.592000 0.000000 
#    z 0.000000 0.000000 1.683300 
# 
# From -- ./inp_files/37918.got.cif
#   From: 2010.03.12/outbox.cif.g09.slc.cpg/sg53_19_cif.got.tgz:37918.got - 2010.04.16 14:36:59.
