data_PCOD8217241
_publ_section_title
;
Structure prediction by ZEFSAII (Michael W. Deem and Ramdas Pophale) SiO2 
 PCOD8217241
Probable space group: P N N A
;
_chemical_formula_sum "Si O2"
_cell_formula_units_Z 32
_cell_length_a 17.323128
_cell_length_b 6.489564
_cell_length_c 13.536464
_cell_angle_alpha 90.000000
_cell_angle_beta 90.000000
_cell_angle_gamma 90.000000
_cell_volume 1521.763162
_symmetry_space_group_name_H-M "P N N A"
_symmetry_group_IT_number 52
_symmetry_cell_setting 'orthorhombic'
loop_
_space_group_symop_operation_xyz
x,y,z
1/2-x,-y,z
x,1/2-y,1/2-z
1/2-x,1/2+y,1/2-z
-x,-y,-z
1/2+x,y,-z
-x,1/2+y,1/2+z
1/2+x,1/2-y,1/2+z
loop_
_atom_site_type_symbol
_atom_site_label
_atom_site_fract_x
_atom_site_fract_y
_atom_site_fract_z
Si Si1 0.981703 0.882104 0.346422
Si Si2 0.124251 0.865615 0.148843
Si Si3 0.940201 0.750000 0.750000
Si Si4 0.750000 0.000000 0.993524
Si Si5 0.186727 0.325325 0.862645
O O1 0.965519 0.750000 0.250000
O O2 0.898359 0.903478 0.397639
O O3 0.050075 0.752376 0.401867
O O4 0.007423 0.113314 0.322335
O O5 0.147088 0.750000 0.250000
O O6 0.194745 0.857043 0.073238
O O7 0.109460 0.104223 0.177619
O O8 0.698546 0.138793 0.063496
O O9 0.250000 0.500000 0.880929
O O10 0.191942 0.250000 0.750000
#
# Coordination Sequence:
#
# PCOD8217241 Si02
#       5
#     8   8   4   4   8
#     4   8  18  37  63  91 122 165 211 256 322 375
#     4   9  21  40  63  94 127 164 206 260 323 382
#     4   8  16  36  66  88 122 162 204 260 320 368
#     4  12  26  40  62  98 130 164 216 260 316 384
#     4  11  24  41  64  92 127 170 215 265 315 370
#
# _framework density 21.02824
#
# number of rings (size 3 to 8) (size 9 to 14) (size 15 to 20)
#    0.000    3.000    1.250    0.000    3.500    7.000 
#    0.000    2.500    0.000    0.000    0.000    0.000 
#    0.000    0.000    0.000    0.000    0.000    0.000 
#
# Total GULP energy -396461.104263 kJ/mol
# GULP energy per Si atom -12389.409508 kJ/mol
# Density = 2.098038 g / cm^3
# Si number density = 21.028240 Si / 1000 Ang^3
#
#
#
# Elastic Constant Matrix: (Units=GPa)
#
#
# Indices 1 2 3 4 5 6 
#
# 1 155.3797 38.7015 50.6700 0.0000 0.0000 0.0000
# 2 38.7015 120.4924 29.5107 0.0000 0.0000 0.0000
# 3 50.6700 29.5107 79.3452 0.0000 0.0000 0.0000
# 4 0.0000 0.0000 0.0000 22.6481 0.0000 0.0000
# 5 0.0000 0.0000 0.0000 0.0000 -14.9371 0.0000
# 6 0.0000 0.0000 0.0000 0.0000 0.0000 38.5884
#
#
#
# Elastic Compliance Matrix: (Units=1/GPa)
#
#
# Indices 1 2 3 4 5 6 
#
# 1 0.008374 -0.001518 -0.004783 0.000000 0.000000 0.000000
# 2 -0.001518 0.009406 -0.002529 0.000000 0.000000 0.000000
# 3 -0.004783 -0.002529 0.016598 0.000000 0.000000 0.000000
# 4 0.000000 0.000000 0.000000 0.044154 0.000000 0.000000
# 5 0.000000 0.000000 0.000000 0.000000 -0.066947 0.000000
# 6 0.000000 0.000000 0.000000 0.000000 0.000000 0.025915
#
#
# Mechanical properties :
#
#
# Convention : Reuss Voigt Hill
#
# Bulk Modulus (GPa) = 59.81519 65.88686 62.85102
# Shear Modulus (GPa) = 82.32936 25.01554 53.67245
#
# Velocity S-wave (km/s) = 6.26393 3.45282 5.05761
# Velocity P-wave (km/s) = 8.99014 6.87725 8.00373
#
# Compressibility (1/GPa) = 0.01671816
#
# Stress axis : x y z
#
# Youngs Moduli (GPa) = 119.42179 106.31177 60.24812
#
# Poissons Ratio (x) = 0.16140 0.28815
# Poissons Ratio (y) = 0.18131 0.15236
# Poissons Ratio (z) = 0.57117 0.26886
#
# Static dielectric constant tensor:
#      x y z
#    x 4.323880 0.000000 0.000000 
#    y 0.000000 3.714290 0.000000 
#    z 0.000000 0.000000 3.473630 
# 
# 
# High freq. dielectric constant tensor:
#      x y z
#    x 1.836680 0.000000 0.000000 
#    y 0.000000 1.830690 0.000000 
#    z 0.000000 0.000000 1.794460 
# 
# From -- ./inp_files/27642.got.cif
#   From: 2010.06.25/outbox.cif.g09.slc.cpg/sg52_14_cif.got.tgz:27642.got - 2010.06.26 19:32:48.
