data_PCOD8217116
_publ_section_title
;
Structure prediction by ZEFSAII (Michael W. Deem and Ramdas Pophale) SiO2 
 PCOD8217116
Probable space group: P N N A
;
_chemical_formula_sum "Si O2"
_cell_formula_units_Z 48
_cell_length_a 9.505113
_cell_length_b 16.698654
_cell_length_c 13.931186
_cell_angle_alpha 90.000000
_cell_angle_beta 90.000000
_cell_angle_gamma 90.000000
_cell_volume 2211.193969
_symmetry_space_group_name_H-M "P N N A"
_symmetry_group_IT_number 52
_symmetry_cell_setting 'orthorhombic'
loop_
_space_group_symop_operation_xyz
x,y,z
1/2-x,-y,z
x,1/2-y,1/2-z
1/2-x,1/2+y,1/2-z
-x,-y,-z
1/2+x,y,-z
-x,1/2+y,1/2+z
1/2+x,1/2-y,1/2+z
loop_
_atom_site_type_symbol
_atom_site_label
_atom_site_fract_x
_atom_site_fract_y
_atom_site_fract_z
Si Si1 0.021002 0.303218 0.497810
Si Si2 0.982521 0.687126 0.827386
Si Si3 0.747292 0.406264 0.932845
Si Si4 0.766601 0.091569 0.018528
Si Si5 0.059944 0.154868 0.603436
Si Si6 0.248781 0.907672 0.753715
O O1 0.967644 0.238434 0.419832
O O2 0.158628 0.350681 0.463234
O O3 0.053886 0.251533 0.593432
O O4 0.914542 0.375379 0.517569
O O5 0.928569 0.750000 0.750000
O O6 0.849616 0.631053 0.849513
O O7 0.110729 0.634584 0.788476
O O8 0.750000 0.500000 0.920134
O O9 0.907627 0.378764 0.923409
O O10 0.681371 0.381703 0.034738
O O11 0.746744 0.100793 0.132246
O O12 0.750000 0.000000 0.984810
O O13 0.109962 0.133259 0.710872
O O14 0.250000 0.000000 0.722408
#
# Coordination Sequence:
#
# PCOD8217116 Si02
#       6
#     8   8   8   8   8   8
#     4  11  22  41  63  92 123 169 216 260 323 380
#     4  11  22  42  66  89 133 170 215 270 328 381
#     4  11  22  39  63  95 134 173 211 261 325 395
#     4  11  24  43  66  92 128 171 219 267 319 391
#     4  11  22  38  66  98 131 167 215 266 323 394
#     4  11  23  42  69 100 130 170 215 271 333 390
#
# _framework density 21.707729
#
# number of rings (size 3 to 8) (size 9 to 14) (size 15 to 20)
#    0.000    1.000    1.667    7.500    0.000    0.000 
#    6.000    0.833    0.000    0.000    0.000    0.000 
#    0.000    0.000    0.000    0.000    0.000    0.000 
#
# Total GULP energy -595134.692138 kJ/mol
# GULP energy per Si atom -12398.639420 kJ/mol
# Density = 2.165832 g / cm^3
# Si number density = 21.707729 Si / 1000 Ang^3
#
#
#
# Elastic Constant Matrix: (Units=GPa)
#
#
# Indices 1 2 3 4 5 6 
#
# 1 93.4057 13.1114 24.8381 0.0000 0.0000 0.0000
# 2 13.1114 142.6567 51.8965 0.0000 0.0000 0.0000
# 3 24.8381 51.8965 16.5674 0.0000 0.0000 0.0000
# 4 0.0000 0.0000 0.0000 26.9950 0.0000 0.0000
# 5 0.0000 0.0000 0.0000 0.0000 16.2934 0.0000
# 6 0.0000 0.0000 0.0000 0.0000 0.0000 38.9917
#
#
#
# Elastic Compliance Matrix: (Units=1/GPa)
#
#
# Indices 1 2 3 4 5 6 
#
# 1 0.003754 -0.012199 0.032584 0.000000 0.000000 0.000000
# 2 -0.012199 -0.010591 0.051465 0.000000 0.000000 0.000000
# 3 0.032584 0.051465 -0.149704 0.000000 0.000000 0.000000
# 4 0.000000 0.000000 0.000000 0.037044 0.000000 0.000000
# 5 0.000000 0.000000 0.000000 0.000000 0.061374 0.000000
# 6 0.000000 0.000000 0.000000 0.000000 0.000000 0.025646
#
#
# Mechanical properties :
#
#
# Convention : Reuss Voigt Hill
#
# Bulk Modulus (GPa) = -77.88410 48.03575 -14.92418
# Shear Modulus (GPa) = -27.70718 27.30828 -0.19945
#
# Velocity S-wave (km/s) = -3.57651 3.55067 -0.30345
# Velocity P-wave (km/s) = 7.28091 6.24389 2.64816
#
# Compressibility (1/GPa) = -0.01283959
#
# Stress axis : x y z
#
# Youngs Moduli (GPa) = 266.41075 -94.41686 -6.67985
#
# Poissons Ratio (x) = -1.15177 0.21766
# Poissons Ratio (y) = 3.24988 0.34378
# Poissons Ratio (z) = -8.68085 4.85919
#
# Static dielectric constant tensor:
#      x y z
#    x 3.981280 0.000000 0.000000 
#    y 0.000000 4.006960 0.000000 
#    z 0.000000 0.000000 3.860530 
# 
# 
# High freq. dielectric constant tensor:
#      x y z
#    x 1.861450 0.000000 0.000000 
#    y 0.000000 1.877610 0.000000 
#    z 0.000000 0.000000 1.832870 
# 
# From -- ./inp_files/24721.got.cif
#   From: 2010.06.25/outbox.cif.g09.slc.cpg/sg52_13_cif.got.tgz:24721.got - 2010.06.26 19:32:48.
