data_PCOD8217818
_publ_section_title
;
Structure prediction by ZEFSAII (Michael W. Deem and Ramdas Pophale) SiO2 
 PCOD8217818
Probable space group: P M N A
;
_chemical_formula_sum "Si O2"
_cell_formula_units_Z 64
_cell_length_a 9.025637
_cell_length_b 17.146898
_cell_length_c 25.640105
_cell_angle_alpha 90.000000
_cell_angle_beta 90.000000
_cell_angle_gamma 90.000000
_cell_volume 3968.105649
_symmetry_space_group_name_H-M "P M N A"
_symmetry_group_IT_number 53
_symmetry_cell_setting 'orthorhombic'
loop_
_space_group_symop_operation_xyz
x,y,z
1/2-x,-y,1/2+z
x,-y,-z
1/2-x,y,1/2-z
-x,-y,-z
1/2+x,y,1/2-z
-x,y,z
1/2+x,-y,1/2+z
loop_
_atom_site_type_symbol
_atom_site_label
_atom_site_fract_x
_atom_site_fract_y
_atom_site_fract_z
Si Si1 0.826245 0.587121 0.697492
Si Si2 0.325784 0.591125 0.197286
Si Si3 0.171461 0.590725 0.996877
Si Si4 0.837497 0.000939 0.061964
Si Si5 0.675440 0.320107 0.095895
Si Si6 0.175803 0.164745 0.942905
Si Si7 0.822713 0.169728 0.060693
Si Si8 0.173031 0.675366 0.103790
O O1 0.750000 0.618670 0.750000
O O2 0.778541 0.498017 0.686233
O O3 0.771838 0.638449 0.648966
O O4 0.000000 0.593756 0.705890
O O5 0.250000 0.621606 0.250000
O O6 0.500000 0.600283 0.203349
O O7 0.271195 0.644209 0.150373
O O8 0.213147 0.627857 0.052058
O O9 0.000000 0.606303 0.983133
O O10 0.209084 0.500000 0.000000
O O11 0.270136 0.629068 0.952511
O O12 0.762190 0.083394 0.078497
O O13 0.000000 0.001148 0.087767
O O14 0.755700 0.918892 0.077406
O O15 0.852978 0.000000 0.000000
O O16 0.500000 0.313195 0.092877
O O17 0.746611 0.234210 0.096803
O O18 0.219575 0.234255 0.904126
O O19 0.000000 0.154112 0.945792
O O20 0.229467 0.185949 0.001253
O O21 0.000000 0.174816 0.065831
O O22 0.000000 0.666776 0.117344
#
# Coordination Sequence:
#
# PCOD8217818 Si02
#       8
#     8   8   8   8   8   8   8   8
#     4   9  20  36  51  67  87 116 155 198 236 274
#     4  10  20  35  52  68  88 116 155 197 237 276
#     4  10  20  32  46  66  93 126 161 190 221 270
#     4   7  11  20  40  65  87 117 155 192 224 257
#     4  11  21  31  45  68  98 125 151 187 236 281
#     4   8  13  24  42  66  94 121 154 193 225 261
#     4   9  15  27  45  66  92 123 159 190 221 268
#     4  10  18  29  46  69  96 123 153 190 229 269
#
# _framework density 16.128602000000001
#
# number of rings (size 3 to 8) (size 9 to 14) (size 15 to 20)
#    0.000    2.750    1.250    3.000    0.000    2.250 
#    0.000    0.000    0.000    4.125    0.000    0.875 
#    0.000    2.000    0.000    0.000    0.000    0.000 
#
# Total GULP energy -793138.788596 kJ/mol
# GULP energy per Si atom -12392.793572 kJ/mol
# Density = 1.609189 g / cm^3
# Si number density = 16.128602 Si / 1000 Ang^3
#
#
#
# Elastic Constant Matrix: (Units=GPa)
#
#
# Indices 1 2 3 4 5 6 
#
# 1 40.6034 36.7422 36.1573 0.0000 0.0000 0.0000
# 2 36.7422 141.1993 66.7556 0.0000 0.0000 0.0000
# 3 36.1573 66.7556 92.1645 0.0000 0.0000 0.0000
# 4 0.0000 0.0000 0.0000 12.3508 0.0000 0.0000
# 5 0.0000 0.0000 0.0000 0.0000 24.8827 0.0000
# 6 0.0000 0.0000 0.0000 0.0000 0.0000 14.9275
#
#
#
# Elastic Compliance Matrix: (Units=1/GPa)
#
#
# Indices 1 2 3 4 5 6 
#
# 1 0.039653 -0.004507 -0.012292 0.000000 0.000000 0.000000
# 2 -0.004507 0.011283 -0.006404 0.000000 0.000000 0.000000
# 3 -0.012292 -0.006404 0.020311 0.000000 0.000000 0.000000
# 4 0.000000 0.000000 0.000000 0.080966 0.000000 0.000000
# 5 0.000000 0.000000 0.000000 0.000000 0.040189 0.000000
# 6 0.000000 0.000000 0.000000 0.000000 0.000000 0.066991
#
#
# Mechanical properties :
#
#
# Convention : Reuss Voigt Hill
#
# Bulk Modulus (GPa) = 40.25655 61.47526 50.86591
# Shear Modulus (GPa) = 15.91963 19.38632 17.65298
#
# Velocity S-wave (km/s) = 3.14513 3.47073 3.31193
# Velocity P-wave (km/s) = 6.18086 7.36612 6.79937
#
# Compressibility (1/GPa) = 0.02484068
#
# Stress axis : x y z
#
# Youngs Moduli (GPa) = 25.21893 88.63198 49.23474
#
# Poissons Ratio (x) = 0.39946 0.60519
# Poissons Ratio (y) = 0.11366 0.31530
# Poissons Ratio (z) = 0.30999 0.56759
#
# Static dielectric constant tensor:
#      x y z
#    x 2.787420 0.000000 0.000000 
#    y 0.000000 3.524290 0.000000 
#    z 0.000000 0.000000 2.855300 
# 
# 
# High freq. dielectric constant tensor:
#      x y z
#    x 1.594780 0.000000 0.000000 
#    y 0.000000 1.635550 0.000000 
#    z 0.000000 0.000000 1.586360 
# 
# From -- ./inp_files/34421.got.cif
#   From: 2010.03.12/outbox.cif.g09.slc.cpg/sg53_18_cif.got.tgz:34421.got - 2010.04.16 14:36:59.
