data_PCOD8217274
_publ_section_title
;
Structure prediction by ZEFSAII (Michael W. Deem and Ramdas Pophale) SiO2 
 PCOD8217274
Probable space group: P N N A
;
_chemical_formula_sum "Si O2"
_cell_formula_units_Z 56
_cell_length_a 19.033052
_cell_length_b 14.582773
_cell_length_c 9.642550
_cell_angle_alpha 90.000000
_cell_angle_beta 90.000000
_cell_angle_gamma 90.000000
_cell_volume 2676.334849
_symmetry_space_group_name_H-M "P N N A"
_symmetry_group_IT_number 52
_symmetry_cell_setting 'orthorhombic'
loop_
_space_group_symop_operation_xyz
x,y,z
1/2-x,-y,z
x,1/2-y,1/2-z
1/2-x,1/2+y,1/2-z
-x,-y,-z
1/2+x,y,-z
-x,1/2+y,1/2+z
1/2+x,1/2-y,1/2+z
loop_
_atom_site_type_symbol
_atom_site_label
_atom_site_fract_x
_atom_site_fract_y
_atom_site_fract_z
Si Si1 0.145204 0.527343 0.712062
Si Si2 0.386251 0.148193 0.300050
Si Si3 0.759884 0.898401 0.590907
Si Si4 0.033509 0.587766 0.932151
Si Si5 0.272961 0.852194 0.704724
Si Si6 0.598006 0.147886 0.723240
Si Si7 0.574463 0.503038 0.570028
O O1 0.077744 0.559580 0.797559
O O2 0.203612 0.606287 0.724970
O O3 0.165248 0.425716 0.766879
O O4 0.131912 0.522843 0.547620
O O5 0.402560 0.250000 0.250000
O O6 0.302255 0.131093 0.304684
O O7 0.418793 0.138913 0.454230
O O8 0.421850 0.077684 0.193187
O O9 0.760259 0.833782 0.457757
O O10 0.835251 0.903883 0.661587
O O11 0.750000 0.000000 0.530348
O O12 0.969221 0.650594 0.879139
O O13 0.000000 0.500000 0.000000
O O14 0.293582 0.750000 0.750000
O O15 0.622716 0.250000 0.750000
O O16 0.583241 0.098053 0.867707
O O17 0.500000 0.500000 0.500000
#
# Coordination Sequence:
#
# PCOD8217274 Si02
#       7
#     8   8   8   8   8   8   8
#     4  11  24  44  71  98 142 182 232 284 360 416
#     4  12  27  44  76 105 139 187 243 291 346 431
#     4  12  22  49  71 101 142 190 238 286 359 424
#     4  12  22  49  72  98 138 193 229 283 354 423
#     4  11  25  42  70 105 138 184 235 295 346 427
#     4  12  28  44  74 104 144 188 234 295 357 422
#     4  12  26  47  67 105 146 178 229 296 351 418
#
# _framework density 20.924137999999999
#
# number of rings (size 3 to 8) (size 9 to 14) (size 15 to 20)
#    0.000    0.286    7.143    1.286    6.000    2.857 
#    0.000    1.429    0.000    0.000    0.000    0.000 
#    0.000    0.000    0.000    0.000    0.000    0.000 
#
# Total GULP energy -694488.466032 kJ/mol
# GULP energy per Si atom -12401.579751 kJ/mol
# Density = 2.087651 g / cm^3
# Si number density = 20.924138 Si / 1000 Ang^3
#
#
#
# Elastic Constant Matrix: (Units=GPa)
#
#
# Indices 1 2 3 4 5 6 
#
# 1 126.7582 18.5405 44.3725 0.0000 0.0000 0.0000
# 2 18.5405 115.3840 34.4379 0.0000 0.0000 0.0000
# 3 44.3725 34.4379 131.4446 0.0000 0.0000 0.0000
# 4 0.0000 0.0000 0.0000 31.2338 0.0000 0.0000
# 5 0.0000 0.0000 0.0000 0.0000 37.4849 0.0000
# 6 0.0000 0.0000 0.0000 0.0000 0.0000 17.9040
#
#
#
# Elastic Compliance Matrix: (Units=1/GPa)
#
#
# Indices 1 2 3 4 5 6 
#
# 1 0.008982 -0.000584 -0.002879 0.000000 0.000000 0.000000
# 2 -0.000584 0.009440 -0.002276 0.000000 0.000000 0.000000
# 3 -0.002879 -0.002276 0.009176 0.000000 0.000000 0.000000
# 4 0.000000 0.000000 0.000000 0.032017 0.000000 0.000000
# 5 0.000000 0.000000 0.000000 0.000000 0.026677 0.000000
# 6 0.000000 0.000000 0.000000 0.000000 0.000000 0.055853
#
#
# Mechanical properties :
#
#
# Convention : Reuss Voigt Hill
#
# Bulk Modulus (GPa) = 62.03583 63.14318 62.58950
# Shear Modulus (GPa) = 31.44703 35.74027 33.59365
#
# Velocity S-wave (km/s) = 3.88094 4.13739 4.01121
# Velocity P-wave (km/s) = 7.05653 7.28469 7.17152
#
# Compressibility (1/GPa) = 0.01611972
#
# Stress axis : x y z
#
# Youngs Moduli (GPa) = 111.32954 105.93364 108.97944
#
# Poissons Ratio (x) = 0.06186 0.31378
# Poissons Ratio (y) = 0.06501 0.24804
# Poissons Ratio (z) = 0.32054 0.24111
#
# Static dielectric constant tensor:
#      x y z
#    x 4.288910 0.000000 0.000000 
#    y 0.000000 3.710120 0.000000 
#    z 0.000000 0.000000 4.460800 
# 
# 
# High freq. dielectric constant tensor:
#      x y z
#    x 1.831980 0.000000 0.000000 
#    y 0.000000 1.816110 0.000000 
#    z 0.000000 0.000000 1.831700 
# 
# From -- ./inp_files/13440.got.cif
#   From: 2010.06.25/outbox.cif.g09.slc.cpg/sg52_7_cif.got.tgz:13440.got - 2010.06.26 19:32:48.
