data_PCOD8217272
_publ_section_title
;
Structure prediction by ZEFSAII (Michael W. Deem and Ramdas Pophale) SiO2 
 PCOD8217272
Probable space group: P N N A
;
_chemical_formula_sum "Si O2"
_cell_formula_units_Z 40
_cell_length_a 11.958193
_cell_length_b 11.478481
_cell_length_c 13.180770
_cell_angle_alpha 90.000000
_cell_angle_beta 90.000000
_cell_angle_gamma 90.000000
_cell_volume 1809.217417
_symmetry_space_group_name_H-M "P N N A"
_symmetry_group_IT_number 52
_symmetry_cell_setting 'orthorhombic'
loop_
_space_group_symop_operation_xyz
x,y,z
1/2-x,-y,z
x,1/2-y,1/2-z
1/2-x,1/2+y,1/2-z
-x,-y,-z
1/2+x,y,-z
-x,1/2+y,1/2+z
1/2+x,1/2-y,1/2+z
loop_
_atom_site_type_symbol
_atom_site_label
_atom_site_fract_x
_atom_site_fract_y
_atom_site_fract_z
Si Si1 0.691876 0.250000 0.250000
Si Si2 0.846173 0.418238 0.521361
Si Si3 0.750000 0.000000 0.571129
Si Si4 0.938402 0.639640 0.816559
Si Si5 0.046167 0.459535 0.664876
Si Si6 0.653870 0.817524 0.430201
O O1 0.614707 0.348627 0.298206
O O2 0.769632 0.182878 0.330219
O O3 0.750000 0.500000 0.567992
O O4 0.879662 0.465076 0.410942
O O5 0.805276 0.287795 0.502001
O O6 0.941244 0.410666 0.604499
O O7 0.674790 0.085406 0.639073
O O8 0.832985 0.068123 0.497183
O O9 0.900341 0.750000 0.750000
O O10 0.007527 0.541021 0.756770
O O11 0.022239 0.689806 0.902465
#
# Coordination Sequence:
#
# PCOD8217272 Si02
#       6
#     4   8   4   8   8   8
#     4  12  24  44  80 108 144 194 244 310 358 450
#     4  11  24  44  71 104 143 193 239 302 361 436
#     4  12  32  42  76 106 156 190 248 310 382 438
#     4  12  27  50  71 105 149 198 242 306 370 447
#     4  11  26  42  71 107 142 188 251 294 365 439
#     4  12  25  47  74 104 145 193 245 303 369 440
#
# _framework density 22.109007999999999
#
# number of rings (size 3 to 8) (size 9 to 14) (size 15 to 20)
#    0.000    0.400    5.000    1.800    9.800    0.000 
#    0.000    0.000    0.000    0.000    0.000    0.000 
#    0.000    0.000    0.000    0.000    0.000    0.000 
#
# Total GULP energy -496183.781613 kJ/mol
# GULP energy per Si atom -12404.594540 kJ/mol
# Density = 2.205869 g / cm^3
# Si number density = 22.109008 Si / 1000 Ang^3
#
#
#
# Elastic Constant Matrix: (Units=GPa)
#
#
# Indices 1 2 3 4 5 6 
#
# 1 119.8466 49.7054 44.7038 0.0000 0.0000 0.0000
# 2 49.7054 113.9342 46.6350 0.0000 0.0000 0.0000
# 3 44.7038 46.6350 67.7084 0.0000 0.0000 0.0000
# 4 0.0000 0.0000 0.0000 38.7800 0.0000 0.0000
# 5 0.0000 0.0000 0.0000 0.0000 80.5766 0.0000
# 6 0.0000 0.0000 0.0000 0.0000 0.0000 48.9331
#
#
#
# Elastic Compliance Matrix: (Units=1/GPa)
#
#
# Indices 1 2 3 4 5 6 
#
# 1 0.011634 -0.002690 -0.005828 0.000000 0.000000 0.000000
# 2 -0.002690 0.012845 -0.007071 0.000000 0.000000 0.000000
# 3 -0.005828 -0.007071 0.023488 0.000000 0.000000 0.000000
# 4 0.000000 0.000000 0.000000 0.025786 0.000000 0.000000
# 5 0.000000 0.000000 0.000000 0.000000 0.012411 0.000000
# 6 0.000000 0.000000 0.000000 0.000000 0.000000 0.020436
#
#
# Mechanical properties :
#
#
# Convention : Reuss Voigt Hill
#
# Bulk Modulus (GPa) = 59.56789 64.84197 62.20493
# Shear Modulus (GPa) = 34.87400 44.35430 39.61415
#
# Velocity S-wave (km/s) = 3.97592 4.48388 4.23752
# Velocity P-wave (km/s) = 6.93387 7.49659 7.22071
#
# Compressibility (1/GPa) = 0.01678757
#
# Stress axis : x y z
#
# Youngs Moduli (GPa) = 85.95825 77.85308 42.57548
#
# Poissons Ratio (x) = 0.20940 0.24815
# Poissons Ratio (y) = 0.23120 0.30106
# Poissons Ratio (z) = 0.50100 0.55051
#
# Static dielectric constant tensor:
#      x y z
#    x 4.044750 0.000000 0.000000 
#    y 0.000000 4.409440 0.000000 
#    z 0.000000 0.000000 4.039370 
# 
# 
# High freq. dielectric constant tensor:
#      x y z
#    x 1.874850 0.000000 0.000000 
#    y 0.000000 1.886990 0.000000 
#    z 0.000000 0.000000 1.871770 
# 
# From -- ./inp_files/25889.got.cif
#   From: 2010.06.25/outbox.cif.g09.slc.cpg/sg52_13_cif.got.tgz:25889.got - 2010.06.26 19:32:48.
