data_PCOD8217940
_publ_section_title
;
Structure prediction by ZEFSAII (Michael W. Deem and Ramdas Pophale) SiO2 
 PCOD8217940
Probable space group: P M N A
;
_chemical_formula_sum "Si O2"
_cell_formula_units_Z 48
_cell_length_a 8.419066
_cell_length_b 18.495066
_cell_length_c 16.584098
_cell_angle_alpha 90.000000
_cell_angle_beta 90.000000
_cell_angle_gamma 90.000000
_cell_volume 2582.329491
_symmetry_space_group_name_H-M "P M N A"
_symmetry_group_IT_number 53
_symmetry_cell_setting 'orthorhombic'
loop_
_space_group_symop_operation_xyz
x,y,z
1/2-x,-y,1/2+z
x,-y,-z
1/2-x,y,1/2-z
-x,-y,-z
1/2+x,y,1/2-z
-x,y,z
1/2+x,-y,1/2+z
loop_
_atom_site_type_symbol
_atom_site_label
_atom_site_fract_x
_atom_site_fract_y
_atom_site_fract_z
Si Si1 0.312038 0.330923 0.665024
Si Si2 0.313595 0.918359 0.507579
Si Si3 0.684439 0.158707 0.163767
Si Si4 0.317585 0.712272 0.583732
Si Si5 0.688771 0.579785 0.488559
Si Si6 0.684547 0.212093 0.932403
O O1 0.250000 0.361321 0.750000
O O2 0.500000 0.323652 0.665554
O O3 0.250489 0.385949 0.595616
O O4 0.232646 0.251408 0.650978
O O5 0.500000 0.914231 0.492494
O O6 0.273869 0.887430 0.595959
O O7 0.224850 0.873266 0.436249
O O8 0.250979 0.000000 0.500000
O O9 0.750000 0.134347 0.250000
O O10 0.500000 0.141798 0.158306
O O11 0.714679 0.245182 0.150660
O O12 0.500000 0.714650 0.611722
O O13 0.260879 0.629616 0.565815
O O14 0.299558 0.752866 0.498942
O O15 0.763322 0.500000 0.500000
O O16 0.500000 0.575766 0.485316
O O17 0.500000 0.224585 0.952631
#
# Coordination Sequence:
#
# PCOD8217940 Si02
#       6
#     8   8   8   8   8   8
#     4  10  19  32  51  73  99 130 168 213 258 303
#     4  10  20  35  55  78 105 135 167 203 247 301
#     4  11  21  34  53  75 102 133 170 213 255 299
#     4   9  16  29  50  73  98 128 165 204 243 293
#     4   8  15  29  50  74 100 133 168 203 249 305
#     4  10  18  30  50  73  98 128 165 203 240 290
#
# _framework density 18.587869000000001
#
# number of rings (size 3 to 8) (size 9 to 14) (size 15 to 20)
#    0.000    2.333    0.000    7.500    0.000    1.333 
#    0.000    1.667    0.000   24.000    0.000    0.000 
#    0.000    0.000    0.000    0.000    0.000    0.000 
#
# Total GULP energy -594867.938728 kJ/mol
# GULP energy per Si atom -12393.082057 kJ/mol
# Density = 1.854556 g / cm^3
# Si number density = 18.587869 Si / 1000 Ang^3
#
#
#
# Elastic Constant Matrix: (Units=GPa)
#
#
# Indices 1 2 3 4 5 6 
#
# 1 59.3919 22.8417 12.3035 0.0000 0.0000 0.0000
# 2 22.8417 137.4435 38.8126 0.0000 0.0000 0.0000
# 3 12.3035 38.8126 79.7841 0.0000 0.0000 0.0000
# 4 0.0000 0.0000 0.0000 17.1068 0.0000 0.0000
# 5 0.0000 0.0000 0.0000 0.0000 26.6365 0.0000
# 6 0.0000 0.0000 0.0000 0.0000 0.0000 16.3872
#
#
#
# Elastic Compliance Matrix: (Units=1/GPa)
#
#
# Indices 1 2 3 4 5 6 
#
# 1 0.018149 -0.002580 -0.001544 0.000000 0.000000 0.000000
# 2 -0.002580 0.008801 -0.003884 0.000000 0.000000 0.000000
# 3 -0.001544 -0.003884 0.014661 0.000000 0.000000 0.000000
# 4 0.000000 0.000000 0.000000 0.058456 0.000000 0.000000
# 5 0.000000 0.000000 0.000000 0.000000 0.037542 0.000000
# 6 0.000000 0.000000 0.000000 0.000000 0.000000 0.061023
#
#
# Mechanical properties :
#
#
# Convention : Reuss Voigt Hill
#
# Bulk Modulus (GPa) = 39.06748 47.17058 43.11903
# Shear Modulus (GPa) = 22.40332 25.53687 23.97009
#
# Velocity S-wave (km/s) = 3.47546 3.71056 3.59493
# Velocity P-wave (km/s) = 6.09659 6.61739 6.36232
#
# Compressibility (1/GPa) = 0.02559674
#
# Stress axis : x y z
#
# Youngs Moduli (GPa) = 55.09801 113.62025 68.20756
#
# Poissons Ratio (x) = 0.29318 0.10528
# Poissons Ratio (y) = 0.14217 0.26489
# Poissons Ratio (z) = 0.08505 0.44126
#
# Static dielectric constant tensor:
#      x y z
#    x 3.243120 0.000000 0.000000 
#    y 0.000000 3.902820 0.000000 
#    z 0.000000 0.000000 3.410430 
# 
# 
# High freq. dielectric constant tensor:
#      x y z
#    x 1.719090 0.000000 0.000000 
#    y 0.000000 1.715490 0.000000 
#    z 0.000000 0.000000 1.695470 
# 
# From -- ./inp_files/26402.got.cif
#   From: 2010.03.12/outbox.cif.g09.slc.cpg/sg53_14_cif.got.tgz:26402.got - 2010.04.16 14:36:59.
