data_PCOD8217869
_publ_section_title
;
Structure prediction by ZEFSAII (Michael W. Deem and Ramdas Pophale) SiO2 
 PCOD8217869
Probable space group: P M N A
;
_chemical_formula_sum "Si O2"
_cell_formula_units_Z 48
_cell_length_a 17.320943
_cell_length_b 15.083674
_cell_length_c 7.249642
_cell_angle_alpha 90.000000
_cell_angle_beta 90.000000
_cell_angle_gamma 90.000000
_cell_volume 1894.066535
_symmetry_space_group_name_H-M "P M N A"
_symmetry_group_IT_number 53
_symmetry_cell_setting 'orthorhombic'
loop_
_space_group_symop_operation_xyz
x,y,z
1/2-x,-y,1/2+z
x,-y,-z
1/2-x,y,1/2-z
-x,-y,-z
1/2+x,y,1/2-z
-x,y,z
1/2+x,-y,1/2+z
loop_
_atom_site_type_symbol
_atom_site_label
_atom_site_fract_x
_atom_site_fract_y
_atom_site_fract_z
Si Si1 0.308004 0.278322 0.422598
Si Si2 0.909861 0.385186 0.628632
Si Si3 0.831445 0.788685 0.369951
Si Si4 0.165140 0.981121 0.291540
Si Si5 0.662806 0.551978 0.751181
Si Si6 0.910726 0.149774 0.252952
O O1 0.250000 0.276326 0.250000
O O2 0.258727 0.246158 0.602413
O O3 0.343321 0.378978 0.421218
O O4 0.380346 0.212426 0.409856
O O5 0.882136 0.291665 0.718043
O O6 0.859579 0.397375 0.441924
O O7 0.893232 0.466783 0.768429
O O8 0.000000 0.382004 0.580163
O O9 0.838878 0.876760 0.240502
O O10 0.865263 0.818984 0.565413
O O11 0.250000 0.018598 0.250000
O O12 0.142795 0.000000 0.500000
O O13 0.106540 0.047943 0.186778
O O14 0.750000 0.514971 0.750000
O O15 0.000000 0.164700 0.287603
#
# Coordination Sequence:
#
# PCOD8217869 Si02
#       6
#     8   8   8   8   8   8
#     4   9  16  32  51  73 106 147 188 226 280 356
#     4  11  21  32  53  89 115 136 183 256 309 337
#     4  10  19  33  53  77 114 144 188 237 292 351
#     4  10  21  36  57  82 114 151 192 241 294 348
#     4  10  18  32  51  75 111 145 182 223 287 358
#     4  10  18  29  51  82 111 143 183 237 297 346
#
# _framework density 25.342299000000001
#
# number of rings (size 3 to 8) (size 9 to 14) (size 15 to 20)
#    0.000    2.000    5.000    4.000    0.000    5.000 
#    0.000    0.000    0.000    4.500    0.000   11.667 
#    0.000    0.000    0.000    0.000    0.000    0.000 
#
# Total GULP energy -594734.211683 kJ/mol
# GULP energy per Si atom -12390.296077 kJ/mol
# Density = 2.528462 g / cm^3
# Si number density = 25.342299 Si / 1000 Ang^3
#
#
#
# Elastic Constant Matrix: (Units=GPa)
#
#
# Indices 1 2 3 4 5 6 
#
# 1 150.0688 59.7238 10.1818 0.0000 0.0000 0.0000
# 2 59.7238 225.6399 37.8708 0.0000 0.0000 0.0000
# 3 10.1818 37.8708 37.6828 0.0000 0.0000 0.0000
# 4 0.0000 0.0000 0.0000 25.7644 0.0000 0.0000
# 5 0.0000 0.0000 0.0000 0.0000 22.1521 0.0000
# 6 0.0000 0.0000 0.0000 0.0000 0.0000 13.0053
#
#
#
# Elastic Compliance Matrix: (Units=1/GPa)
#
#
# Indices 1 2 3 4 5 6 
#
# 1 0.007448 -0.001965 -0.000038 0.000000 0.000000 0.000000
# 2 -0.001965 0.005850 -0.005348 0.000000 0.000000 0.000000
# 3 -0.000038 -0.005348 0.031922 0.000000 0.000000 0.000000
# 4 0.000000 0.000000 0.000000 0.038813 0.000000 0.000000
# 5 0.000000 0.000000 0.000000 0.000000 0.045142 0.000000
# 6 0.000000 0.000000 0.000000 0.000000 0.000000 0.076892
#
#
# Mechanical properties :
#
#
# Convention : Reuss Voigt Hill
#
# Bulk Modulus (GPa) = 32.76667 69.88268 51.32468
# Shear Modulus (GPa) = 21.65058 32.55871 27.10464
#
# Velocity S-wave (km/s) = 2.92606 3.58824 3.27393
# Velocity P-wave (km/s) = 4.93695 6.69348 5.88116
#
# Compressibility (1/GPa) = 0.03051881
#
# Stress axis : x y z
#
# Youngs Moduli (GPa) = 134.25990 170.95363 31.32645
#
# Poissons Ratio (x) = 0.33595 0.00118
# Poissons Ratio (y) = 0.26384 0.16753
# Poissons Ratio (z) = 0.00504 0.91422
#
# Static dielectric constant tensor:
#      x y z
#    x 4.266900 0.000000 0.000000 
#    y 0.000000 5.618130 0.000000 
#    z 0.000000 0.000000 3.866740 
# 
# 
# High freq. dielectric constant tensor:
#      x y z
#    x 1.986070 0.000000 0.000000 
#    y 0.000000 2.043830 0.000000 
#    z 0.000000 0.000000 1.995360 
# 
# From -- ./inp_files/15923.got.cif
#   From: 2010.03.12/outbox.cif.g09.slc.cpg/sg53_8_cif.got.tgz:15923.got - 2010.04.16 14:36:59.
