data_PCOD8217029
_publ_section_title
;
Structure prediction by ZEFSAII (Michael W. Deem and Ramdas Pophale) SiO2 
 PCOD8217029
Probable space group: P N N A
;
_chemical_formula_sum "Si O2"
_cell_formula_units_Z 36
_cell_length_a 14.535399
_cell_length_b 14.413596
_cell_length_c 8.485472
_cell_angle_alpha 90.000000
_cell_angle_beta 90.000000
_cell_angle_gamma 90.000000
_cell_volume 1777.768912
_symmetry_space_group_name_H-M "P N N A"
_symmetry_group_IT_number 52
_symmetry_cell_setting 'orthorhombic'
loop_
_space_group_symop_operation_xyz
x,y,z
1/2-x,-y,z
x,1/2-y,1/2-z
1/2-x,1/2+y,1/2-z
-x,-y,-z
1/2+x,y,-z
-x,1/2+y,1/2+z
1/2+x,1/2-y,1/2+z
loop_
_atom_site_type_symbol
_atom_site_label
_atom_site_fract_x
_atom_site_fract_y
_atom_site_fract_z
Si Si1 0.436469 0.433830 0.900734
Si Si2 0.862323 0.252183 0.439858
Si Si3 0.822322 0.815788 0.106401
Si Si4 0.494768 0.897214 0.064206
Si Si5 0.250000 0.000000 0.739481
O O1 0.408884 0.342772 0.002034
O O2 0.497909 0.402023 0.752171
O O3 0.342536 0.487370 0.860885
O O4 0.500000 0.500000 0.000000
O O5 0.862341 0.250000 0.250000
O O6 0.755341 0.259019 0.492732
O O7 0.919661 0.339248 0.505835
O O8 0.858585 0.750000 0.250000
O O9 0.767372 0.907902 0.159763
O O10 0.903170 0.843889 0.988849
O O11 0.500000 0.000000 0.000000
#
# Coordination Sequence:
#
# PCOD8217029 Si02
#       5
#     8   8   8   8   4
#     4  11  24  41  64  94 134 173 216 269 330 405
#     4   9  19  38  57  90 126 163 204 262 327 390
#     4  11  20  37  66  93 123 169 218 269 331 396
#     4  11  21  36  64  96 119 163 222 265 316 393
#     4  12  20  42  66  90 124 180 212 260 350 400
#
# _framework density 20.250101000000001
#
# number of rings (size 3 to 8) (size 9 to 14) (size 15 to 20)
#    0.000    1.333    8.889    0.000    3.111    0.000 
#    0.000    3.333    0.000    4.000    0.000    0.000 
#    0.000    0.000    0.000    0.000    0.000    0.000 
#
# Total GULP energy -446118.727344 kJ/mol
# GULP energy per Si atom -12392.186871 kJ/mol
# Density = 2.020401 g / cm^3
# Si number density = 20.250101 Si / 1000 Ang^3
#
#
#
# Elastic Constant Matrix: (Units=GPa)
#
#
# Indices 1 2 3 4 5 6 
#
# 1 192.2879 71.6075 63.3160 0.0000 0.0000 0.0000
# 2 71.6075 135.7063 36.3227 0.0000 0.0000 0.0000
# 3 63.3160 36.3227 50.6053 0.0000 0.0000 0.0000
# 4 0.0000 0.0000 0.0000 28.6873 0.0000 0.0000
# 5 0.0000 0.0000 0.0000 0.0000 35.6578 0.0000
# 6 0.0000 0.0000 0.0000 0.0000 0.0000 50.0260
#
#
#
# Elastic Compliance Matrix: (Units=1/GPa)
#
#
# Indices 1 2 3 4 5 6 
#
# 1 0.009361 -0.002234 -0.010109 0.000000 0.000000 0.000000
# 2 -0.002234 0.009654 -0.004135 0.000000 0.000000 0.000000
# 3 -0.010109 -0.004135 0.035376 0.000000 0.000000 0.000000
# 4 0.000000 0.000000 0.000000 0.034859 0.000000 0.000000
# 5 0.000000 0.000000 0.000000 0.000000 0.028044 0.000000
# 6 0.000000 0.000000 0.000000 0.000000 0.000000 0.019990
#
#
# Mechanical properties :
#
#
# Convention : Reuss Voigt Hill
#
# Bulk Modulus (GPa) = 46.64819 80.12133 63.38476
# Shear Modulus (GPa) = 28.18734 36.69778 32.44256
#
# Velocity S-wave (km/s) = 3.73495 4.26164 4.00696
# Velocity P-wave (km/s) = 6.45645 7.99170 7.26475
#
# Compressibility (1/GPa) = 0.02143706
#
# Stress axis : x y z
#
# Youngs Moduli (GPa) = 106.82586 103.58194 28.26735
#
# Poissons Ratio (x) = 0.23138 0.28575
# Poissons Ratio (y) = 0.23862 0.11687
# Poissons Ratio (z) = 1.07990 0.42827
#
# Static dielectric constant tensor:
#      x y z
#    x 4.281650 0.000000 0.000000 
#    y 0.000000 4.638150 0.000000 
#    z 0.000000 0.000000 3.257690 
# 
# 
# High freq. dielectric constant tensor:
#      x y z
#    x 1.810620 0.000000 0.000000 
#    y 0.000000 1.823460 0.000000 
#    z 0.000000 0.000000 1.726280 
# 
# From -- ./inp_files/9890.got.cif
#   From: 2010.06.25/outbox.cif.g09.slc.cpg/sg52_5_cif.got.tgz:9890.got - 2010.06.26 19:32:48.
