data_PCOD8217229
_publ_section_title
;
Structure prediction by ZEFSAII (Michael W. Deem and Ramdas Pophale) SiO2 
 PCOD8217229
Probable space group: P N N A
;
_chemical_formula_sum "Si O2"
_cell_formula_units_Z 32
_cell_length_a 13.002432
_cell_length_b 17.330268
_cell_length_c 6.534843
_cell_angle_alpha 90.000000
_cell_angle_beta 90.000000
_cell_angle_gamma 90.000000
_cell_volume 1472.532972
_symmetry_space_group_name_H-M "P N N A"
_symmetry_group_IT_number 52
_symmetry_cell_setting 'orthorhombic'
loop_
_space_group_symop_operation_xyz
x,y,z
1/2-x,-y,z
x,1/2-y,1/2-z
1/2-x,1/2+y,1/2-z
-x,-y,-z
1/2+x,y,-z
-x,1/2+y,1/2+z
1/2+x,1/2-y,1/2+z
loop_
_atom_site_type_symbol
_atom_site_label
_atom_site_fract_x
_atom_site_fract_y
_atom_site_fract_z
Si Si1 0.192753 0.170247 0.238075
Si Si2 0.220850 0.415744 0.856033
Si Si3 0.138389 0.680569 0.587437
Si Si4 0.950986 0.916953 0.035481
O O1 0.125228 0.250000 0.250000
O O2 0.227660 0.144160 0.460573
O O3 0.288043 0.201288 0.101056
O O4 0.132466 0.098275 0.141806
O O5 0.250000 0.500000 0.937512
O O6 0.309696 0.392534 0.698267
O O7 0.106870 0.412921 0.754212
O O8 0.122326 0.750000 0.750000
O O9 0.033012 0.651860 0.483354
O O10 0.000000 0.000000 0.000000
#
# Coordination Sequence:
#
# PCOD8217229 Si02
#       4
#     8   8   8   8
#     4  11  25  44  67  98 135 183 229 284 347 409
#     4  11  24  43  71  99 141 180 228 284 346 410
#     4  11  23  46  68  98 137 180 230 282 347 411
#     4  11  25  42  67 103 136 175 233 284 337 417
#
# _framework density 21.731262999999998
#
# number of rings (size 3 to 8) (size 9 to 14) (size 15 to 20)
#    0.000    1.000    5.000    0.750    3.500    3.000 
#    4.500    0.000    0.000    0.000    0.000    0.000 
#    0.000    0.000    0.000    0.000    0.000    0.000 
#
# Total GULP energy -396630.968719 kJ/mol
# GULP energy per Si atom -12394.717772 kJ/mol
# Density = 2.168180 g / cm^3
# Si number density = 21.731263 Si / 1000 Ang^3
#
#
#
# Elastic Constant Matrix: (Units=GPa)
#
#
# Indices 1 2 3 4 5 6 
#
# 1 109.7390 47.0133 44.0618 0.0000 0.0000 0.0000
# 2 47.0133 147.4127 59.4633 0.0000 0.0000 0.0000
# 3 44.0618 59.4633 126.2605 0.0000 0.0000 0.0000
# 4 0.0000 0.0000 0.0000 40.7653 0.0000 0.0000
# 5 0.0000 0.0000 0.0000 0.0000 8.2023 0.0000
# 6 0.0000 0.0000 0.0000 0.0000 0.0000 37.6000
#
#
#
# Elastic Compliance Matrix: (Units=1/GPa)
#
#
# Indices 1 2 3 4 5 6 
#
# 1 0.011288 -0.002483 -0.002770 0.000000 0.000000 0.000000
# 2 -0.002483 0.008921 -0.003335 0.000000 0.000000 0.000000
# 3 -0.002770 -0.003335 0.010457 0.000000 0.000000 0.000000
# 4 0.000000 0.000000 0.000000 0.024531 0.000000 0.000000
# 5 0.000000 0.000000 0.000000 0.000000 0.121917 0.000000
# 6 0.000000 0.000000 0.000000 0.000000 0.000000 0.026596
#
#
# Mechanical properties :
#
#
# Convention : Reuss Voigt Hill
#
# Bulk Modulus (GPa) = 74.12288 76.05432 75.08860
# Shear Modulus (GPa) = 22.18453 32.83844 27.51149
#
# Velocity S-wave (km/s) = 3.19855 3.89152 3.56193
# Velocity P-wave (km/s) = 6.91548 7.43408 7.17947
#
# Compressibility (1/GPa) = 0.01349111
#
# Stress axis : x y z
#
# Youngs Moduli (GPa) = 88.58656 112.09899 95.62594
#
# Poissons Ratio (x) = 0.27831 0.26489
# Poissons Ratio (y) = 0.21994 0.31890
# Poissons Ratio (z) = 0.24540 0.37383
#
# Static dielectric constant tensor:
#      x y z
#    x 3.903490 0.000000 0.000000 
#    y 0.000000 3.919540 0.000000 
#    z 0.000000 0.000000 3.867970 
# 
# 
# High freq. dielectric constant tensor:
#      x y z
#    x 1.846090 0.000000 0.000000 
#    y 0.000000 1.873400 0.000000 
#    z 0.000000 0.000000 1.855990 
# 
# From -- ./inp_files/1018.got.cif
#   From: 2010.06.25/outbox.cif.g09.slc.cpg/sg52_1_cif.got.tgz:1018.got - 2010.06.26 19:32:48.
