data_PCOD8217670
_publ_section_title
;
Structure prediction by ZEFSAII (Michael W. Deem and Ramdas Pophale) SiO2 
 PCOD8217670
Probable space group: P M N A
;
_chemical_formula_sum "Si O2"
_cell_formula_units_Z 64
_cell_length_a 8.942995
_cell_length_b 20.297540
_cell_length_c 22.061648
_cell_angle_alpha 90.000000
_cell_angle_beta 90.000000
_cell_angle_gamma 90.000000
_cell_volume 4004.647966
_symmetry_space_group_name_H-M "P M N A"
_symmetry_group_IT_number 53
_symmetry_cell_setting 'orthorhombic'
loop_
_space_group_symop_operation_xyz
x,y,z
1/2-x,-y,1/2+z
x,-y,-z
1/2-x,y,1/2-z
-x,-y,-z
1/2+x,y,1/2-z
-x,y,z
1/2+x,-y,1/2+z
loop_
_atom_site_type_symbol
_atom_site_label
_atom_site_fract_x
_atom_site_fract_y
_atom_site_fract_z
Si Si1 0.331185 0.512173 0.428527
Si Si2 0.322023 0.860035 0.814873
Si Si3 0.176811 0.096897 0.540233
Si Si4 0.824434 0.252598 0.108695
Si Si5 0.331293 0.383808 0.089796
Si Si6 0.174724 0.770443 0.030866
Si Si7 0.823847 0.960307 0.585782
Si Si8 0.331917 0.359691 0.947347
O O1 0.329581 0.500000 0.500000
O O2 0.500000 0.513713 0.403905
O O3 0.242544 0.454018 0.394222
O O4 0.253477 0.581615 0.412660
O O5 0.250000 0.869872 0.750000
O O6 0.500000 0.856364 0.809632
O O7 0.263531 0.793516 0.845118
O O8 0.266953 0.922878 0.854416
O O9 0.260846 0.163011 0.560523
O O10 0.238417 0.076150 0.473957
O O11 0.000000 0.110244 0.540210
O O12 0.221533 0.037633 0.586466
O O13 0.766829 0.326582 0.120619
O O14 0.000000 0.249232 0.122116
O O15 0.785951 0.230589 0.040417
O O16 0.500000 0.381822 0.115450
O O17 0.331886 0.374423 0.018193
O O18 0.249468 0.709138 0.065393
O O19 0.000000 0.765937 0.042351
O O20 0.000000 0.955542 0.580495
O O21 0.500000 0.355442 0.922053
#
# Coordination Sequence:
#
# PCOD8217670 Si02
#       8
#     8   8   8   8   8   8   8   8
#     4   9  15  23  34  50  74 103 135 173 211 244
#     4  11  21  34  49  65  85 112 143 180 221 264
#     4   9  15  28  47  64  81 108 142 177 214 260
#     4  10  19  30  42  59  82 108 141 178 216 258
#     4   9  16  25  38  54  73 102 139 176 209 245
#     4  10  18  26  38  60  86 110 137 176 220 257
#     4   8  16  29  47  65  82 106 141 177 214 261
#     4   9  16  24  35  51  74 107 143 173 203 247
#
# _framework density 15.98143
#
# number of rings (size 3 to 8) (size 9 to 14) (size 15 to 20)
#    0.000    2.625    1.250    3.000    0.000    5.500 
#    0.000    2.500    0.000    0.000    0.000    0.000 
#    0.000    0.000    0.000    1.125    0.000   16.875 
#
# Total GULP energy -793424.857105 kJ/mol
# GULP energy per Si atom -12397.263392 kJ/mol
# Density = 1.594506 g / cm^3
# Si number density = 15.981430 Si / 1000 Ang^3
#
#
#
# Elastic Constant Matrix: (Units=GPa)
#
#
# Indices 1 2 3 4 5 6 
#
# 1 93.8418 58.5474 21.4071 0.0000 0.0000 0.0000
# 2 58.5474 161.8979 34.3837 0.0000 0.0000 0.0000
# 3 21.4071 34.3837 39.5718 0.0000 0.0000 0.0000
# 4 0.0000 0.0000 0.0000 7.4539 0.0000 0.0000
# 5 0.0000 0.0000 0.0000 0.0000 12.0913 0.0000
# 6 0.0000 0.0000 0.0000 0.0000 0.0000 26.2683
#
#
#
# Elastic Compliance Matrix: (Units=1/GPa)
#
#
# Indices 1 2 3 4 5 6 
#
# 1 0.014250 -0.004312 -0.003962 0.000000 0.000000 0.000000
# 2 -0.004312 0.008879 -0.005383 0.000000 0.000000 0.000000
# 3 -0.003962 -0.005383 0.032091 0.000000 0.000000 0.000000
# 4 0.000000 0.000000 0.000000 0.134158 0.000000 0.000000
# 5 0.000000 0.000000 0.000000 0.000000 0.082704 0.000000
# 6 0.000000 0.000000 0.000000 0.000000 0.000000 0.038069
#
#
# Mechanical properties :
#
#
# Convention : Reuss Voigt Hill
#
# Bulk Modulus (GPa) = 35.83350 58.22089 47.02719
# Shear Modulus (GPa) = 14.41891 21.22758 17.82325
#
# Velocity S-wave (km/s) = 3.00697 3.64849 3.34315
# Velocity P-wave (km/s) = 5.87592 7.36601 6.66275
#
# Compressibility (1/GPa) = 0.02790685
#
# Stress axis : x y z
#
# Youngs Moduli (GPa) = 70.17424 112.62340 31.16143
#
# Poissons Ratio (x) = 0.48561 0.12348
# Poissons Ratio (y) = 0.30258 0.16773
# Poissons Ratio (z) = 0.27806 0.60620
#
# Static dielectric constant tensor:
#      x y z
#    x 3.058810 0.000000 0.000000 
#    y 0.000000 3.303490 0.000000 
#    z 0.000000 0.000000 2.532710 
# 
# 
# High freq. dielectric constant tensor:
#      x y z
#    x 1.621090 0.000000 0.000000 
#    y 0.000000 1.632250 0.000000 
#    z 0.000000 0.000000 1.530270 
# 
# From -- ./inp_files/34501.got.cif
#   From: 2010.03.12/outbox.cif.g09.slc.cpg/sg53_18_cif.got.tgz:34501.got - 2010.04.16 14:36:59.
