data_PCOD8217538
_publ_section_title
;
Structure prediction by ZEFSAII (Michael W. Deem and Ramdas Pophale) SiO2 
 PCOD8217538
Probable space group: P M N A
;
_chemical_formula_sum "Si O2"
_cell_formula_units_Z 56
_cell_length_a 9.221710
_cell_length_b 14.593835
_cell_length_c 25.985222
_cell_angle_alpha 90.000000
_cell_angle_beta 90.000000
_cell_angle_gamma 90.000000
_cell_volume 3497.094143
_symmetry_space_group_name_H-M "P M N A"
_symmetry_group_IT_number 53
_symmetry_cell_setting 'orthorhombic'
loop_
_space_group_symop_operation_xyz
x,y,z
1/2-x,-y,1/2+z
x,-y,-z
1/2-x,y,1/2-z
-x,-y,-z
1/2+x,y,1/2-z
-x,y,z
1/2+x,-y,1/2+z
loop_
_atom_site_type_symbol
_atom_site_label
_atom_site_fract_x
_atom_site_fract_y
_atom_site_fract_z
Si Si1 0.172174 0.619640 0.544985
Si Si2 0.831118 0.021010 0.107896
Si Si3 0.169194 0.816341 0.571032
Si Si4 0.172063 0.577696 0.432106
Si Si5 0.162858 0.113951 0.541884
Si Si6 0.169988 0.119458 0.802354
Si Si7 0.834509 0.742827 0.368594
O O1 0.227505 0.711281 0.573953
O O2 0.235708 0.612403 0.486934
O O3 0.218735 0.528473 0.576932
O O4 0.000000 0.626081 0.540573
O O5 0.768685 0.967664 0.058501
O O6 0.795914 0.964187 0.159319
O O7 0.000000 0.034780 0.099730
O O8 0.755899 0.120876 0.111842
O O9 0.205296 0.852289 0.514255
O O10 0.000000 0.822305 0.584368
O O11 0.224351 0.641397 0.384435
O O12 0.000000 0.586019 0.435116
O O13 0.176661 0.199783 0.579331
O O14 0.000000 0.073814 0.543268
O O15 0.250000 0.093967 0.750000
O O16 0.232699 0.214833 0.824602
O O17 0.000000 0.132225 0.792806
O O18 0.000000 0.740589 0.347921
#
# Coordination Sequence:
#
# PCOD8217538 Si02
#       7
#     8   8   8   8   8   8   8
#     4   8  13  21  37  63  93 122 155 189 211 235
#     4  10  21  32  42  60  86 115 145 180 226 273
#     4  10  17  26  41  63  90 122 157 187 210 244
#     4   8  12  21  39  64  92 121 152 185 216 243
#     4   9  16  26  40  61  88 119 154 185 210 246
#     4  10  21  36  51  67  86 109 141 184 232 280
#     4   9  15  26  46  69  92 119 149 182 222 263
#
# _framework density 16.013294999999999
#
# number of rings (size 3 to 8) (size 9 to 14) (size 15 to 20)
#    0.000    2.857    1.429    2.143    0.000    4.000 
#    0.000    0.000    0.000    0.857    0.000    3.000 
#    0.000    2.286    0.000    0.000    0.000    0.000 
#
# Total GULP energy -694037.301858 kJ/mol
# GULP energy per Si atom -12393.523247 kJ/mol
# Density = 1.597685 g / cm^3
# Si number density = 16.013295 Si / 1000 Ang^3
#
#
#
# Elastic Constant Matrix: (Units=GPa)
#
#
# Indices 1 2 3 4 5 6 
#
# 1 57.6220 47.1349 31.3236 0.0000 0.0000 0.0000
# 2 47.1349 144.3630 39.7205 0.0000 0.0000 0.0000
# 3 31.3236 39.7205 50.2371 0.0000 0.0000 0.0000
# 4 0.0000 0.0000 0.0000 12.6464 0.0000 0.0000
# 5 0.0000 0.0000 0.0000 0.0000 15.5875 0.0000
# 6 0.0000 0.0000 0.0000 0.0000 0.0000 5.8347
#
#
#
# Elastic Compliance Matrix: (Units=1/GPa)
#
#
# Indices 1 2 3 4 5 6 
#
# 1 0.029707 -0.005883 -0.013872 0.000000 0.000000 0.000000
# 2 -0.005883 0.010018 -0.004253 0.000000 0.000000 0.000000
# 3 -0.013872 -0.004253 0.031917 0.000000 0.000000 0.000000
# 4 0.000000 0.000000 0.000000 0.079074 0.000000 0.000000
# 5 0.000000 0.000000 0.000000 0.000000 0.064154 0.000000
# 6 0.000000 0.000000 0.000000 0.000000 0.000000 0.171390
#
#
# Mechanical properties :
#
#
# Convention : Reuss Voigt Hill
#
# Bulk Modulus (GPa) = 42.32253 54.28667 48.30460
# Shear Modulus (GPa) = 11.30837 15.74992 13.52914
#
# Velocity S-wave (km/s) = 2.66030 3.13957 2.90982
# Velocity P-wave (km/s) = 5.99360 6.86419 6.44362
#
# Compressibility (1/GPa) = 0.02362808
#
# Stress axis : x y z
#
# Youngs Moduli (GPa) = 33.66169 99.82193 31.33102
#
# Poissons Ratio (x) = 0.58724 0.43461
# Poissons Ratio (y) = 0.19803 0.13324
# Poissons Ratio (z) = 0.46694 0.42451
#
# Static dielectric constant tensor:
#      x y z
#    x 2.796010 0.000000 0.000000 
#    y 0.000000 3.452740 0.000000 
#    z 0.000000 0.000000 2.749720 
# 
# 
# High freq. dielectric constant tensor:
#      x y z
#    x 1.586860 0.000000 0.000000 
#    y 0.000000 1.625040 0.000000 
#    z 0.000000 0.000000 1.572490 
# 
# From -- ./inp_files/38353.got.cif
#   From: 2010.03.12/outbox.cif.g09.slc.cpg/sg53_20_cif.got.tgz:38353.got - 2010.04.16 14:36:59.
