data_PCOD8217715
_publ_section_title
;
Structure prediction by ZEFSAII (Michael W. Deem and Ramdas Pophale) SiO2 
 PCOD8217715
Probable space group: P M N A
;
_chemical_formula_sum "Si O2"
_cell_formula_units_Z 64
_cell_length_a 9.025419
_cell_length_b 16.966772
_cell_length_c 26.376494
_cell_angle_alpha 90.000000
_cell_angle_beta 90.000000
_cell_angle_gamma 90.000000
_cell_volume 4039.091250
_symmetry_space_group_name_H-M "P M N A"
_symmetry_group_IT_number 53
_symmetry_cell_setting 'orthorhombic'
loop_
_space_group_symop_operation_xyz
x,y,z
1/2-x,-y,1/2+z
x,-y,-z
1/2-x,y,1/2-z
-x,-y,-z
1/2+x,y,1/2-z
-x,y,z
1/2+x,-y,1/2+z
loop_
_atom_site_type_symbol
_atom_site_label
_atom_site_fract_x
_atom_site_fract_y
_atom_site_fract_z
Si Si1 0.675555 0.593705 0.197226
Si Si2 0.827895 0.339402 0.064898
Si Si3 0.668717 0.403430 0.543223
Si Si4 0.173504 0.169756 0.032238
Si Si5 0.170904 0.280880 0.868246
Si Si6 0.175555 0.851143 0.424945
Si Si7 0.163015 0.977187 0.558365
Si Si8 0.826978 0.524206 0.608779
O O1 0.750000 0.571088 0.250000
O O2 0.500000 0.603923 0.202830
O O3 0.744444 0.675663 0.177456
O O4 0.717855 0.522010 0.159763
O O5 0.788964 0.246664 0.065967
O O6 0.741565 0.387573 0.108756
O O7 0.000000 0.352862 0.074284
O O8 0.776402 0.373413 0.010845
O O9 0.500000 0.433091 0.541706
O O10 0.687220 0.330875 0.580965
O O11 0.766533 0.477332 0.560023
O O12 0.221504 0.094192 0.065996
O O13 0.000000 0.165481 0.019423
O O14 0.259810 0.173975 0.979337
O O15 0.249096 0.197497 0.879432
O O16 0.000000 0.267977 0.852806
O O17 0.000000 0.835826 0.426255
O O18 0.211851 0.943076 0.412472
O O19 0.000000 0.949422 0.576709
O O20 0.155056 0.000000 0.500000
O O21 0.000000 0.531797 0.603474
#
# Coordination Sequence:
#
# PCOD8217715 Si02
#       8
#     8   8   8   8   8   8   8   8
#     4  10  21  37  53  70  91 115 146 185 231 277
#     4  10  19  30  42  60  88 121 154 186 223 266
#     4   9  17  30  43  58  86 120 150 182 220 262
#     4  10  18  28  41  60  85 119 160 194 223 260
#     4  10  18  30  48  69  91 118 153 188 226 268
#     4  10  18  28  42  61  89 120 153 190 225 265
#     4   8  16  28  39  56  83 118 154 187 225 261
#     4  10  21  32  44  66  87 109 147 187 223 268
#
# _framework density 15.845148999999999
#
# number of rings (size 3 to 8) (size 9 to 14) (size 15 to 20)
#    0.000    2.375    1.250    3.000    0.000    7.750 
#    0.000    0.000    0.000    0.000    0.000    0.000 
#    0.000    1.000    0.000    9.000    0.000    6.750 
#
# Total GULP energy -793437.575347 kJ/mol
# GULP energy per Si atom -12397.462115 kJ/mol
# Density = 1.580908 g / cm^3
# Si number density = 15.845149 Si / 1000 Ang^3
#
#
#
# Elastic Constant Matrix: (Units=GPa)
#
#
# Indices 1 2 3 4 5 6 
#
# 1 85.4959 58.6100 30.1855 0.0000 0.0000 0.0000
# 2 58.6100 121.9560 36.3949 0.0000 0.0000 0.0000
# 3 30.1855 36.3949 44.5764 0.0000 0.0000 0.0000
# 4 0.0000 0.0000 0.0000 12.7353 0.0000 0.0000
# 5 0.0000 0.0000 0.0000 0.0000 19.3340 0.0000
# 6 0.0000 0.0000 0.0000 0.0000 0.0000 30.5491
#
#
#
# Elastic Compliance Matrix: (Units=1/GPa)
#
#
# Indices 1 2 3 4 5 6 
#
# 1 0.019030 -0.007007 -0.007165 0.000000 0.000000 0.000000
# 2 -0.007007 0.013421 -0.006213 0.000000 0.000000 0.000000
# 3 -0.007165 -0.006213 0.032358 0.000000 0.000000 0.000000
# 4 0.000000 0.000000 0.000000 0.078522 0.000000 0.000000
# 5 0.000000 0.000000 0.000000 0.000000 0.051722 0.000000
# 6 0.000000 0.000000 0.000000 0.000000 0.000000 0.032734
#
#
# Mechanical properties :
#
#
# Convention : Reuss Voigt Hill
#
# Bulk Modulus (GPa) = 41.60000 55.82324 48.71162
# Shear Modulus (GPa) = 18.07852 20.97954 19.52903
#
# Velocity S-wave (km/s) = 3.38146 3.64268 3.51450
# Velocity P-wave (km/s) = 6.44645 7.28005 6.87590
#
# Compressibility (1/GPa) = 0.02403846
#
# Stress axis : x y z
#
# Youngs Moduli (GPa) = 52.54897 74.50843 30.90416
#
# Poissons Ratio (x) = 0.52209 0.22144
# Poissons Ratio (y) = 0.36822 0.19201
# Poissons Ratio (z) = 0.37653 0.46292
#
# Static dielectric constant tensor:
#      x y z
#    x 3.093590 0.000000 0.000000 
#    y 0.000000 3.369300 0.000000 
#    z 0.000000 0.000000 2.631550 
# 
# 
# High freq. dielectric constant tensor:
#      x y z
#    x 1.620240 0.000000 0.000000 
#    y 0.000000 1.614920 0.000000 
#    z 0.000000 0.000000 1.548860 
# 
# From -- ./inp_files/34535.got.cif
#   From: 2010.03.12/outbox.cif.g09.slc.cpg/sg53_18_cif.got.tgz:34535.got - 2010.04.16 14:36:59.
