data_PCOD8217280
_publ_section_title
;
Structure prediction by ZEFSAII (Michael W. Deem and Ramdas Pophale) SiO2 
 PCOD8217280
Probable space group: P N N A
;
_chemical_formula_sum "Si O2"
_cell_formula_units_Z 28
_cell_length_a 7.858870
_cell_length_b 14.680231
_cell_length_c 10.808091
_cell_angle_alpha 90.000000
_cell_angle_beta 90.000000
_cell_angle_gamma 90.000000
_cell_volume 1246.929750
_symmetry_space_group_name_H-M "P N N A"
_symmetry_group_IT_number 52
_symmetry_cell_setting 'orthorhombic'
loop_
_space_group_symop_operation_xyz
x,y,z
1/2-x,-y,z
x,1/2-y,1/2-z
1/2-x,1/2+y,1/2-z
-x,-y,-z
1/2+x,y,-z
-x,1/2+y,1/2+z
1/2+x,1/2-y,1/2+z
loop_
_atom_site_type_symbol
_atom_site_label
_atom_site_fract_x
_atom_site_fract_y
_atom_site_fract_z
Si Si1 0.750000 0.000000 0.199718
Si Si2 0.183207 0.693733 0.629022
Si Si3 0.168913 0.240280 0.380132
Si Si4 0.935339 0.962321 0.627749
O O1 0.765915 0.906938 0.120368
O O2 0.576332 0.992978 0.275237
O O3 0.250165 0.750000 0.750000
O O4 0.220205 0.747207 0.501733
O O5 0.978962 0.683343 0.632078
O O6 0.276647 0.250000 0.250000
O O7 0.070062 0.145387 0.386664
O O8 0.750000 0.000000 0.665900
O O9 0.000000 0.000000 0.500000
#
# Coordination Sequence:
#
# PCOD8217280 Si02
#       4
#     4   8   8   8
#     4  12  24  46  72 108 150 190 246 306 368 440
#     4  11  24  46  72 103 150 188 241 311 363 434
#     4  11  24  47  67 102 147 186 240 301 365 435
#     4  12  23  42  75 106 140 193 251 297 360 438
#
# _framework density 22.455155999999999
#
# number of rings (size 3 to 8) (size 9 to 14) (size 15 to 20)
#    0.000    0.571    7.143    3.429    0.000    4.571 
#    2.571    0.000    0.000    0.000    0.000    0.000 
#    0.000    0.000    0.000    0.000    0.000    0.000 
#
# Total GULP energy -347035.269845 kJ/mol
# GULP energy per Si atom -12394.116780 kJ/mol
# Density = 2.240405 g / cm^3
# Si number density = 22.455156 Si / 1000 Ang^3
#
#
#
# Elastic Constant Matrix: (Units=GPa)
#
#
# Indices 1 2 3 4 5 6 
#
# 1 112.8135 16.0448 33.5051 0.0000 0.0000 0.0000
# 2 16.0448 88.9393 25.7363 0.0000 0.0000 0.0000
# 3 33.5051 25.7363 178.2578 0.0000 0.0000 0.0000
# 4 0.0000 0.0000 0.0000 35.1077 0.0000 0.0000
# 5 0.0000 0.0000 0.0000 0.0000 25.0109 0.0000
# 6 0.0000 0.0000 0.0000 0.0000 0.0000 32.7182
#
#
#
# Elastic Compliance Matrix: (Units=1/GPa)
#
#
# Indices 1 2 3 4 5 6 
#
# 1 0.009520 -0.001252 -0.001609 0.000000 0.000000 0.000000
# 2 -0.001252 0.011898 -0.001483 0.000000 0.000000 0.000000
# 3 -0.001609 -0.001483 0.006126 0.000000 0.000000 0.000000
# 4 0.000000 0.000000 0.000000 0.028484 0.000000 0.000000
# 5 0.000000 0.000000 0.000000 0.000000 0.039983 0.000000
# 6 0.000000 0.000000 0.000000 0.000000 0.000000 0.030564
#
#
# Mechanical properties :
#
#
# Convention : Reuss Voigt Hill
#
# Bulk Modulus (GPa) = 53.02644 58.95367 55.99005
# Shear Modulus (GPa) = 35.32382 38.88232 37.10307
#
# Velocity S-wave (km/s) = 3.97051 4.16571 4.06928
# Velocity P-wave (km/s) = 6.68473 7.03196 6.86054
#
# Compressibility (1/GPa) = 0.01885852
#
# Stress axis : x y z
#
# Youngs Moduli (GPa) = 105.04207 84.04437 163.23188
#
# Poissons Ratio (x) = 0.10522 0.26258
# Poissons Ratio (y) = 0.13151 0.24200
# Poissons Ratio (z) = 0.16897 0.12460
#
# Static dielectric constant tensor:
#      x y z
#    x 3.976950 0.000000 0.000000 
#    y 0.000000 4.545230 0.000000 
#    z 0.000000 0.000000 4.273300 
# 
# 
# High freq. dielectric constant tensor:
#      x y z
#    x 1.872840 0.000000 0.000000 
#    y 0.000000 1.895120 0.000000 
#    z 0.000000 0.000000 1.892850 
# 
# From -- ./inp_files/16351.got.cif
#   From: 2010.06.25/outbox.cif.g09.slc.cpg/sg52_9_cif.got.tgz:16351.got - 2010.06.26 19:32:48.
