data_PCOD8217234
_publ_section_title
;
Structure prediction by ZEFSAII (Michael W. Deem and Ramdas Pophale) SiO2 
 PCOD8217234
Probable space group: P N N A
;
_chemical_formula_sum "Si O2"
_cell_formula_units_Z 28
_cell_length_a 13.343488
_cell_length_b 10.870174
_cell_length_c 7.703461
_cell_angle_alpha 90.000000
_cell_angle_beta 90.000000
_cell_angle_gamma 90.000000
_cell_volume 1117.356484
_symmetry_space_group_name_H-M "P N N A"
_symmetry_group_IT_number 52
_symmetry_cell_setting 'orthorhombic'
loop_
_space_group_symop_operation_xyz
x,y,z
1/2-x,-y,z
x,1/2-y,1/2-z
1/2-x,1/2+y,1/2-z
-x,-y,-z
1/2+x,y,-z
-x,1/2+y,1/2+z
1/2+x,1/2-y,1/2+z
loop_
_atom_site_type_symbol
_atom_site_label
_atom_site_fract_x
_atom_site_fract_y
_atom_site_fract_z
Si Si1 0.596802 0.807155 0.007795
Si Si2 0.360649 0.054811 0.325121
Si Si3 0.388602 0.698976 0.076426
Si Si4 0.746514 0.250000 0.250000
O O1 0.482371 0.791626 0.065676
O O2 0.674341 0.847430 0.161502
O O3 0.597120 0.912353 0.863856
O O4 0.637797 0.674589 0.944259
O O5 0.250000 0.000000 0.313711
O O6 0.426806 0.941455 0.398916
O O7 0.328800 0.750000 0.250000
O O8 0.323708 0.697553 0.901218
#
# Coordination Sequence:
#
# PCOD8217234 Si02
#       4
#     8   8   8   4
#     4  11  25  48  75 112 148 203 260 308 390 460
#     4  11  23  47  76 105 155 199 249 322 377 450
#     4  12  26  49  76 111 155 196 256 323 380 456
#     4  12  24  48  74 110 150 202 258 308 388 460
#
# _framework density 25.059145999999998
#
# number of rings (size 3 to 8) (size 9 to 14) (size 15 to 20)
#    0.000    0.571    4.286    4.286    0.000    1.143 
#   15.429    0.000    0.000    0.000    0.000    0.000 
#    0.000    0.000    0.000    0.000    0.000    0.000 
#
# Total GULP energy -346892.480168 kJ/mol
# GULP energy per Si atom -12389.017149 kJ/mol
# Density = 2.500211 g / cm^3
# Si number density = 25.059146 Si / 1000 Ang^3
#
#
#
# Elastic Constant Matrix: (Units=GPa)
#
#
# Indices 1 2 3 4 5 6 
#
# 1 109.2118 12.8128 55.6187 0.0000 0.0000 0.0000
# 2 12.8128 69.1784 37.6707 0.0000 0.0000 0.0000
# 3 55.6187 37.6707 190.8144 0.0000 0.0000 0.0000
# 4 0.0000 0.0000 0.0000 40.8183 0.0000 0.0000
# 5 0.0000 0.0000 0.0000 0.0000 25.6335 0.0000
# 6 0.0000 0.0000 0.0000 0.0000 0.0000 -10.9229
#
#
#
# Elastic Compliance Matrix: (Units=1/GPa)
#
#
# Indices 1 2 3 4 5 6 
#
# 1 0.010759 -0.000319 -0.003073 0.000000 0.000000 0.000000
# 2 -0.000319 0.016206 -0.003106 0.000000 0.000000 0.000000
# 3 -0.003073 -0.003106 0.006750 0.000000 0.000000 0.000000
# 4 0.000000 0.000000 0.000000 0.024499 0.000000 0.000000
# 5 0.000000 0.000000 0.000000 0.000000 0.039012 0.000000
# 6 0.000000 0.000000 0.000000 0.000000 0.000000 -0.091551
#
#
# Mechanical properties :
#
#
# Convention : Reuss Voigt Hill
#
# Bulk Modulus (GPa) = 48.26862 64.60100 56.43481
# Shear Modulus (GPa) = 195.48461 28.64593 112.06527
#
# Velocity S-wave (km/s) = 8.84187 3.38469 6.69458
# Velocity P-wave (km/s) = 11.11494 6.41173 9.07337
#
# Compressibility (1/GPa) = 0.02071740
#
# Stress axis : x y z
#
# Youngs Moduli (GPa) = 92.94560 61.70535 148.15542
#
# Poissons Ratio (x) = 0.01970 0.45528
# Poissons Ratio (y) = 0.02968 0.46022
# Poissons Ratio (z) = 0.28562 0.19168
#
# Static dielectric constant tensor:
#      x y z
#    x 4.622670 0.000000 0.000000 
#    y 0.000000 4.738570 0.000000 
#    z 0.000000 0.000000 4.971320 
# 
# 
# High freq. dielectric constant tensor:
#      x y z
#    x 2.009620 0.000000 0.000000 
#    y 0.000000 1.973600 0.000000 
#    z 0.000000 0.000000 2.021840 
# 
# From -- ./inp_files/9428.got.cif
#   From: 2010.06.25/outbox.cif.g09.slc.cpg/sg52_5_cif.got.tgz:9428.got - 2010.06.26 19:32:48.
