data_PCOD8217127
_publ_section_title
;
Structure prediction by ZEFSAII (Michael W. Deem and Ramdas Pophale) SiO2 
 PCOD8217127
Probable space group: P N N A
;
_chemical_formula_sum "Si O2"
_cell_formula_units_Z 48
_cell_length_a 27.656254
_cell_length_b 9.897814
_cell_length_c 8.235805
_cell_angle_alpha 90.000000
_cell_angle_beta 90.000000
_cell_angle_gamma 90.000000
_cell_volume 2254.440090
_symmetry_space_group_name_H-M "P N N A"
_symmetry_group_IT_number 52
_symmetry_cell_setting 'orthorhombic'
loop_
_space_group_symop_operation_xyz
x,y,z
1/2-x,-y,z
x,1/2-y,1/2-z
1/2-x,1/2+y,1/2-z
-x,-y,-z
1/2+x,y,-z
-x,1/2+y,1/2+z
1/2+x,1/2-y,1/2+z
loop_
_atom_site_type_symbol
_atom_site_label
_atom_site_fract_x
_atom_site_fract_y
_atom_site_fract_z
Si Si1 0.291735 0.097582 0.057346
Si Si2 0.791290 0.098930 0.556008
Si Si3 0.605120 0.014053 0.941342
Si Si4 0.047422 0.772184 0.935517
Si Si5 0.556016 0.267010 0.065010
Si Si6 0.102878 0.974132 0.436290
O O1 0.290121 0.100364 0.250561
O O2 0.283267 0.248985 0.989370
O O3 0.343491 0.042923 0.997648
O O4 0.250000 0.000000 0.987447
O O5 0.842882 0.043712 0.496430
O O6 0.750000 0.000000 0.485571
O O7 0.602841 0.023939 0.747977
O O8 0.562041 0.921734 0.009398
O O9 0.598170 0.163551 0.013253
O O10 0.062793 0.750000 0.750000
O O11 0.075095 0.667611 0.052154
O O12 0.990095 0.755497 0.950861
O O13 0.539805 0.250000 0.250000
O O14 0.575887 0.417946 0.047619
#
# Coordination Sequence:
#
# PCOD8217127 Si02
#       6
#     8   8   8   8   8   8
#     4   9  18  33  58  92 125 157 199 251 301 355
#     4   9  18  33  58  92 125 157 199 251 301 355
#     4  11  22  40  64  93 126 163 207 256 306 361
#     4  12  24  42  65  90 123 165 206 253 311 370
#     4  12  26  42  61  90 125 163 208 257 309 370
#     4  11  22  40  64  93 126 163 207 256 306 361
#
# _framework density 21.291318
#
# number of rings (size 3 to 8) (size 9 to 14) (size 15 to 20)
#    0.000    1.333    1.667    5.000    2.333    0.000 
#    0.000    0.000    0.000    6.000    0.000    0.000 
#    0.000    0.000    0.000    0.000    0.000    0.000 
#
# Total GULP energy -595516.105541 kJ/mol
# GULP energy per Si atom -12406.585532 kJ/mol
# Density = 2.124286 g / cm^3
# Si number density = 21.291318 Si / 1000 Ang^3
#
#
#
# Elastic Constant Matrix: (Units=GPa)
#
#
# Indices 1 2 3 4 5 6 
#
# 1 141.7192 49.6983 2.6037 0.0000 0.0000 0.0000
# 2 49.6983 90.2996 6.3003 0.0000 0.0000 0.0000
# 3 2.6037 6.3003 50.6711 0.0000 0.0000 0.0000
# 4 0.0000 0.0000 0.0000 30.8921 0.0000 0.0000
# 5 0.0000 0.0000 0.0000 0.0000 15.2592 0.0000
# 6 0.0000 0.0000 0.0000 0.0000 0.0000 44.4864
#
#
#
# Elastic Compliance Matrix: (Units=1/GPa)
#
#
# Indices 1 2 3 4 5 6 
#
# 1 0.008745 -0.004823 0.000150 0.000000 0.000000 0.000000
# 2 -0.004823 0.013832 -0.001472 0.000000 0.000000 0.000000
# 3 0.000150 -0.001472 0.019910 0.000000 0.000000 0.000000
# 4 0.000000 0.000000 0.000000 0.032371 0.000000 0.000000
# 5 0.000000 0.000000 0.000000 0.000000 0.065534 0.000000
# 6 0.000000 0.000000 0.000000 0.000000 0.000000 0.022479
#
#
# Mechanical properties :
#
#
# Convention : Reuss Voigt Hill
#
# Bulk Modulus (GPa) = 33.11593 44.43273 38.77433
# Shear Modulus (GPa) = 26.99400 33.06673 30.03036
#
# Velocity S-wave (km/s) = 3.56454 3.94517 3.75967
# Velocity P-wave (km/s) = 5.70340 6.45497 6.09079
#
# Compressibility (1/GPa) = 0.03019694
#
# Stress axis : x y z
#
# Youngs Moduli (GPa) = 114.35181 72.29805 50.22502
#
# Poissons Ratio (x) = 0.34873 -0.00755
# Poissons Ratio (y) = 0.55157 0.07393
# Poissons Ratio (z) = -0.01720 0.10642
#
# Static dielectric constant tensor:
#      x y z
#    x 3.923050 0.000000 0.000000 
#    y 0.000000 3.980850 0.000000 
#    z 0.000000 0.000000 3.425750 
# 
# 
# High freq. dielectric constant tensor:
#      x y z
#    x 1.841060 0.000000 0.000000 
#    y 0.000000 1.848740 0.000000 
#    z 0.000000 0.000000 1.806000 
# 
# From -- ./inp_files/15479.got.cif
#   From: 2010.06.25/outbox.cif.g09.slc.cpg/sg52_8_cif.got.tgz:15479.got - 2010.06.26 19:32:48.
