data_PCOD8217942
_publ_section_title
;
Structure prediction by ZEFSAII (Michael W. Deem and Ramdas Pophale) SiO2 
 PCOD8217942
Probable space group: P M N A
;
_chemical_formula_sum "Si O2"
_cell_formula_units_Z 48
_cell_length_a 8.734567
_cell_length_b 30.915901
_cell_length_c 9.564376
_cell_angle_alpha 90.000000
_cell_angle_beta 90.000000
_cell_angle_gamma 90.000000
_cell_volume 2582.735485
_symmetry_space_group_name_H-M "P M N A"
_symmetry_group_IT_number 53
_symmetry_cell_setting 'orthorhombic'
loop_
_space_group_symop_operation_xyz
x,y,z
1/2-x,-y,1/2+z
x,-y,-z
1/2-x,y,1/2-z
-x,-y,-z
1/2+x,y,1/2-z
-x,y,z
1/2+x,-y,1/2+z
loop_
_atom_site_type_symbol
_atom_site_label
_atom_site_fract_x
_atom_site_fract_y
_atom_site_fract_z
Si Si1 0.319073 0.539314 0.096697
Si Si2 0.817848 0.873338 0.095087
Si Si3 0.818347 0.786796 0.402550
Si Si4 0.680213 0.288332 0.105042
Si Si5 0.180779 0.385504 0.396808
Si Si6 0.679952 0.039973 0.901625
O O1 0.250000 0.535856 0.250000
O O2 0.500000 0.537931 0.112528
O O3 0.260807 0.500000 0.000000
O O4 0.263341 0.583583 0.022231
O O5 0.750000 0.873700 0.250000
O O6 0.751643 0.829831 0.022606
O O7 0.755957 0.917573 0.025089
O O8 0.000000 0.872357 0.094772
O O9 0.750000 0.780868 0.250000
O O10 0.764007 0.744722 0.487013
O O11 0.000000 0.791358 0.394941
O O12 0.750000 0.272401 0.250000
O O13 0.500000 0.287402 0.120480
O O14 0.736959 0.336819 0.067421
O O15 0.250000 0.401491 0.250000
O O16 0.000000 0.388014 0.380474
O O17 0.750000 0.030530 0.750000
O O18 0.500000 0.047650 0.885623
O O19 0.719947 0.000000 0.000000
#
# Coordination Sequence:
#
# PCOD8217942 Si02
#       6
#     8   8   8   8   8   8
#     4  10  21  35  52  76 105 135 169 210 253 300
#     4  10  18  30  50  73  98 130 166 203 246 295
#     4  10  19  32  50  73  99 127 163 205 247 292
#     4   9  19  34  52  73 100 133 166 205 251 299
#     4   9  18  34  53  74 100 131 169 208 249 298
#     4  10  20  34  53  76 102 132 166 205 249 296
#
# _framework density 18.584945999999999
#
# number of rings (size 3 to 8) (size 9 to 14) (size 15 to 20)
#    0.000    2.333    0.000    5.000    0.000    4.333 
#    0.000    0.833    0.000    0.000    0.000    0.000 
#    0.000    0.000    0.000    0.000    0.000    0.000 
#
# Total GULP energy -595064.111951 kJ/mol
# GULP energy per Si atom -12397.168999 kJ/mol
# Density = 1.854265 g / cm^3
# Si number density = 18.584946 Si / 1000 Ang^3
#
#
#
# Elastic Constant Matrix: (Units=GPa)
#
#
# Indices 1 2 3 4 5 6 
#
# 1 73.3143 54.9973 38.2449 0.0000 0.0000 0.0000
# 2 54.9973 166.7461 88.5440 0.0000 0.0000 0.0000
# 3 38.2449 88.5440 111.4940 0.0000 0.0000 0.0000
# 4 0.0000 0.0000 0.0000 38.9010 0.0000 0.0000
# 5 0.0000 0.0000 0.0000 0.0000 29.4830 0.0000
# 6 0.0000 0.0000 0.0000 0.0000 0.0000 21.5162
#
#
#
# Elastic Compliance Matrix: (Units=1/GPa)
#
#
# Indices 1 2 3 4 5 6 
#
# 1 0.018550 -0.004737 -0.002601 0.000000 0.000000 0.000000
# 2 -0.004737 0.011580 -0.007572 0.000000 0.000000 0.000000
# 3 -0.002601 -0.007572 0.015874 0.000000 0.000000 0.000000
# 4 0.000000 0.000000 0.000000 0.025706 0.000000 0.000000
# 5 0.000000 0.000000 0.000000 0.000000 0.033918 0.000000
# 6 0.000000 0.000000 0.000000 0.000000 0.000000 0.046477
#
#
# Mechanical properties :
#
#
# Convention : Reuss Voigt Hill
#
# Bulk Modulus (GPa) = 61.78473 79.45855 70.62164
# Shear Modulus (GPa) = 26.69223 29.29792 27.99508
#
# Velocity S-wave (km/s) = 3.79387 3.97474 3.88536
# Velocity P-wave (km/s) = 7.24624 7.99449 7.62954
#
# Compressibility (1/GPa) = 0.01618523
#
# Stress axis : x y z
#
# Youngs Moduli (GPa) = 53.90709 86.35454 62.99473
#
# Poissons Ratio (x) = 0.40908 0.16386
# Poissons Ratio (y) = 0.25537 0.47697
# Poissons Ratio (z) = 0.14022 0.65384
#
# Static dielectric constant tensor:
#      x y z
#    x 3.387760 0.000000 0.000000 
#    y 0.000000 4.305780 0.000000 
#    z 0.000000 0.000000 3.166300 
# 
# 
# High freq. dielectric constant tensor:
#      x y z
#    x 1.723960 0.000000 0.000000 
#    y 0.000000 1.744740 0.000000 
#    z 0.000000 0.000000 1.692470 
# 
# From -- ./inp_files/6754.got.cif
#   From: 2010.03.12/outbox.cif.g09.slc.cpg/sg53_4_cif.got.tgz:6754.got - 2010.04.16 14:36:59.
