data_PCOD8217182
_publ_section_title
;
Structure prediction by ZEFSAII (Michael W. Deem and Ramdas Pophale) SiO2 
 PCOD8217182
Probable space group: P N N A
;
_chemical_formula_sum "Si O2"
_cell_formula_units_Z 32
_cell_length_a 4.854875
_cell_length_b 12.479686
_cell_length_c 24.284744
_cell_angle_alpha 90.000000
_cell_angle_beta 90.000000
_cell_angle_gamma 90.000000
_cell_volume 1471.347448
_symmetry_space_group_name_H-M "P N N A"
_symmetry_group_IT_number 52
_symmetry_cell_setting 'orthorhombic'
loop_
_space_group_symop_operation_xyz
x,y,z
1/2-x,-y,z
x,1/2-y,1/2-z
1/2-x,1/2+y,1/2-z
-x,-y,-z
1/2+x,y,-z
-x,1/2+y,1/2+z
1/2+x,1/2-y,1/2+z
loop_
_atom_site_type_symbol
_atom_site_label
_atom_site_fract_x
_atom_site_fract_y
_atom_site_fract_z
Si Si1 0.085735 0.742343 0.037419
Si Si2 0.727757 0.242305 0.312055
Si Si3 0.745976 0.125330 0.642039
Si Si4 0.995698 0.928890 0.116362
O O1 0.145159 0.647383 0.080357
O O2 0.123495 0.855493 0.068356
O O3 0.274579 0.732642 0.983736
O O4 0.839800 0.250000 0.250000
O O5 0.451813 0.172128 0.312330
O O6 0.647243 0.359203 0.335386
O O7 0.951802 0.182729 0.350184
O O8 0.750000 0.000000 0.651925
O O9 0.250000 0.000000 0.139825
O O10 0.750000 0.000000 0.091073
#
# Coordination Sequence:
#
# PCOD8217182 Si02
#       4
#     8   8   8   8
#     4  11  23  40  62  90 124 162 206 255 307 366
#     4  11  24  43  65  93 128 163 206 259 311 370
#     4  11  24  43  65  93 126 162 209 259 309 370
#     4  11  23  40  62  91 126 162 205 254 306 369
#
# _framework density 21.748773
#
# number of rings (size 3 to 8) (size 9 to 14) (size 15 to 20)
#    0.000    1.000    0.000    9.000    0.000    7.000 
#    0.000    0.000    0.000    0.000    0.000    0.000 
#    0.000    0.000    0.000    0.000    0.000    0.000 
#
# Total GULP energy -396871.462959 kJ/mol
# GULP energy per Si atom -12402.233217 kJ/mol
# Density = 2.169927 g / cm^3
# Si number density = 21.748773 Si / 1000 Ang^3
#
#
#
# Elastic Constant Matrix: (Units=GPa)
#
#
# Indices 1 2 3 4 5 6 
#
# 1 104.3776 28.4481 6.6701 0.0000 0.0000 0.0000
# 2 28.4481 101.0560 11.9400 0.0000 0.0000 0.0000
# 3 6.6701 11.9400 97.2272 0.0000 0.0000 0.0000
# 4 0.0000 0.0000 0.0000 7.3826 0.0000 0.0000
# 5 0.0000 0.0000 0.0000 0.0000 35.5988 0.0000
# 6 0.0000 0.0000 0.0000 0.0000 0.0000 34.7968
#
#
#
# Elastic Compliance Matrix: (Units=1/GPa)
#
#
# Indices 1 2 3 4 5 6 
#
# 1 0.010389 -0.002882 -0.000359 0.000000 0.000000 0.000000
# 2 -0.002882 0.010841 -0.001134 0.000000 0.000000 0.000000
# 3 -0.000359 -0.001134 0.010449 0.000000 0.000000 0.000000
# 4 0.000000 0.000000 0.000000 0.135454 0.000000 0.000000
# 5 0.000000 0.000000 0.000000 0.000000 0.028091 0.000000
# 6 0.000000 0.000000 0.000000 0.000000 0.000000 0.028738
#
#
# Mechanical properties :
#
#
# Convention : Reuss Voigt Hill
#
# Bulk Modulus (GPa) = 43.61146 44.08636 43.84891
# Shear Modulus (GPa) = 20.80262 32.59581 26.69922
#
# Velocity S-wave (km/s) = 3.09608 3.87556 3.50754
# Velocity P-wave (km/s) = 5.73384 6.35148 6.05055
#
# Compressibility (1/GPa) = 0.02292975
#
# Stress axis : x y z
#
# Youngs Moduli (GPa) = 96.25496 92.24409 95.70285
#
# Poissons Ratio (x) = 0.26587 0.03434
# Poissons Ratio (y) = 0.27743 0.10849
# Poissons Ratio (z) = 0.03453 0.10457
#
# Static dielectric constant tensor:
#      x y z
#    x 4.067110 0.000000 0.000000 
#    y 0.000000 3.965830 0.000000 
#    z 0.000000 0.000000 3.667670 
# 
# 
# High freq. dielectric constant tensor:
#      x y z
#    x 1.876030 0.000000 0.000000 
#    y 0.000000 1.854870 0.000000 
#    z 0.000000 0.000000 1.842140 
# 
# From -- ./inp_files/34797.got.cif
#   From: 2010.06.25/outbox.cif.g09.slc.cpg/sg52_18_cif.got.tgz:34797.got - 2010.06.26 19:32:48.
