data_PCOD8217099
_publ_section_title
;
Structure prediction by ZEFSAII (Michael W. Deem and Ramdas Pophale) SiO2 
 PCOD8217099
Probable space group: P N N A
;
_chemical_formula_sum "Si O2"
_cell_formula_units_Z 48
_cell_length_a 19.348739
_cell_length_b 15.089295
_cell_length_c 8.327513
_cell_angle_alpha 90.000000
_cell_angle_beta 90.000000
_cell_angle_gamma 90.000000
_cell_volume 2431.290958
_symmetry_space_group_name_H-M "P N N A"
_symmetry_group_IT_number 52
_symmetry_cell_setting 'orthorhombic'
loop_
_space_group_symop_operation_xyz
x,y,z
1/2-x,-y,z
x,1/2-y,1/2-z
1/2-x,1/2+y,1/2-z
-x,-y,-z
1/2+x,y,-z
-x,1/2+y,1/2+z
1/2+x,1/2-y,1/2+z
loop_
_atom_site_type_symbol
_atom_site_label
_atom_site_fract_x
_atom_site_fract_y
_atom_site_fract_z
Si Si1 0.027798 0.324798 0.126999
Si Si2 0.805541 0.564670 0.582602
Si Si3 0.577358 0.839731 0.650735
Si Si4 0.951485 0.503993 0.654209
Si Si5 0.233990 0.662398 0.144140
Si Si6 0.839481 0.746801 0.063165
O O1 0.007287 0.250000 0.250000
O O2 0.036331 0.415361 0.224402
O O3 0.096432 0.295252 0.032463
O O4 0.961814 0.331222 0.015184
O O5 0.750000 0.500000 0.493877
O O6 0.873379 0.505480 0.593764
O O7 0.775363 0.587198 0.759117
O O8 0.823501 0.652649 0.485192
O O9 0.575289 0.750000 0.750000
O O10 0.536551 0.913231 0.751444
O O11 0.655910 0.868575 0.609175
O O12 0.000000 0.500000 0.500000
O O13 0.234019 0.750000 0.250000
O O14 0.273325 0.684740 0.976893
O O15 0.856731 0.750000 0.250000
#
# Coordination Sequence:
#
# PCOD8217099 Si02
#       6
#     8   8   8   8   8   8
#     4  12  23  43  66  93 134 179 223 276 339 410
#     4  11  21  44  70  92 130 177 223 276 338 416
#     4  11  24  41  66  96 133 176 219 277 345 400
#     4  12  25  42  66  99 132 174 228 279 336 408
#     4   9  19  40  64  88 121 169 214 260 331 398
#     4  11  23  41  69  98 129 171 229 277 339 413
#
# _framework density 19.742598000000001
#
# number of rings (size 3 to 8) (size 9 to 14) (size 15 to 20)
#    0.000    1.000    5.000    2.500    2.333    0.667 
#    3.000    0.833    0.000    0.000    0.000    0.000 
#    0.000    0.000    0.000    0.000    0.000    0.000 
#
# Total GULP energy -595150.704470 kJ/mol
# GULP energy per Si atom -12398.973010 kJ/mol
# Density = 1.969766 g / cm^3
# Si number density = 19.742598 Si / 1000 Ang^3
#
#
#
# Elastic Constant Matrix: (Units=GPa)
#
#
# Indices 1 2 3 4 5 6 
#
# 1 145.4027 43.8696 74.6527 0.0000 0.0000 0.0000
# 2 43.8696 117.5096 59.8740 0.0000 0.0000 0.0000
# 3 74.6527 59.8740 136.5272 0.0000 0.0000 0.0000
# 4 0.0000 0.0000 0.0000 -1.0329 0.0000 0.0000
# 5 0.0000 0.0000 0.0000 0.0000 52.9284 0.0000
# 6 0.0000 0.0000 0.0000 0.0000 0.0000 39.8790
#
#
#
# Elastic Compliance Matrix: (Units=1/GPa)
#
#
# Indices 1 2 3 4 5 6 
#
# 1 0.009688 -0.001182 -0.004779 0.000000 0.000000 0.000000
# 2 -0.001182 0.011103 -0.004223 0.000000 0.000000 0.000000
# 3 -0.004779 -0.004223 0.011790 0.000000 0.000000 0.000000
# 4 0.000000 0.000000 0.000000 -0.968158 0.000000 0.000000
# 5 0.000000 0.000000 0.000000 0.000000 0.018893 0.000000
# 6 0.000000 0.000000 0.000000 0.000000 0.000000 0.025076
#
#
# Mechanical properties :
#
#
# Convention : Reuss Voigt Hill
#
# Bulk Modulus (GPa) = 81.88095 84.02578 82.95337
# Shear Modulus (GPa) = -5.76588 33.09111 13.66262
#
# Velocity S-wave (km/s) = -1.71081 4.09850 2.63351
# Velocity P-wave (km/s) = 6.13692 8.06535 7.16630
#
# Compressibility (1/GPa) = 0.01221285
#
# Stress axis : x y z
#
# Youngs Moduli (GPa) = 103.22508 90.06730 84.82019
#
# Poissons Ratio (x) = 0.10643 0.40535
# Poissons Ratio (y) = 0.12198 0.35820
# Poissons Ratio (z) = 0.49330 0.38035
#
# Static dielectric constant tensor:
#      x y z
#    x 3.899590 0.000000 0.000000 
#    y 0.000000 3.854990 0.000000 
#    z 0.000000 0.000000 3.483920 
# 
# 
# High freq. dielectric constant tensor:
#      x y z
#    x 1.784710 0.000000 0.000000 
#    y 0.000000 1.784520 0.000000 
#    z 0.000000 0.000000 1.751870 
# 
# From -- ./inp_files/12120.got.cif
#   From: 2010.06.25/outbox.cif.g09.slc.cpg/sg52_7_cif.got.tgz:12120.got - 2010.06.26 19:32:48.
