data_PCOD8217607
_publ_section_title
;
Structure prediction by ZEFSAII (Michael W. Deem and Ramdas Pophale) SiO2 
 PCOD8217607
Probable space group: P M N A
;
_chemical_formula_sum "Si O2"
_cell_formula_units_Z 64
_cell_length_a 18.359892
_cell_length_b 11.949133
_cell_length_c 14.548940
_cell_angle_alpha 90.000000
_cell_angle_beta 90.000000
_cell_angle_gamma 90.000000
_cell_volume 3191.816167
_symmetry_space_group_name_H-M "P M N A"
_symmetry_group_IT_number 53
_symmetry_cell_setting 'orthorhombic'
loop_
_space_group_symop_operation_xyz
x,y,z
1/2-x,-y,1/2+z
x,-y,-z
1/2-x,y,1/2-z
-x,-y,-z
1/2+x,y,1/2-z
-x,y,z
1/2+x,-y,1/2+z
loop_
_atom_site_type_symbol
_atom_site_label
_atom_site_fract_x
_atom_site_fract_y
_atom_site_fract_z
Si Si1 0.580837 0.831193 0.765214
Si Si2 0.362744 0.323132 0.083237
Si Si3 0.418940 0.626442 0.624719
Si Si4 0.916508 0.488329 0.710186
Si Si5 0.582878 0.264759 0.889524
Si Si6 0.295963 0.923608 0.668285
Si Si7 0.266332 0.831920 0.149366
Si Si8 0.792782 0.267438 0.026212
O O1 0.500000 0.875269 0.785861
O O2 0.616833 0.788998 0.860122
O O3 0.581159 0.728054 0.695705
O O4 0.624112 0.933605 0.716249
O O5 0.374484 0.438099 0.136050
O O6 0.277285 0.329137 0.064916
O O7 0.409256 0.320686 0.989551
O O8 0.500000 0.610131 0.582108
O O9 0.393602 0.517507 0.684212
O O10 0.362634 0.652130 0.542138
O O11 0.903916 0.358188 0.689012
O O12 0.000000 0.524117 0.699108
O O13 0.500000 0.215523 0.880273
O O14 0.646840 0.172416 0.874952
O O15 0.250000 0.862869 0.750000
O O16 0.301485 0.851416 0.576697
O O17 0.260314 0.040892 0.642253
O O18 0.250000 0.783381 0.250000
O O19 0.217896 0.756629 0.081385
#
# Coordination Sequence:
#
# PCOD8217607 Si02
#       8
#     8   8   8   8   8   8   8   8
#     4   9  16  27  48  81 117 145 175 227 285 342
#     4  10  17  28  52  88 121 144 177 224 281 352
#     4   8  16  30  50  81 116 143 180 230 282 338
#     4   9  17  30  52  83 118 150 175 220 284 343
#     4  10  20  36  57  78 111 154 191 226 275 340
#     4  10  18  34  55  78 108 147 183 229 290 340
#     4  10  23  40  55  73 107 150 198 236 282 337
#     4  10  19  33  57  82 111 145 185 234 296 338
#
# _framework density 20.051280999999999
#
# number of rings (size 3 to 8) (size 9 to 14) (size 15 to 20)
#    0.000    2.500    1.250    2.625    0.000    1.000 
#    2.250    3.750    0.000    4.500    0.000    2.625 
#    0.000    0.000    0.000    0.000    0.000    0.000 
#
# Total GULP energy -793138.113357 kJ/mol
# GULP energy per Si atom -12392.783021 kJ/mol
# Density = 2.000564 g / cm^3
# Si number density = 20.051281 Si / 1000 Ang^3
#
#
#
# Elastic Constant Matrix: (Units=GPa)
#
#
# Indices 1 2 3 4 5 6 
#
# 1 119.0271 28.9391 40.4859 0.0000 0.0000 0.0000
# 2 28.9391 56.1624 14.9909 0.0000 0.0000 0.0000
# 3 40.4859 14.9909 92.2595 0.0000 0.0000 0.0000
# 4 0.0000 0.0000 0.0000 25.3523 0.0000 0.0000
# 5 0.0000 0.0000 0.0000 0.0000 20.3940 0.0000
# 6 0.0000 0.0000 0.0000 0.0000 0.0000 24.8068
#
#
#
# Elastic Compliance Matrix: (Units=1/GPa)
#
#
# Indices 1 2 3 4 5 6 
#
# 1 0.010875 -0.004526 -0.004037 0.000000 0.000000 0.000000
# 2 -0.004526 0.020496 -0.001344 0.000000 0.000000 0.000000
# 3 -0.004037 -0.001344 0.012829 0.000000 0.000000 0.000000
# 4 0.000000 0.000000 0.000000 0.039444 0.000000 0.000000
# 5 0.000000 0.000000 0.000000 0.000000 0.049034 0.000000
# 6 0.000000 0.000000 0.000000 0.000000 0.000000 0.040312
#
#
# Mechanical properties :
#
#
# Convention : Reuss Voigt Hill
#
# Bulk Modulus (GPa) = 41.00702 48.47567 44.74135
# Shear Modulus (GPa) = 24.88393 26.31283 25.59838
#
# Velocity S-wave (km/s) = 3.52663 3.62647 3.57689
# Velocity P-wave (km/s) = 6.08919 6.46246 6.27860
#
# Compressibility (1/GPa) = 0.02438607
#
# Stress axis : x y z
#
# Youngs Moduli (GPa) = 91.95438 48.78884 77.94926
#
# Poissons Ratio (x) = 0.22082 0.31466
# Poissons Ratio (y) = 0.41619 0.10478
# Poissons Ratio (z) = 0.37120 0.06558
#
# Static dielectric constant tensor:
#      x y z
#    x 3.917200 0.000000 0.000000 
#    y 0.000000 3.251860 0.000000 
#    z 0.000000 0.000000 3.742010 
# 
# 
# High freq. dielectric constant tensor:
#      x y z
#    x 1.789270 0.000000 0.000000 
#    y 0.000000 1.745450 0.000000 
#    z 0.000000 0.000000 1.778400 
# 
# From -- ./inp_files/23909.got.cif
#   From: 2010.03.12/outbox.cif.g09.slc.cpg/sg53_12_cif.got.tgz:23909.got - 2010.04.16 14:36:59.
