data_PCOD8217621
_publ_section_title
;
Structure prediction by ZEFSAII (Michael W. Deem and Ramdas Pophale) SiO2 
 PCOD8217621
Probable space group: P M N A
;
_chemical_formula_sum "Si O2"
_cell_formula_units_Z 56
_cell_length_a 8.875698
_cell_length_b 19.153589
_cell_length_c 18.206301
_cell_angle_alpha 90.000000
_cell_angle_beta 90.000000
_cell_angle_gamma 90.000000
_cell_volume 3095.097962
_symmetry_space_group_name_H-M "P M N A"
_symmetry_group_IT_number 53
_symmetry_cell_setting 'orthorhombic'
loop_
_space_group_symop_operation_xyz
x,y,z
1/2-x,-y,1/2+z
x,-y,-z
1/2-x,y,1/2-z
-x,-y,-z
1/2+x,y,1/2-z
-x,y,z
1/2+x,-y,1/2+z
loop_
_atom_site_type_symbol
_atom_site_label
_atom_site_fract_x
_atom_site_fract_y
_atom_site_fract_z
Si Si1 0.674078 0.284014 0.964949
Si Si2 0.823083 0.081365 0.071196
Si Si3 0.678371 0.071031 0.593284
Si Si4 0.321640 0.642198 0.824599
Si Si5 0.675919 0.804637 0.174618
Si Si6 0.324790 0.572018 0.972185
Si Si7 0.323709 0.230498 0.393050
O O1 0.500000 0.268493 0.986397
O O2 0.714328 0.255201 0.884836
O O3 0.703292 0.367528 0.967417
O O4 0.783150 0.247363 0.022896
O O5 0.778861 0.149035 0.119810
O O6 0.000000 0.077721 0.059243
O O7 0.772738 0.009464 0.110622
O O8 0.758660 0.088327 0.988300
O O9 0.500000 0.082223 0.601023
O O10 0.760065 0.120403 0.651295
O O11 0.250000 0.612166 0.750000
O O12 0.500000 0.640369 0.818648
O O13 0.259789 0.596064 0.892868
O O14 0.269956 0.722305 0.836511
O O15 0.750000 0.779344 0.250000
O O16 0.500000 0.812804 0.186695
O O17 0.500000 0.558006 0.960215
O O18 0.246957 0.500000 0.000000
O O19 0.500000 0.243825 0.380149
#
# Coordination Sequence:
#
# PCOD8217621 Si02
#       7
#     8   8   8   8   8   8   8
#     4   9  18  32  50  74 101 129 168 210 247 297
#     4   8  15  27  49  75  97 124 161 207 255 305
#     4   9  16  31  50  70  96 127 166 208 255 306
#     4  10  20  34  52  77 107 138 170 207 251 301
#     4  11  22  34  48  69  99 135 174 216 260 302
#     4   8  15  31  56  80 101 130 166 203 246 297
#     4  10  17  29  52  78 101 130 166 205 252 301
#
# _framework density 18.093126999999999
#
# number of rings (size 3 to 8) (size 9 to 14) (size 15 to 20)
#    0.000    2.714    1.429    3.000    0.000    0.571 
#    0.000    4.286    0.000   10.714    0.000    0.000 
#    0.000    0.000    0.000    0.000    0.000    0.000 
#
# Total GULP energy -694081.620859 kJ/mol
# GULP energy per Si atom -12394.314658 kJ/mol
# Density = 1.805195 g / cm^3
# Si number density = 18.093127 Si / 1000 Ang^3
#
#
#
# Elastic Constant Matrix: (Units=GPa)
#
#
# Indices 1 2 3 4 5 6 
#
# 1 50.7631 26.6363 28.2082 0.0000 0.0000 0.0000
# 2 26.6363 128.9173 52.7122 0.0000 0.0000 0.0000
# 3 28.2082 52.7122 104.2410 0.0000 0.0000 0.0000
# 4 0.0000 0.0000 0.0000 20.7134 0.0000 0.0000
# 5 0.0000 0.0000 0.0000 0.0000 24.8193 0.0000
# 6 0.0000 0.0000 0.0000 0.0000 0.0000 16.9791
#
#
#
# Elastic Compliance Matrix: (Units=1/GPa)
#
#
# Indices 1 2 3 4 5 6 
#
# 1 0.024019 -0.002906 -0.005030 0.000000 0.000000 0.000000
# 2 -0.002906 0.010130 -0.004336 0.000000 0.000000 0.000000
# 3 -0.005030 -0.004336 0.013147 0.000000 0.000000 0.000000
# 4 0.000000 0.000000 0.000000 0.048278 0.000000 0.000000
# 5 0.000000 0.000000 0.000000 0.000000 0.040291 0.000000
# 6 0.000000 0.000000 0.000000 0.000000 0.000000 0.058896
#
#
# Mechanical properties :
#
#
# Convention : Reuss Voigt Hill
#
# Bulk Modulus (GPa) = 43.95262 55.44829 49.70045
# Shear Modulus (GPa) = 22.03700 24.26000 23.14850
#
# Velocity S-wave (km/s) = 3.49374 3.66572 3.58076
# Velocity P-wave (km/s) = 6.37339 6.97347 6.68017
#
# Compressibility (1/GPa) = 0.02275177
#
# Stress axis : x y z
#
# Youngs Moduli (GPa) = 41.63297 98.71290 76.06203
#
# Poissons Ratio (x) = 0.28686 0.38261
# Poissons Ratio (y) = 0.12098 0.32983
# Poissons Ratio (z) = 0.20943 0.42805
#
# Static dielectric constant tensor:
#      x y z
#    x 3.096000 0.000000 0.000000 
#    y 0.000000 3.703470 0.000000 
#    z 0.000000 0.000000 3.236550 
# 
# 
# High freq. dielectric constant tensor:
#      x y z
#    x 1.678400 0.000000 0.000000 
#    y 0.000000 1.702150 0.000000 
#    z 0.000000 0.000000 1.680310 
# 
# From -- ./inp_files/26710.got.cif
#   From: 2010.03.12/outbox.cif.g09.slc.cpg/sg53_14_cif.got.tgz:26710.got - 2010.04.16 14:36:59.
