data_PCOD8217884
_publ_section_title
;
Structure prediction by ZEFSAII (Michael W. Deem and Ramdas Pophale) SiO2 
 PCOD8217884
Probable space group: P M N A
;
_chemical_formula_sum "Si O2"
_cell_formula_units_Z 56
_cell_length_a 8.857111
_cell_length_b 13.612939
_cell_length_c 28.303859
_cell_angle_alpha 90.000000
_cell_angle_beta 90.000000
_cell_angle_gamma 90.000000
_cell_volume 3412.633407
_symmetry_space_group_name_H-M "P M N A"
_symmetry_group_IT_number 53
_symmetry_cell_setting 'orthorhombic'
loop_
_space_group_symop_operation_xyz
x,y,z
1/2-x,-y,1/2+z
x,-y,-z
1/2-x,y,1/2-z
-x,-y,-z
1/2+x,y,1/2-z
-x,y,z
1/2+x,-y,1/2+z
loop_
_atom_site_type_symbol
_atom_site_label
_atom_site_fract_x
_atom_site_fract_y
_atom_site_fract_z
Si Si1 0.674572 0.708754 0.030321
Si Si2 0.677721 0.498381 0.297978
Si Si3 0.679793 0.726908 0.701937
Si Si4 0.832187 0.797034 0.894297
Si Si5 0.319972 0.109863 0.487508
Si Si6 0.672812 0.432965 0.889646
Si Si7 0.830252 0.597232 0.947870
O O1 0.500000 0.711891 0.014818
O O2 0.691460 0.672877 0.084601
O O3 0.746052 0.817341 0.025729
O O4 0.762791 0.631876 0.997503
O O5 0.750000 0.540918 0.250000
O O6 0.500000 0.506279 0.293745
O O7 0.731506 0.385883 0.305373
O O8 0.730400 0.564823 0.341856
O O9 0.750000 0.770149 0.750000
O O10 0.500000 0.733080 0.704243
O O11 0.743815 0.793082 0.657968
O O12 0.754042 0.864355 0.934810
O O13 0.835687 0.685281 0.910958
O O14 0.000000 0.839026 0.887861
O O15 0.500000 0.125692 0.488792
O O16 0.271622 0.000000 0.500000
O O17 0.500000 0.453378 0.876204
O O18 0.724910 0.513761 0.927023
O O19 0.000000 0.557013 0.955911
#
# Coordination Sequence:
#
# PCOD8217884 Si02
#       7
#     8   8   8   8   8   8   8
#     4  10  21  33  45  67  96 125 156 193 238 286
#     4  10  19  31  46  65  91 126 166 199 233 276
#     4   9  16  27  41  61  89 121 154 186 222 267
#     4   8  14  27  44  64  91 119 148 187 232 277
#     4   9  18  33  53  73  91 116 155 200 244 294
#     4  11  21  31  44  65  96 129 162 197 234 278
#     4  10  18  30  46  65  92 127 163 195 231 274
#
# _framework density 16.409616
#
# number of rings (size 3 to 8) (size 9 to 14) (size 15 to 20)
#    0.000    2.429    1.429    3.000    0.000    4.857 
#    0.000    0.714    0.000    0.000    0.000    1.000 
#    0.000    4.571    0.000    0.000    0.000    0.000 
#
# Total GULP energy -694057.020780 kJ/mol
# GULP energy per Si atom -12393.875371 kJ/mol
# Density = 1.637227 g / cm^3
# Si number density = 16.409616 Si / 1000 Ang^3
#
#
#
# Elastic Constant Matrix: (Units=GPa)
#
#
# Indices 1 2 3 4 5 6 
#
# 1 56.9785 20.3798 32.3225 0.0000 0.0000 0.0000
# 2 20.3798 64.5280 55.9566 0.0000 0.0000 0.0000
# 3 32.3225 55.9566 116.9691 0.0000 0.0000 0.0000
# 4 0.0000 0.0000 0.0000 15.6798 0.0000 0.0000
# 5 0.0000 0.0000 0.0000 0.0000 27.3269 0.0000
# 6 0.0000 0.0000 0.0000 0.0000 0.0000 13.5384
#
#
#
# Elastic Compliance Matrix: (Units=1/GPa)
#
#
# Indices 1 2 3 4 5 6 
#
# 1 0.021094 -0.002747 -0.004515 0.000000 0.000000 0.000000
# 2 -0.002747 0.026841 -0.012082 0.000000 0.000000 0.000000
# 3 -0.004515 -0.012082 0.015577 0.000000 0.000000 0.000000
# 4 0.000000 0.000000 0.000000 0.063776 0.000000 0.000000
# 5 0.000000 0.000000 0.000000 0.000000 0.036594 0.000000
# 6 0.000000 0.000000 0.000000 0.000000 0.000000 0.073864
#
#
# Mechanical properties :
#
#
# Convention : Reuss Voigt Hill
#
# Bulk Modulus (GPa) = 40.28140 50.64370 45.46255
# Shear Modulus (GPa) = 17.56184 19.96348 18.76266
#
# Velocity S-wave (km/s) = 3.27497 3.49172 3.38508
# Velocity P-wave (km/s) = 6.23709 6.86916 6.56074
#
# Compressibility (1/GPa) = 0.02482535
#
# Stress axis : x y z
#
# Youngs Moduli (GPa) = 47.40640 37.25586 64.19903
#
# Poissons Ratio (x) = 0.10234 0.28985
# Poissons Ratio (y) = 0.13022 0.77562
# Poissons Ratio (z) = 0.21404 0.45011
#
# Static dielectric constant tensor:
#      x y z
#    x 3.045130 0.000000 0.000000 
#    y 0.000000 2.822000 0.000000 
#    z 0.000000 0.000000 3.302470 
# 
# 
# High freq. dielectric constant tensor:
#      x y z
#    x 1.627860 0.000000 0.000000 
#    y 0.000000 1.581910 0.000000 
#    z 0.000000 0.000000 1.638010 
# 
# From -- ./inp_files/38381.got.cif
#   From: 2010.03.12/outbox.cif.g09.slc.cpg/sg53_20_cif.got.tgz:38381.got - 2010.04.16 14:36:59.
