data_PCOD8217091
_publ_section_title
;
Structure prediction by ZEFSAII (Michael W. Deem and Ramdas Pophale) SiO2 
 PCOD8217091
Probable space group: P N N A
;
_chemical_formula_sum "Si O2"
_cell_formula_units_Z 40
_cell_length_a 19.658307
_cell_length_b 9.628900
_cell_length_c 10.371804
_cell_angle_alpha 90.000000
_cell_angle_beta 90.000000
_cell_angle_gamma 90.000000
_cell_volume 1963.256711
_symmetry_space_group_name_H-M "P N N A"
_symmetry_group_IT_number 52
_symmetry_cell_setting 'orthorhombic'
loop_
_space_group_symop_operation_xyz
x,y,z
1/2-x,-y,z
x,1/2-y,1/2-z
1/2-x,1/2+y,1/2-z
-x,-y,-z
1/2+x,y,-z
-x,1/2+y,1/2+z
1/2+x,1/2-y,1/2+z
loop_
_atom_site_type_symbol
_atom_site_label
_atom_site_fract_x
_atom_site_fract_y
_atom_site_fract_z
Si Si1 0.464688 0.848721 0.991026
Si Si2 0.750000 0.500000 0.971625
Si Si3 0.318146 0.737880 0.598881
Si Si4 0.039821 0.750000 0.250000
Si Si5 0.424921 0.750000 0.250000
Si Si6 0.250000 0.500000 0.467711
Si Si7 0.650370 0.974942 0.739398
O O1 0.383485 0.836040 0.967757
O O2 0.495749 0.753412 0.879679
O O3 0.475990 0.785051 0.132831
O O4 0.500000 0.000000 0.000000
O O5 0.698723 0.581850 0.875066
O O6 0.705201 0.391809 0.053926
O O7 0.330793 0.750000 0.750000
O O8 0.258079 0.632520 0.561348
O O9 0.082513 0.888103 0.255742
O O10 0.372850 0.630118 0.208085
O O11 0.314307 0.465757 0.377924
#
# Coordination Sequence:
#
# PCOD8217091 Si02
#       7
#     8   4   8   4   4   4   8
#     4  12  25  45  68 100 141 187 230 287 347 422
#     4  11  23  42  68 104 127 161 240 280 352 414
#     4  12  24  42  66  97 140 182 217 288 356 415
#     4  12  24  43  68  96 139 174 234 282 346 412
#     4  12  22  45  68  98 135 178 232 280 348 406
#     4  11  21  42  70  98 137 171 230 286 356 416
#     4  11  22  40  74  98 124 176 225 295 337 410
#
# _framework density 20.374310000000001
#
# number of rings (size 3 to 8) (size 9 to 14) (size 15 to 20)
#    0.000    0.400    7.000    1.800    0.000    4.000 
#    3.600    0.000    4.400    0.000    0.000    0.000 
#    0.000    0.000    0.000    0.000    0.000    0.000 
#
# Total GULP energy -495750.281356 kJ/mol
# GULP energy per Si atom -12393.757034 kJ/mol
# Density = 2.032794 g / cm^3
# Si number density = 20.374310 Si / 1000 Ang^3
#
#
#
# Elastic Constant Matrix: (Units=GPa)
#
#
# Indices 1 2 3 4 5 6 
#
# 1 91.8730 49.6576 46.9055 0.0000 0.0000 0.0000
# 2 49.6576 110.1698 42.7385 0.0000 0.0000 0.0000
# 3 46.9055 42.7385 158.9144 0.0000 0.0000 0.0000
# 4 0.0000 0.0000 0.0000 25.7386 0.0000 0.0000
# 5 0.0000 0.0000 0.0000 0.0000 19.1854 0.0000
# 6 0.0000 0.0000 0.0000 0.0000 0.0000 37.4293
#
#
#
# Elastic Compliance Matrix: (Units=1/GPa)
#
#
# Indices 1 2 3 4 5 6 
#
# 1 0.015595 -0.005854 -0.003029 0.000000 0.000000 0.000000
# 2 -0.005854 0.012332 -0.001589 0.000000 0.000000 0.000000
# 3 -0.003029 -0.001589 0.007614 0.000000 0.000000 0.000000
# 4 0.000000 0.000000 0.000000 0.038852 0.000000 0.000000
# 5 0.000000 0.000000 0.000000 0.000000 0.052123 0.000000
# 6 0.000000 0.000000 0.000000 0.000000 0.000000 0.026717
#
#
# Mechanical properties :
#
#
# Convention : Reuss Voigt Hill
#
# Bulk Modulus (GPa) = 68.50348 71.06227 69.78287
# Shear Modulus (GPa) = 27.92635 31.24769 29.58702
#
# Velocity S-wave (km/s) = 3.70627 3.92047 3.81487
# Velocity P-wave (km/s) = 7.21184 7.44631 7.33001
#
# Compressibility (1/GPa) = 0.01459780
#
# Stress axis : x y z
#
# Youngs Moduli (GPa) = 64.12241 81.09018 131.33950
#
# Poissons Ratio (x) = 0.47474 0.39778
# Poissons Ratio (y) = 0.37540 0.20864
# Poissons Ratio (z) = 0.19420 0.12882
#
# Static dielectric constant tensor:
#      x y z
#    x 3.733650 0.000000 0.000000 
#    y 0.000000 3.601140 0.000000 
#    z 0.000000 0.000000 3.831560 
# 
# 
# High freq. dielectric constant tensor:
#      x y z
#    x 1.794930 0.000000 0.000000 
#    y 0.000000 1.794860 0.000000 
#    z 0.000000 0.000000 1.812770 
# 
# From -- ./inp_files/20430.got.cif
#   From: 2010.06.25/outbox.cif.g09.slc.cpg/sg52_11_cif.got.tgz:20430.got - 2010.06.26 19:32:48.
