data_PCOD8217322
_publ_section_title
;
Structure prediction by ZEFSAII (Michael W. Deem and Ramdas Pophale) SiO2 
 PCOD8217322
Probable space group: P N N A
;
_chemical_formula_sum "Si O2"
_cell_formula_units_Z 36
_cell_length_a 21.673607
_cell_length_b 13.999192
_cell_length_c 5.178368
_cell_angle_alpha 90.000000
_cell_angle_beta 90.000000
_cell_angle_gamma 90.000000
_cell_volume 1571.184096
_symmetry_space_group_name_H-M "P N N A"
_symmetry_group_IT_number 52
_symmetry_cell_setting 'orthorhombic'
loop_
_space_group_symop_operation_xyz
x,y,z
1/2-x,-y,z
x,1/2-y,1/2-z
1/2-x,1/2+y,1/2-z
-x,-y,-z
1/2+x,y,-z
-x,1/2+y,1/2+z
1/2+x,1/2-y,1/2+z
loop_
_atom_site_type_symbol
_atom_site_label
_atom_site_fract_x
_atom_site_fract_y
_atom_site_fract_z
Si Si1 0.285552 0.250000 0.250000
Si Si2 0.111859 0.660944 0.560291
Si Si3 0.206189 0.413339 0.069287
Si Si4 0.131057 0.052076 0.911627
Si Si5 0.524821 0.190061 0.012285
O O1 0.329975 0.329097 0.374181
O O2 0.242573 0.312672 0.063266
O O3 0.114882 0.750000 0.750000
O O4 0.119987 0.556745 0.683016
O O5 0.045604 0.661608 0.419211
O O6 0.250000 0.500000 0.982713
O O7 0.178331 0.435917 0.351035
O O8 0.155544 0.397023 0.846626
O O9 0.066294 0.095629 0.007251
O O10 0.529503 0.250000 0.750000
O O11 0.551464 0.250000 0.250000
#
# Coordination Sequence:
#
# PCOD8217322 Si02
#       5
#     4   8   8   8   8
#     4  12  26  46  70 100 142 194 238 288 354 430
#     4  11  25  48  75 102 142 189 244 296 356 433
#     4  12  27  46  71 103 144 187 237 290 352 426
#     4  12  27  47  72 107 144 183 239 298 357 417
#     4  11  25  47  74 109 143 185 237 296 364 424
#
# _framework density 22.912656999999999
#
# number of rings (size 3 to 8) (size 9 to 14) (size 15 to 20)
#    0.000    0.444    3.333    4.000    7.778    0.000 
#    0.000    5.556    0.000    0.000    0.000    0.000 
#    0.000    0.000    0.000    0.000    0.000    0.000 
#
# Total GULP energy -446354.624276 kJ/mol
# GULP energy per Si atom -12398.739563 kJ/mol
# Density = 2.286051 g / cm^3
# Si number density = 22.912657 Si / 1000 Ang^3
#
#
#
# Elastic Constant Matrix: (Units=GPa)
#
#
# Indices 1 2 3 4 5 6 
#
# 1 133.1167 75.5200 39.9816 0.0000 0.0000 0.0000
# 2 75.5200 142.5669 36.2957 0.0000 0.0000 0.0000
# 3 39.9816 36.2957 118.3460 0.0000 0.0000 0.0000
# 4 0.0000 0.0000 0.0000 31.2163 0.0000 0.0000
# 5 0.0000 0.0000 0.0000 0.0000 64.8220 0.0000
# 6 0.0000 0.0000 0.0000 0.0000 0.0000 33.9697
#
#
#
# Elastic Compliance Matrix: (Units=1/GPa)
#
#
# Indices 1 2 3 4 5 6 
#
# 1 0.011215 -0.005398 -0.002133 0.000000 0.000000 0.000000
# 2 -0.005398 0.010206 -0.001307 0.000000 0.000000 0.000000
# 3 -0.002133 -0.001307 0.009571 0.000000 0.000000 0.000000
# 4 0.000000 0.000000 0.000000 0.032035 0.000000 0.000000
# 5 0.000000 0.000000 0.000000 0.000000 0.015427 0.000000
# 6 0.000000 0.000000 0.000000 0.000000 0.000000 0.029438
#
#
# Mechanical properties :
#
#
# Convention : Reuss Voigt Hill
#
# Bulk Modulus (GPa) = 75.09155 77.51381 76.30268
# Shear Modulus (GPa) = 38.45953 42.15041 40.30497
#
# Velocity S-wave (km/s) = 4.10143 4.29372 4.19868
# Velocity P-wave (km/s) = 7.43459 7.64755 7.54182
#
# Compressibility (1/GPa) = 0.01331708
#
# Stress axis : x y z
#
# Youngs Moduli (GPa) = 89.16427 97.97997 104.47909
#
# Poissons Ratio (x) = 0.52887 0.22290
# Poissons Ratio (y) = 0.48129 0.13651
# Poissons Ratio (z) = 0.19023 0.12802
#
# Static dielectric constant tensor:
#      x y z
#    x 4.466680 0.000000 0.000000 
#    y 0.000000 4.150920 0.000000 
#    z 0.000000 0.000000 3.742420 
# 
# 
# High freq. dielectric constant tensor:
#      x y z
#    x 1.924830 0.000000 0.000000 
#    y 0.000000 1.915810 0.000000 
#    z 0.000000 0.000000 1.892290 
# 
# From -- ./inp_files/4865.got.cif
#   From: 2010.06.25/outbox.cif.g09.slc.cpg/sg52_3_cif.got.tgz:4865.got - 2010.06.26 19:32:48.
