data_PCOD8217054
_publ_section_title
;
Structure prediction by ZEFSAII (Michael W. Deem and Ramdas Pophale) SiO2 
 PCOD8217054
Probable space group: P N N A
;
_chemical_formula_sum "Si O2"
_cell_formula_units_Z 32
_cell_length_a 19.732280
_cell_length_b 8.219130
_cell_length_c 9.580791
_cell_angle_alpha 90.000000
_cell_angle_beta 90.000000
_cell_angle_gamma 90.000000
_cell_volume 1553.833518
_symmetry_space_group_name_H-M "P N N A"
_symmetry_group_IT_number 52
_symmetry_cell_setting 'orthorhombic'
loop_
_space_group_symop_operation_xyz
x,y,z
1/2-x,-y,z
x,1/2-y,1/2-z
1/2-x,1/2+y,1/2-z
-x,-y,-z
1/2+x,y,-z
-x,1/2+y,1/2+z
1/2+x,1/2-y,1/2+z
loop_
_atom_site_type_symbol
_atom_site_label
_atom_site_fract_x
_atom_site_fract_y
_atom_site_fract_z
Si Si1 0.411625 0.423429 0.416479
Si Si2 0.178081 0.431796 0.194207
Si Si3 0.057276 0.431356 0.697630
Si Si4 0.923596 0.442469 0.018775
O O1 0.346890 0.452290 0.320004
O O2 0.404998 0.539100 0.551422
O O3 0.477558 0.468913 0.324627
O O4 0.414092 0.237762 0.462575
O O5 0.250000 0.500000 0.143659
O O6 0.183059 0.250000 0.250000
O O7 0.127225 0.437541 0.062672
O O8 0.069604 0.250000 0.750000
O O9 0.089205 0.550843 0.814564
O O10 0.000000 0.500000 0.000000
#
# Coordination Sequence:
#
# PCOD8217054 Si02
#       4
#     8   8   8   8
#     4  11  23  38  63  95 136 168 221 271 332 387
#     4  12  26  45  69  96 135 181 223 270 336 405
#     4  11  21  36  60  96 132 167 215 272 328 381
#     4  12  22  39  64  98 135 172 221 277 329 388
#
# _framework density 20.594228999999999
#
# number of rings (size 3 to 8) (size 9 to 14) (size 15 to 20)
#    0.000    0.500    5.000    4.500    3.500    0.000 
#    0.000    1.250    0.000    0.000    0.000    0.000 
#    0.000    0.000    0.000    0.000    0.000    0.000 
#
# Total GULP energy -396899.395711 kJ/mol
# GULP energy per Si atom -12403.106116 kJ/mol
# Density = 2.054736 g / cm^3
# Si number density = 20.594229 Si / 1000 Ang^3
#
#
#
# Elastic Constant Matrix: (Units=GPa)
#
#
# Indices 1 2 3 4 5 6 
#
# 1 107.0302 29.9013 51.6924 0.0000 0.0000 0.0000
# 2 29.9013 108.4185 52.5043 0.0000 0.0000 0.0000
# 3 51.6924 52.5043 140.5748 0.0000 0.0000 0.0000
# 4 0.0000 0.0000 0.0000 44.6151 0.0000 0.0000
# 5 0.0000 0.0000 0.0000 0.0000 33.0134 0.0000
# 6 0.0000 0.0000 0.0000 0.0000 0.0000 28.6273
#
#
#
# Elastic Compliance Matrix: (Units=1/GPa)
#
#
# Indices 1 2 3 4 5 6 
#
# 1 0.011526 -0.001375 -0.003725 0.000000 0.000000 0.000000
# 2 -0.001375 0.011424 -0.003761 0.000000 0.000000 0.000000
# 3 -0.003725 -0.003761 0.009888 0.000000 0.000000 0.000000
# 4 0.000000 0.000000 0.000000 0.022414 0.000000 0.000000
# 5 0.000000 0.000000 0.000000 0.000000 0.030291 0.000000
# 6 0.000000 0.000000 0.000000 0.000000 0.000000 0.034932
#
#
# Mechanical properties :
#
#
# Convention : Reuss Voigt Hill
#
# Bulk Modulus (GPa) = 66.15368 69.35770 67.75569
# Shear Modulus (GPa) = 34.90733 36.04619 35.47676
#
# Velocity S-wave (km/s) = 4.12151 4.18820 4.15499
# Velocity P-wave (km/s) = 7.40549 7.55906 7.48267
#
# Compressibility (1/GPa) = 0.01511632
#
# Stress axis : x y z
#
# Youngs Moduli (GPa) = 86.75797 87.53313 101.13052
#
# Poissons Ratio (x) = 0.12036 0.37670
# Poissons Ratio (y) = 0.11929 0.38038
# Poissons Ratio (z) = 0.32317 0.32924
#
# Static dielectric constant tensor:
#      x y z
#    x 3.637950 0.000000 0.000000 
#    y 0.000000 3.381950 0.000000 
#    z 0.000000 0.000000 4.996740 
# 
# 
# High freq. dielectric constant tensor:
#      x y z
#    x 1.768390 0.000000 0.000000 
#    y 0.000000 1.817020 0.000000 
#    z 0.000000 0.000000 1.828140 
# 
# From -- ./inp_files/12825.got.cif
#   From: 2010.06.25/outbox.cif.g09.slc.cpg/sg52_7_cif.got.tgz:12825.got - 2010.06.26 19:32:48.
