data_PCOD8217341
_publ_section_title
;
Structure prediction by ZEFSAII (Michael W. Deem and Ramdas Pophale) SiO2 
 PCOD8217341
Probable space group: P N N A
;
_chemical_formula_sum "Si O2"
_cell_formula_units_Z 32
_cell_length_a 19.194231
_cell_length_b 13.907464
_cell_length_c 4.877817
_cell_angle_alpha 90.000000
_cell_angle_beta 90.000000
_cell_angle_gamma 90.000000
_cell_volume 1302.099477
_symmetry_space_group_name_H-M "P N N A"
_symmetry_group_IT_number 52
_symmetry_cell_setting 'orthorhombic'
loop_
_space_group_symop_operation_xyz
x,y,z
1/2-x,-y,z
x,1/2-y,1/2-z
1/2-x,1/2+y,1/2-z
-x,-y,-z
1/2+x,y,-z
-x,1/2+y,1/2+z
1/2+x,1/2-y,1/2+z
loop_
_atom_site_type_symbol
_atom_site_label
_atom_site_fract_x
_atom_site_fract_y
_atom_site_fract_z
Si Si1 0.627786 0.250000 0.750000
Si Si2 0.945648 0.063795 0.667953
Si Si3 0.028669 0.250000 0.750000
Si Si4 0.356059 0.036317 0.827972
Si Si5 0.222118 0.352978 0.602147
O O1 0.577932 0.222825 0.501139
O O2 0.679481 0.339476 0.682151
O O3 0.979571 0.158934 0.795777
O O4 0.886099 0.087060 0.444334
O O5 0.913870 0.012439 0.938279
O O6 0.000000 0.000000 0.500000
O O7 0.300463 0.111737 0.955905
O O8 0.319694 0.936419 0.734575
O O9 0.219874 0.250000 0.750000
#
# Coordination Sequence:
#
# PCOD8217341 Si02
#       5
#     4   8   4   8   8
#     4  12  24  45  72 107 140 192 248 286 368 440
#     4  12  26  48  72 107 150 191 242 303 355 442
#     4  12  26  43  76 103 146 202 240 296 370 436
#     4  11  28  46  73 109 144 186 249 299 366 431
#     4  11  27  46  77 104 144 192 239 309 366 429
#
# _framework density 24.575696000000001
#
# number of rings (size 3 to 8) (size 9 to 14) (size 15 to 20)
#    0.000    0.500    1.250    5.250   10.500    2.000 
#    0.000    0.000    0.000    0.000    0.000    0.000 
#    0.000    0.000    0.000    0.000    0.000    0.000 
#
# Total GULP energy -396673.365984 kJ/mol
# GULP energy per Si atom -12396.042687 kJ/mol
# Density = 2.451976 g / cm^3
# Si number density = 24.575696 Si / 1000 Ang^3
#
#
#
# Elastic Constant Matrix: (Units=GPa)
#
#
# Indices 1 2 3 4 5 6 
#
# 1 106.6325 56.8261 23.1816 0.0000 0.0000 0.0000
# 2 56.8261 146.4368 20.7169 0.0000 0.0000 0.0000
# 3 23.1816 20.7169 107.7571 0.0000 0.0000 0.0000
# 4 0.0000 0.0000 0.0000 33.7981 0.0000 0.0000
# 5 0.0000 0.0000 0.0000 0.0000 38.1581 0.0000
# 6 0.0000 0.0000 0.0000 0.0000 0.0000 41.7652
#
#
#
# Elastic Compliance Matrix: (Units=1/GPa)
#
#
# Indices 1 2 3 4 5 6 
#
# 1 0.012137 -0.004462 -0.001753 0.000000 0.000000 0.000000
# 2 -0.004462 0.008660 -0.000705 0.000000 0.000000 0.000000
# 3 -0.001753 -0.000705 0.009793 0.000000 0.000000 0.000000
# 4 0.000000 0.000000 0.000000 0.029587 0.000000 0.000000
# 5 0.000000 0.000000 0.000000 0.000000 0.026207 0.000000
# 6 0.000000 0.000000 0.000000 0.000000 0.000000 0.023943
#
#
# Mechanical properties :
#
#
# Convention : Reuss Voigt Hill
#
# Bulk Modulus (GPa) = 59.70264 62.47506 61.08885
# Shear Modulus (GPa) = 38.53539 40.08439 39.30989
#
# Velocity S-wave (km/s) = 3.96413 4.04302 4.00377
# Velocity P-wave (km/s) = 6.73042 6.87541 6.80330
#
# Compressibility (1/GPa) = 0.01674968
#
# Stress axis : x y z
#
# Youngs Moduli (GPa) = 82.39336 115.47237 102.11539
#
# Poissons Ratio (x) = 0.51522 0.17903
# Poissons Ratio (y) = 0.36762 0.07200
# Poissons Ratio (z) = 0.14445 0.08142
#
# Static dielectric constant tensor:
#      x y z
#    x 4.956400 0.000000 0.000000 
#    y 0.000000 4.350030 0.000000 
#    z 0.000000 0.000000 4.056800 
# 
# 
# High freq. dielectric constant tensor:
#      x y z
#    x 2.002620 0.000000 0.000000 
#    y 0.000000 1.971960 0.000000 
#    z 0.000000 0.000000 1.973950 
# 
# From -- ./inp_files/3021.got.cif
#   From: 2010.06.25/outbox.cif.g09.slc.cpg/sg52_2_cif.got.tgz:3021.got - 2010.06.26 19:32:48.
