data_PCOD8217176
_publ_section_title
;
Structure prediction by ZEFSAII (Michael W. Deem and Ramdas Pophale) SiO2 
 PCOD8217176
Probable space group: P N N A
;
_chemical_formula_sum "Si O2"
_cell_formula_units_Z 36
_cell_length_a 24.046579
_cell_length_b 5.377263
_cell_length_c 13.126161
_cell_angle_alpha 90.000000
_cell_angle_beta 90.000000
_cell_angle_gamma 90.000000
_cell_volume 1697.275354
_symmetry_space_group_name_H-M "P N N A"
_symmetry_group_IT_number 52
_symmetry_cell_setting 'orthorhombic'
loop_
_space_group_symop_operation_xyz
x,y,z
1/2-x,-y,z
x,1/2-y,1/2-z
1/2-x,1/2+y,1/2-z
-x,-y,-z
1/2+x,y,-z
-x,1/2+y,1/2+z
1/2+x,1/2-y,1/2+z
loop_
_atom_site_type_symbol
_atom_site_label
_atom_site_fract_x
_atom_site_fract_y
_atom_site_fract_z
Si Si1 0.096579 0.207031 0.364406
Si Si2 0.602452 0.250000 0.250000
Si Si3 0.384954 0.223568 0.019090
Si Si4 0.466147 0.372863 0.854997
Si Si5 0.191825 0.599044 0.651031
O O1 0.117323 0.250000 0.250000
O O2 0.112759 0.455956 0.425716
O O3 0.031622 0.138647 0.365922
O O4 0.125176 0.955952 0.405378
O O5 0.561426 0.356516 0.161349
O O6 0.642981 0.414061 0.318201
O O7 0.442494 0.248299 0.956830
O O8 0.333369 0.256173 0.941871
O O9 0.444817 0.250000 0.750000
O O10 0.250000 0.500000 0.607752
O O11 0.209292 0.750000 0.750000
#
# Coordination Sequence:
#
# PCOD8217176 Si02
#       5
#     8   4   8   8   8
#     4  11  27  42  65  93 137 183 232 278 323 385
#     4  12  20  40  62  98 148 176 208 258 344 414
#     4  12  23  44  65  98 133 180 227 276 333 397
#     4  11  23  36  64  98 142 177 215 266 340 421
#     4  12  25  41  69 101 138 177 213 280 348 420
#
# _framework density 21.210466
#
# number of rings (size 3 to 8) (size 9 to 14) (size 15 to 20)
#    0.000    0.444    5.556    3.333    6.222    0.000 
#    0.000    0.000    0.000    2.667    0.000    0.000 
#    0.000    0.000    0.000    0.000    0.000    0.000 
#
# Total GULP energy -446078.859876 kJ/mol
# GULP energy per Si atom -12391.079441 kJ/mol
# Density = 2.116219 g / cm^3
# Si number density = 21.210466 Si / 1000 Ang^3
#
#
#
# Elastic Constant Matrix: (Units=GPa)
#
#
# Indices 1 2 3 4 5 6 
#
# 1 81.0035 32.2863 37.4915 0.0000 0.0000 0.0000
# 2 32.2863 124.4774 47.9224 0.0000 0.0000 0.0000
# 3 37.4915 47.9224 127.8815 0.0000 0.0000 0.0000
# 4 0.0000 0.0000 0.0000 51.8335 0.0000 0.0000
# 5 0.0000 0.0000 0.0000 0.0000 148.9825 0.0000
# 6 0.0000 0.0000 0.0000 0.0000 0.0000 44.2934
#
#
#
# Elastic Compliance Matrix: (Units=1/GPa)
#
#
# Indices 1 2 3 4 5 6 
#
# 1 0.014950 -0.002560 -0.003424 0.000000 0.000000 0.000000
# 2 -0.002560 0.009826 -0.002932 0.000000 0.000000 0.000000
# 3 -0.003424 -0.002932 0.009922 0.000000 0.000000 0.000000
# 4 0.000000 0.000000 0.000000 0.019293 0.000000 0.000000
# 5 0.000000 0.000000 0.000000 0.000000 0.006712 0.000000
# 6 0.000000 0.000000 0.000000 0.000000 0.000000 0.022577
#
#
# Mechanical properties :
#
#
# Convention : Reuss Voigt Hill
#
# Bulk Modulus (GPa) = 59.28391 63.19586 61.23988
# Shear Modulus (GPa) = 46.84591 63.39937 55.12264
#
# Velocity S-wave (km/s) = 4.70470 5.47316 5.10341
# Velocity P-wave (km/s) = 7.58441 8.35464 7.97882
#
# Compressibility (1/GPa) = 0.01686798
#
# Stress axis : x y z
#
# Youngs Moduli (GPa) = 66.88979 101.76863 100.78411
#
# Poissons Ratio (x) = 0.26048 0.34506
# Poissons Ratio (y) = 0.17121 0.29549
# Poissons Ratio (z) = 0.22902 0.29838
#
# Static dielectric constant tensor:
#      x y z
#    x 3.600820 0.000000 0.000000 
#    y 0.000000 3.951670 0.000000 
#    z 0.000000 0.000000 4.385260 
# 
# 
# High freq. dielectric constant tensor:
#      x y z
#    x 1.811770 0.000000 0.000000 
#    y 0.000000 1.838600 0.000000 
#    z 0.000000 0.000000 1.841990 
# 
# From -- ./inp_files/22048.got.cif
#   From: 2010.06.25/outbox.cif.g09.slc.cpg/sg52_12_cif.got.tgz:22048.got - 2010.06.26 19:32:48.
