data_PCOD8217761
_publ_section_title
;
Structure prediction by ZEFSAII (Michael W. Deem and Ramdas Pophale) SiO2 
 PCOD8217761
Probable space group: P M N A
;
_chemical_formula_sum "Si O2"
_cell_formula_units_Z 64
_cell_length_a 9.153802
_cell_length_b 16.862429
_cell_length_c 23.907110
_cell_angle_alpha 90.000000
_cell_angle_beta 90.000000
_cell_angle_gamma 90.000000
_cell_volume 3690.190004
_symmetry_space_group_name_H-M "P M N A"
_symmetry_group_IT_number 53
_symmetry_cell_setting 'orthorhombic'
loop_
_space_group_symop_operation_xyz
x,y,z
1/2-x,-y,1/2+z
x,-y,-z
1/2-x,y,1/2-z
-x,-y,-z
1/2+x,y,1/2-z
-x,y,z
1/2+x,-y,1/2+z
loop_
_atom_site_type_symbol
_atom_site_label
_atom_site_fract_x
_atom_site_fract_y
_atom_site_fract_z
Si Si1 0.672201 0.257145 0.690543
Si Si2 0.834381 0.785744 0.616480
Si Si3 0.328415 0.087933 0.310219
Si Si4 0.164193 0.365495 0.305225
Si Si5 0.665554 0.915441 0.306000
Si Si6 0.826657 0.636604 0.089809
Si Si7 0.329880 0.459585 0.392061
Si Si8 0.170908 0.687504 0.969995
O O1 0.750000 0.271262 0.750000
O O2 0.500000 0.269770 0.699676
O O3 0.707562 0.168543 0.664984
O O4 0.734714 0.318619 0.644742
O O5 0.741455 0.855599 0.643744
O O6 0.832733 0.711949 0.657435
O O7 0.759843 0.759120 0.558396
O O8 0.000000 0.814332 0.604993
O O9 0.250000 0.097897 0.250000
O O10 0.500000 0.108050 0.302064
O O11 0.307441 0.999197 0.337645
O O12 0.250000 0.342837 0.250000
O O13 0.242352 0.438139 0.336133
O O14 0.000000 0.391338 0.290465
O O15 0.750000 0.924262 0.250000
O O16 0.500000 0.909245 0.287346
O O17 0.773280 0.545712 0.088774
O O18 0.000000 0.639362 0.089909
O O19 0.772015 0.680294 0.033621
O O20 0.500000 0.461057 0.376578
O O21 0.297070 0.397042 0.440979
O O22 0.000000 0.708247 0.966157
#
# Coordination Sequence:
#
# PCOD8217761 Si02
#       8
#     8   8   8   8   8   8   8   8
#     4   9  17  31  49  70  97 123 149 184 228 276
#     4  10  20  32  46  67  94 123 156 193 232 273
#     4  10  18  28  45  70  96 122 154 188 226 272
#     4  10  20  32  45  63  91 125 156 186 226 275
#     4   8  15  27  44  66  92 121 150 183 223 269
#     4   9  17  30  51  74  92 117 155 195 232 274
#     4   9  17  30  48  69  92 119 154 195 235 274
#     4   9  17  31  50  69  91 121 157 195 234 274
#
# _framework density 17.343281000000001
#
# number of rings (size 3 to 8) (size 9 to 14) (size 15 to 20)
#    0.000    2.750    0.000    1.875    0.000    5.000 
#    0.000    3.125    0.000    3.750    0.000    5.250 
#    0.000    0.000    0.000    0.000    0.000    0.000 
#
# Total GULP energy -793056.573060 kJ/mol
# GULP energy per Si atom -12391.508954 kJ/mol
# Density = 1.730381 g / cm^3
# Si number density = 17.343281 Si / 1000 Ang^3
#
#
#
# Elastic Constant Matrix: (Units=GPa)
#
#
# Indices 1 2 3 4 5 6 
#
# 1 68.3151 33.4736 33.2379 0.0000 0.0000 0.0000
# 2 33.4736 93.8068 41.0159 0.0000 0.0000 0.0000
# 3 33.2379 41.0159 81.8034 0.0000 0.0000 0.0000
# 4 0.0000 0.0000 0.0000 18.2935 0.0000 0.0000
# 5 0.0000 0.0000 0.0000 0.0000 22.0828 0.0000
# 6 0.0000 0.0000 0.0000 0.0000 0.0000 16.6132
#
#
#
# Elastic Compliance Matrix: (Units=1/GPa)
#
#
# Indices 1 2 3 4 5 6 
#
# 1 0.019626 -0.004504 -0.005716 0.000000 0.000000 0.000000
# 2 -0.004504 0.014687 -0.005534 0.000000 0.000000 0.000000
# 3 -0.005716 -0.005534 0.017322 0.000000 0.000000 0.000000
# 4 0.000000 0.000000 0.000000 0.054664 0.000000 0.000000
# 5 0.000000 0.000000 0.000000 0.000000 0.045284 0.000000
# 6 0.000000 0.000000 0.000000 0.000000 0.000000 0.060193
#
#
# Mechanical properties :
#
#
# Convention : Reuss Voigt Hill
#
# Bulk Modulus (GPa) = 49.68531 51.04225 50.36378
# Shear Modulus (GPa) = 20.00055 20.47776 20.23915
#
# Velocity S-wave (km/s) = 3.39959 3.43991 3.41981
# Velocity P-wave (km/s) = 6.64228 6.72843 6.68549
#
# Compressibility (1/GPa) = 0.02012667
#
# Stress axis : x y z
#
# Youngs Moduli (GPa) = 50.95267 68.08711 57.73110
#
# Poissons Ratio (x) = 0.30666 0.33000
# Poissons Ratio (y) = 0.22949 0.31948
# Poissons Ratio (z) = 0.29125 0.37679
#
# Static dielectric constant tensor:
#      x y z
#    x 3.259490 0.000000 0.000000 
#    y 0.000000 3.666080 0.000000 
#    z 0.000000 0.000000 3.120050 
# 
# 
# High freq. dielectric constant tensor:
#      x y z
#    x 1.662890 0.000000 0.000000 
#    y 0.000000 1.673100 0.000000 
#    z 0.000000 0.000000 1.644840 
# 
# From -- ./inp_files/34167.got.cif
#   From: 2010.03.12/outbox.cif.g09.slc.cpg/sg53_18_cif.got.tgz:34167.got - 2010.04.16 14:36:59.
