data_PCOD8217989
_publ_section_title
;
Structure prediction by ZEFSAII (Michael W. Deem and Ramdas Pophale) SiO2 
 PCOD8217989
Probable space group: P M N A
;
_chemical_formula_sum "Si O2"
_cell_formula_units_Z 56
_cell_length_a 9.045276
_cell_length_b 18.033829
_cell_length_c 19.765474
_cell_angle_alpha 90.000000
_cell_angle_beta 90.000000
_cell_angle_gamma 90.000000
_cell_volume 3224.163106
_symmetry_space_group_name_H-M "P M N A"
_symmetry_group_IT_number 53
_symmetry_cell_setting 'orthorhombic'
loop_
_space_group_symop_operation_xyz
x,y,z
1/2-x,-y,1/2+z
x,-y,-z
1/2-x,y,1/2-z
-x,-y,-z
1/2+x,y,1/2-z
-x,y,z
1/2+x,-y,1/2+z
loop_
_atom_site_type_symbol
_atom_site_label
_atom_site_fract_x
_atom_site_fract_y
_atom_site_fract_z
Si Si1 0.834753 0.167303 0.436112
Si Si2 0.166601 0.147526 0.596860
Si Si3 0.676021 0.990115 0.926125
Si Si4 0.328891 0.691831 0.541066
Si Si5 0.825458 0.708236 0.112451
Si Si6 0.824200 0.573500 0.319362
Si Si7 0.170071 0.471843 0.075190
O O1 0.829102 0.152372 0.515999
O O2 0.773571 0.091730 0.398669
O O3 0.742155 0.240313 0.417258
O O4 0.000000 0.184255 0.411702
O O5 0.277242 0.207434 0.629682
O O6 0.000000 0.163227 0.622767
O O7 0.218540 0.063339 0.618233
O O8 0.500000 0.987503 0.933215
O O9 0.748267 0.000000 0.000000
O O10 0.500000 0.708730 0.538669
O O11 0.273007 0.687537 0.463504
O O12 0.292832 0.615433 0.579166
O O13 0.739665 0.654140 0.162728
O O14 0.000000 0.698729 0.123024
O O15 0.750000 0.546631 0.250000
O O16 0.781316 0.513510 0.375679
O O17 0.000000 0.577494 0.312265
O O18 0.000000 0.488013 0.096024
O O19 0.198500 0.500000 0.000000
#
# Coordination Sequence:
#
# PCOD8217989 Si02
#       7
#     8   8   8   8   8   8   8
#     4   8  13  21  35  56  85 120 157 197 236 278
#     4   8  13  22  37  58  83 117 160 198 232 277
#     4   7  10  18  32  51  80 118 155 191 234 277
#     4   9  17  28  45  67  94 127 159 197 246 294
#     4  10  18  31  47  67  95 127 161 198 245 293
#     4  12  25  39  55  75  99 129 166 208 254 303
#     4  10  19  36  56  74 100 133 165 204 255 304
#
# _framework density 17.368849000000001
#
# number of rings (size 3 to 8) (size 9 to 14) (size 15 to 20)
#    0.000    2.857    1.429    3.429    0.000    1.429 
#    0.000    0.714    0.000    4.286    0.000    0.000 
#    0.000    1.143    0.000    6.000    0.000    6.857 
#
# Total GULP energy -693788.089594 kJ/mol
# GULP energy per Si atom -12389.073028 kJ/mol
# Density = 1.732932 g / cm^3
# Si number density = 17.368849 Si / 1000 Ang^3
#
#
#
# Elastic Constant Matrix: (Units=GPa)
#
#
# Indices 1 2 3 4 5 6 
#
# 1 73.7166 53.1585 22.9799 0.0000 0.0000 0.0000
# 2 53.1585 145.6647 30.5868 0.0000 0.0000 0.0000
# 3 22.9799 30.5868 31.3929 0.0000 0.0000 0.0000
# 4 0.0000 0.0000 0.0000 8.7590 0.0000 0.0000
# 5 0.0000 0.0000 0.0000 0.0000 14.4500 0.0000
# 6 0.0000 0.0000 0.0000 0.0000 0.0000 29.8984
#
#
#
# Elastic Compliance Matrix: (Units=1/GPa)
#
#
# Indices 1 2 3 4 5 6 
#
# 1 0.020524 -0.005450 -0.009713 0.000000 0.000000 0.000000
# 2 -0.005450 0.010078 -0.005830 0.000000 0.000000 0.000000
# 3 -0.009713 -0.005830 0.044645 0.000000 0.000000 0.000000
# 4 0.000000 0.000000 0.000000 0.114168 0.000000 0.000000
# 5 0.000000 0.000000 0.000000 0.000000 0.069204 0.000000
# 6 0.000000 0.000000 0.000000 0.000000 0.000000 0.033447
#
#
# Mechanical properties :
#
#
# Convention : Reuss Voigt Hill
#
# Bulk Modulus (GPa) = 30.06614 51.58049 40.82332
# Shear Modulus (GPa) = 14.48692 20.22474 17.35583
#
# Velocity S-wave (km/s) = 2.89117 3.41607 3.16452
# Velocity P-wave (km/s) = 5.33789 6.73209 6.07512
#
# Compressibility (1/GPa) = 0.03326000
#
# Stress axis : x y z
#
# Youngs Moduli (GPa) = 48.72416 99.22370 22.39911
#
# Poissons Ratio (x) = 0.54080 0.21757
# Poissons Ratio (y) = 0.26556 0.13058
# Poissons Ratio (z) = 0.47327 0.57845
#
# Static dielectric constant tensor:
#      x y z
#    x 3.089530 0.000000 0.000000 
#    y 0.000000 3.828630 0.000000 
#    z 0.000000 0.000000 -2.200300 
# 
# 
# High freq. dielectric constant tensor:
#      x y z
#    x 1.654790 0.000000 0.000000 
#    y 0.000000 1.698620 0.000000 
#    z 0.000000 0.000000 1.593610 
# 
# From -- ./inp_files/30976.got.cif
#   From: 2010.03.12/outbox.cif.g09.slc.cpg/sg53_16_cif.got.tgz:30976.got - 2010.04.16 14:36:59.
