data_PCOD8217879
_publ_section_title
;
Structure prediction by ZEFSAII (Michael W. Deem and Ramdas Pophale) SiO2 
 PCOD8217879
Probable space group: P M N A
;
_chemical_formula_sum "Si O2"
_cell_formula_units_Z 56
_cell_length_a 8.773620
_cell_length_b 13.986060
_cell_length_c 28.117809
_cell_angle_alpha 90.000000
_cell_angle_beta 90.000000
_cell_angle_gamma 90.000000
_cell_volume 3450.290672
_symmetry_space_group_name_H-M "P M N A"
_symmetry_group_IT_number 53
_symmetry_cell_setting 'orthorhombic'
loop_
_space_group_symop_operation_xyz
x,y,z
1/2-x,-y,1/2+z
x,-y,-z
1/2-x,y,1/2-z
-x,-y,-z
1/2+x,y,1/2-z
-x,y,z
1/2+x,-y,1/2+z
loop_
_atom_site_type_symbol
_atom_site_label
_atom_site_fract_x
_atom_site_fract_y
_atom_site_fract_z
Si Si1 0.318552 0.102300 0.019881
Si Si2 0.672688 0.376516 0.060119
Si Si3 0.821261 0.800769 0.893534
Si Si4 0.820671 0.479960 0.298827
Si Si5 0.179856 0.260137 0.299832
Si Si6 0.181489 0.430381 0.605628
Si Si7 0.828539 0.280067 0.536566
O O1 0.500000 0.113673 0.024542
O O2 0.248268 0.117164 0.072191
O O3 0.250761 0.182656 0.983147
O O4 0.268784 0.000000 0.000000
O O5 0.500000 0.360281 0.080242
O O6 0.785193 0.302387 0.084912
O O7 0.732429 0.481805 0.072219
O O8 0.674131 0.361925 0.003713
O O9 0.747643 0.807272 0.841125
O O10 0.000000 0.817025 0.889312
O O11 0.750000 0.517996 0.250000
O O12 0.772325 0.370601 0.309594
O O13 0.759453 0.549269 0.340928
O O14 0.000000 0.486928 0.294246
O O15 0.250000 0.225572 0.250000
O O16 0.000000 0.247478 0.297810
O O17 0.248935 0.330964 0.583050
O O18 0.000000 0.422897 0.604936
O O19 0.000000 0.251618 0.550156
#
# Coordination Sequence:
#
# PCOD8217879 Si02
#       7
#     8   8   8   8   8   8   8
#     4   9  18  33  51  69  89 114 148 193 241 286
#     4   9  15  26  41  60  87 118 149 181 215 256
#     4  11  20  29  44  67  93 124 155 185 226 274
#     4   9  17  27  40  58  84 117 152 184 212 251
#     4  10  18  30  45  65  92 123 157 190 222 262
#     4   9  14  23  40  63  86 113 148 183 217 256
#     4   8  14  23  42  67  86 107 143 186 224 269
#
# _framework density 16.230516999999999
#
# number of rings (size 3 to 8) (size 9 to 14) (size 15 to 20)
#    0.000    2.714    1.429    3.000    0.000    2.571 
#    0.000    0.000    0.000   10.286    0.000    1.000 
#    0.000    2.286    0.000    0.000    0.000    0.000 
#
# Total GULP energy -693917.594081 kJ/mol
# GULP energy per Si atom -12391.385609 kJ/mol
# Density = 1.619358 g / cm^3
# Si number density = 16.230517 Si / 1000 Ang^3
#
#
#
# Elastic Constant Matrix: (Units=GPa)
#
#
# Indices 1 2 3 4 5 6 
#
# 1 44.5885 19.3268 34.3100 0.0000 0.0000 0.0000
# 2 19.3268 85.9204 67.0390 0.0000 0.0000 0.0000
# 3 34.3100 67.0390 131.4680 0.0000 0.0000 0.0000
# 4 0.0000 0.0000 0.0000 21.1861 0.0000 0.0000
# 5 0.0000 0.0000 0.0000 0.0000 23.0089 0.0000
# 6 0.0000 0.0000 0.0000 0.0000 0.0000 8.1639
#
#
#
# Elastic Compliance Matrix: (Units=1/GPa)
#
#
# Indices 1 2 3 4 5 6 
#
# 1 0.028114 -0.000995 -0.006830 0.000000 0.000000 0.000000
# 2 -0.000995 0.019364 -0.009615 0.000000 0.000000 0.000000
# 3 -0.006830 -0.009615 0.014292 0.000000 0.000000 0.000000
# 4 0.000000 0.000000 0.000000 0.047201 0.000000 0.000000
# 5 0.000000 0.000000 0.000000 0.000000 0.043461 0.000000
# 6 0.000000 0.000000 0.000000 0.000000 0.000000 0.122491
#
#
# Mechanical properties :
#
#
# Convention : Reuss Voigt Hill
#
# Bulk Modulus (GPa) = 37.18724 55.92538 46.55631
# Shear Modulus (GPa) = 15.68552 19.89185 17.78869
#
# Velocity S-wave (km/s) = 3.11210 3.50463 3.31418
# Velocity P-wave (km/s) = 5.98960 7.13501 6.58724
#
# Compressibility (1/GPa) = 0.02689095
#
# Stress axis : x y z
#
# Youngs Moduli (GPa) = 35.56959 51.64138 69.97143
#
# Poissons Ratio (x) = 0.05139 0.47788
# Poissons Ratio (y) = 0.03540 0.67275
# Poissons Ratio (z) = 0.24293 0.49651
#
# Static dielectric constant tensor:
#      x y z
#    x 2.761230 0.000000 0.000000 
#    y 0.000000 2.907530 0.000000 
#    z 0.000000 0.000000 3.297870 
# 
# 
# High freq. dielectric constant tensor:
#      x y z
#    x 1.594210 0.000000 0.000000 
#    y 0.000000 1.583060 0.000000 
#    z 0.000000 0.000000 1.628730 
# 
# From -- ./inp_files/38348.got.cif
#   From: 2010.03.12/outbox.cif.g09.slc.cpg/sg53_20_cif.got.tgz:38348.got - 2010.04.16 14:36:59.
