data_PCOD8217306
_publ_section_title
;
Structure prediction by ZEFSAII (Michael W. Deem and Ramdas Pophale) SiO2 
 PCOD8217306
Probable space group: P N N A
;
_chemical_formula_sum "Si O2"
_cell_formula_units_Z 56
_cell_length_a 9.168204
_cell_length_b 19.704604
_cell_length_c 14.189680
_cell_angle_alpha 90.000000
_cell_angle_beta 90.000000
_cell_angle_gamma 90.000000
_cell_volume 2563.448407
_symmetry_space_group_name_H-M "P N N A"
_symmetry_group_IT_number 52
_symmetry_cell_setting 'orthorhombic'
loop_
_space_group_symop_operation_xyz
x,y,z
1/2-x,-y,z
x,1/2-y,1/2-z
1/2-x,1/2+y,1/2-z
-x,-y,-z
1/2+x,y,-z
-x,1/2+y,1/2+z
1/2+x,1/2-y,1/2+z
loop_
_atom_site_type_symbol
_atom_site_label
_atom_site_fract_x
_atom_site_fract_y
_atom_site_fract_z
Si Si1 0.418724 0.261316 0.934975
Si Si2 0.168102 0.070918 0.653117
Si Si3 0.556404 0.357601 0.467128
Si Si4 0.263367 0.815421 0.793819
Si Si5 0.220584 0.577924 0.398716
Si Si6 0.814817 0.651842 0.969857
Si Si7 0.167258 0.569787 0.188658
O O1 0.385463 0.217641 0.839474
O O2 0.534633 0.322585 0.920912
O O3 0.484189 0.214850 0.016467
O O4 0.264250 0.287273 0.974719
O O5 0.260164 0.129011 0.710538
O O6 0.153285 0.091552 0.543722
O O7 0.006378 0.059896 0.693230
O O8 0.250000 0.000000 0.662934
O O9 0.650303 0.355271 0.372945
O O10 0.430878 0.412384 0.452687
O O11 0.652464 0.377219 0.556589
O O12 0.349118 0.750000 0.750000
O O13 0.250000 0.500000 0.412249
O O14 0.215353 0.598986 0.289587
O O15 0.708078 0.625375 0.888748
O O16 0.250000 0.500000 0.165048
#
# Coordination Sequence:
#
# PCOD8217306 Si02
#       7
#     8   8   8   8   8   8   8
#     4  12  24  44  73 103 142 188 245 302 368 438
#     4  12  27  47  76 107 151 201 241 307 376 448
#     4  12  23  45  68  98 137 184 237 301 363 431
#     4  12  25  44  72 103 145 186 244 291 366 442
#     4  11  25  45  69  99 138 186 238 301 365 442
#     4  12  25  47  74 105 147 191 243 306 371 436
#     4  11  27  47  70 108 146 187 246 302 371 442
#
# _framework density 21.845573000000002
#
# number of rings (size 3 to 8) (size 9 to 14) (size 15 to 20)
#    0.000    0.286    7.143    0.857    2.000    5.143 
#    0.000    1.429    0.000    0.000    0.000    0.000 
#    0.000    0.000    0.000    0.000    0.000    0.000 
#
# Total GULP energy -694433.932540 kJ/mol
# GULP energy per Si atom -12400.605938 kJ/mol
# Density = 2.179585 g / cm^3
# Si number density = 21.845573 Si / 1000 Ang^3
#
#
#
# Elastic Constant Matrix: (Units=GPa)
#
#
# Indices 1 2 3 4 5 6 
#
# 1 118.0201 50.4098 55.6178 0.0000 0.0000 0.0000
# 2 50.4098 111.3062 52.2166 0.0000 0.0000 0.0000
# 3 55.6178 52.2166 122.4879 0.0000 0.0000 0.0000
# 4 0.0000 0.0000 0.0000 38.6777 0.0000 0.0000
# 5 0.0000 0.0000 0.0000 0.0000 46.2286 0.0000
# 6 0.0000 0.0000 0.0000 0.0000 0.0000 44.4038
#
#
#
# Elastic Compliance Matrix: (Units=1/GPa)
#
#
# Indices 1 2 3 4 5 6 
#
# 1 0.011798 -0.003538 -0.003849 0.000000 0.000000 0.000000
# 2 -0.003538 0.012291 -0.003633 0.000000 0.000000 0.000000
# 3 -0.003849 -0.003633 0.011461 0.000000 0.000000 0.000000
# 4 0.000000 0.000000 0.000000 0.025855 0.000000 0.000000
# 5 0.000000 0.000000 0.000000 0.000000 0.021632 0.000000
# 6 0.000000 0.000000 0.000000 0.000000 0.000000 0.022521
#
#
# Mechanical properties :
#
#
# Convention : Reuss Voigt Hill
#
# Bulk Modulus (GPa) = 74.02065 74.25584 74.13824
# Shear Modulus (GPa) = 37.85027 38.76668 38.30848
#
# Velocity S-wave (km/s) = 4.16700 4.21714 4.19215
# Velocity P-wave (km/s) = 7.55705 7.60115 7.57913
#
# Compressibility (1/GPa) = 0.01350974
#
# Stress axis : x y z
#
# Youngs Moduli (GPa) = 84.76005 81.36148 87.25492
#
# Poissons Ratio (x) = 0.28782 0.33585
# Poissons Ratio (y) = 0.29984 0.31702
# Poissons Ratio (z) = 0.32624 0.29561
#
# Static dielectric constant tensor:
#      x y z
#    x 4.073560 0.000000 0.000000 
#    y 0.000000 3.932080 0.000000 
#    z 0.000000 0.000000 4.161280 
# 
# 
# High freq. dielectric constant tensor:
#      x y z
#    x 1.858360 0.000000 0.000000 
#    y 0.000000 1.862890 0.000000 
#    z 0.000000 0.000000 1.870540 
# 
# From -- ./inp_files/24979.got.cif
#   From: 2010.06.25/outbox.cif.g09.slc.cpg/sg52_13_cif.got.tgz:24979.got - 2010.06.26 19:32:48.
