data_PCOD8217880
_publ_section_title
;
Structure prediction by ZEFSAII (Michael W. Deem and Ramdas Pophale) SiO2 
 PCOD8217880
Probable space group: P M N A
;
_chemical_formula_sum "Si O2"
_cell_formula_units_Z 64
_cell_length_a 9.075829
_cell_length_b 20.466384
_cell_length_c 22.461368
_cell_angle_alpha 90.000000
_cell_angle_beta 90.000000
_cell_angle_gamma 90.000000
_cell_volume 4172.185661
_symmetry_space_group_name_H-M "P M N A"
_symmetry_group_IT_number 53
_symmetry_cell_setting 'orthorhombic'
loop_
_space_group_symop_operation_xyz
x,y,z
1/2-x,-y,1/2+z
x,-y,-z
1/2-x,y,1/2-z
-x,-y,-z
1/2+x,y,1/2-z
-x,y,z
1/2+x,-y,1/2+z
loop_
_atom_site_type_symbol
_atom_site_label
_atom_site_fract_x
_atom_site_fract_y
_atom_site_fract_z
Si Si1 0.830228 0.320843 0.600833
Si Si2 0.828180 0.896771 0.101800
Si Si3 0.832905 0.446055 0.915442
Si Si4 0.674755 0.285061 0.481085
Si Si5 0.665012 0.581919 0.554847
Si Si6 0.669241 0.141027 0.466809
Si Si7 0.666208 0.979590 0.931642
Si Si8 0.328829 0.796110 0.187327
O O1 0.764494 0.392099 0.618482
O O2 0.750162 0.287650 0.545204
O O3 0.807178 0.274263 0.657088
O O4 0.000000 0.329842 0.584002
O O5 0.743485 0.852773 0.148642
O O6 0.000000 0.898518 0.117641
O O7 0.763780 0.970153 0.106532
O O8 0.798652 0.867920 0.036575
O O9 0.761055 0.520031 0.910400
O O10 0.000000 0.444000 0.890434
O O11 0.833543 0.428989 0.984569
O O12 0.500000 0.292533 0.492190
O O13 0.732775 0.344618 0.437684
O O14 0.710232 0.215799 0.450085
O O15 0.500000 0.582045 0.579454
O O16 0.500000 0.124760 0.452870
O O17 0.767456 0.093343 0.426199
O O18 0.500000 0.979390 0.906965
O O19 0.671639 0.000000 0.000000
O O20 0.250000 0.792923 0.250000
O O21 0.500000 0.812975 0.195528
#
# Coordination Sequence:
#
# PCOD8217880 Si02
#       8
#     8   8   8   8   8   8   8   8
#     4  10  19  28  39  56  76  99 129 169 209 243
#     4  10  18  30  46  61  78 101 134 172 208 247
#     4   8  13  23  38  52  70  99 133 163 192 230
#     4   9  15  25  40  56  78 108 138 165 196 235
#     4   7  11  20  35  54  73  98 133 165 188 221
#     4   9  16  25  40  61  81 106 138 169 200 239
#     4   9  17  27  40  58  81 107 133 164 202 242
#     4  11  23  35  46  60  79 103 136 175 216 254
#
# _framework density 15.339681000000001
#
# number of rings (size 3 to 8) (size 9 to 14) (size 15 to 20)
#    0.000    2.875    1.250    3.000    0.000    4.000 
#    0.000    5.000    0.000    0.000    0.000    0.000 
#    0.000    0.000    0.000    1.125    0.000   15.500 
#
# Total GULP energy -792880.803869 kJ/mol
# GULP energy per Si atom -12388.762560 kJ/mol
# Density = 1.530477 g / cm^3
# Si number density = 15.339681 Si / 1000 Ang^3
#
#
#
# Elastic Constant Matrix: (Units=GPa)
#
#
# Indices 1 2 3 4 5 6 
#
# 1 86.2127 61.4182 28.1693 0.0000 0.0000 0.0000
# 2 61.4182 159.6318 31.4493 0.0000 0.0000 0.0000
# 3 28.1693 31.4493 27.7752 0.0000 0.0000 0.0000
# 4 0.0000 0.0000 0.0000 6.1734 0.0000 0.0000
# 5 0.0000 0.0000 0.0000 0.0000 15.0174 0.0000
# 6 0.0000 0.0000 0.0000 0.0000 0.0000 23.9602
#
#
#
# Elastic Compliance Matrix: (Units=1/GPa)
#
#
# Indices 1 2 3 4 5 6 
#
# 1 0.019757 -0.004703 -0.014712 0.000000 0.000000 0.000000
# 2 -0.004703 0.009183 -0.005628 0.000000 0.000000 0.000000
# 3 -0.014712 -0.005628 0.057296 0.000000 0.000000 0.000000
# 4 0.000000 0.000000 0.000000 0.161987 0.000000 0.000000
# 5 0.000000 0.000000 0.000000 0.000000 0.066590 0.000000
# 6 0.000000 0.000000 0.000000 0.000000 0.000000 0.041736
#
#
# Mechanical properties :
#
#
# Convention : Reuss Voigt Hill
#
# Bulk Modulus (GPa) = 27.66222 57.29924 42.48073
# Shear Modulus (GPa) = 11.94223 19.20237 15.57230
#
# Velocity S-wave (km/s) = 2.79322 3.54193 3.18962
# Velocity P-wave (km/s) = 5.33620 7.35947 6.42794
#
# Compressibility (1/GPa) = 0.03615039
#
# Stress axis : x y z
#
# Youngs Moduli (GPa) = 50.61595 108.90213 17.45319
#
# Poissons Ratio (x) = 0.51216 0.25677
# Poissons Ratio (y) = 0.23804 0.09822
# Poissons Ratio (z) = 0.74466 0.61285
#
# Static dielectric constant tensor:
#      x y z
#    x 2.971700 0.000000 0.000000 
#    y 0.000000 3.577210 0.000000 
#    z 0.000000 0.000000 2.433770 
# 
# 
# High freq. dielectric constant tensor:
#      x y z
#    x 1.585330 0.000000 0.000000 
#    y 0.000000 1.613600 0.000000 
#    z 0.000000 0.000000 1.504380 
# 
# From -- ./inp_files/34560.got.cif
#   From: 2010.03.12/outbox.cif.g09.slc.cpg/sg53_18_cif.got.tgz:34560.got - 2010.04.16 14:36:59.
