data_PCOD8217730
_publ_section_title
;
Structure prediction by ZEFSAII (Michael W. Deem and Ramdas Pophale) SiO2 
 PCOD8217730
Probable space group: P M N A
;
_chemical_formula_sum "Si O2"
_cell_formula_units_Z 56
_cell_length_a 9.515109
_cell_length_b 13.672850
_cell_length_c 27.504820
_cell_angle_alpha 90.000000
_cell_angle_beta 90.000000
_cell_angle_gamma 90.000000
_cell_volume 3578.340173
_symmetry_space_group_name_H-M "P M N A"
_symmetry_group_IT_number 53
_symmetry_cell_setting 'orthorhombic'
loop_
_space_group_symop_operation_xyz
x,y,z
1/2-x,-y,1/2+z
x,-y,-z
1/2-x,y,1/2-z
-x,-y,-z
1/2+x,y,1/2-z
-x,y,z
1/2+x,-y,1/2+z
loop_
_atom_site_type_symbol
_atom_site_label
_atom_site_fract_x
_atom_site_fract_y
_atom_site_fract_z
Si Si1 0.662263 0.724209 0.039123
Si Si2 0.666315 0.485267 0.297770
Si Si3 0.659162 0.742145 0.705885
Si Si4 0.838836 0.777266 0.898647
Si Si5 0.665105 0.110168 0.492772
Si Si6 0.660918 0.430802 0.885153
Si Si7 0.658465 0.618859 0.942790
O O1 0.500000 0.756001 0.035632
O O2 0.693968 0.675860 0.091718
O O3 0.756718 0.820370 0.031373
O O4 0.699851 0.643029 0.998249
O O5 0.750000 0.520715 0.250000
O O6 0.500000 0.507480 0.292913
O O7 0.695942 0.370561 0.306053
O O8 0.729560 0.546814 0.342544
O O9 0.750000 0.784630 0.750000
O O10 0.500000 0.750883 0.723394
O O11 0.687330 0.808054 0.657619
O O12 0.795293 0.861056 0.937086
O O13 0.753984 0.678735 0.906089
O O14 0.000000 0.748518 0.906224
O O15 0.500000 0.119528 0.502958
O O16 0.718276 0.000000 0.500000
O O17 0.500000 0.435426 0.865419
O O18 0.678633 0.505266 0.930433
O O19 0.500000 0.652749 0.932805
#
# Coordination Sequence:
#
# PCOD8217730 Si02
#       7
#     8   8   8   8   8   8   8
#     4   9  18  30  44  65  90 117 148 181 218 263
#     4  10  19  30  43  61  87 120 157 188 219 258
#     4   9  17  27  40  59  85 116 147 179 212 253
#     4   9  16  28  43  62  88 116 146 181 221 263
#     4   9  18  32  49  67  88 114 146 186 231 277
#     4  10  18  28  43  63  90 121 151 183 218 256
#     4   9  16  26  41  61  88 120 150 177 210 254
#
# _framework density 15.649715
#
# number of rings (size 3 to 8) (size 9 to 14) (size 15 to 20)
#    0.000    2.714    1.429    0.857    0.000    3.714 
#    0.000    0.000    0.000    4.286    0.000    1.000 
#    0.000    4.571    0.000    0.000    0.000    0.000 
#
# Total GULP energy -694065.099174 kJ/mol
# GULP energy per Si atom -12394.019628 kJ/mol
# Density = 1.561410 g / cm^3
# Si number density = 15.649715 Si / 1000 Ang^3
#
#
#
# Elastic Constant Matrix: (Units=GPa)
#
#
# Indices 1 2 3 4 5 6 
#
# 1 61.3771 33.8331 42.2025 0.0000 0.0000 0.0000
# 2 33.8331 70.6798 36.0244 0.0000 0.0000 0.0000
# 3 42.2025 36.0244 80.6079 0.0000 0.0000 0.0000
# 4 0.0000 0.0000 0.0000 14.8751 0.0000 0.0000
# 5 0.0000 0.0000 0.0000 0.0000 28.4395 0.0000
# 6 0.0000 0.0000 0.0000 0.0000 0.0000 12.8526
#
#
#
# Elastic Compliance Matrix: (Units=1/GPa)
#
#
# Indices 1 2 3 4 5 6 
#
# 1 0.028430 -0.007799 -0.011399 0.000000 0.000000 0.000000
# 2 -0.007799 0.020461 -0.005061 0.000000 0.000000 0.000000
# 3 -0.011399 -0.005061 0.020636 0.000000 0.000000 0.000000
# 4 0.000000 0.000000 0.000000 0.067227 0.000000 0.000000
# 5 0.000000 0.000000 0.000000 0.000000 0.035162 0.000000
# 6 0.000000 0.000000 0.000000 0.000000 0.000000 0.077805
#
#
# Mechanical properties :
#
#
# Convention : Reuss Voigt Hill
#
# Bulk Modulus (GPa) = 47.60028 48.53163 48.06596
# Shear Modulus (GPa) = 16.38051 17.94044 17.16048
#
# Velocity S-wave (km/s) = 3.23878 3.38949 3.31499
# Velocity P-wave (km/s) = 6.66846 6.81151 6.74037
#
# Compressibility (1/GPa) = 0.02100828
#
# Stress axis : x y z
#
# Youngs Moduli (GPa) = 35.17467 48.87345 48.45997
#
# Poissons Ratio (x) = 0.38115 0.55240
# Poissons Ratio (y) = 0.27432 0.24526
# Poissons Ratio (z) = 0.40096 0.24735
#
# Static dielectric constant tensor:
#      x y z
#    x 3.017150 0.000000 0.000000 
#    y 0.000000 2.706620 0.000000 
#    z 0.000000 0.000000 3.065820 
# 
# 
# High freq. dielectric constant tensor:
#      x y z
#    x 1.605440 0.000000 0.000000 
#    y 0.000000 1.553070 0.000000 
#    z 0.000000 0.000000 1.599090 
# 
# From -- ./inp_files/38373.got.cif
#   From: 2010.03.12/outbox.cif.g09.slc.cpg/sg53_20_cif.got.tgz:38373.got - 2010.04.16 14:36:59.
