data_PCOD8217563
_publ_section_title
;
Structure prediction by ZEFSAII (Michael W. Deem and Ramdas Pophale) SiO2 
 PCOD8217563
Probable space group: P M N A
;
_chemical_formula_sum "Si O2"
_cell_formula_units_Z 64
_cell_length_a 9.085679
_cell_length_b 16.931596
_cell_length_c 26.892544
_cell_angle_alpha 90.000000
_cell_angle_beta 90.000000
_cell_angle_gamma 90.000000
_cell_volume 4137.015749
_symmetry_space_group_name_H-M "P M N A"
_symmetry_group_IT_number 53
_symmetry_cell_setting 'orthorhombic'
loop_
_space_group_symop_operation_xyz
x,y,z
1/2-x,-y,1/2+z
x,-y,-z
1/2-x,y,1/2-z
-x,-y,-z
1/2+x,y,1/2-z
-x,y,z
1/2+x,-y,1/2+z
loop_
_atom_site_type_symbol
_atom_site_label
_atom_site_fract_x
_atom_site_fract_y
_atom_site_fract_z
Si Si1 0.827374 0.592965 0.197503
Si Si2 0.673274 0.343888 0.059621
Si Si3 0.833367 0.383974 0.548047
Si Si4 0.327365 0.171222 0.035834
Si Si5 0.171414 0.274699 0.879925
Si Si6 0.171763 0.866153 0.421902
Si Si7 0.334166 0.980822 0.557825
Si Si8 0.832098 0.519206 0.624452
O O1 0.750000 0.597622 0.250000
O O2 0.789794 0.674534 0.169169
O O3 0.768556 0.517001 0.167468
O O4 0.000000 0.581600 0.204631
O O5 0.500000 0.338825 0.064673
O O6 0.734536 0.254400 0.057252
O O7 0.729957 0.394379 0.107454
O O8 0.713750 0.391194 0.009305
O O9 0.718228 0.324743 0.572460
O O10 0.825687 0.468472 0.574004
O O11 0.000000 0.348539 0.552642
O O12 0.500000 0.160310 0.045215
O O13 0.243779 0.103282 0.066384
O O14 0.293590 0.167104 0.976976
O O15 0.260899 0.192736 0.880508
O O16 0.000000 0.255227 0.883214
O O17 0.000000 0.875516 0.412265
O O18 0.245631 0.951345 0.413217
O O19 0.500000 0.976987 0.578531
O O20 0.331965 0.000000 0.500000
O O21 0.000000 0.523347 0.644291
#
# Coordination Sequence:
#
# PCOD8217563 Si02
#       8
#     8   8   8   8   8   8   8   8
#     4  10  21  36  51  66  87 113 144 183 228 273
#     4   9  15  25  41  63  88 117 152 186 215 251
#     4   9  15  26  41  60  85 117 152 181 211 253
#     4   9  16  26  39  57  84 118 155 187 214 247
#     4  10  19  29  43  65  89 113 143 183 226 265
#     4  10  17  27  43  61  83 114 151 185 215 255
#     4   9  17  27  38  55  81 114 151 186 220 253
#     4   9  17  28  46  66  86 113 147 183 221 263
#
# _framework density 15.470088000000001
#
# number of rings (size 3 to 8) (size 9 to 14) (size 15 to 20)
#    0.000    2.625    1.250    1.875    0.000    5.000 
#    0.000    1.250    0.000    3.000    0.000    0.000 
#    0.000    1.000    0.000    7.250    0.000    3.500 
#
# Total GULP energy -793283.682442 kJ/mol
# GULP energy per Si atom -12395.057538 kJ/mol
# Density = 1.543488 g / cm^3
# Si number density = 15.470088 Si / 1000 Ang^3
#
#
#
# Elastic Constant Matrix: (Units=GPa)
#
#
# Indices 1 2 3 4 5 6 
#
# 1 78.8662 53.2236 40.0622 0.0000 0.0000 0.0000
# 2 53.2236 115.7254 47.6068 0.0000 0.0000 0.0000
# 3 40.0622 47.6068 66.3290 0.0000 0.0000 0.0000
# 4 0.0000 0.0000 0.0000 13.1853 0.0000 0.0000
# 5 0.0000 0.0000 0.0000 0.0000 14.9918 0.0000
# 6 0.0000 0.0000 0.0000 0.0000 0.0000 21.8298
#
#
#
# Elastic Compliance Matrix: (Units=1/GPa)
#
#
# Indices 1 2 3 4 5 6 
#
# 1 0.021129 -0.006340 -0.008212 0.000000 0.000000 0.000000
# 2 -0.006340 0.014164 -0.006337 0.000000 0.000000 0.000000
# 3 -0.008212 -0.006337 0.024584 0.000000 0.000000 0.000000
# 4 0.000000 0.000000 0.000000 0.075842 0.000000 0.000000
# 5 0.000000 0.000000 0.000000 0.000000 0.066703 0.000000
# 6 0.000000 0.000000 0.000000 0.000000 0.000000 0.045809
#
#
# Mechanical properties :
#
#
# Convention : Reuss Voigt Hill
#
# Bulk Modulus (GPa) = 55.24517 60.30064 57.77291
# Shear Modulus (GPa) = 16.88952 18.00323 17.44637
#
# Velocity S-wave (km/s) = 3.30775 3.41507 3.36184
# Velocity P-wave (km/s) = 7.09766 7.39011 7.24536
#
# Compressibility (1/GPa) = 0.01810113
#
# Stress axis : x y z
#
# Youngs Moduli (GPa) = 47.32736 70.60380 40.67625
#
# Poissons Ratio (x) = 0.44759 0.33403
# Poissons Ratio (y) = 0.30003 0.25775
# Poissons Ratio (z) = 0.38865 0.44739
#
# Static dielectric constant tensor:
#      x y z
#    x 2.946610 0.000000 0.000000 
#    y 0.000000 3.231010 0.000000 
#    z 0.000000 0.000000 2.590310 
# 
# 
# High freq. dielectric constant tensor:
#      x y z
#    x 1.590660 0.000000 0.000000 
#    y 0.000000 1.598260 0.000000 
#    z 0.000000 0.000000 1.536820 
# 
# From -- ./inp_files/34533.got.cif
#   From: 2010.03.12/outbox.cif.g09.slc.cpg/sg53_18_cif.got.tgz:34533.got - 2010.04.16 14:36:59.
