data_PCOD8217688
_publ_section_title
;
Structure prediction by ZEFSAII (Michael W. Deem and Ramdas Pophale) SiO2 
 PCOD8217688
Probable space group: P M N A
;
_chemical_formula_sum "Si O2"
_cell_formula_units_Z 64
_cell_length_a 8.917180
_cell_length_b 26.384109
_cell_length_c 18.125350
_cell_angle_alpha 90.000000
_cell_angle_beta 90.000000
_cell_angle_gamma 90.000000
_cell_volume 4264.384610
_symmetry_space_group_name_H-M "P M N A"
_symmetry_group_IT_number 53
_symmetry_cell_setting 'orthorhombic'
loop_
_space_group_symop_operation_xyz
x,y,z
1/2-x,-y,1/2+z
x,-y,-z
1/2-x,y,1/2-z
-x,-y,-z
1/2+x,y,1/2-z
-x,y,z
1/2+x,-y,1/2+z
loop_
_atom_site_type_symbol
_atom_site_label
_atom_site_fract_x
_atom_site_fract_y
_atom_site_fract_z
Si Si1 0.824822 0.103619 0.574420
Si Si2 0.322447 0.491141 0.828232
Si Si3 0.175482 0.006923 0.671103
Si Si4 0.821974 0.602828 0.089636
Si Si5 0.177138 0.309612 0.672513
Si Si6 0.168889 0.049870 0.049269
Si Si7 0.325171 0.805984 0.174205
Si Si8 0.834927 0.451591 0.051779
O O1 0.782575 0.059851 0.632442
O O2 0.739174 0.096157 0.497164
O O3 0.771642 0.157218 0.608469
O O4 0.000000 0.102686 0.556586
O O5 0.250000 0.503796 0.750000
O O6 0.500000 0.485898 0.821231
O O7 0.254566 0.438966 0.858406
O O8 0.282731 0.538193 0.882656
O O9 0.250000 0.006283 0.750000
O O10 0.000000 0.999822 0.680236
O O11 0.237544 0.959722 0.623580
O O12 0.752798 0.657229 0.108700
O O13 0.000000 0.601191 0.103524
O O14 0.783983 0.593897 0.002804
O O15 0.250000 0.325600 0.750000
O O16 0.216772 0.251529 0.653278
O O17 0.000000 0.319295 0.676290
O O18 0.000000 0.064148 0.071052
O O19 0.176517 0.000000 0.000000
O O20 0.250000 0.823170 0.250000
O O21 0.500000 0.812533 0.187553
O O22 0.000000 0.440556 0.085903
O O23 0.846705 0.500000 0.000000
#
# Coordination Sequence:
#
# PCOD8217688 Si02
#       8
#     8   8   8   8   8   8   8   8
#     4   9  17  29  43  59  81 110 141 171 208 247
#     4  11  20  29  43  62  85 111 140 171 203 243
#     4  10  18  27  41  60  83 110 139 171 205 245
#     4  10  19  31  45  60  82 111 141 173 209 246
#     4  10  19  30  43  60  83 110 142 177 210 243
#     4   9  17  28  41  58  80 106 137 171 205 243
#     4   9  18  30  43  60  83 110 140 176 211 243
#     4   8  16  30  44  59  81 107 135 169 207 244
#
# _framework density 15.008027999999999
#
# number of rings (size 3 to 8) (size 9 to 14) (size 15 to 20)
#    0.000    2.500    0.000    4.125    0.000    5.750 
#    0.000    0.000    0.000    0.000    0.000    0.000 
#    0.000    1.000    0.000    5.250    0.000    4.500 
#
# Total GULP energy -793489.206452 kJ/mol
# GULP energy per Si atom -12398.268851 kJ/mol
# Density = 1.497387 g / cm^3
# Si number density = 15.008028 Si / 1000 Ang^3
#
#
#
# Elastic Constant Matrix: (Units=GPa)
#
#
# Indices 1 2 3 4 5 6 
#
# 1 89.6991 36.7523 53.7720 0.0000 0.0000 0.0000
# 2 36.7523 71.9814 44.4481 0.0000 0.0000 0.0000
# 3 53.7720 44.4481 87.1744 0.0000 0.0000 0.0000
# 4 0.0000 0.0000 0.0000 25.7363 0.0000 0.0000
# 5 0.0000 0.0000 0.0000 0.0000 28.3114 0.0000
# 6 0.0000 0.0000 0.0000 0.0000 0.0000 13.6657
#
#
#
# Elastic Compliance Matrix: (Units=1/GPa)
#
#
# Indices 1 2 3 4 5 6 
#
# 1 0.018260 -0.003456 -0.009501 0.000000 0.000000 0.000000
# 2 -0.003456 0.020931 -0.008540 0.000000 0.000000 0.000000
# 3 -0.009501 -0.008540 0.021686 0.000000 0.000000 0.000000
# 4 0.000000 0.000000 0.000000 0.038856 0.000000 0.000000
# 5 0.000000 0.000000 0.000000 0.000000 0.035322 0.000000
# 6 0.000000 0.000000 0.000000 0.000000 0.000000 0.073176
#
#
# Mechanical properties :
#
#
# Convention : Reuss Voigt Hill
#
# Bulk Modulus (GPa) = 55.92230 57.64442 56.78336
# Shear Modulus (GPa) = 19.44117 21.13484 20.28801
#
# Velocity S-wave (km/s) = 3.60305 3.75672 3.68069
# Velocity P-wave (km/s) = 7.39268 7.57032 7.48203
#
# Compressibility (1/GPa) = 0.01788196
#
# Stress axis : x y z
#
# Youngs Moduli (GPa) = 54.76378 47.77682 46.11219
#
# Poissons Ratio (x) = 0.16514 0.43812
# Poissons Ratio (y) = 0.18928 0.39380
# Poissons Ratio (z) = 0.52032 0.40801
#
# Static dielectric constant tensor:
#      x y z
#    x 3.002480 0.000000 0.000000 
#    y 0.000000 2.869070 0.000000 
#    z 0.000000 0.000000 2.965380 
# 
# 
# High freq. dielectric constant tensor:
#      x y z
#    x 1.588400 0.000000 0.000000 
#    y 0.000000 1.541850 0.000000 
#    z 0.000000 0.000000 1.561910 
# 
# From -- ./inp_files/27083.got.cif
#   From: 2010.03.12/outbox.cif.g09.slc.cpg/sg53_14_cif.got.tgz:27083.got - 2010.04.16 14:36:59.
