data_PCOD8217865
_publ_section_title
;
Structure prediction by ZEFSAII (Michael W. Deem and Ramdas Pophale) SiO2 
 PCOD8217865
Probable space group: P M N A
;
_chemical_formula_sum "Si O2"
_cell_formula_units_Z 64
_cell_length_a 8.922687
_cell_length_b 19.776580
_cell_length_c 19.312110
_cell_angle_alpha 90.000000
_cell_angle_beta 90.000000
_cell_angle_gamma 90.000000
_cell_volume 3407.819436
_symmetry_space_group_name_H-M "P M N A"
_symmetry_group_IT_number 53
_symmetry_cell_setting 'orthorhombic'
loop_
_space_group_symop_operation_xyz
x,y,z
1/2-x,-y,1/2+z
x,-y,-z
1/2-x,y,1/2-z
-x,-y,-z
1/2+x,y,1/2-z
-x,y,z
1/2+x,-y,1/2+z
loop_
_atom_site_type_symbol
_atom_site_label
_atom_site_fract_x
_atom_site_fract_y
_atom_site_fract_z
Si Si1 0.170867 0.834622 0.427408
Si Si2 0.828294 0.989322 0.422508
Si Si3 0.322507 0.621630 0.108040
Si Si4 0.827555 0.647872 0.963831
Si Si5 0.834075 0.523662 0.578836
Si Si6 0.673862 0.093881 0.323835
Si Si7 0.171191 0.201222 0.064191
Si Si8 0.176784 0.739777 0.180063
O O1 0.218450 0.829865 0.507251
O O2 0.280547 0.788182 0.382989
O O3 0.000000 0.809037 0.419686
O O4 0.185601 0.911144 0.401325
O O5 0.733039 0.030863 0.367711
O O6 0.000000 0.014371 0.419948
O O7 0.764024 0.000000 0.500000
O O8 0.500000 0.632232 0.112325
O O9 0.279735 0.542678 0.121230
O O10 0.240061 0.664546 0.166984
O O11 0.269948 0.648063 0.033229
O O12 0.776650 0.587390 0.912157
O O13 0.801617 0.718817 0.924928
O O14 0.000000 0.636784 0.984330
O O15 0.839006 0.500000 0.500000
O O16 0.000000 0.546126 0.602871
O O17 0.750000 0.098161 0.250000
O O18 0.500000 0.081635 0.311579
O O19 0.706466 0.164052 0.363721
O O20 0.000000 0.187537 0.040763
O O21 0.250000 0.768757 0.250000
O O22 0.000000 0.737055 0.188087
#
# Coordination Sequence:
#
# PCOD8217865 Si02
#       8
#     8   8   8   8   8   8   8   8
#     4  11  22  37  61  87 114 149 189 236 286 343
#     4  10  21  39  62  90 119 150 191 236 284 342
#     4  10  19  33  52  76 109 147 188 233 287 341
#     4  10  18  29  50  81 112 144 186 236 286 336
#     4   8  16  29  46  73 109 143 179 228 279 334
#     4  11  24  41  62  87 119 156 194 237 288 341
#     4  10  21  36  56  85 118 152 190 237 289 342
#     4  12  25  40  57  80 113 151 195 240 289 348
#
# _framework density 18.780338
#
# number of rings (size 3 to 8) (size 9 to 14) (size 15 to 20)
#    0.000    1.750    2.500    3.375    0.000    5.500 
#    0.000    0.000    0.000    0.750    0.000    3.500 
#    0.000    0.000    0.000    0.000    0.000    0.000 
#
# Total GULP energy -793679.065576 kJ/mol
# GULP energy per Si atom -12401.235400 kJ/mol
# Density = 1.873759 g / cm^3
# Si number density = 18.780338 Si / 1000 Ang^3
#
#
#
# Elastic Constant Matrix: (Units=GPa)
#
#
# Indices 1 2 3 4 5 6 
#
# 1 122.4078 57.6361 51.3698 0.0000 0.0000 0.0000
# 2 57.6361 115.5615 42.2585 0.0000 0.0000 0.0000
# 3 51.3698 42.2585 96.5799 0.0000 0.0000 0.0000
# 4 0.0000 0.0000 0.0000 20.0172 0.0000 0.0000
# 5 0.0000 0.0000 0.0000 0.0000 25.9821 0.0000
# 6 0.0000 0.0000 0.0000 0.0000 0.0000 26.1912
#
#
#
# Elastic Compliance Matrix: (Units=1/GPa)
#
#
# Indices 1 2 3 4 5 6 
#
# 1 0.012143 -0.004398 -0.004534 0.000000 0.000000 0.000000
# 2 -0.004398 0.011895 -0.002865 0.000000 0.000000 0.000000
# 3 -0.004534 -0.002865 0.014020 0.000000 0.000000 0.000000
# 4 0.000000 0.000000 0.000000 0.049957 0.000000 0.000000
# 5 0.000000 0.000000 0.000000 0.000000 0.038488 0.000000
# 6 0.000000 0.000000 0.000000 0.000000 0.000000 0.038181
#
#
# Mechanical properties :
#
#
# Convention : Reuss Voigt Hill
#
# Bulk Modulus (GPa) = 69.14713 70.78645 69.96679
# Shear Modulus (GPa) = 25.89334 26.65708 26.27521
#
# Velocity S-wave (km/s) = 3.71718 3.77160 3.74449
# Velocity P-wave (km/s) = 7.43788 7.53261 7.48539
#
# Compressibility (1/GPa) = 0.01446192
#
# Stress axis : x y z
#
# Youngs Moduli (GPa) = 82.35007 84.07054 71.32894
#
# Poissons Ratio (x) = 0.36977 0.32343
# Poissons Ratio (y) = 0.36220 0.20437
# Poissons Ratio (z) = 0.37341 0.24087
#
# Static dielectric constant tensor:
#      x y z
#    x 3.522400 0.000000 0.000000 
#    y 0.000000 3.798550 0.000000 
#    z 0.000000 0.000000 3.170980 
# 
# 
# High freq. dielectric constant tensor:
#      x y z
#    x 1.738370 0.000000 0.000000 
#    y 0.000000 1.743410 0.000000 
#    z 0.000000 0.000000 1.692010 
# 
# From -- ./inp_files/26946.got.cif
#   From: 2010.03.12/outbox.cif.g09.slc.cpg/sg53_14_cif.got.tgz:26946.got - 2010.04.16 14:36:59.
