data_PCOD8217496
_publ_section_title
;
Structure prediction by ZEFSAII (Michael W. Deem and Ramdas Pophale) SiO2 
 PCOD8217496
Probable space group: P M N A
;
_chemical_formula_sum "Si O2"
_cell_formula_units_Z 64
_cell_length_a 8.804383
_cell_length_b 20.323057
_cell_length_c 23.214454
_cell_angle_alpha 90.000000
_cell_angle_beta 90.000000
_cell_angle_gamma 90.000000
_cell_volume 4153.808162
_symmetry_space_group_name_H-M "P M N A"
_symmetry_group_IT_number 53
_symmetry_cell_setting 'orthorhombic'
loop_
_space_group_symop_operation_xyz
x,y,z
1/2-x,-y,1/2+z
x,-y,-z
1/2-x,y,1/2-z
-x,-y,-z
1/2+x,y,1/2-z
-x,y,z
1/2+x,-y,1/2+z
loop_
_atom_site_type_symbol
_atom_site_label
_atom_site_fract_x
_atom_site_fract_y
_atom_site_fract_z
Si Si1 0.821581 0.680235 0.604818
Si Si2 0.180199 0.207735 0.312591
Si Si3 0.679402 0.891011 0.601609
Si Si4 0.674991 0.146283 0.983019
Si Si5 0.821446 0.581793 0.045654
Si Si6 0.176270 0.707422 0.477110
Si Si7 0.832265 0.970983 0.063623
Si Si8 0.178077 0.541194 0.574709
O O1 0.754676 0.727348 0.654478
O O2 0.759354 0.702749 0.542476
O O3 0.782477 0.602940 0.616992
O O4 0.000000 0.691260 0.603338
O O5 0.250000 0.207233 0.250000
O O6 0.232234 0.142814 0.346313
O O7 0.000000 0.208075 0.307901
O O8 0.500000 0.881000 0.608619
O O9 0.727331 0.859926 0.540768
O O10 0.722491 0.968994 0.604448
O O11 0.500000 0.137060 0.000277
O O12 0.703103 0.218206 0.955091
O O13 0.720748 0.091933 0.935004
O O14 0.769693 0.525623 0.092110
O O15 0.000000 0.577733 0.035572
O O16 0.770474 0.655898 0.063171
O O17 0.728225 0.564598 0.988406
O O18 0.000000 0.687612 0.474128
O O19 0.000000 0.946952 0.082014
O O20 0.837564 0.000000 0.000000
O O21 0.000000 0.525919 0.575360
#
# Coordination Sequence:
#
# PCOD8217496 Si02
#       8
#     8   8   8   8   8   8   8   8
#     4   8  15  28  43  55  72 100 136 170 204 243
#     4  11  21  34  47  63  82 105 140 181 218 255
#     4  10  19  31  44  59  80 108 137 171 214 254
#     4  10  17  26  42  62  82 107 141 174 205 245
#     4  10  17  23  33  55  78  99 129 167 197 231
#     4   9  16  27  39  54  78 110 138 165 199 240
#     4   8  16  28  40  57  82 106 133 167 206 251
#     4   9  15  26  40  51  69 101 132 163 199 238
#
# _framework density 15.407548999999999
#
# number of rings (size 3 to 8) (size 9 to 14) (size 15 to 20)
#    0.000    2.625    1.250    4.875    0.000    3.750 
#    0.000    1.875    0.000    0.000    0.000    0.000 
#    0.000    0.000    0.000    1.125    0.000   19.250 
#
# Total GULP energy -792940.296056 kJ/mol
# GULP energy per Si atom -12389.692126 kJ/mol
# Density = 1.537248 g / cm^3
# Si number density = 15.407549 Si / 1000 Ang^3
#
#
#
# Elastic Constant Matrix: (Units=GPa)
#
#
# Indices 1 2 3 4 5 6 
#
# 1 60.9738 49.7444 15.4634 0.0000 0.0000 0.0000
# 2 49.7444 145.6080 38.9232 0.0000 0.0000 0.0000
# 3 15.4634 38.9232 37.5361 0.0000 0.0000 0.0000
# 4 0.0000 0.0000 0.0000 10.0650 0.0000 0.0000
# 5 0.0000 0.0000 0.0000 0.0000 11.2006 0.0000
# 6 0.0000 0.0000 0.0000 0.0000 0.0000 19.6059
#
#
#
# Elastic Compliance Matrix: (Units=1/GPa)
#
#
# Indices 1 2 3 4 5 6 
#
# 1 0.022828 -0.007311 -0.001822 0.000000 0.000000 0.000000
# 2 -0.007311 0.011843 -0.009269 0.000000 0.000000 0.000000
# 3 -0.001822 -0.009269 0.037003 0.000000 0.000000 0.000000
# 4 0.000000 0.000000 0.000000 0.099354 0.000000 0.000000
# 5 0.000000 0.000000 0.000000 0.000000 0.089281 0.000000
# 6 0.000000 0.000000 0.000000 0.000000 0.000000 0.051005
#
#
# Mechanical properties :
#
#
# Convention : Reuss Voigt Hill
#
# Bulk Modulus (GPa) = 28.67917 50.26444 39.47181
# Shear Modulus (GPa) = 13.89882 17.50675 15.70279
#
# Velocity S-wave (km/s) = 3.00672 3.37448 3.19589
# Velocity P-wave (km/s) = 5.54148 6.91931 6.26837
#
# Compressibility (1/GPa) = 0.03486851
#
# Stress axis : x y z
#
# Youngs Moduli (GPa) = 43.80660 84.43576 27.02467
#
# Poissons Ratio (x) = 0.61735 0.04925
# Poissons Ratio (y) = 0.32029 0.25049
# Poissons Ratio (z) = 0.07983 0.78263
#
# Static dielectric constant tensor:
#      x y z
#    x 2.927990 0.000000 0.000000 
#    y 0.000000 3.795620 0.000000 
#    z 0.000000 0.000000 2.459950 
# 
# 
# High freq. dielectric constant tensor:
#      x y z
#    x 1.593960 0.000000 0.000000 
#    y 0.000000 1.614570 0.000000 
#    z 0.000000 0.000000 1.502070 
# 
# From -- ./inp_files/34557.got.cif
#   From: 2010.03.12/outbox.cif.g09.slc.cpg/sg53_18_cif.got.tgz:34557.got - 2010.04.16 14:36:59.
