data_PCOD8217233
_publ_section_title
;
Structure prediction by ZEFSAII (Michael W. Deem and Ramdas Pophale) SiO2 
 PCOD8217233
Probable space group: P N N A
;
_chemical_formula_sum "Si O2"
_cell_formula_units_Z 32
_cell_length_a 16.074996
_cell_length_b 17.328207
_cell_length_c 4.866613
_cell_angle_alpha 90.000000
_cell_angle_beta 90.000000
_cell_angle_gamma 90.000000
_cell_volume 1355.599228
_symmetry_space_group_name_H-M "P N N A"
_symmetry_group_IT_number 52
_symmetry_cell_setting 'orthorhombic'
loop_
_space_group_symop_operation_xyz
x,y,z
1/2-x,-y,z
x,1/2-y,1/2-z
1/2-x,1/2+y,1/2-z
-x,-y,-z
1/2+x,y,-z
-x,1/2+y,1/2+z
1/2+x,1/2-y,1/2+z
loop_
_atom_site_type_symbol
_atom_site_label
_atom_site_fract_x
_atom_site_fract_y
_atom_site_fract_z
Si Si1 0.835447 0.173386 0.095461
Si Si2 0.645355 0.301313 0.502960
Si Si3 0.599516 0.590274 0.929510
Si Si4 0.450369 0.943178 0.198952
O O1 0.871159 0.250000 0.250000
O O2 0.832122 0.109932 0.338494
O O3 0.743838 0.185235 0.980014
O O4 0.893845 0.146505 0.839792
O O5 0.614729 0.250000 0.750000
O O6 0.598693 0.382803 0.511236
O O7 0.617724 0.250000 0.250000
O O8 0.614522 0.500438 0.852566
O O9 0.508743 0.599303 0.075596
O O10 0.500000 0.000000 0.000000
#
# Coordination Sequence:
#
# PCOD8217233 Si02
#       4
#     8   8   8   8
#     4  11  23  47  71 107 146 187 248 298 359 429
#     4  11  27  48  75 103 146 193 240 301 365 433
#     4  11  24  45  74 103 145 193 232 308 349 441
#     4  11  26  50  70 109 149 186 245 295 365 435
#
# _framework density 23.605793999999999
#
# number of rings (size 3 to 8) (size 9 to 14) (size 15 to 20)
#    0.000    1.000    2.500    3.750    7.000    2.000 
#    9.000    0.000    0.000    0.000    0.000    0.000 
#    0.000    0.000    0.000    0.000    0.000    0.000 
#
# Total GULP energy -396590.103222 kJ/mol
# GULP energy per Si atom -12393.440726 kJ/mol
# Density = 2.355207 g / cm^3
# Si number density = 23.605794 Si / 1000 Ang^3
#
#
#
# Elastic Constant Matrix: (Units=GPa)
#
#
# Indices 1 2 3 4 5 6 
#
# 1 58.6827 71.4891 47.4672 0.0000 0.0000 0.0000
# 2 71.4891 154.5306 86.5214 0.0000 0.0000 0.0000
# 3 47.4672 86.5214 193.5095 0.0000 0.0000 0.0000
# 4 0.0000 0.0000 0.0000 65.9854 0.0000 0.0000
# 5 0.0000 0.0000 0.0000 0.0000 42.8804 0.0000
# 6 0.0000 0.0000 0.0000 0.0000 0.0000 43.5515
#
#
#
# Elastic Compliance Matrix: (Units=1/GPa)
#
#
# Indices 1 2 3 4 5 6 
#
# 1 0.039637 -0.017199 -0.002033 0.000000 0.000000 0.000000
# 2 -0.017199 0.016095 -0.002977 0.000000 0.000000 0.000000
# 3 -0.002033 -0.002977 0.006998 0.000000 0.000000 0.000000
# 4 0.000000 0.000000 0.000000 0.015155 0.000000 0.000000
# 5 0.000000 0.000000 0.000000 0.000000 0.023321 0.000000
# 6 0.000000 0.000000 0.000000 0.000000 0.000000 0.022961
#
#
# Mechanical properties :
#
#
# Convention : Reuss Voigt Hill
#
# Bulk Modulus (GPa) = 54.61113 90.85312 72.73213
# Shear Modulus (GPa) = 28.62227 43.89978 36.26103
#
# Velocity S-wave (km/s) = 3.48589 4.31711 3.92357
# Velocity P-wave (km/s) = 6.27589 7.96373 7.16965
#
# Compressibility (1/GPa) = 0.01831128
#
# Stress axis : x y z
#
# Youngs Moduli (GPa) = 25.22870 62.13187 142.90456
#
# Poissons Ratio (x) = 1.06859 0.29053
# Poissons Ratio (y) = 0.43390 0.42549
# Poissons Ratio (z) = 0.05129 0.18499
#
# Static dielectric constant tensor:
#      x y z
#    x 3.812550 0.000000 0.000000 
#    y 0.000000 4.973320 0.000000 
#    z 0.000000 0.000000 4.816970 
# 
# 
# High freq. dielectric constant tensor:
#      x y z
#    x 1.899050 0.000000 0.000000 
#    y 0.000000 1.945100 0.000000 
#    z 0.000000 0.000000 1.966720 
# 
# From -- ./inp_files/3072.got.cif
#   From: 2010.06.25/outbox.cif.g09.slc.cpg/sg52_2_cif.got.tgz:3072.got - 2010.06.26 19:32:48.
