data_PCOD8217501
_publ_section_title
;
Structure prediction by ZEFSAII (Michael W. Deem and Ramdas Pophale) SiO2 
 PCOD8217501
Probable space group: P M N A
;
_chemical_formula_sum "Si O2"
_cell_formula_units_Z 56
_cell_length_a 8.946175
_cell_length_b 17.941329
_cell_length_c 20.258728
_cell_angle_alpha 90.000000
_cell_angle_beta 90.000000
_cell_angle_gamma 90.000000
_cell_volume 3251.652845
_symmetry_space_group_name_H-M "P M N A"
_symmetry_group_IT_number 53
_symmetry_cell_setting 'orthorhombic'
loop_
_space_group_symop_operation_xyz
x,y,z
1/2-x,-y,1/2+z
x,-y,-z
1/2-x,y,1/2-z
-x,-y,-z
1/2+x,y,1/2-z
-x,y,z
1/2+x,-y,1/2+z
loop_
_atom_site_type_symbol
_atom_site_label
_atom_site_fract_x
_atom_site_fract_y
_atom_site_fract_z
Si Si1 0.675475 0.711646 0.887316
Si Si2 0.176300 0.534683 0.067401
Si Si3 0.665922 0.997798 0.079183
Si Si4 0.669928 0.680919 0.039442
Si Si5 0.677822 0.424293 0.318579
Si Si6 0.825868 0.859141 0.909702
Si Si7 0.827169 0.156830 0.545886
O O1 0.500000 0.708633 0.872880
O O2 0.760823 0.656173 0.838834
O O3 0.736360 0.794520 0.870993
O O4 0.713969 0.689928 0.962641
O O5 0.229729 0.619586 0.075443
O O6 0.232417 0.485545 0.128513
O O7 0.000000 0.534836 0.064021
O O8 0.243751 0.500000 0.000000
O O9 0.500000 0.018827 0.103085
O O10 0.776269 0.057474 0.113560
O O11 0.702812 0.910765 0.098106
O O12 0.676871 0.000000 0.000000
O O13 0.500000 0.654458 0.045885
O O14 0.696060 0.760602 0.076552
O O15 0.750000 0.449278 0.250000
O O16 0.500000 0.420695 0.312779
O O17 0.000000 0.848772 0.896449
O O18 0.788723 0.852442 0.986626
O O19 0.000000 0.151520 0.519114
#
# Coordination Sequence:
#
# PCOD8217501 Si02
#       7
#     8   8   8   8   8   8   8
#     4  10  19  32  48  67  92 124 162 199 241 289
#     4  10  20  34  51  72  99 127 159 202 251 298
#     4   8  13  23  36  50  79 120 156 189 231 281
#     4   9  17  28  46  70  93 121 162 204 240 287
#     4  11  23  38  54  73  99 129 162 202 250 298
#     4  10  17  23  36  59  86 117 156 196 233 277
#     4   8  15  26  37  55  85 121 156 193 237 284
#
# _framework density 17.222010000000001
#
# number of rings (size 3 to 8) (size 9 to 14) (size 15 to 20)
#    0.000    2.571    1.429    3.857    0.000    6.286 
#    0.000    0.000    0.000    0.000    0.000    0.000 
#    0.000    1.143    0.000    7.429    0.000    8.714 
#
# Total GULP energy -693979.736226 kJ/mol
# GULP energy per Si atom -12392.495290 kJ/mol
# Density = 1.718281 g / cm^3
# Si number density = 17.222010 Si / 1000 Ang^3
#
#
#
# Elastic Constant Matrix: (Units=GPa)
#
#
# Indices 1 2 3 4 5 6 
#
# 1 66.0903 39.3574 27.2414 0.0000 0.0000 0.0000
# 2 39.3574 154.0607 43.7327 0.0000 0.0000 0.0000
# 3 27.2414 43.7327 56.2803 0.0000 0.0000 0.0000
# 4 0.0000 0.0000 0.0000 11.1148 0.0000 0.0000
# 5 0.0000 0.0000 0.0000 0.0000 16.1996 0.0000
# 6 0.0000 0.0000 0.0000 0.0000 0.0000 30.7224
#
#
#
# Elastic Compliance Matrix: (Units=1/GPa)
#
#
# Indices 1 2 3 4 5 6 
#
# 1 0.019940 -0.003021 -0.007305 0.000000 0.000000 0.000000
# 2 -0.003021 0.008785 -0.005365 0.000000 0.000000 0.000000
# 3 -0.007305 -0.005365 0.025473 0.000000 0.000000 0.000000
# 4 0.000000 0.000000 0.000000 0.089970 0.000000 0.000000
# 5 0.000000 0.000000 0.000000 0.000000 0.061730 0.000000
# 6 0.000000 0.000000 0.000000 0.000000 0.000000 0.032550
#
#
# Mechanical properties :
#
#
# Convention : Reuss Voigt Hill
#
# Bulk Modulus (GPa) = 43.82391 55.23269 49.52830
# Shear Modulus (GPa) = 18.02231 22.68069 20.35150
#
# Velocity S-wave (km/s) = 3.23843 3.63293 3.44134
# Velocity P-wave (km/s) = 6.28370 7.05253 6.67919
#
# Compressibility (1/GPa) = 0.02281859
#
# Stress axis : x y z
#
# Youngs Moduli (GPa) = 50.14929 113.82438 39.25801
#
# Poissons Ratio (x) = 0.34382 0.28677
# Poissons Ratio (y) = 0.15148 0.21061
# Poissons Ratio (z) = 0.36632 0.61063
#
# Static dielectric constant tensor:
#      x y z
#    x 3.117250 0.000000 0.000000 
#    y 0.000000 3.789390 0.000000 
#    z 0.000000 0.000000 2.655690 
# 
# 
# High freq. dielectric constant tensor:
#      x y z
#    x 1.665110 0.000000 0.000000 
#    y 0.000000 1.691680 0.000000 
#    z 0.000000 0.000000 1.580860 
# 
# From -- ./inp_files/31042.got.cif
#   From: 2010.03.12/outbox.cif.g09.slc.cpg/sg53_16_cif.got.tgz:31042.got - 2010.04.16 14:36:59.
