data_PCOD8217705
_publ_section_title
;
Structure prediction by ZEFSAII (Michael W. Deem and Ramdas Pophale) SiO2 
 PCOD8217705
Probable space group: P M N A
;
_chemical_formula_sum "Si O2"
_cell_formula_units_Z 56
_cell_length_a 9.269471
_cell_length_b 14.733268
_cell_length_c 21.906904
_cell_angle_alpha 90.000000
_cell_angle_beta 90.000000
_cell_angle_gamma 90.000000
_cell_volume 2991.817127
_symmetry_space_group_name_H-M "P M N A"
_symmetry_group_IT_number 53
_symmetry_cell_setting 'orthorhombic'
loop_
_space_group_symop_operation_xyz
x,y,z
1/2-x,-y,1/2+z
x,-y,-z
1/2-x,y,1/2-z
-x,-y,-z
1/2+x,y,1/2-z
-x,y,z
1/2+x,-y,1/2+z
loop_
_atom_site_type_symbol
_atom_site_label
_atom_site_fract_x
_atom_site_fract_y
_atom_site_fract_z
Si Si1 0.330418 0.896830 0.497599
Si Si2 0.662119 0.504939 0.106860
Si Si3 0.664432 0.657278 0.811094
Si Si4 0.341138 0.223896 0.610058
Si Si5 0.658339 0.327385 0.806106
Si Si6 0.336635 0.387958 0.515601
Si Si7 0.665934 0.255776 0.066345
O O1 0.500000 0.887453 0.512160
O O2 0.294172 0.863347 0.429307
O O3 0.246894 0.835534 0.546663
O O4 0.276488 0.000000 0.500000
O O5 0.500000 0.474763 0.085384
O O6 0.725643 0.432716 0.155240
O O7 0.650056 0.600037 0.140682
O O8 0.769484 0.520150 0.048432
O O9 0.750000 0.681432 0.750000
O O10 0.500000 0.640337 0.791331
O O11 0.676702 0.739278 0.860020
O O12 0.500000 0.209560 0.637880
O O13 0.232068 0.236854 0.666257
O O14 0.341539 0.309895 0.565756
O O15 0.750000 0.366400 0.750000
O O16 0.500000 0.301466 0.782320
O O17 0.500000 0.408350 0.492906
O O18 0.235838 0.349354 0.460684
O O19 0.500000 0.251568 0.044358
#
# Coordination Sequence:
#
# PCOD8217705 Si02
#       7
#     8   8   8   8   8   8   8
#     4   9  18  34  57  82 103 123 151 193 248 308
#     4   9  18  32  48  69  98 133 173 216 258 295
#     4  10  22  37  52  71  99 138 181 221 257 295
#     4   8  15  28  45  67  96 124 152 188 232 285
#     4  10  18  27  43  65  92 128 166 201 238 280
#     4   9  17  30  49  73 100 132 168 208 254 300
#     4  10  20  34  52  76 105 135 168 208 257 309
#
# _framework density 18.717721000000001
#
# number of rings (size 3 to 8) (size 9 to 14) (size 15 to 20)
#    0.000    2.714    0.000    2.571    0.000    6.571 
#    0.000    2.857    0.000    0.857    0.000    2.000 
#    0.000    0.000    0.000    0.000    0.000    0.000 
#
# Total GULP energy -694245.782444 kJ/mol
# GULP energy per Si atom -12397.246115 kJ/mol
# Density = 1.867512 g / cm^3
# Si number density = 18.717721 Si / 1000 Ang^3
#
#
#
# Elastic Constant Matrix: (Units=GPa)
#
#
# Indices 1 2 3 4 5 6 
#
# 1 114.6232 23.1936 55.3449 0.0000 0.0000 0.0000
# 2 23.1936 81.6509 16.8178 0.0000 0.0000 0.0000
# 3 55.3449 16.8178 85.4574 0.0000 0.0000 0.0000
# 4 0.0000 0.0000 0.0000 16.7063 0.0000 0.0000
# 5 0.0000 0.0000 0.0000 0.0000 36.0072 0.0000
# 6 0.0000 0.0000 0.0000 0.0000 0.0000 19.0213
#
#
#
# Elastic Compliance Matrix: (Units=1/GPa)
#
#
# Indices 1 2 3 4 5 6 
#
# 1 0.013013 -0.002043 -0.008025 0.000000 0.000000 0.000000
# 2 -0.002043 0.013086 -0.001252 0.000000 0.000000 0.000000
# 3 -0.008025 -0.001252 0.017146 0.000000 0.000000 0.000000
# 4 0.000000 0.000000 0.000000 0.059858 0.000000 0.000000
# 5 0.000000 0.000000 0.000000 0.000000 0.027772 0.000000
# 6 0.000000 0.000000 0.000000 0.000000 0.000000 0.052573
#
#
# Mechanical properties :
#
#
# Convention : Reuss Voigt Hill
#
# Bulk Modulus (GPa) = 48.53726 52.49379 50.51553
# Shear Modulus (GPa) = 23.47918 26.77198 25.12558
#
# Velocity S-wave (km/s) = 3.54557 3.78604 3.66777
# Velocity P-wave (km/s) = 6.53826 6.87153 6.70697
#
# Compressibility (1/GPa) = 0.02060273
#
# Stress axis : x y z
#
# Youngs Moduli (GPa) = 76.84826 76.42024 58.32424
#
# Poissons Ratio (x) = 0.15615 0.46807
# Poissons Ratio (y) = 0.15703 0.07301
# Poissons Ratio (z) = 0.61673 0.09567
#
# Static dielectric constant tensor:
#      x y z
#    x 3.707140 0.000000 0.000000 
#    y 0.000000 3.316830 0.000000 
#    z 0.000000 0.000000 3.370660 
# 
# 
# High freq. dielectric constant tensor:
#      x y z
#    x 1.733650 0.000000 0.000000 
#    y 0.000000 1.698450 0.000000 
#    z 0.000000 0.000000 1.720920 
# 
# From -- ./inp_files/30877.got.cif
#   From: 2010.03.12/outbox.cif.g09.slc.cpg/sg53_16_cif.got.tgz:30877.got - 2010.04.16 14:36:59.
