data_PCOD8217319
_publ_section_title
;
Structure prediction by ZEFSAII (Michael W. Deem and Ramdas Pophale) SiO2 
 PCOD8217319
Probable space group: P N N A
;
_chemical_formula_sum "Si O2"
_cell_formula_units_Z 24
_cell_length_a 7.532301
_cell_length_b 7.503990
_cell_length_c 17.521915
_cell_angle_alpha 90.000000
_cell_angle_beta 90.000000
_cell_angle_gamma 90.000000
_cell_volume 990.379136
_symmetry_space_group_name_H-M "P N N A"
_symmetry_group_IT_number 52
_symmetry_cell_setting 'orthorhombic'
loop_
_space_group_symop_operation_xyz
x,y,z
1/2-x,-y,z
x,1/2-y,1/2-z
1/2-x,1/2+y,1/2-z
-x,-y,-z
1/2+x,y,-z
-x,1/2+y,1/2+z
1/2+x,1/2-y,1/2+z
loop_
_atom_site_type_symbol
_atom_site_label
_atom_site_fract_x
_atom_site_fract_y
_atom_site_fract_z
Si Si1 0.692537 0.811765 0.945305
Si Si2 0.055822 0.662136 0.902972
Si Si3 0.097043 0.232257 0.661926
O O1 0.533825 0.858921 0.886359
O O2 0.855826 0.731363 0.897174
O O3 0.750000 0.000000 0.983161
O O4 0.625799 0.673569 0.009508
O O5 0.058402 0.463332 0.871404
O O6 0.194786 0.778983 0.851848
O O7 0.048815 0.250000 0.750000
#
# Coordination Sequence:
#
# PCOD8217319 Si02
#       3
#     8   8   8
#     4  12  25  43  77 108 144 187 247 295 356 438
#     4  11  25  46  76 103 144 190 242 296 361 428
#     4  11  27  45  70 107 147 190 242 304 366 420
#
# _framework density 24.233142999999998
#
# number of rings (size 3 to 8) (size 9 to 14) (size 15 to 20)
#    0.000    0.667    3.333    3.000    4.667    9.333 
#    0.000    0.000    0.000    0.000    0.000    0.000 
#    0.000    0.000    0.000    0.000    0.000    0.000 
#
# Total GULP energy -297548.248896 kJ/mol
# GULP energy per Si atom -12397.843704 kJ/mol
# Density = 2.417799 g / cm^3
# Si number density = 24.233143 Si / 1000 Ang^3
#
#
#
# Elastic Constant Matrix: (Units=GPa)
#
#
# Indices 1 2 3 4 5 6 
#
# 1 129.3511 25.6179 25.8077 0.0000 0.0000 0.0000
# 2 25.6179 61.9464 40.2710 0.0000 0.0000 0.0000
# 3 25.8077 40.2710 168.0236 0.0000 0.0000 0.0000
# 4 0.0000 0.0000 0.0000 19.9147 0.0000 0.0000
# 5 0.0000 0.0000 0.0000 0.0000 34.6850 0.0000
# 6 0.0000 0.0000 0.0000 0.0000 0.0000 29.0228
#
#
#
# Elastic Compliance Matrix: (Units=1/GPa)
#
#
# Indices 1 2 3 4 5 6 
#
# 1 0.008463 -0.003145 -0.000546 0.000000 0.000000 0.000000
# 2 -0.003145 0.020291 -0.004380 0.000000 0.000000 0.000000
# 3 -0.000546 -0.004380 0.007085 0.000000 0.000000 0.000000
# 4 0.000000 0.000000 0.000000 0.050214 0.000000 0.000000
# 5 0.000000 0.000000 0.000000 0.000000 0.028831 0.000000
# 6 0.000000 0.000000 0.000000 0.000000 0.000000 0.034456
#
#
# Mechanical properties :
#
#
# Convention : Reuss Voigt Hill
#
# Bulk Modulus (GPa) = 50.76951 60.30157 55.53554
# Shear Modulus (GPa) = 29.06176 34.56614 31.81395
#
# Velocity S-wave (km/s) = 3.46679 3.78087 3.62723
# Velocity P-wave (km/s) = 6.08447 6.63309 6.36469
#
# Compressibility (1/GPa) = 0.01969686
#
# Stress axis : x y z
#
# Youngs Moduli (GPa) = 118.16615 49.28282 141.13815
#
# Poissons Ratio (x) = 0.15498 0.07708
# Poissons Ratio (y) = 0.37160 0.61822
# Poissons Ratio (z) = 0.06453 0.21587
#
# Static dielectric constant tensor:
#      x y z
#    x 5.247440 0.000000 0.000000 
#    y 0.000000 4.160470 0.000000 
#    z 0.000000 0.000000 4.122830 
# 
# 
# High freq. dielectric constant tensor:
#      x y z
#    x 1.992920 0.000000 0.000000 
#    y 0.000000 1.955000 0.000000 
#    z 0.000000 0.000000 1.937860 
# 
# From -- ./inp_files/23864.got.cif
#   From: 2010.06.25/outbox.cif.g09.slc.cpg/sg52_12_cif.got.tgz:23864.got - 2010.06.26 19:32:48.
