data_PCOD8217902
_publ_section_title
;
Structure prediction by ZEFSAII (Michael W. Deem and Ramdas Pophale) SiO2 
 PCOD8217902
Probable space group: P M N A
;
_chemical_formula_sum "Si O2"
_cell_formula_units_Z 40
_cell_length_a 9.972167
_cell_length_b 24.848408
_cell_length_c 8.852014
_cell_angle_alpha 90.000000
_cell_angle_beta 90.000000
_cell_angle_gamma 90.000000
_cell_volume 2193.462451
_symmetry_space_group_name_H-M "P M N A"
_symmetry_group_IT_number 53
_symmetry_cell_setting 'orthorhombic'
loop_
_space_group_symop_operation_xyz
x,y,z
1/2-x,-y,1/2+z
x,-y,-z
1/2-x,y,1/2-z
-x,-y,-z
1/2+x,y,1/2-z
-x,y,z
1/2+x,-y,1/2+z
loop_
_atom_site_type_symbol
_atom_site_label
_atom_site_fract_x
_atom_site_fract_y
_atom_site_fract_z
Si Si1 0.345888 0.550085 0.891443
Si Si2 0.745839 0.874768 0.069493
Si Si3 0.500000 0.056668 0.923570
Si Si4 0.000000 0.059967 0.934891
Si Si5 0.846561 0.353852 0.607027
Si Si6 0.344423 0.764725 0.106942
O O1 0.250000 0.543121 0.750000
O O2 0.500000 0.552544 0.836431
O O3 0.321949 0.500000 0.000000
O O4 0.304528 0.604304 0.978658
O O5 0.750000 0.870112 0.250000
O O6 0.627766 0.912548 0.013683
O O7 0.877275 0.903779 0.005879
O O8 0.717793 0.813923 0.006541
O O9 0.500000 0.052338 0.743698
O O10 0.500000 0.000000 0.000000
O O11 0.000000 0.000000 0.000000
O O12 0.750000 0.361267 0.750000
O O13 0.836406 0.294185 0.530057
O O14 0.000000 0.364249 0.661343
O O15 0.250000 0.759027 0.250000
O O16 0.500000 0.778789 0.150046
#
# Coordination Sequence:
#
# PCOD8217902 Si02
#       6
#     8   8   4   4   8   8
#     4  10  21  36  55  79 109 144 180 219 259 304
#     4   9  17  28  45  68  92 121 154 197 241 288
#     4  10  18  30  48  68  88 118 159 192 235 292
#     4  10  20  32  46  66  96 122 151 198 245 286
#     4   9  18  32  51  78 108 135 170 215 261 308
#     4   9  16  27  46  72  99 126 159 204 248 291
#
# _framework density 18.236007000000001
#
# number of rings (size 3 to 8) (size 9 to 14) (size 15 to 20)
#    0.000    2.600    1.000    1.200    4.200    1.200 
#    0.000    0.000    0.000    2.400    0.000    0.000 
#    0.000    0.000    0.000    0.000    0.000    0.000 
#
# Total GULP energy -495573.610835 kJ/mol
# GULP energy per Si atom -12389.340271 kJ/mol
# Density = 1.819450 g / cm^3
# Si number density = 18.236007 Si / 1000 Ang^3
#
#
#
# Elastic Constant Matrix: (Units=GPa)
#
#
# Indices 1 2 3 4 5 6 
#
# 1 134.7004 68.3666 39.6979 0.0000 0.0000 0.0000
# 2 68.3666 176.2465 38.7580 0.0000 0.0000 0.0000
# 3 39.6979 38.7580 46.4242 0.0000 0.0000 0.0000
# 4 0.0000 0.0000 0.0000 25.2838 0.0000 0.0000
# 5 0.0000 0.0000 0.0000 0.0000 16.5289 0.0000
# 6 0.0000 0.0000 0.0000 0.0000 0.0000 34.2825
#
#
#
# Elastic Compliance Matrix: (Units=1/GPa)
#
#
# Indices 1 2 3 4 5 6 
#
# 1 0.010854 -0.002657 -0.007063 0.000000 0.000000 0.000000
# 2 -0.002657 0.007600 -0.004073 0.000000 0.000000 0.000000
# 3 -0.007063 -0.004073 0.030981 0.000000 0.000000 0.000000
# 4 0.000000 0.000000 0.000000 0.039551 0.000000 0.000000
# 5 0.000000 0.000000 0.000000 0.000000 0.060500 0.000000
# 6 0.000000 0.000000 0.000000 0.000000 0.000000 0.029169
#
#
# Mechanical properties :
#
#
# Convention : Reuss Voigt Hill
#
# Bulk Modulus (GPa) = 45.76982 72.33511 59.05246
# Shear Modulus (GPa) = 23.41646 29.25563 26.33605
#
# Velocity S-wave (km/s) = 3.58729 4.00969 3.80436
# Velocity P-wave (km/s) = 6.50471 7.82234 7.19376
#
# Compressibility (1/GPa) = 0.02184846
#
# Stress axis : x y z
#
# Youngs Moduli (GPa) = 92.13133 131.57420 32.27810
#
# Poissons Ratio (x) = 0.34960 0.22798
# Poissons Ratio (y) = 0.24480 0.13147
# Poissons Ratio (z) = 0.65074 0.53592
#
# Static dielectric constant tensor:
#      x y z
#    x 3.629640 0.000000 0.000000 
#    y 0.000000 4.029050 0.000000 
#    z 0.000000 0.000000 2.708870 
# 
# 
# High freq. dielectric constant tensor:
#      x y z
#    x 1.724240 0.000000 0.000000 
#    y 0.000000 1.740380 0.000000 
#    z 0.000000 0.000000 1.636120 
# 
# From -- ./inp_files/6458.got.cif
#   From: 2010.03.12/outbox.cif.g09.slc.cpg/sg53_4_cif.got.tgz:6458.got - 2010.04.16 14:36:59.
