data_PCOD8217097
_publ_section_title
;
Structure prediction by ZEFSAII (Michael W. Deem and Ramdas Pophale) SiO2 
 PCOD8217097
Probable space group: P N N A
;
_chemical_formula_sum "Si O2"
_cell_formula_units_Z 40
_cell_length_a 9.483596
_cell_length_b 12.600004
_cell_length_c 15.529046
_cell_angle_alpha 90.000000
_cell_angle_beta 90.000000
_cell_angle_gamma 90.000000
_cell_volume 1855.617691
_symmetry_space_group_name_H-M "P N N A"
_symmetry_group_IT_number 52
_symmetry_cell_setting 'orthorhombic'
loop_
_space_group_symop_operation_xyz
x,y,z
1/2-x,-y,z
x,1/2-y,1/2-z
1/2-x,1/2+y,1/2-z
-x,-y,-z
1/2+x,y,-z
-x,1/2+y,1/2+z
1/2+x,1/2-y,1/2+z
loop_
_atom_site_type_symbol
_atom_site_label
_atom_site_fract_x
_atom_site_fract_y
_atom_site_fract_z
Si Si1 0.587321 0.032384 0.415508
Si Si2 0.623599 0.418950 0.805103
Si Si3 0.125692 0.072524 0.968971
Si Si4 0.477704 0.743194 0.654046
Si Si5 0.802896 0.801021 0.863720
O O1 0.571870 0.158219 0.403569
O O2 0.750000 0.000000 0.426734
O O3 0.500000 0.000000 0.500000
O O4 0.522230 0.977328 0.329644
O O5 0.750000 0.500000 0.828383
O O6 0.620331 0.312576 0.863034
O O7 0.632033 0.384626 0.705011
O O8 0.083373 0.137619 0.886291
O O9 0.250000 0.000000 0.935356
O O10 0.182617 0.149005 0.043378
O O11 0.000000 0.000000 0.000000
O O12 0.415415 0.750000 0.750000
O O13 0.644330 0.728134 0.660119
#
# Coordination Sequence:
#
# PCOD8217097 Si02
#       5
#     8   8   8   8   8
#     4  12  28  46  74 107 151 195 247 308 373 437
#     4  11  21  43  77 106 138 192 250 300 361 440
#     4  12  27  45  74 106 147 188 246 305 371 432
#     4  12  26  48  75 108 146 194 245 304 366 447
#     4  11  23  44  76 107 141 194 250 292 366 451
#
# _framework density 21.556163999999999
#
# number of rings (size 3 to 8) (size 9 to 14) (size 15 to 20)
#    0.000    0.400    6.000    2.400    5.600    2.400 
#    3.600    0.000    0.000    0.000    0.000    0.000 
#    0.000    0.000    0.000    0.000    0.000    0.000 
#
# Total GULP energy -496056.910828 kJ/mol
# GULP energy per Si atom -12401.422771 kJ/mol
# Density = 2.150710 g / cm^3
# Si number density = 21.556164 Si / 1000 Ang^3
#
#
#
# Elastic Constant Matrix: (Units=GPa)
#
#
# Indices 1 2 3 4 5 6 
#
# 1 131.9173 42.2782 32.3362 0.0000 0.0000 0.0000
# 2 42.2782 129.8772 39.6992 0.0000 0.0000 0.0000
# 3 32.3362 39.6992 102.9554 0.0000 0.0000 0.0000
# 4 0.0000 0.0000 0.0000 38.9619 0.0000 0.0000
# 5 0.0000 0.0000 0.0000 0.0000 26.2739 0.0000
# 6 0.0000 0.0000 0.0000 0.0000 0.0000 30.8276
#
#
#
# Elastic Compliance Matrix: (Units=1/GPa)
#
#
# Indices 1 2 3 4 5 6 
#
# 1 0.008772 -0.002282 -0.001875 0.000000 0.000000 0.000000
# 2 -0.002282 0.009322 -0.002878 0.000000 0.000000 0.000000
# 3 -0.001875 -0.002878 0.011411 0.000000 0.000000 0.000000
# 4 0.000000 0.000000 0.000000 0.025666 0.000000 0.000000
# 5 0.000000 0.000000 0.000000 0.000000 0.038061 0.000000
# 6 0.000000 0.000000 0.000000 0.000000 0.000000 0.032439
#
#
# Mechanical properties :
#
#
# Convention : Reuss Voigt Hill
#
# Bulk Modulus (GPa) = 64.78675 65.93078 65.35876
# Shear Modulus (GPa) = 34.51005 35.90844 35.20925
#
# Velocity S-wave (km/s) = 4.00551 4.08586 4.04588
# Velocity P-wave (km/s) = 7.17720 7.27399 7.22576
#
# Compressibility (1/GPa) = 0.01543525
#
# Stress axis : x y z
#
# Youngs Moduli (GPa) = 114.00514 107.27145 87.63109
#
# Poissons Ratio (x) = 0.24482 0.16430
# Poissons Ratio (y) = 0.26019 0.25218
# Poissons Ratio (z) = 0.21375 0.30870
#
# Static dielectric constant tensor:
#      x y z
#    x 3.865030 0.000000 0.000000 
#    y 0.000000 4.227610 0.000000 
#    z 0.000000 0.000000 4.107420 
# 
# 
# High freq. dielectric constant tensor:
#      x y z
#    x 1.834740 0.000000 0.000000 
#    y 0.000000 1.874500 0.000000 
#    z 0.000000 0.000000 1.851710 
# 
# From -- ./inp_files/30884.got.cif
#   From: 2010.06.25/outbox.cif.g09.slc.cpg/sg52_16_cif.got.tgz:30884.got - 2010.06.26 19:32:48.
