data_PCOD8217137
_publ_section_title
;
Structure prediction by ZEFSAII (Michael W. Deem and Ramdas Pophale) SiO2 
 PCOD8217137
Probable space group: P N N A
;
_chemical_formula_sum "Si O2"
_cell_formula_units_Z 56
_cell_length_a 21.642993
_cell_length_b 14.187316
_cell_length_c 9.426183
_cell_angle_alpha 90.000000
_cell_angle_beta 90.000000
_cell_angle_gamma 90.000000
_cell_volume 2894.365867
_symmetry_space_group_name_H-M "P N N A"
_symmetry_group_IT_number 52
_symmetry_cell_setting 'orthorhombic'
loop_
_space_group_symop_operation_xyz
x,y,z
1/2-x,-y,z
x,1/2-y,1/2-z
1/2-x,1/2+y,1/2-z
-x,-y,-z
1/2+x,y,-z
-x,1/2+y,1/2+z
1/2+x,1/2-y,1/2+z
loop_
_atom_site_type_symbol
_atom_site_label
_atom_site_fract_x
_atom_site_fract_y
_atom_site_fract_z
Si Si1 0.070974 0.502002 0.470676
Si Si2 0.882022 0.642985 0.739997
Si Si3 0.349631 0.998889 0.757830
Si Si4 0.882764 0.142777 0.742478
Si Si5 0.249520 0.351292 0.679887
Si Si6 0.926797 0.500327 0.974462
Si Si7 0.248330 0.610167 0.358645
O O1 0.091994 0.402861 0.403687
O O2 0.105480 0.522673 0.614619
O O3 0.084218 0.588680 0.368609
O O4 0.000000 0.500000 0.500000
O O5 0.905397 0.750000 0.750000
O O6 0.907598 0.587431 0.875291
O O7 0.807673 0.640091 0.732650
O O8 0.315776 0.900057 0.786824
O O9 0.302455 0.085772 0.747189
O O10 0.390751 0.987565 0.619643
O O11 0.904771 0.250000 0.750000
O O12 0.905072 0.098273 0.594279
O O13 0.808855 0.134729 0.757345
O O14 0.251445 0.250000 0.750000
O O15 0.257490 0.337930 0.510220
O O16 0.000000 0.500000 0.000000
O O17 0.250000 0.500000 0.396544
#
# Coordination Sequence:
#
# PCOD8217137 Si02
#       7
#     8   8   8   8   8   8   8
#     4  11  22  43  68  86 124 181 214 254 320 377
#     4  11  24  42  68  96 127 166 216 266 318 385
#     4  11  22  41  64  91 129 163 210 260 322 380
#     4  11  24  42  68  96 127 166 216 266 318 385
#     4  11  23  37  64  98 130 159 204 267 322 382
#     4  11  26  44  62  95 133 165 217 273 312 370
#     4  12  19  44  68  94 128 171 212 256 330 398
#
# _framework density 19.347933000000001
#
# number of rings (size 3 to 8) (size 9 to 14) (size 15 to 20)
#    0.000    0.857    7.143    2.143    4.000    3.429 
#    0.000    2.857    0.000    0.000    0.000    0.000 
#    0.000    0.000    0.000    0.000    0.000    0.000 
#
# Total GULP energy -694625.179182 kJ/mol
# GULP energy per Si atom -12404.021057 kJ/mol
# Density = 1.930390 g / cm^3
# Si number density = 19.347933 Si / 1000 Ang^3
#
#
#
# Elastic Constant Matrix: (Units=GPa)
#
#
# Indices 1 2 3 4 5 6 
#
# 1 140.8815 24.2815 34.5672 0.0000 0.0000 0.0000
# 2 24.2815 139.3207 22.5567 0.0000 0.0000 0.0000
# 3 34.5672 22.5567 94.6533 0.0000 0.0000 0.0000
# 4 0.0000 0.0000 0.0000 19.3912 0.0000 0.0000
# 5 0.0000 0.0000 0.0000 0.0000 50.8282 0.0000
# 6 0.0000 0.0000 0.0000 0.0000 0.0000 5.8405
#
#
#
# Elastic Compliance Matrix: (Units=1/GPa)
#
#
# Indices 1 2 3 4 5 6 
#
# 1 0.007915 -0.000948 -0.002665 0.000000 0.000000 0.000000
# 2 -0.000948 0.007579 -0.001460 0.000000 0.000000 0.000000
# 3 -0.002665 -0.001460 0.011886 0.000000 0.000000 0.000000
# 4 0.000000 0.000000 0.000000 0.051570 0.000000 0.000000
# 5 0.000000 0.000000 0.000000 0.000000 0.019674 0.000000
# 6 0.000000 0.000000 0.000000 0.000000 0.000000 0.171218
#
#
# Mechanical properties :
#
#
# Convention : Reuss Voigt Hill
#
# Bulk Modulus (GPa) = 58.02140 59.74071 58.88106
# Shear Modulus (GPa) = 17.49887 34.77531 26.13709
#
# Velocity S-wave (km/s) = 3.01064 4.24413 3.67944
# Velocity P-wave (km/s) = 6.49144 7.41357 6.96777
#
# Compressibility (1/GPa) = 0.01723502
#
# Stress axis : x y z
#
# Youngs Moduli (GPa) = 126.33587 131.93827 84.13289
#
# Poissons Ratio (x) = 0.12509 0.22419
# Poissons Ratio (y) = 0.11978 0.12283
# Poissons Ratio (z) = 0.33665 0.19263
#
# Static dielectric constant tensor:
#      x y z
#    x 3.685150 0.000000 0.000000 
#    y 0.000000 3.658890 0.000000 
#    z 0.000000 0.000000 3.573360 
# 
# 
# High freq. dielectric constant tensor:
#      x y z
#    x 1.762570 0.000000 0.000000 
#    y 0.000000 1.752410 0.000000 
#    z 0.000000 0.000000 1.760500 
# 
# From -- ./inp_files/10796.got.cif
#   From: 2010.06.25/outbox.cif.g09.slc.cpg/sg52_6_cif.got.tgz:10796.got - 2010.06.26 19:32:48.
