data_PCOD8217641
_publ_section_title
;
Structure prediction by ZEFSAII (Michael W. Deem and Ramdas Pophale) SiO2 
 PCOD8217641
Probable space group: P M N A
;
_chemical_formula_sum "Si O2"
_cell_formula_units_Z 48
_cell_length_a 24.646532
_cell_length_b 7.815199
_cell_length_c 15.053307
_cell_angle_alpha 90.000000
_cell_angle_beta 90.000000
_cell_angle_gamma 90.000000
_cell_volume 2899.531147
_symmetry_space_group_name_H-M "P M N A"
_symmetry_group_IT_number 53
_symmetry_cell_setting 'orthorhombic'
loop_
_space_group_symop_operation_xyz
x,y,z
1/2-x,-y,1/2+z
x,-y,-z
1/2-x,y,1/2-z
-x,-y,-z
1/2+x,y,1/2-z
-x,y,z
1/2+x,-y,1/2+z
loop_
_atom_site_type_symbol
_atom_site_label
_atom_site_fract_x
_atom_site_fract_y
_atom_site_fract_z
Si Si1 0.152061 0.542626 0.784503
Si Si2 0.188104 0.178767 0.755586
Si Si3 0.200483 0.836767 0.682105
Si Si4 0.439234 0.432048 0.598962
Si Si5 0.227833 0.354172 0.059761
Si Si6 0.856647 0.844271 0.059481
O O1 0.154549 0.354042 0.738548
O O2 0.156602 0.693249 0.711807
O O3 0.094828 0.559277 0.836648
O O4 0.202215 0.557301 0.853062
O O5 0.250000 0.234647 0.750000
O O6 0.176873 0.097695 0.853582
O O7 0.173689 0.027758 0.683469
O O8 0.250000 0.850305 0.750000
O O9 0.225760 0.783631 0.586617
O O10 0.440855 0.500000 0.500000
O O11 0.500000 0.412908 0.637420
O O12 0.410065 0.248980 0.595908
O O13 0.256436 0.500000 0.000000
O O14 0.179923 0.275243 0.001904
O O15 0.876756 0.000000 0.000000
#
# Coordination Sequence:
#
# PCOD8217641 Si02
#       6
#     8   8   8   8   8   8
#     4  10  17  31  47  59  87 125 156 188 236 263
#     4  10  18  28  41  63  86 119 156 182 221 274
#     4   9  19  28  44  63  91 117 159 187 222 276
#     4  10  19  31  45  62  88 121 165 202 231 271
#     4  11  17  31  44  69  92 126 160 187 229 283
#     4  11  19  28  47  63  94 124 156 196 229 273
#
# _framework density 16.554400000000001
#
# number of rings (size 3 to 8) (size 9 to 14) (size 15 to 20)
#    0.000    1.833    5.000    4.500    0.000    0.333 
#    0.000    0.000    0.000    0.000    0.000    0.000 
#    0.000    0.667    0.000    6.000    0.000    3.000 
#
# Total GULP energy -594824.658867 kJ/mol
# GULP energy per Si atom -12392.180393 kJ/mol
# Density = 1.651672 g / cm^3
# Si number density = 16.554400 Si / 1000 Ang^3
#
#
#
# Elastic Constant Matrix: (Units=GPa)
#
#
# Indices 1 2 3 4 5 6 
#
# 1 73.0815 20.8686 21.4880 0.0000 0.0000 0.0000
# 2 20.8686 93.3901 14.6244 0.0000 0.0000 0.0000
# 3 21.4880 14.6244 26.2505 0.0000 0.0000 0.0000
# 4 0.0000 0.0000 0.0000 28.2626 0.0000 0.0000
# 5 0.0000 0.0000 0.0000 0.0000 19.4748 0.0000
# 6 0.0000 0.0000 0.0000 0.0000 0.0000 -1.1261
#
#
#
# Elastic Compliance Matrix: (Units=1/GPa)
#
#
# Indices 1 2 3 4 5 6 
#
# 1 0.018327 -0.001913 -0.013937 0.000000 0.000000 0.000000
# 2 -0.001913 0.011931 -0.005081 0.000000 0.000000 0.000000
# 3 -0.013937 -0.005081 0.052333 0.000000 0.000000 0.000000
# 4 0.000000 0.000000 0.000000 0.035382 0.000000 0.000000
# 5 0.000000 0.000000 0.000000 0.000000 0.051348 0.000000
# 6 0.000000 0.000000 0.000000 0.000000 0.000000 -0.888056
#
#
# Mechanical properties :
#
#
# Convention : Reuss Voigt Hill
#
# Bulk Modulus (GPa) = 24.55155 34.07602 29.31378
# Shear Modulus (GPa) = -7.53811 18.37168 5.41678
#
# Velocity S-wave (km/s) = -2.13622 3.33494 1.81086
# Velocity P-wave (km/s) = 2.96285 5.95467 4.70301
#
# Compressibility (1/GPa) = 0.04073063
#
# Stress axis : x y z
#
# Youngs Moduli (GPa) = 54.56332 83.81607 19.10829
#
# Poissons Ratio (x) = 0.16034 0.26630
# Poissons Ratio (y) = 0.10438 0.09709
# Poissons Ratio (z) = 0.76042 0.42586
#
# Static dielectric constant tensor:
#      x y z
#    x 2.973570 0.000000 0.000000 
#    y 0.000000 3.584710 0.000000 
#    z 0.000000 0.000000 3.183550 
# 
# 
# High freq. dielectric constant tensor:
#      x y z
#    x 1.585480 0.000000 0.000000 
#    y 0.000000 1.653820 0.000000 
#    z 0.000000 0.000000 1.609210 
# 
# From -- ./inp_files/24607.got.cif
#   From: 2010.03.12/outbox.cif.g09.slc.cpg/sg53_13_cif.got.tgz:24607.got - 2010.04.16 14:36:59.
