data_PCOD8217541
_publ_section_title
;
Structure prediction by ZEFSAII (Michael W. Deem and Ramdas Pophale) SiO2 
 PCOD8217541
Probable space group: P M N A
;
_chemical_formula_sum "Si O2"
_cell_formula_units_Z 48
_cell_length_a 8.809205
_cell_length_b 10.359144
_cell_length_c 29.890007
_cell_angle_alpha 90.000000
_cell_angle_beta 90.000000
_cell_angle_gamma 90.000000
_cell_volume 2727.637192
_symmetry_space_group_name_H-M "P M N A"
_symmetry_group_IT_number 53
_symmetry_cell_setting 'orthorhombic'
loop_
_space_group_symop_operation_xyz
x,y,z
1/2-x,-y,1/2+z
x,-y,-z
1/2-x,y,1/2-z
-x,-y,-z
1/2+x,y,1/2-z
-x,y,z
1/2+x,-y,1/2+z
loop_
_atom_site_type_symbol
_atom_site_label
_atom_site_fract_x
_atom_site_fract_y
_atom_site_fract_z
Si Si1 0.679088 0.878856 0.472529
Si Si2 0.679375 0.281743 0.294736
Si Si3 0.320883 0.369823 0.474783
Si Si4 0.323986 0.003390 0.208286
Si Si5 0.326528 0.985595 0.110102
Si Si6 0.820387 0.282399 0.385894
O O1 0.500000 0.880012 0.473489
O O2 0.739953 0.747521 0.494565
O O3 0.746443 0.000000 0.500000
O O4 0.731552 0.890516 0.421328
O O5 0.750000 0.348991 0.250000
O O6 0.500000 0.300020 0.294359
O O7 0.725537 0.132555 0.294282
O O8 0.747021 0.341489 0.340613
O O9 0.275319 0.500000 0.500000
O O10 0.500000 0.360119 0.466255
O O11 0.237091 0.367689 0.427231
O O12 0.250000 0.922444 0.250000
O O13 0.500000 0.037104 0.217202
O O14 0.306902 0.931108 0.160792
O O15 0.500000 0.979560 0.094708
O O16 0.268230 0.133586 0.106855
O O17 0.000000 0.290980 0.380935
#
# Coordination Sequence:
#
# PCOD8217541 Si02
#       6
#     8   8   8   8   8   8
#     4  10  19  31  49  72  94 122 165 201 235 288
#     4  10  17  26  42  65  95 128 161 198 243 290
#     4  10  21  36  51  70  98 130 163 204 251 296
#     4   9  16  26  39  62  94 127 160 194 240 291
#     4   9  18  29  44  68  96 126 159 199 243 287
#     4  10  19  31  47  69  97 128 164 201 244 292
#
# _framework density 17.597650000000002
#
# number of rings (size 3 to 8) (size 9 to 14) (size 15 to 20)
#    0.000    2.333    1.667    4.500    0.000    4.667 
#    0.000    0.000    0.000    0.000    0.000    1.167 
#    0.000    2.667    0.000    0.000    0.000    0.000 
#
# Total GULP energy -594951.673067 kJ/mol
# GULP energy per Si atom -12394.826522 kJ/mol
# Density = 1.755760 g / cm^3
# Si number density = 17.597650 Si / 1000 Ang^3
#
#
#
# Elastic Constant Matrix: (Units=GPa)
#
#
# Indices 1 2 3 4 5 6 
#
# 1 77.6408 25.2652 60.1749 0.0000 0.0000 0.0000
# 2 25.2652 63.9709 47.7928 0.0000 0.0000 0.0000
# 3 60.1749 47.7928 176.2356 0.0000 0.0000 0.0000
# 4 0.0000 0.0000 0.0000 14.5836 0.0000 0.0000
# 5 0.0000 0.0000 0.0000 0.0000 38.8230 0.0000
# 6 0.0000 0.0000 0.0000 0.0000 0.0000 11.5235
#
#
#
# Elastic Compliance Matrix: (Units=1/GPa)
#
#
# Indices 1 2 3 4 5 6 
#
# 1 0.018010 -0.003159 -0.005293 0.000000 0.000000 0.000000
# 2 -0.003159 0.020158 -0.004388 0.000000 0.000000 0.000000
# 3 -0.005293 -0.004388 0.008671 0.000000 0.000000 0.000000
# 4 0.000000 0.000000 0.000000 0.068570 0.000000 0.000000
# 5 0.000000 0.000000 0.000000 0.000000 0.025758 0.000000
# 6 0.000000 0.000000 0.000000 0.000000 0.000000 0.086779
#
#
# Mechanical properties :
#
#
# Convention : Reuss Voigt Hill
#
# Bulk Modulus (GPa) = 47.25873 64.92370 56.09121
# Shear Modulus (GPa) = 19.18070 25.29365 22.23718
#
# Velocity S-wave (km/s) = 3.30503 3.79533 3.55863
# Velocity P-wave (km/s) = 6.44032 7.49530 6.98775
#
# Compressibility (1/GPa) = 0.02116011
#
# Stress axis : x y z
#
# Youngs Moduli (GPa) = 55.52524 49.60820 115.32162
#
# Poissons Ratio (x) = 0.15670 0.61037
# Poissons Ratio (y) = 0.17539 0.50604
# Poissons Ratio (z) = 0.29388 0.21768
#
# Static dielectric constant tensor:
#      x y z
#    x 3.209880 0.000000 0.000000 
#    y 0.000000 2.768770 0.000000 
#    z 0.000000 0.000000 3.966330 
# 
# 
# High freq. dielectric constant tensor:
#      x y z
#    x 1.684570 0.000000 0.000000 
#    y 0.000000 1.602020 0.000000 
#    z 0.000000 0.000000 1.708730 
# 
# From -- ./inp_files/37904.got.cif
#   From: 2010.03.12/outbox.cif.g09.slc.cpg/sg53_19_cif.got.tgz:37904.got - 2010.04.16 14:36:59.
