data_PCOD8217917
_publ_section_title
;
Structure prediction by ZEFSAII (Michael W. Deem and Ramdas Pophale) SiO2 
 PCOD8217917
Probable space group: P M N A
;
_chemical_formula_sum "Si O2"
_cell_formula_units_Z 64
_cell_length_a 9.191210
_cell_length_b 16.221141
_cell_length_c 22.294309
_cell_angle_alpha 90.000000
_cell_angle_beta 90.000000
_cell_angle_gamma 90.000000
_cell_volume 3323.901186
_symmetry_space_group_name_H-M "P M N A"
_symmetry_group_IT_number 53
_symmetry_cell_setting 'orthorhombic'
loop_
_space_group_symop_operation_xyz
x,y,z
1/2-x,-y,1/2+z
x,-y,-z
1/2-x,y,1/2-z
-x,-y,-z
1/2+x,y,1/2-z
-x,y,z
1/2+x,-y,1/2+z
loop_
_atom_site_type_symbol
_atom_site_label
_atom_site_fract_x
_atom_site_fract_y
_atom_site_fract_z
Si Si1 0.175506 0.884575 0.814167
Si Si2 0.330424 0.719476 0.123460
Si Si3 0.665343 0.573452 0.422574
Si Si4 0.165738 0.610264 0.939551
Si Si5 0.172641 0.230613 0.400300
Si Si6 0.840854 0.836319 0.197956
Si Si7 0.331294 0.851995 0.023893
Si Si8 0.340628 0.971336 0.401438
O O1 0.250000 0.901884 0.750000
O O2 0.240388 0.800071 0.841438
O O3 0.000000 0.881791 0.807017
O O4 0.226306 0.954417 0.862012
O O5 0.500000 0.720493 0.136106
O O6 0.277472 0.626089 0.116249
O O7 0.248103 0.754396 0.181302
O O8 0.288624 0.774293 0.065284
O O9 0.500000 0.598670 0.407149
O O10 0.698254 0.594321 0.491267
O O11 0.690655 0.477460 0.406852
O O12 0.277711 0.676231 0.912991
O O13 0.000000 0.641169 0.929998
O O14 0.214605 0.171486 0.456326
O O15 0.000000 0.230099 0.388547
O O16 0.750000 0.882553 0.250000
O O17 0.855299 0.894157 0.141642
O O18 0.000000 0.812061 0.222035
O O19 0.500000 0.870641 0.029260
O O20 0.255143 0.938598 0.042662
O O21 0.500000 0.996960 0.425732
#
# Coordination Sequence:
#
# PCOD8217917 Si02
#       8
#     8   8   8   8   8   8   8   8
#     4  11  24  42  61  82 105 139 186 234 279 324
#     4  10  18  30  48  74 108 145 180 218 261 315
#     4   9  17  30  50  78 110 143 179 218 264 318
#     4   9  18  32  52  79 110 144 179 218 266 319
#     4  11  22  37  56  82 114 147 183 226 272 324
#     4  10  19  32  50  74 102 138 179 222 269 320
#     4   9  19  33  51  79 114 147 178 214 268 323
#     4   9  20  36  56  80 107 139 179 224 273 325
#
# _framework density 19.254481999999999
#
# number of rings (size 3 to 8) (size 9 to 14) (size 15 to 20)
#    0.000    2.250    1.250    2.625    0.000    4.000 
#    0.000    3.750    0.000    0.750    0.000    0.000 
#    0.000    0.000    0.000    0.000    0.000    0.000 
#
# Total GULP energy -793332.226418 kJ/mol
# GULP energy per Si atom -12395.816038 kJ/mol
# Density = 1.921066 g / cm^3
# Si number density = 19.254482 Si / 1000 Ang^3
#
#
#
# Elastic Constant Matrix: (Units=GPa)
#
#
# Indices 1 2 3 4 5 6 
#
# 1 99.3268 43.8653 29.0214 0.0000 0.0000 0.0000
# 2 43.8653 89.5686 27.0918 0.0000 0.0000 0.0000
# 3 29.0214 27.0918 38.6597 0.0000 0.0000 0.0000
# 4 0.0000 0.0000 0.0000 16.4037 0.0000 0.0000
# 5 0.0000 0.0000 0.0000 0.0000 27.9741 0.0000
# 6 0.0000 0.0000 0.0000 0.0000 0.0000 29.2664
#
#
#
# Elastic Compliance Matrix: (Units=1/GPa)
#
#
# Indices 1 2 3 4 5 6 
#
# 1 0.014348 -0.004783 -0.007419 0.000000 0.000000 0.000000
# 2 -0.004783 0.015762 -0.007455 0.000000 0.000000 0.000000
# 3 -0.007419 -0.007455 0.036661 0.000000 0.000000 0.000000
# 4 0.000000 0.000000 0.000000 0.060962 0.000000 0.000000
# 5 0.000000 0.000000 0.000000 0.000000 0.035747 0.000000
# 6 0.000000 0.000000 0.000000 0.000000 0.000000 0.034169
#
#
# Mechanical properties :
#
#
# Convention : Reuss Voigt Hill
#
# Bulk Modulus (GPa) = 36.42162 47.50135 41.96149
# Shear Modulus (GPa) = 20.31577 23.23394 21.77485
#
# Velocity S-wave (km/s) = 3.25178 3.47749 3.36653
# Velocity P-wave (km/s) = 5.74942 6.39123 6.07880
#
# Compressibility (1/GPa) = 0.02745622
#
# Stress axis : x y z
#
# Youngs Moduli (GPa) = 69.69814 63.44432 27.27713
#
# Poissons Ratio (x) = 0.30342 0.20237
# Poissons Ratio (y) = 0.33333 0.20336
# Poissons Ratio (z) = 0.51710 0.47300
#
# Static dielectric constant tensor:
#      x y z
#    x 3.643560 0.000000 0.000000 
#    y 0.000000 3.510640 0.000000 
#    z 0.000000 0.000000 3.396420 
# 
# 
# High freq. dielectric constant tensor:
#      x y z
#    x 1.754420 0.000000 0.000000 
#    y 0.000000 1.742240 0.000000 
#    z 0.000000 0.000000 1.726520 
# 
# From -- ./inp_files/34342.got.cif
#   From: 2010.03.12/outbox.cif.g09.slc.cpg/sg53_18_cif.got.tgz:34342.got - 2010.04.16 14:36:59.
