data_PCOD8217781
_publ_section_title
;
Structure prediction by ZEFSAII (Michael W. Deem and Ramdas Pophale) SiO2 
 PCOD8217781
Probable space group: P M N A
;
_chemical_formula_sum "Si O2"
_cell_formula_units_Z 36
_cell_length_a 13.661271
_cell_length_b 10.588154
_cell_length_c 12.467066
_cell_angle_alpha 90.000000
_cell_angle_beta 90.000000
_cell_angle_gamma 90.000000
_cell_volume 1803.331689
_symmetry_space_group_name_H-M "P M N A"
_symmetry_group_IT_number 53
_symmetry_cell_setting 'orthorhombic'
loop_
_space_group_symop_operation_xyz
x,y,z
1/2-x,-y,1/2+z
x,-y,-z
1/2-x,y,1/2-z
-x,-y,-z
1/2+x,y,1/2-z
-x,y,z
1/2+x,-y,1/2+z
loop_
_atom_site_type_symbol
_atom_site_label
_atom_site_fract_x
_atom_site_fract_y
_atom_site_fract_z
Si Si1 0.750000 0.086196 0.750000
Si Si2 0.719704 0.137668 0.980325
Si Si3 0.390798 0.902469 0.633457
Si Si4 0.693993 0.602843 0.915627
Si Si5 0.607844 0.623352 0.690895
O O1 0.719498 0.170672 0.852969
O O2 0.840723 0.000901 0.786462
O O3 0.831053 0.118784 0.022882
O O4 0.670343 0.255017 0.041769
O O5 0.666343 0.000000 0.000000
O O6 0.500000 0.947576 0.603692
O O7 0.392840 0.773803 0.700234
O O8 0.633383 0.574012 0.808995
O O9 0.810099 0.581224 0.894623
O O10 0.657713 0.500000 0.000000
O O11 0.500000 0.572084 0.656414
#
# Coordination Sequence:
#
# PCOD8217781 Si02
#       5
#     4   8   8   8   8
#     4  10  18  28  48  76 108 130 158 216 268 292
#     4   9  18  32  51  74 103 133 165 207 253 296
#     4   9  17  32  54  75  98 136 178 206 240 301
#     4  10  20  34  54  77 101 133 170 207 252 302
#     4   9  18  34  54  73  98 136 176 206 240 300
#
# _framework density 19.963049000000002
#
# number of rings (size 3 to 8) (size 9 to 14) (size 15 to 20)
#    0.000    2.667    0.000    4.000    0.000    6.667 
#    0.000    1.111    0.000   14.667    0.000    0.000 
#    0.000    0.000    0.000    0.000    0.000    0.000 
#
# Total GULP energy -446065.414092 kJ/mol
# GULP energy per Si atom -12390.705947 kJ/mol
# Density = 1.991761 g / cm^3
# Si number density = 19.963049 Si / 1000 Ang^3
#
#
#
# Elastic Constant Matrix: (Units=GPa)
#
#
# Indices 1 2 3 4 5 6 
#
# 1 51.9877 -1.7796 -0.4642 0.0000 0.0000 0.0000
# 2 -1.7796 66.9195 16.8121 0.0000 0.0000 0.0000
# 3 -0.4642 16.8121 114.9128 0.0000 0.0000 0.0000
# 4 0.0000 0.0000 0.0000 35.4326 0.0000 0.0000
# 5 0.0000 0.0000 0.0000 0.0000 14.3980 0.0000
# 6 0.0000 0.0000 0.0000 0.0000 0.0000 13.7377
#
#
#
# Elastic Compliance Matrix: (Units=1/GPa)
#
#
# Indices 1 2 3 4 5 6 
#
# 1 0.019253 0.000511 0.000003 0.000000 0.000000 0.000000
# 2 0.000511 0.015527 -0.002270 0.000000 0.000000 0.000000
# 3 0.000003 -0.002270 0.009034 0.000000 0.000000 0.000000
# 4 0.000000 0.000000 0.000000 0.028223 0.000000 0.000000
# 5 0.000000 0.000000 0.000000 0.000000 0.069454 0.000000
# 6 0.000000 0.000000 0.000000 0.000000 0.000000 0.072792
#
#
# Mechanical properties :
#
#
# Convention : Reuss Voigt Hill
#
# Bulk Modulus (GPa) = 24.81174 29.21740 27.01457
# Shear Modulus (GPa) = 21.62365 27.33046 24.47705
#
# Velocity S-wave (km/s) = 3.29475 3.70408 3.50540
# Velocity P-wave (km/s) = 5.18938 5.74118 5.47224
#
# Compressibility (1/GPa) = 0.04030351
#
# Stress axis : x y z
#
# Youngs Moduli (GPa) = 51.94041 64.40352 110.68913
#
# Poissons Ratio (x) = -0.03293 -0.00033
# Poissons Ratio (y) = -0.02655 0.25122
# Poissons Ratio (z) = -0.00015 0.14617
#
# Static dielectric constant tensor:
#      x y z
#    x 3.535990 0.000000 0.000000 
#    y 0.000000 3.477430 0.000000 
#    z 0.000000 0.000000 3.683880 
# 
# 
# High freq. dielectric constant tensor:
#      x y z
#    x 1.749210 0.000000 0.000000 
#    y 0.000000 1.754920 0.000000 
#    z 0.000000 0.000000 1.786860 
# 
# From -- ./inp_files/15681.got.cif
#   From: 2010.03.12/outbox.cif.g09.slc.cpg/sg53_8_cif.got.tgz:15681.got - 2010.04.16 14:36:59.
