data_PCOD8217077
_publ_section_title
;
Structure prediction by ZEFSAII (Michael W. Deem and Ramdas Pophale) SiO2 
 PCOD8217077
Probable space group: P N N A
;
_chemical_formula_sum "Si O2"
_cell_formula_units_Z 56
_cell_length_a 21.926364
_cell_length_b 9.617987
_cell_length_c 12.234858
_cell_angle_alpha 90.000000
_cell_angle_beta 90.000000
_cell_angle_gamma 90.000000
_cell_volume 2580.178420
_symmetry_space_group_name_H-M "P N N A"
_symmetry_group_IT_number 52
_symmetry_cell_setting 'orthorhombic'
loop_
_space_group_symop_operation_xyz
x,y,z
1/2-x,-y,z
x,1/2-y,1/2-z
1/2-x,1/2+y,1/2-z
-x,-y,-z
1/2+x,y,-z
-x,1/2+y,1/2+z
1/2+x,1/2-y,1/2+z
loop_
_atom_site_type_symbol
_atom_site_label
_atom_site_fract_x
_atom_site_fract_y
_atom_site_fract_z
Si Si1 0.562151 0.187965 0.537697
Si Si2 0.152339 0.015206 0.596086
Si Si3 0.080208 0.977612 0.813229
Si Si4 0.480430 0.191625 0.137186
Si Si5 0.259635 0.221167 0.626722
Si Si6 0.379959 0.988812 0.039088
Si Si7 0.750000 0.000000 0.990833
Si Si8 0.505326 0.250000 0.750000
O O1 0.608253 0.065059 0.502038
O O2 0.503342 0.196794 0.454920
O O3 0.596760 0.333494 0.548885
O O4 0.542733 0.154885 0.663073
O O5 0.111177 0.973157 0.697332
O O6 0.195536 0.140862 0.632710
O O7 0.190821 0.877062 0.563893
O O8 0.043064 0.117884 0.830324
O O9 0.128807 0.966643 0.911547
O O10 0.034325 0.849412 0.826493
O O11 0.452843 0.250000 0.250000
O O12 0.428359 0.090572 0.093412
O O13 0.282637 0.250000 0.750000
O O14 0.247984 0.362552 0.564030
O O15 0.310818 0.002035 0.085950
#
# Coordination Sequence:
#
# PCOD8217077 Si02
#       8
#     8   8   8   8   8   8   4   4
#     4  11  22  43  67  93 137 177 220 275 346 408
#     4  11  24  39  64  98 143 175 224 285 347 417
#     4  11  22  37  63  97 135 169 214 271 350 413
#     4  11  21  41  67  96 130 172 226 280 337 411
#     4  11  23  40  60 101 138 178 225 284 351 410
#     4  11  22  42  64  93 127 179 228 276 329 419
#     4  12  24  40  68  86 130 182 230 276 332 404
#     4  12  24  40  64  96 134 178 214 272 350 410
#
# _framework density 21.703925999999999
#
# number of rings (size 3 to 8) (size 9 to 14) (size 15 to 20)
#    0.000    0.857    5.714    3.429    5.000    0.571 
#    2.571    0.000    1.571    1.714    0.000    0.000 
#    0.000    0.000    0.000    0.000    0.000    0.000 
#
# Total GULP energy -694185.220204 kJ/mol
# GULP energy per Si atom -12396.164647 kJ/mol
# Density = 2.165453 g / cm^3
# Si number density = 21.703926 Si / 1000 Ang^3
#
#
#
# Elastic Constant Matrix: (Units=GPa)
#
#
# Indices 1 2 3 4 5 6 
#
# 1 122.6857 29.8000 26.7426 0.0000 0.0000 0.0000
# 2 29.8000 86.5831 18.2105 0.0000 0.0000 0.0000
# 3 26.7426 18.2105 76.3333 0.0000 0.0000 0.0000
# 4 0.0000 0.0000 0.0000 26.5903 0.0000 0.0000
# 5 0.0000 0.0000 0.0000 0.0000 -63.3295 0.0000
# 6 0.0000 0.0000 0.0000 0.0000 0.0000 29.2821
#
#
#
# Elastic Compliance Matrix: (Units=1/GPa)
#
#
# Indices 1 2 3 4 5 6 
#
# 1 0.009377 -0.002670 -0.002648 0.000000 0.000000 0.000000
# 2 -0.002670 0.012920 -0.002147 0.000000 0.000000 0.000000
# 3 -0.002648 -0.002147 0.014540 0.000000 0.000000 0.000000
# 4 0.000000 0.000000 0.000000 0.037608 0.000000 0.000000
# 5 0.000000 0.000000 0.000000 0.000000 -0.015790 0.000000
# 6 0.000000 0.000000 0.000000 0.000000 0.000000 0.034151
#
#
# Mechanical properties :
#
#
# Convention : Reuss Voigt Hill
#
# Bulk Modulus (GPa) = 45.64754 48.34537 46.99646
# Shear Modulus (GPa) = 43.46405 12.56518 28.01461
#
# Velocity S-wave (km/s) = 4.47988 2.40872 3.59662
# Velocity P-wave (km/s) = 6.91641 5.48263 6.24083
#
# Compressibility (1/GPa) = 0.02190698
#
# Stress axis : x y z
#
# Youngs Moduli (GPa) = 106.64709 77.39825 68.77438
#
# Poissons Ratio (x) = 0.20668 0.18211
# Poissons Ratio (y) = 0.28478 0.14764
# Poissons Ratio (z) = 0.28240 0.16616
#
# Static dielectric constant tensor:
#      x y z
#    x 4.154850 0.000000 0.000000 
#    y 0.000000 3.855260 0.000000 
#    z 0.000000 0.000000 3.870290 
# 
# 
# High freq. dielectric constant tensor:
#      x y z
#    x 1.861180 0.000000 0.000000 
#    y 0.000000 1.858630 0.000000 
#    z 0.000000 0.000000 1.821370 
# 
# From -- ./inp_files/28813.got.cif
#   From: 2010.06.25/outbox.cif.g09.slc.cpg/sg52_15_cif.got.tgz:28813.got - 2010.06.26 19:32:48.
