data_PCOD8217259
_publ_section_title
;
Structure prediction by ZEFSAII (Michael W. Deem and Ramdas Pophale) SiO2 
 PCOD8217259
Probable space group: P N N A
;
_chemical_formula_sum "Si O2"
_cell_formula_units_Z 32
_cell_length_a 12.422748
_cell_length_b 4.897664
_cell_length_c 23.314707
_cell_angle_alpha 90.000000
_cell_angle_beta 90.000000
_cell_angle_gamma 90.000000
_cell_volume 1418.523794
_symmetry_space_group_name_H-M "P N N A"
_symmetry_group_IT_number 52
_symmetry_cell_setting 'orthorhombic'
loop_
_space_group_symop_operation_xyz
x,y,z
1/2-x,-y,z
x,1/2-y,1/2-z
1/2-x,1/2+y,1/2-z
-x,-y,-z
1/2+x,y,-z
-x,1/2+y,1/2+z
1/2+x,1/2-y,1/2+z
loop_
_atom_site_type_symbol
_atom_site_label
_atom_site_fract_x
_atom_site_fract_y
_atom_site_fract_z
Si Si1 0.581296 0.664431 0.619904
Si Si2 0.939352 0.169443 0.366651
Si Si3 0.250000 0.500000 0.473622
Si Si4 0.250000 0.000000 0.212463
Si Si5 0.250000 0.000000 0.550336
Si Si6 0.323382 0.250000 0.750000
O O1 0.475423 0.477120 0.620060
O O2 0.651111 0.615124 0.563313
O O3 0.650506 0.604776 0.675823
O O4 0.542996 0.977002 0.623389
O O5 0.847106 0.098598 0.410887
O O6 0.896869 0.142669 0.301867
O O7 0.292656 0.749864 0.511877
O O8 0.205927 0.250000 0.250000
O O9 0.250000 0.500000 0.727793
#
# Coordination Sequence:
#
# PCOD8217259 Si02
#       6
#     8   8   4   4   4   4
#     4  11  26  45  68 102 137 177 231 283 344 403
#     4  12  26  44  71 104 136 180 231 277 344 419
#     4  11  26  48  71  97 142 178 229 298 332 398
#     4  11  24  43  66  98 135 180 229 280 338 412
#     4  12  26  45  71 101 135 186 232 280 344 404
#     4  12  26  46  70 100 146 184 222 292 342 406
#
# _framework density 22.558665000000001
#
# number of rings (size 3 to 8) (size 9 to 14) (size 15 to 20)
#    0.000    0.500    1.250    6.000    7.000   10.000 
#    0.000    0.000    0.000    0.000    0.000    0.000 
#    0.000    0.000    0.000    0.000    0.000    0.000 
#
# Total GULP energy -397120.158638 kJ/mol
# GULP energy per Si atom -12410.004957 kJ/mol
# Density = 2.250732 g / cm^3
# Si number density = 22.558665 Si / 1000 Ang^3
#
#
#
# Elastic Constant Matrix: (Units=GPa)
#
#
# Indices 1 2 3 4 5 6 
#
# 1 88.4191 7.5715 39.2734 0.0000 0.0000 0.0000
# 2 7.5715 97.9363 28.7207 0.0000 0.0000 0.0000
# 3 39.2734 28.7207 137.8917 0.0000 0.0000 0.0000
# 4 0.0000 0.0000 0.0000 77.8894 0.0000 0.0000
# 5 0.0000 0.0000 0.0000 0.0000 44.2932 0.0000
# 6 0.0000 0.0000 0.0000 0.0000 0.0000 53.4643
#
#
#
# Elastic Compliance Matrix: (Units=1/GPa)
#
#
# Indices 1 2 3 4 5 6 
#
# 1 0.012948 0.000086 -0.003706 0.000000 0.000000 0.000000
# 2 0.000086 0.010876 -0.002290 0.000000 0.000000 0.000000
# 3 -0.003706 -0.002290 0.008784 0.000000 0.000000 0.000000
# 4 0.000000 0.000000 0.000000 0.012839 0.000000 0.000000
# 5 0.000000 0.000000 0.000000 0.000000 0.022577 0.000000
# 6 0.000000 0.000000 0.000000 0.000000 0.000000 0.018704
#
#
# Mechanical properties :
#
#
# Convention : Reuss Voigt Hill
#
# Bulk Modulus (GPa) = 48.10223 52.81982 50.46102
# Shear Modulus (GPa) = 47.40372 51.70815 49.55593
#
# Velocity S-wave (km/s) = 4.58902 4.79285 4.69204
# Velocity P-wave (km/s) = 7.03195 7.35485 7.19521
#
# Compressibility (1/GPa) = 0.02078906
#
# Stress axis : x y z
#
# Youngs Moduli (GPa) = 77.22946 91.94945 113.83813
#
# Poissons Ratio (x) = -0.00788 0.42185
# Poissons Ratio (y) = -0.00662 0.26065
# Poissons Ratio (z) = 0.28619 0.21053
#
# Static dielectric constant tensor:
#      x y z
#    x 4.042760 0.000000 0.000000 
#    y 0.000000 4.284840 0.000000 
#    z 0.000000 0.000000 4.200670 
# 
# 
# High freq. dielectric constant tensor:
#      x y z
#    x 1.892320 0.000000 0.000000 
#    y 0.000000 1.908510 0.000000 
#    z 0.000000 0.000000 1.902730 
# 
# From -- ./inp_files/36497.got.cif
#   From: 2010.06.25/outbox.cif.g09.slc.cpg/sg52_19_cif.got.tgz:36497.got - 2010.06.26 19:32:48.
