data_PCOD8217685
_publ_section_title
;
Structure prediction by ZEFSAII (Michael W. Deem and Ramdas Pophale) SiO2 
 PCOD8217685
Probable space group: P M N A
;
_chemical_formula_sum "Si O2"
_cell_formula_units_Z 56
_cell_length_a 9.131983
_cell_length_b 16.248716
_cell_length_c 24.494137
_cell_angle_alpha 90.000000
_cell_angle_beta 90.000000
_cell_angle_gamma 90.000000
_cell_volume 3634.513488
_symmetry_space_group_name_H-M "P M N A"
_symmetry_group_IT_number 53
_symmetry_cell_setting 'orthorhombic'
loop_
_space_group_symop_operation_xyz
x,y,z
1/2-x,-y,1/2+z
x,-y,-z
1/2-x,y,1/2-z
-x,-y,-z
1/2+x,y,1/2-z
-x,y,z
1/2+x,-y,1/2+z
loop_
_atom_site_type_symbol
_atom_site_label
_atom_site_fract_x
_atom_site_fract_y
_atom_site_fract_z
Si Si1 0.326044 0.524438 0.411539
Si Si2 0.672976 0.192773 0.489705
Si Si3 0.172709 0.623702 0.984684
Si Si4 0.172331 0.881253 0.406861
Si Si5 0.670207 0.776696 0.196218
Si Si6 0.826743 0.587754 0.305985
Si Si7 0.661986 0.031556 0.438313
O O1 0.500000 0.528800 0.400461
O O2 0.275502 0.436111 0.435998
O O3 0.273907 0.593120 0.455618
O O4 0.239192 0.535289 0.355452
O O5 0.500000 0.190691 0.502090
O O6 0.727548 0.283644 0.472496
O O7 0.755410 0.168212 0.544290
O O8 0.710562 0.127913 0.440937
O O9 0.000000 0.619078 0.986337
O O10 0.222111 0.835233 0.352371
O O11 0.000000 0.880968 0.415351
O O12 0.226621 0.976133 0.403340
O O13 0.750000 0.808613 0.250000
O O14 0.500000 0.784858 0.207378
O O15 0.712600 0.682860 0.182471
O O16 0.750000 0.558523 0.250000
O O17 0.000000 0.572758 0.301545
O O18 0.500000 0.023347 0.412451
O O19 0.659899 0.000000 0.500000
#
# Coordination Sequence:
#
# PCOD8217685 Si02
#       7
#     8   8   8   8   8   8   8
#     4   9  16  28  45  65  87 112 143 174 209 252
#     4   9  16  27  42  60  83 112 143 168 194 237
#     4   8  15  27  44  64  87 115 143 172 207 251
#     4  10  18  27  40  60  85 109 134 169 210 243
#     4   9  19  31  42  59  82 108 138 169 201 242
#     4  10  19  31  45  62  85 112 142 175 210 248
#     4   8  15  26  39  57  80 107 139 166 190 232
#
# _framework density 15.407838999999999
#
# number of rings (size 3 to 8) (size 9 to 14) (size 15 to 20)
#    0.000    3.000    0.000    3.429    0.000    4.286 
#    0.000    2.143    0.000    0.000    0.000    1.000 
#    0.000    2.286    0.000    0.000    0.000    0.000 
#
# Total GULP energy -694088.702269 kJ/mol
# GULP energy per Si atom -12394.441112 kJ/mol
# Density = 1.537277 g / cm^3
# Si number density = 15.407839 Si / 1000 Ang^3
#
#
#
# Elastic Constant Matrix: (Units=GPa)
#
#
# Indices 1 2 3 4 5 6 
#
# 1 51.5623 34.7206 43.4371 0.0000 0.0000 0.0000
# 2 34.7206 124.0349 56.6113 0.0000 0.0000 0.0000
# 3 43.4371 56.6113 102.2564 0.0000 0.0000 0.0000
# 4 0.0000 0.0000 0.0000 22.8503 0.0000 0.0000
# 5 0.0000 0.0000 0.0000 0.0000 25.5823 0.0000
# 6 0.0000 0.0000 0.0000 0.0000 0.0000 31.9730
#
#
#
# Elastic Compliance Matrix: (Units=1/GPa)
#
#
# Indices 1 2 3 4 5 6 
#
# 1 0.031366 -0.003611 -0.011324 0.000000 0.000000 0.000000
# 2 -0.003611 0.011204 -0.004669 0.000000 0.000000 0.000000
# 3 -0.011324 -0.004669 0.017174 0.000000 0.000000 0.000000
# 4 0.000000 0.000000 0.000000 0.043763 0.000000 0.000000
# 5 0.000000 0.000000 0.000000 0.000000 0.039089 0.000000
# 6 0.000000 0.000000 0.000000 0.000000 0.000000 0.031276
#
#
# Mechanical properties :
#
#
# Convention : Reuss Voigt Hill
#
# Bulk Modulus (GPa) = 48.69689 60.82130 54.75909
# Shear Modulus (GPa) = 22.73479 25.62010 24.17744
#
# Velocity S-wave (km/s) = 3.84544 4.08216 3.96557
# Velocity P-wave (km/s) = 7.16871 7.85994 7.52227
#
# Compressibility (1/GPa) = 0.02053519
#
# Stress axis : x y z
#
# Youngs Moduli (GPa) = 31.88196 89.25340 58.22601
#
# Poissons Ratio (x) = 0.32234 0.65937
# Poissons Ratio (y) = 0.11514 0.27184
# Poissons Ratio (z) = 0.36104 0.41670
#
# Static dielectric constant tensor:
#      x y z
#    x 2.834570 0.000000 0.000000 
#    y 0.000000 3.533270 0.000000 
#    z 0.000000 0.000000 2.771940 
# 
# 
# High freq. dielectric constant tensor:
#      x y z
#    x 1.582740 0.000000 0.000000 
#    y 0.000000 1.589150 0.000000 
#    z 0.000000 0.000000 1.562460 
# 
# From -- ./inp_files/34365.got.cif
#   From: 2010.03.12/outbox.cif.g09.slc.cpg/sg53_18_cif.got.tgz:34365.got - 2010.04.16 14:36:59.
