data_PCOD8217586
_publ_section_title
;
Structure prediction by ZEFSAII (Michael W. Deem and Ramdas Pophale) SiO2 
 PCOD8217586
Probable space group: P M N A
;
_chemical_formula_sum "Si O2"
_cell_formula_units_Z 56
_cell_length_a 29.934431
_cell_length_b 5.036418
_cell_length_c 24.596440
_cell_angle_alpha 90.000000
_cell_angle_beta 90.000000
_cell_angle_gamma 90.000000
_cell_volume 3708.216041
_symmetry_space_group_name_H-M "P M N A"
_symmetry_group_IT_number 53
_symmetry_cell_setting 'orthorhombic'
loop_
_space_group_symop_operation_xyz
x,y,z
1/2-x,-y,1/2+z
x,-y,-z
1/2-x,y,1/2-z
-x,-y,-z
1/2+x,y,1/2-z
-x,y,z
1/2+x,-y,1/2+z
loop_
_atom_site_type_symbol
_atom_site_label
_atom_site_fract_x
_atom_site_fract_y
_atom_site_fract_z
Si Si1 0.549804 0.903447 0.687229
Si Si2 0.319334 0.593183 0.774004
Si Si3 0.866136 0.091844 0.760658
Si Si4 0.812988 0.076516 0.871853
Si Si5 0.876774 0.746333 0.034063
Si Si6 0.734494 0.567059 0.663321
Si Si7 0.950032 0.587619 0.115787
O O1 0.500000 0.861784 0.711667
O O2 0.567629 0.627977 0.660277
O O3 0.581942 0.005792 0.735638
O O4 0.548903 0.121097 0.640439
O O5 0.358234 0.369965 0.770399
O O6 0.287976 0.579221 0.827460
O O7 0.288921 0.564377 0.721380
O O8 0.341253 0.880097 0.776730
O O9 0.847835 0.094091 0.822227
O O10 0.839732 0.126795 0.926829
O O11 0.774499 0.294517 0.867298
O O12 0.786370 0.799935 0.873518
O O13 0.917542 0.599624 0.064556
O O14 0.855661 0.500000 0.000000
O O15 0.894589 0.000000 0.000000
O O16 0.000000 0.501472 0.097211
#
# Coordination Sequence:
#
# PCOD8217586 Si02
#       7
#     8   8   8   8   8   8   8
#     4  10  19  31  47  63  81 108 140 170 208 263
#     4   9  17  26  42  67  82 101 122 157 193 246
#     4  10  17  27  46  61  83 103 131 160 204 248
#     4  10  19  30  45  58  78 108 126 160 216 256
#     4  12  24  34  47  62  79 100 141 184 225 270
#     4   9  17  29  43  61  85 100 124 150 198 262
#     4  10  21  35  48  59  75 101 139 181 229 272
#
# _framework density 15.101601
#
# number of rings (size 3 to 8) (size 9 to 14) (size 15 to 20)
#    0.000    2.000    1.429    3.429    4.000    4.000 
#    0.000    0.000    0.000    0.000    0.000    0.000 
#    0.000    0.000    0.000    0.000    0.000    0.000 
#
# Total GULP energy -694156.829895 kJ/mol
# GULP energy per Si atom -12395.657677 kJ/mol
# Density = 1.506723 g / cm^3
# Si number density = 15.101601 Si / 1000 Ang^3
#
#
#
# Elastic Constant Matrix: (Units=GPa)
#
#
# Indices 1 2 3 4 5 6 
#
# 1 74.1556 15.8569 33.5833 0.0000 0.0000 0.0000
# 2 15.8569 72.7241 10.4887 0.0000 0.0000 0.0000
# 3 33.5833 10.4887 23.5552 0.0000 0.0000 0.0000
# 4 0.0000 0.0000 0.0000 14.5371 0.0000 0.0000
# 5 0.0000 0.0000 0.0000 0.0000 13.3067 0.0000
# 6 0.0000 0.0000 0.0000 0.0000 0.0000 13.8242
#
#
#
# Elastic Compliance Matrix: (Units=1/GPa)
#
#
# Indices 1 2 3 4 5 6 
#
# 1 0.038077 -0.000505 -0.054062 0.000000 0.000000 0.000000
# 2 -0.000505 0.014701 -0.005826 0.000000 0.000000 0.000000
# 3 -0.054062 -0.005826 0.122125 0.000000 0.000000 0.000000
# 4 0.000000 0.000000 0.000000 0.068790 0.000000 0.000000
# 5 0.000000 0.000000 0.000000 0.000000 0.075150 0.000000
# 6 0.000000 0.000000 0.000000 0.000000 0.000000 0.072337
#
#
# Mechanical properties :
#
#
# Convention : Reuss Voigt Hill
#
# Bulk Modulus (GPa) = 18.47849 32.25475 25.36662
# Shear Modulus (GPa) = 9.43388 15.70065 12.56726
#
# Velocity S-wave (km/s) = 2.50210 3.22789 2.88788
# Velocity P-wave (km/s) = 4.53983 5.94114 5.28712
#
# Compressibility (1/GPa) = 0.05411697
#
# Stress axis : x y z
#
# Youngs Moduli (GPa) = 26.26290 68.02269 8.18831
#
# Poissons Ratio (x) = 0.03436 0.44268
# Poissons Ratio (y) = 0.01327 0.04770
# Poissons Ratio (z) = 1.41982 0.39629
#
# Static dielectric constant tensor:
#      x y z
#    x 3.007170 0.000000 0.000000 
#    y 0.000000 3.169740 0.000000 
#    z 0.000000 0.000000 2.504510 
# 
# 
# High freq. dielectric constant tensor:
#      x y z
#    x 1.566910 0.000000 0.000000 
#    y 0.000000 1.607920 0.000000 
#    z 0.000000 0.000000 1.507770 
# 
# From -- ./inp_files/33270.got.cif
#   From: 2010.03.12/outbox.cif.g09.slc.cpg/sg53_17_cif.got.tgz:33270.got - 2010.04.16 14:36:59.
