data_PCOD8217465
_publ_section_title
;
Structure prediction by ZEFSAII (Michael W. Deem and Ramdas Pophale) SiO2 
 PCOD8217465
Probable space group: P M N A
;
_chemical_formula_sum "Si O2"
_cell_formula_units_Z 48
_cell_length_a 8.723737
_cell_length_b 17.659281
_cell_length_c 14.978875
_cell_angle_alpha 90.000000
_cell_angle_beta 90.000000
_cell_angle_gamma 90.000000
_cell_volume 2307.569436
_symmetry_space_group_name_H-M "P M N A"
_symmetry_group_IT_number 53
_symmetry_cell_setting 'orthorhombic'
loop_
_space_group_symop_operation_xyz
x,y,z
1/2-x,-y,1/2+z
x,-y,-z
1/2-x,y,1/2-z
-x,-y,-z
1/2+x,y,1/2-z
-x,y,z
1/2+x,-y,1/2+z
loop_
_atom_site_type_symbol
_atom_site_label
_atom_site_fract_x
_atom_site_fract_y
_atom_site_fract_z
Si Si1 0.682241 0.346914 0.848911
Si Si2 0.177957 0.188717 0.346922
Si Si3 0.321318 0.914444 0.505092
Si Si4 0.181702 0.497009 0.849487
Si Si5 0.320966 0.355266 0.153038
Si Si6 0.820290 0.194839 0.846335
O O1 0.750000 0.345526 0.750000
O O2 0.500000 0.350096 0.849947
O O3 0.749350 0.422024 0.898053
O O4 0.741795 0.268838 0.892538
O O5 0.250000 0.177996 0.250000
O O6 0.238483 0.126325 0.413941
O O7 0.209693 0.272594 0.390030
O O8 0.000000 0.176469 0.332889
O O9 0.500000 0.912146 0.526723
O O10 0.284658 0.875304 0.410673
O O11 0.259710 0.000000 0.500000
O O12 0.250000 0.499778 0.750000
O O13 0.237015 0.574782 0.898740
O O14 0.000000 0.491863 0.848789
O O15 0.250000 0.349508 0.250000
O O16 0.500000 0.374293 0.158287
O O17 0.750000 0.175399 0.750000
O O18 0.000000 0.210432 0.834987
#
# Coordination Sequence:
#
# PCOD8217465 Si02
#       6
#     8   8   8   8   8   8
#     4  10  17  27  45  71 105 143 184 228 274 325
#     4  10  21  37  60  87 117 153 192 235 283 338
#     4  10  23  42  62  86 116 148 185 232 287 345
#     4  10  16  23  39  67 103 142 184 227 271 319
#     4   9  16  27  44  71 105 142 184 227 273 322
#     4  10  20  36  58  83 113 148 187 232 281 336
#
# _framework density 20.801107999999999
#
# number of rings (size 3 to 8) (size 9 to 14) (size 15 to 20)
#    0.000    2.167    0.000    7.500    0.000    4.333 
#    0.000    1.667    0.000    1.000    0.000    7.000 
#    0.000    0.000    0.000    0.000    0.000    0.000 
#
# Total GULP energy -594827.043368 kJ/mol
# GULP energy per Si atom -12392.230070 kJ/mol
# Density = 2.075376 g / cm^3
# Si number density = 20.801108 Si / 1000 Ang^3
#
#
#
# Elastic Constant Matrix: (Units=GPa)
#
#
# Indices 1 2 3 4 5 6 
#
# 1 160.8256 94.8698 42.7733 0.0000 0.0000 0.0000
# 2 94.8698 220.8941 58.2642 0.0000 0.0000 0.0000
# 3 42.7733 58.2642 66.1728 0.0000 0.0000 0.0000
# 4 0.0000 0.0000 0.0000 -48.5103 0.0000 0.0000
# 5 0.0000 0.0000 0.0000 0.0000 16.5032 0.0000
# 6 0.0000 0.0000 0.0000 0.0000 0.0000 36.3024
#
#
#
# Elastic Compliance Matrix: (Units=1/GPa)
#
#
# Indices 1 2 3 4 5 6 
#
# 1 0.008781 -0.002962 -0.003068 0.000000 0.000000 0.000000
# 2 -0.002962 0.006896 -0.004157 0.000000 0.000000 0.000000
# 3 -0.003068 -0.004157 0.020755 0.000000 0.000000 0.000000
# 4 0.000000 0.000000 0.000000 -0.020614 0.000000 0.000000
# 5 0.000000 0.000000 0.000000 0.000000 0.060594 0.000000
# 6 0.000000 0.000000 0.000000 0.000000 0.000000 0.027546
#
#
# Mechanical properties :
#
#
# Convention : Reuss Voigt Hill
#
# Bulk Modulus (GPa) = 62.27392 93.30078 77.78735
# Shear Modulus (GPa) = 38.55499 17.65809 28.10654
#
# Velocity S-wave (km/s) = 4.30991 2.91675 3.67986
# Velocity P-wave (km/s) = 7.40067 7.50296 7.45199
#
# Compressibility (1/GPa) = 0.01605809
#
# Stress axis : x y z
#
# Youngs Moduli (GPa) = 113.87949 145.01849 48.18103
#
# Poissons Ratio (x) = 0.42957 0.14782
# Poissons Ratio (y) = 0.33733 0.20028
# Poissons Ratio (z) = 0.34938 0.60282
#
# Static dielectric constant tensor:
#      x y z
#    x 3.843530 0.000000 0.000000 
#    y 0.000000 5.150110 0.000000 
#    z 0.000000 0.000000 5.486240 
# 
# 
# High freq. dielectric constant tensor:
#      x y z
#    x 1.825420 0.000000 0.000000 
#    y 0.000000 1.836700 0.000000 
#    z 0.000000 0.000000 1.771300 
# 
# From -- ./inp_files/20220.got.cif
#   From: 2010.03.12/outbox.cif.g09.slc.cpg/sg53_11_cif.got.tgz:20220.got - 2010.04.16 14:36:59.
