data_PCOD8217840
_publ_section_title
;
Structure prediction by ZEFSAII (Michael W. Deem and Ramdas Pophale) SiO2 
 PCOD8217840
Probable space group: P M N A
;
_chemical_formula_sum "Si O2"
_cell_formula_units_Z 48
_cell_length_a 14.497892
_cell_length_b 11.976631
_cell_length_c 15.032904
_cell_angle_alpha 90.000000
_cell_angle_beta 90.000000
_cell_angle_gamma 90.000000
_cell_volume 2610.251857
_symmetry_space_group_name_H-M "P M N A"
_symmetry_group_IT_number 53
_symmetry_cell_setting 'orthorhombic'
loop_
_space_group_symop_operation_xyz
x,y,z
1/2-x,-y,1/2+z
x,-y,-z
1/2-x,y,1/2-z
-x,-y,-z
1/2+x,y,1/2-z
-x,y,z
1/2+x,-y,1/2+z
loop_
_atom_site_type_symbol
_atom_site_label
_atom_site_fract_x
_atom_site_fract_y
_atom_site_fract_z
Si Si1 0.892968 0.173078 0.814085
Si Si2 0.346913 0.516312 0.711465
Si Si3 0.396046 0.707589 0.598081
Si Si4 0.397281 0.669949 0.156304
Si Si5 0.892161 0.956613 0.906536
Si Si6 0.708819 0.658211 0.429688
O O1 0.867584 0.223115 0.717196
O O2 0.832459 0.228305 0.890845
O O3 0.000000 0.198447 0.833794
O O4 0.870388 0.040948 0.824051
O O5 0.250000 0.553663 0.750000
O O6 0.399563 0.630759 0.686703
O O7 0.401197 0.441435 0.783166
O O8 0.334317 0.445001 0.622323
O O9 0.500000 0.711784 0.557961
O O10 0.358262 0.832189 0.619575
O O11 0.322705 0.649804 0.531515
O O12 0.500000 0.687001 0.115301
O O13 0.320958 0.659156 0.078772
O O14 0.000000 0.950488 0.921795
O O15 0.847467 0.000000 0.000000
#
# Coordination Sequence:
#
# PCOD8217840 Si02
#       6
#     8   8   8   8   8   8
#     4   9  15  27  46  68  97 129 157 192 244 292
#     4   9  19  33  47  68 101 131 160 198 241 292
#     4  11  20  30  51  78 102 129 158 196 250 297
#     4   9  18  32  50  69  95 131 167 203 239 284
#     4   9  16  27  43  68 102 129 151 190 241 290
#     4  10  18  29  47  73 100 124 160 208 247 282
#
# _framework density 18.389030000000002
#
# number of rings (size 3 to 8) (size 9 to 14) (size 15 to 20)
#    0.000    2.500    1.667    3.000    0.000    2.667 
#    0.000    1.667    0.000    9.000    0.000    2.333 
#    0.000    0.000    0.000    0.000    0.000    0.000 
#
# Total GULP energy -594756.003935 kJ/mol
# GULP energy per Si atom -12390.750082 kJ/mol
# Density = 1.834718 g / cm^3
# Si number density = 18.389030 Si / 1000 Ang^3
#
#
#
# Elastic Constant Matrix: (Units=GPa)
#
#
# Indices 1 2 3 4 5 6 
#
# 1 68.9569 18.8441 21.8399 0.0000 0.0000 0.0000
# 2 18.8441 119.8543 33.9620 0.0000 0.0000 0.0000
# 3 21.8399 33.9620 39.7117 0.0000 0.0000 0.0000
# 4 0.0000 0.0000 0.0000 15.3314 0.0000 0.0000
# 5 0.0000 0.0000 0.0000 0.0000 18.6814 0.0000
# 6 0.0000 0.0000 0.0000 0.0000 0.0000 15.9654
#
#
#
# Elastic Compliance Matrix: (Units=1/GPa)
#
#
# Indices 1 2 3 4 5 6 
#
# 1 0.017561 -0.000032 -0.009630 0.000000 0.000000 0.000000
# 2 -0.000032 0.011012 -0.009400 0.000000 0.000000 0.000000
# 3 -0.009630 -0.009400 0.038517 0.000000 0.000000 0.000000
# 4 0.000000 0.000000 0.000000 0.065226 0.000000 0.000000
# 5 0.000000 0.000000 0.000000 0.000000 0.053529 0.000000
# 6 0.000000 0.000000 0.000000 0.000000 0.000000 0.062635
#
#
# Mechanical properties :
#
#
# Convention : Reuss Voigt Hill
#
# Bulk Modulus (GPa) = 34.52465 41.97944 38.25205
# Shear Modulus (GPa) = 16.87709 20.25411 18.56560
#
# Velocity S-wave (km/s) = 3.03278 3.32237 3.18087
# Velocity P-wave (km/s) = 5.57485 6.13153 5.85980
#
# Compressibility (1/GPa) = 0.02896481
#
# Stress axis : x y z
#
# Youngs Moduli (GPa) = 56.94550 90.80897 25.96266
#
# Poissons Ratio (x) = 0.00292 0.25003
# Poissons Ratio (y) = 0.00183 0.24405
# Poissons Ratio (z) = 0.54840 0.85361
#
# Static dielectric constant tensor:
#      x y z
#    x 3.234040 0.000000 0.000000 
#    y 0.000000 3.654400 0.000000 
#    z 0.000000 0.000000 2.954510 
# 
# 
# High freq. dielectric constant tensor:
#      x y z
#    x 1.694400 0.000000 0.000000 
#    y 0.000000 1.719200 0.000000 
#    z 0.000000 0.000000 1.664920 
# 
# From -- ./inp_files/22654.got.cif
#   From: 2010.03.12/outbox.cif.g09.slc.cpg/sg53_12_cif.got.tgz:22654.got - 2010.04.16 14:36:59.
