data_PCOD8217856
_publ_section_title
;
Structure prediction by ZEFSAII (Michael W. Deem and Ramdas Pophale) SiO2 
 PCOD8217856
Probable space group: P M N A
;
_chemical_formula_sum "Si O2"
_cell_formula_units_Z 64
_cell_length_a 8.815516
_cell_length_b 16.513348
_cell_length_c 23.735079
_cell_angle_alpha 90.000000
_cell_angle_beta 90.000000
_cell_angle_gamma 90.000000
_cell_volume 3455.202878
_symmetry_space_group_name_H-M "P M N A"
_symmetry_group_IT_number 53
_symmetry_cell_setting 'orthorhombic'
loop_
_space_group_symop_operation_xyz
x,y,z
1/2-x,-y,1/2+z
x,-y,-z
1/2-x,y,1/2-z
-x,-y,-z
1/2+x,y,1/2-z
-x,y,z
1/2+x,-y,1/2+z
loop_
_atom_site_type_symbol
_atom_site_label
_atom_site_fract_x
_atom_site_fract_y
_atom_site_fract_z
Si Si1 0.820053 0.277481 0.811930
Si Si2 0.824178 0.785791 0.618185
Si Si3 0.322065 0.074227 0.311906
Si Si4 0.176121 0.373025 0.310346
Si Si5 0.673916 0.898294 0.308802
Si Si6 0.679460 0.633588 0.086365
Si Si7 0.322805 0.465524 0.406691
Si Si8 0.177119 0.692756 0.978486
O O1 0.750000 0.288860 0.750000
O O2 0.776472 0.187237 0.837002
O O3 0.745852 0.342690 0.852994
O O4 0.000000 0.292026 0.809336
O O5 0.752384 0.866149 0.643563
O O6 0.797014 0.714034 0.662185
O O7 0.742599 0.765305 0.559365
O O8 0.000000 0.800251 0.605934
O O9 0.250000 0.084654 0.250000
O O10 0.500000 0.093108 0.305963
O O11 0.293703 0.984171 0.339727
O O12 0.250000 0.370026 0.250000
O O13 0.260501 0.442592 0.345281
O O14 0.000000 0.395455 0.306444
O O15 0.750000 0.908586 0.250000
O O16 0.500000 0.889323 0.294681
O O17 0.500000 0.636703 0.088124
O O18 0.735731 0.543868 0.070677
O O19 0.740632 0.694932 0.038791
O O20 0.500000 0.485145 0.402971
O O21 0.288075 0.393139 0.449564
O O22 0.000000 0.707317 0.987467
#
# Coordination Sequence:
#
# PCOD8217856 Si02
#       8
#     8   8   8   8   8   8   8   8
#     4  10  20  37  58  81 109 138 171 212 260 310
#     4  10  20  33  50  75 106 140 176 215 258 304
#     4  10  18  29  48  77 109 141 177 214 255 304
#     4  10  20  33  49  71 103 140 175 211 256 307
#     4   8  16  30  50  75 104 137 171 210 255 303
#     4  12  24  37  56  81 106 134 170 211 257 309
#     4  10  21  37  56  77 101 132 173 217 260 305
#     4  10  21  38  58  78 102 135 174 216 260 304
#
# _framework density 18.522791000000002
#
# number of rings (size 3 to 8) (size 9 to 14) (size 15 to 20)
#    0.000    2.000    0.000    4.125    0.000    7.000 
#    0.000    2.500    0.000    0.750    0.000    5.250 
#    0.000    0.000    0.000    0.000    0.000    0.000 
#
# Total GULP energy -793369.354278 kJ/mol
# GULP energy per Si atom -12396.396161 kJ/mol
# Density = 1.848063 g / cm^3
# Si number density = 18.522791 Si / 1000 Ang^3
#
#
#
# Elastic Constant Matrix: (Units=GPa)
#
#
# Indices 1 2 3 4 5 6 
#
# 1 103.0892 31.4411 42.9706 0.0000 0.0000 0.0000
# 2 31.4411 63.8759 17.7535 0.0000 0.0000 0.0000
# 3 42.9706 17.7535 79.4243 0.0000 0.0000 0.0000
# 4 0.0000 0.0000 0.0000 18.1122 0.0000 0.0000
# 5 0.0000 0.0000 0.0000 0.0000 31.9778 0.0000
# 6 0.0000 0.0000 0.0000 0.0000 0.0000 23.9099
#
#
#
# Elastic Compliance Matrix: (Units=1/GPa)
#
#
# Indices 1 2 3 4 5 6 
#
# 1 0.013912 -0.005071 -0.006393 0.000000 0.000000 0.000000
# 2 -0.005071 0.018541 -0.001401 0.000000 0.000000 0.000000
# 3 -0.006393 -0.001401 0.016363 0.000000 0.000000 0.000000
# 4 0.000000 0.000000 0.000000 0.055211 0.000000 0.000000
# 5 0.000000 0.000000 0.000000 0.000000 0.031272 0.000000
# 6 0.000000 0.000000 0.000000 0.000000 0.000000 0.041824
#
#
# Mechanical properties :
#
#
# Convention : Reuss Voigt Hill
#
# Bulk Modulus (GPa) = 43.31758 47.85777 45.58768
# Shear Modulus (GPa) = 23.74772 25.08160 24.41466
#
# Velocity S-wave (km/s) = 3.58450 3.68379 3.63449
# Velocity P-wave (km/s) = 6.36933 6.63228 6.50213
#
# Compressibility (1/GPa) = 0.02308531
#
# Stress axis : x y z
#
# Youngs Moduli (GPa) = 71.88188 53.93549 61.11491
#
# Poissons Ratio (x) = 0.27349 0.39072
# Poissons Ratio (y) = 0.36449 0.08562
# Poissons Ratio (z) = 0.45955 0.07556
#
# Static dielectric constant tensor:
#      x y z
#    x 3.523370 0.000000 0.000000 
#    y 0.000000 3.749310 0.000000 
#    z 0.000000 0.000000 3.239480 
# 
# 
# High freq. dielectric constant tensor:
#      x y z
#    x 1.735890 0.000000 0.000000 
#    y 0.000000 1.718380 0.000000 
#    z 0.000000 0.000000 1.697640 
# 
# From -- ./inp_files/34168.got.cif
#   From: 2010.03.12/outbox.cif.g09.slc.cpg/sg53_18_cif.got.tgz:34168.got - 2010.04.16 14:36:59.
