data_PCOD8217603
_publ_section_title
;
Structure prediction by ZEFSAII (Michael W. Deem and Ramdas Pophale) SiO2 
 PCOD8217603
Probable space group: P M N A
;
_chemical_formula_sum "Si O2"
_cell_formula_units_Z 64
_cell_length_a 8.674262
_cell_length_b 15.033374
_cell_length_c 29.474798
_cell_angle_alpha 90.000000
_cell_angle_beta 90.000000
_cell_angle_gamma 90.000000
_cell_volume 3843.614605
_symmetry_space_group_name_H-M "P M N A"
_symmetry_group_IT_number 53
_symmetry_cell_setting 'orthorhombic'
loop_
_space_group_symop_operation_xyz
x,y,z
1/2-x,-y,1/2+z
x,-y,-z
1/2-x,y,1/2-z
-x,-y,-z
1/2+x,y,1/2-z
-x,y,z
1/2+x,-y,1/2+z
loop_
_atom_site_type_symbol
_atom_site_label
_atom_site_fract_x
_atom_site_fract_y
_atom_site_fract_z
Si Si1 0.682258 0.446250 0.062858
Si Si2 0.817716 0.173471 0.541091
Si Si3 0.679838 0.800381 0.704248
Si Si4 0.819827 0.037467 0.889562
Si Si5 0.181946 0.992407 0.702282
Si Si6 0.182787 0.370935 0.530810
Si Si7 0.822859 0.708090 0.623529
Si Si8 0.676096 0.873693 0.939503
O O1 0.500000 0.440247 0.057831
O O2 0.731118 0.550600 0.066511
O O3 0.732816 0.389348 0.106645
O O4 0.752138 0.400473 0.017748
O O5 0.731433 0.118779 0.579408
O O6 0.753236 0.274544 0.545220
O O7 0.775005 0.132809 0.492019
O O8 0.000000 0.168134 0.549149
O O9 0.750000 0.758722 0.750000
O O10 0.500000 0.820070 0.709966
O O11 0.709664 0.730742 0.664477
O O12 0.766616 0.891605 0.692931
O O13 0.739197 0.049579 0.840539
O O14 0.000000 0.040920 0.881116
O O15 0.780805 0.944271 0.913513
O O16 0.250000 0.028325 0.750000
O O17 0.000000 0.997293 0.705388
O O18 0.000000 0.362024 0.527309
O O19 0.802888 0.776796 0.582237
O O20 0.000000 0.707508 0.640349
O O21 0.500000 0.906581 0.935182
#
# Coordination Sequence:
#
# PCOD8217603 Si02
#       8
#     8   8   8   8   8   8   8   8
#     4   8  13  23  44  73  99 123 156 199 242 285
#     4  10  19  32  49  70  97 134 173 210 249 290
#     4  11  21  33  49  71  97 128 161 199 241 290
#     4  12  24  35  47  68  97 134 172 207 244 289
#     4  11  21  36  55  74  96 123 157 201 247 295
#     4   8  13  24  44  71  98 123 159 203 242 283
#     4  10  17  28  48  73 100 131 163 198 241 290
#     4  10  19  31  47  68  97 134 172 205 240 288
#
# _framework density 16.650991999999999
#
# number of rings (size 3 to 8) (size 9 to 14) (size 15 to 20)
#    0.000    2.000    2.500    5.250    0.000    2.000 
#    0.000    0.000    0.000    0.750    0.000    2.625 
#    0.000    4.000    0.000    0.000    0.000    0.000 
#
# Total GULP energy -793376.460951 kJ/mol
# GULP energy per Si atom -12396.507202 kJ/mol
# Density = 1.661309 g / cm^3
# Si number density = 16.650992 Si / 1000 Ang^3
#
#
#
# Elastic Constant Matrix: (Units=GPa)
#
#
# Indices 1 2 3 4 5 6 
#
# 1 85.9151 26.0582 44.0627 0.0000 0.0000 0.0000
# 2 26.0582 77.5889 42.3563 0.0000 0.0000 0.0000
# 3 44.0627 42.3563 117.0736 0.0000 0.0000 0.0000
# 4 0.0000 0.0000 0.0000 23.5554 0.0000 0.0000
# 5 0.0000 0.0000 0.0000 0.0000 23.2155 0.0000
# 6 0.0000 0.0000 0.0000 0.0000 0.0000 8.5380
#
#
#
# Elastic Compliance Matrix: (Units=1/GPa)
#
#
# Indices 1 2 3 4 5 6 
#
# 1 0.014774 -0.002400 -0.004692 0.000000 0.000000 0.000000
# 2 -0.002400 0.016450 -0.005048 0.000000 0.000000 0.000000
# 3 -0.004692 -0.005048 0.012134 0.000000 0.000000 0.000000
# 4 0.000000 0.000000 0.000000 0.042453 0.000000 0.000000
# 5 0.000000 0.000000 0.000000 0.000000 0.043075 0.000000
# 6 0.000000 0.000000 0.000000 0.000000 0.000000 0.117124
#
#
# Mechanical properties :
#
#
# Convention : Reuss Voigt Hill
#
# Bulk Modulus (GPa) = 52.41894 56.17022 54.29458
# Shear Modulus (GPa) = 18.07340 22.26846 20.17093
#
# Velocity S-wave (km/s) = 3.29815 3.66097 3.48429
# Velocity P-wave (km/s) = 6.78624 7.18870 6.99036
#
# Compressibility (1/GPa) = 0.01907708
#
# Stress axis : x y z
#
# Youngs Moduli (GPa) = 67.68756 60.78854 82.41360
#
# Poissons Ratio (x) = 0.14592 0.38668
# Poissons Ratio (y) = 0.16248 0.41604
# Poissons Ratio (z) = 0.31758 0.30687
#
# Static dielectric constant tensor:
#      x y z
#    x 2.896640 0.000000 0.000000 
#    y 0.000000 3.249190 0.000000 
#    z 0.000000 0.000000 2.198040 
# 
# 
# High freq. dielectric constant tensor:
#      x y z
#    x 1.621980 0.000000 0.000000 
#    y 0.000000 1.623680 0.000000 
#    z 0.000000 0.000000 1.633050 
# 
# From -- ./inp_files/38476.got.cif
#   From: 2010.03.12/outbox.cif.g09.slc.cpg/sg53_20_cif.got.tgz:38476.got - 2010.04.16 14:36:59.
