data_PCOD8217271
_publ_section_title
;
Structure prediction by ZEFSAII (Michael W. Deem and Ramdas Pophale) SiO2 
 PCOD8217271
Probable space group: P N N A
;
_chemical_formula_sum "Si O2"
_cell_formula_units_Z 40
_cell_length_a 9.330352
_cell_length_b 13.791817
_cell_length_c 14.231713
_cell_angle_alpha 90.000000
_cell_angle_beta 90.000000
_cell_angle_gamma 90.000000
_cell_volume 1831.372512
_symmetry_space_group_name_H-M "P N N A"
_symmetry_group_IT_number 52
_symmetry_cell_setting 'orthorhombic'
loop_
_space_group_symop_operation_xyz
x,y,z
1/2-x,-y,z
x,1/2-y,1/2-z
1/2-x,1/2+y,1/2-z
-x,-y,-z
1/2+x,y,-z
-x,1/2+y,1/2+z
1/2+x,1/2-y,1/2+z
loop_
_atom_site_type_symbol
_atom_site_label
_atom_site_fract_x
_atom_site_fract_y
_atom_site_fract_z
Si Si1 0.577271 0.156743 0.685900
Si Si2 0.054814 0.778415 0.969612
Si Si3 0.393313 0.178222 0.335866
Si Si4 0.907078 0.525073 0.241617
Si Si5 0.179559 0.403244 0.556680
O O1 0.580322 0.250000 0.750000
O O2 0.495532 0.185823 0.590358
O O3 0.739886 0.124153 0.664230
O O4 0.498688 0.073073 0.743675
O O5 0.194345 0.826109 0.921543
O O6 0.093968 0.741236 0.071725
O O7 0.930558 0.859778 0.980664
O O8 0.410992 0.250000 0.250000
O O9 0.519285 0.098987 0.330751
O O10 0.750000 0.500000 0.202369
O O11 0.899231 0.569982 0.345965
O O12 0.250000 0.500000 0.511515
#
# Coordination Sequence:
#
# PCOD8217271 Si02
#       5
#     8   8   8   8   8
#     4  11  25  45  69 102 142 190 238 297 362 431
#     4  12  24  46  72 104 147 190 241 298 365 430
#     4  11  24  45  70 101 144 194 237 298 364 432
#     4  11  25  43  71 104 140 187 239 295 358 429
#     4  11  24  44  70 107 143 188 237 304 357 426
#
# _framework density 21.841543000000001
#
# number of rings (size 3 to 8) (size 9 to 14) (size 15 to 20)
#    0.000    0.800    4.000    3.600    2.800    1.600 
#    0.000    0.000    0.000    0.000    0.000    0.000 
#    0.000    0.000    0.000    0.000    0.000    0.000 
#
# Total GULP energy -496151.262969 kJ/mol
# GULP energy per Si atom -12403.781574 kJ/mol
# Density = 2.179183 g / cm^3
# Si number density = 21.841543 Si / 1000 Ang^3
#
#
#
# Elastic Constant Matrix: (Units=GPa)
#
#
# Indices 1 2 3 4 5 6 
#
# 1 140.1096 53.3232 36.7776 0.0000 0.0000 0.0000
# 2 53.3232 94.6535 32.4404 0.0000 0.0000 0.0000
# 3 36.7776 32.4404 95.6639 0.0000 0.0000 0.0000
# 4 0.0000 0.0000 0.0000 35.7806 0.0000 0.0000
# 5 0.0000 0.0000 0.0000 0.0000 24.5787 0.0000
# 6 0.0000 0.0000 0.0000 0.0000 0.0000 53.9784
#
#
#
# Elastic Compliance Matrix: (Units=1/GPa)
#
#
# Indices 1 2 3 4 5 6 
#
# 1 0.009432 -0.004606 -0.002064 0.000000 0.000000 0.000000
# 2 -0.004606 0.014204 -0.003046 0.000000 0.000000 0.000000
# 3 -0.002064 -0.003046 0.012280 0.000000 0.000000 0.000000
# 4 0.000000 0.000000 0.000000 0.027948 0.000000 0.000000
# 5 0.000000 0.000000 0.000000 0.000000 0.040686 0.000000
# 6 0.000000 0.000000 0.000000 0.000000 0.000000 0.018526
#
#
# Mechanical properties :
#
#
# Convention : Reuss Voigt Hill
#
# Bulk Modulus (GPa) = 60.66755 63.94547 62.30651
# Shear Modulus (GPa) = 33.78343 36.72660 35.25501
#
# Velocity S-wave (km/s) = 3.93714 4.10506 4.02198
# Velocity P-wave (km/s) = 6.96453 7.19786 7.08216
#
# Compressibility (1/GPa) = 0.01648328
#
# Stress axis : x y z
#
# Youngs Moduli (GPa) = 106.02090 70.40474 81.43549
#
# Poissons Ratio (x) = 0.32429 0.16809
# Poissons Ratio (y) = 0.48835 0.24803
# Poissons Ratio (z) = 0.21884 0.21443
#
# Static dielectric constant tensor:
#      x y z
#    x 4.428220 0.000000 0.000000 
#    y 0.000000 4.071620 0.000000 
#    z 0.000000 0.000000 4.063020 
# 
# 
# High freq. dielectric constant tensor:
#      x y z
#    x 1.879370 0.000000 0.000000 
#    y 0.000000 1.860050 0.000000 
#    z 0.000000 0.000000 1.844720 
# 
# From -- ./inp_files/24378.got.cif
#   From: 2010.06.25/outbox.cif.g09.slc.cpg/sg52_13_cif.got.tgz:24378.got - 2010.06.26 19:32:48.
