data_PCOD8217109
_publ_section_title
;
Structure prediction by ZEFSAII (Michael W. Deem and Ramdas Pophale) SiO2 
 PCOD8217109
Probable space group: P N N A
;
_chemical_formula_sum "Si O2"
_cell_formula_units_Z 32
_cell_length_a 14.083500
_cell_length_b 10.362633
_cell_length_c 9.969433
_cell_angle_alpha 90.000000
_cell_angle_beta 90.000000
_cell_angle_gamma 90.000000
_cell_volume 1454.960405
_symmetry_space_group_name_H-M "P N N A"
_symmetry_group_IT_number 52
_symmetry_cell_setting 'orthorhombic'
loop_
_space_group_symop_operation_xyz
x,y,z
1/2-x,-y,z
x,1/2-y,1/2-z
1/2-x,1/2+y,1/2-z
-x,-y,-z
1/2+x,y,-z
-x,1/2+y,1/2+z
1/2+x,1/2-y,1/2+z
loop_
_atom_site_type_symbol
_atom_site_label
_atom_site_fract_x
_atom_site_fract_y
_atom_site_fract_z
Si Si1 0.895577 0.308328 0.948425
Si Si2 0.350255 0.059719 0.186882
Si Si3 0.179747 0.887073 0.720608
Si Si4 0.985029 0.840657 0.864618
O O1 0.830892 0.185616 0.904034
O O2 0.909927 0.401898 0.820904
O O3 0.845758 0.393388 0.063110
O O4 0.995367 0.247083 0.002553
O O5 0.250000 0.000000 0.228791
O O6 0.413942 0.957772 0.103156
O O7 0.230711 0.750000 0.750000
O O8 0.085737 0.895138 0.811695
O O9 0.250000 0.000000 0.762615
O O10 0.938201 0.750000 0.750000
#
# Coordination Sequence:
#
# PCOD8217109 Si02
#       4
#     8   8   8   8
#     4   9  21  39  56  87 123 157 204 253 300 370
#     4  11  22  37  60  90 126 160 205 248 312 369
#     4   9  19  39  62  88 120 159 209 255 306 365
#     4   9  21  39  61  84 122 160 206 254 303 366
#
# _framework density 21.993725999999999
#
# number of rings (size 3 to 8) (size 9 to 14) (size 15 to 20)
#    0.000    3.000    0.000    1.500    3.500    8.000 
#    9.000    0.000    0.000    0.000    0.000    0.000 
#    0.000    0.000    0.000    0.000    0.000    0.000 
#
# Total GULP energy -396596.931586 kJ/mol
# GULP energy per Si atom -12393.654112 kJ/mol
# Density = 2.194367 g / cm^3
# Si number density = 21.993726 Si / 1000 Ang^3
#
#
#
# Elastic Constant Matrix: (Units=GPa)
#
#
# Indices 1 2 3 4 5 6 
#
# 1 74.5851 49.0519 18.5125 0.0000 0.0000 0.0000
# 2 49.0519 88.5834 -4.8830 0.0000 0.0000 0.0000
# 3 18.5125 -4.8830 71.3358 0.0000 0.0000 0.0000
# 4 0.0000 0.0000 0.0000 22.6814 0.0000 0.0000
# 5 0.0000 0.0000 0.0000 0.0000 10.9831 0.0000
# 6 0.0000 0.0000 0.0000 0.0000 0.0000 30.3495
#
#
#
# Elastic Compliance Matrix: (Units=1/GPa)
#
#
# Indices 1 2 3 4 5 6 
#
# 1 0.024337 -0.013877 -0.007266 0.000000 0.000000 0.000000
# 2 -0.013877 0.019244 0.004918 0.000000 0.000000 0.000000
# 3 -0.007266 0.004918 0.016240 0.000000 0.000000 0.000000
# 4 0.000000 0.000000 0.000000 0.044089 0.000000 0.000000
# 5 0.000000 0.000000 0.000000 0.000000 0.091049 0.000000
# 6 0.000000 0.000000 0.000000 0.000000 0.000000 0.032949
#
#
# Mechanical properties :
#
#
# Convention : Reuss Voigt Hill
#
# Bulk Modulus (GPa) = 36.53170 39.98523 38.25847
# Shear Modulus (GPa) = 18.55415 24.25768 21.40591
#
# Velocity S-wave (km/s) = 2.90765 3.32465 3.12312
# Velocity P-wave (km/s) = 5.28381 5.74086 5.51707
#
# Compressibility (1/GPa) = 0.02737349
#
# Stress axis : x y z
#
# Youngs Moduli (GPa) = 41.08930 51.96400 61.57487
#
# Poissons Ratio (x) = 0.72110 0.44738
# Poissons Ratio (y) = 0.57019 -0.30285
# Poissons Ratio (z) = 0.29854 -0.25558
#
# Static dielectric constant tensor:
#      x y z
#    x 3.379460 0.000000 0.000000 
#    y 0.000000 4.117760 0.000000 
#    z 0.000000 0.000000 4.082230 
# 
# 
# High freq. dielectric constant tensor:
#      x y z
#    x 1.815040 0.000000 0.000000 
#    y 0.000000 1.872760 0.000000 
#    z 0.000000 0.000000 1.873700 
# 
# From -- ./inp_files/20201.got.cif
#   From: 2010.06.25/outbox.cif.g09.slc.cpg/sg52_11_cif.got.tgz:20201.got - 2010.06.26 19:32:48.
