data_PCOD8217047
_publ_section_title
;
Structure prediction by ZEFSAII (Michael W. Deem and Ramdas Pophale) SiO2 
 PCOD8217047
Probable space group: P N N A
;
_chemical_formula_sum "Si O2"
_cell_formula_units_Z 48
_cell_length_a 15.185010
_cell_length_b 11.141226
_cell_length_c 14.978045
_cell_angle_alpha 90.000000
_cell_angle_beta 90.000000
_cell_angle_gamma 90.000000
_cell_volume 2533.980085
_symmetry_space_group_name_H-M "P N N A"
_symmetry_group_IT_number 52
_symmetry_cell_setting 'orthorhombic'
loop_
_space_group_symop_operation_xyz
x,y,z
1/2-x,-y,z
x,1/2-y,1/2-z
1/2-x,1/2+y,1/2-z
-x,-y,-z
1/2+x,y,-z
-x,1/2+y,1/2+z
1/2+x,1/2-y,1/2+z
loop_
_atom_site_type_symbol
_atom_site_label
_atom_site_fract_x
_atom_site_fract_y
_atom_site_fract_z
Si Si1 0.696046 0.826896 0.668561
Si Si2 0.104784 0.849494 0.065583
Si Si3 0.480869 0.542273 0.323905
Si Si4 0.152153 0.471631 0.588999
Si Si5 0.883565 0.579934 0.848718
Si Si6 0.934402 0.723826 0.520815
O O1 0.655186 0.750000 0.750000
O O2 0.688063 0.735689 0.585057
O O3 0.796414 0.857287 0.690756
O O4 0.637725 0.940245 0.638906
O O5 0.082045 0.930097 0.152545
O O6 0.021157 0.766850 0.039997
O O7 0.130387 0.933597 0.985996
O O8 0.582429 0.497040 0.331433
O O9 0.462041 0.590110 0.223876
O O10 0.457259 0.648139 0.391475
O O11 0.250000 0.500000 0.625673
O O12 0.140011 0.340193 0.542425
O O13 0.906993 0.643553 0.943523
#
# Coordination Sequence:
#
# PCOD8217047 Si02
#       6
#     8   8   8   8   8   8
#     4  11  21  32  48  74 108 136 169 210 265 314
#     4   9  18  33  49  73 106 136 168 215 262 312
#     4   9  17  32  49  74 108 134 169 213 265 304
#     4   9  17  30  54  79 101 135 174 221 258 300
#     4  11  21  31  50  78 103 139 171 212 260 317
#     4   9  18  31  50  76 102 135 173 209 262 308
#
# _framework density 18.942530999999999
#
# number of rings (size 3 to 8) (size 9 to 14) (size 15 to 20)
#    0.000    2.333    1.667    4.500    0.000    2.000 
#    0.000    0.000    0.000    0.000   43.333    0.000 
#    0.000    0.000    0.000    0.000    0.000    0.000 
#
# Total GULP energy -594626.285493 kJ/mol
# GULP energy per Si atom -12388.047614 kJ/mol
# Density = 1.889942 g / cm^3
# Si number density = 18.942531 Si / 1000 Ang^3
#
#
#
# Elastic Constant Matrix: (Units=GPa)
#
#
# Indices 1 2 3 4 5 6 
#
# 1 88.6694 30.7590 20.5700 0.0000 0.0000 0.0000
# 2 30.7590 99.0704 31.6532 0.0000 0.0000 0.0000
# 3 20.5700 31.6532 48.4614 0.0000 0.0000 0.0000
# 4 0.0000 0.0000 0.0000 26.8108 0.0000 0.0000
# 5 0.0000 0.0000 0.0000 0.0000 19.9732 0.0000
# 6 0.0000 0.0000 0.0000 0.0000 0.0000 27.2910
#
#
#
# Elastic Compliance Matrix: (Units=1/GPa)
#
#
# Indices 1 2 3 4 5 6 
#
# 1 0.013139 -0.002903 -0.003681 0.000000 0.000000 0.000000
# 2 -0.002903 0.013397 -0.007518 0.000000 0.000000 0.000000
# 3 -0.003681 -0.007518 0.027108 0.000000 0.000000 0.000000
# 4 0.000000 0.000000 0.000000 0.037298 0.000000 0.000000
# 5 0.000000 0.000000 0.000000 0.000000 0.050067 0.000000
# 6 0.000000 0.000000 0.000000 0.000000 0.000000 0.036642
#
#
# Mechanical properties :
#
#
# Convention : Reuss Voigt Hill
#
# Bulk Modulus (GPa) = 39.30868 44.68506 41.99687
# Shear Modulus (GPa) = 23.32787 25.02962 24.17874
#
# Velocity S-wave (km/s) = 3.51309 3.63897 3.57659
# Velocity P-wave (km/s) = 6.10347 6.42629 6.26696
#
# Compressibility (1/GPa) = 0.02543968
#
# Stress axis : x y z
#
# Youngs Moduli (GPa) = 76.11021 74.64153 36.88958
#
# Poissons Ratio (x) = 0.21671 0.13577
# Poissons Ratio (y) = 0.22097 0.27735
# Poissons Ratio (z) = 0.28013 0.56118
#
# Static dielectric constant tensor:
#      x y z
#    x 3.732070 0.000000 0.000000 
#    y 0.000000 3.608040 0.000000 
#    z 0.000000 0.000000 3.171210 
# 
# 
# High freq. dielectric constant tensor:
#      x y z
#    x 1.724850 0.000000 0.000000 
#    y 0.000000 1.738410 0.000000 
#    z 0.000000 0.000000 1.699330 
# 
# From -- ./inp_files/27174.got.cif
#   From: 2010.06.25/outbox.cif.g09.slc.cpg/sg52_14_cif.got.tgz:27174.got - 2010.06.26 19:32:48.
