data_PCOD8217332
_publ_section_title
;
Structure prediction by ZEFSAII (Michael W. Deem and Ramdas Pophale) SiO2 
 PCOD8217332
Probable space group: P N N A
;
_chemical_formula_sum "Si O2"
_cell_formula_units_Z 40
_cell_length_a 9.220493
_cell_length_b 10.432863
_cell_length_c 18.370721
_cell_angle_alpha 90.000000
_cell_angle_beta 90.000000
_cell_angle_gamma 90.000000
_cell_volume 1767.192454
_symmetry_space_group_name_H-M "P N N A"
_symmetry_group_IT_number 52
_symmetry_cell_setting 'orthorhombic'
loop_
_space_group_symop_operation_xyz
x,y,z
1/2-x,-y,z
x,1/2-y,1/2-z
1/2-x,1/2+y,1/2-z
-x,-y,-z
1/2+x,y,-z
-x,1/2+y,1/2+z
1/2+x,1/2-y,1/2+z
loop_
_atom_site_type_symbol
_atom_site_label
_atom_site_fract_x
_atom_site_fract_y
_atom_site_fract_z
Si Si1 0.743173 0.858723 0.308689
Si Si2 0.750932 0.146114 0.542534
Si Si3 0.553430 0.242888 0.423731
Si Si4 0.924363 0.503015 0.578407
Si Si5 0.442394 0.759781 0.335674
O O1 0.760875 0.750000 0.250000
O O2 0.876801 0.847665 0.363409
O O3 0.589821 0.838882 0.349061
O O4 0.750000 0.000000 0.273310
O O5 0.668759 0.249767 0.490643
O O6 0.686427 0.163861 0.623923
O O7 0.918513 0.175592 0.539512
O O8 0.750000 0.000000 0.514802
O O9 0.497255 0.375209 0.386857
O O10 0.750000 0.500000 0.572596
O O11 0.969680 0.619157 0.630436
O O12 0.000000 0.500000 0.500000
O O13 0.403447 0.750000 0.250000
#
# Coordination Sequence:
#
# PCOD8217332 Si02
#       5
#     8   8   8   8   8
#     4  11  27  48  72 107 144 194 245 302 375 448
#     4  12  24  44  70 103 140 193 235 310 371 442
#     4  12  24  43  74 103 144 181 251 301 369 440
#     4  12  25  46  74 111 142 192 254 313 376 436
#     4  11  26  45  70 104 151 191 245 309 376 451
#
# _framework density 22.634775000000001
#
# number of rings (size 3 to 8) (size 9 to 14) (size 15 to 20)
#    0.000    0.400    4.000    3.600    8.400    1.600 
#    0.000    0.000    0.000    0.000    0.000    0.000 
#    0.000    0.000    0.000    0.000    0.000    0.000 
#
# Total GULP energy -495844.062097 kJ/mol
# GULP energy per Si atom -12396.101552 kJ/mol
# Density = 2.258326 g / cm^3
# Si number density = 22.634775 Si / 1000 Ang^3
#
#
#
# Elastic Constant Matrix: (Units=GPa)
#
#
# Indices 1 2 3 4 5 6 
#
# 1 128.2995 31.7327 34.1337 0.0000 0.0000 0.0000
# 2 31.7327 149.8131 46.4411 0.0000 0.0000 0.0000
# 3 34.1337 46.4411 99.8288 0.0000 0.0000 0.0000
# 4 0.0000 0.0000 0.0000 38.0942 0.0000 0.0000
# 5 0.0000 0.0000 0.0000 0.0000 47.0261 0.0000
# 6 0.0000 0.0000 0.0000 0.0000 0.0000 10.2116
#
#
#
# Elastic Compliance Matrix: (Units=1/GPa)
#
#
# Indices 1 2 3 4 5 6 
#
# 1 0.008721 -0.001078 -0.002480 0.000000 0.000000 0.000000
# 2 -0.001078 0.007933 -0.003322 0.000000 0.000000 0.000000
# 3 -0.002480 -0.003322 0.012411 0.000000 0.000000 0.000000
# 4 0.000000 0.000000 0.000000 0.026251 0.000000 0.000000
# 5 0.000000 0.000000 0.000000 0.000000 0.021265 0.000000
# 6 0.000000 0.000000 0.000000 0.000000 0.000000 0.097928
#
#
# Mechanical properties :
#
#
# Convention : Reuss Voigt Hill
#
# Bulk Modulus (GPa) = 65.34359 66.95071 66.14715
# Shear Modulus (GPa) = 25.85722 36.77531 31.31627
#
# Velocity S-wave (km/s) = 3.38356 4.03516 3.72364
# Velocity P-wave (km/s) = 6.64801 7.16610 6.91191
#
# Compressibility (1/GPa) = 0.01530372
#
# Stress axis : x y z
#
# Youngs Moduli (GPa) = 114.66805 126.05341 80.57676
#
# Poissons Ratio (x) = 0.13593 0.19985
# Poissons Ratio (y) = 0.12365 0.26766
# Poissons Ratio (z) = 0.28440 0.41873
#
# Static dielectric constant tensor:
#      x y z
#    x 4.423430 0.000000 0.000000 
#    y 0.000000 4.581550 0.000000 
#    z 0.000000 0.000000 4.006510 
# 
# 
# High freq. dielectric constant tensor:
#      x y z
#    x 1.908810 0.000000 0.000000 
#    y 0.000000 1.908730 0.000000 
#    z 0.000000 0.000000 1.880040 
# 
# From -- ./inp_files/30862.got.cif
#   From: 2010.06.25/outbox.cif.g09.slc.cpg/sg52_16_cif.got.tgz:30862.got - 2010.06.26 19:32:48.
