data_PCOD8217147
_publ_section_title
;
Structure prediction by ZEFSAII (Michael W. Deem and Ramdas Pophale) SiO2 
 PCOD8217147
Probable space group: P N N A
;
_chemical_formula_sum "Si O2"
_cell_formula_units_Z 48
_cell_length_a 13.367883
_cell_length_b 13.127879
_cell_length_c 12.576888
_cell_angle_alpha 90.000000
_cell_angle_beta 90.000000
_cell_angle_gamma 90.000000
_cell_volume 2207.142606
_symmetry_space_group_name_H-M "P N N A"
_symmetry_group_IT_number 52
_symmetry_cell_setting 'orthorhombic'
loop_
_space_group_symop_operation_xyz
x,y,z
1/2-x,-y,z
x,1/2-y,1/2-z
1/2-x,1/2+y,1/2-z
-x,-y,-z
1/2+x,y,-z
-x,1/2+y,1/2+z
1/2+x,1/2-y,1/2+z
loop_
_atom_site_type_symbol
_atom_site_label
_atom_site_fract_x
_atom_site_fract_y
_atom_site_fract_z
Si Si1 0.266045 0.660320 0.119992
Si Si2 0.964180 0.049132 0.890874
Si Si3 0.941724 0.226315 0.580047
Si Si4 0.958379 0.520770 0.170637
Si Si5 0.250000 0.500000 0.302212
Si Si6 0.750000 0.500000 0.061327
Si Si7 0.019878 0.302023 0.139765
O O1 0.170373 0.733003 0.125618
O O2 0.274727 0.594979 0.226757
O O3 0.365599 0.730265 0.113056
O O4 0.247541 0.598272 0.012321
O O5 0.990022 0.168971 0.881689
O O6 0.034001 0.007667 0.797111
O O7 0.846911 0.022753 0.874701
O O8 0.000000 0.000000 0.000000
O O9 0.996844 0.125727 0.624723
O O10 0.944334 0.233393 0.451761
O O11 0.844734 0.504723 0.138001
O O12 0.024065 0.425384 0.130443
O O13 0.983933 0.250000 0.250000
#
# Coordination Sequence:
#
# PCOD8217147 Si02
#       7
#     8   8   8   8   4   4   8
#     4  11  22  41  74 108 129 179 248 298 348 425
#     4  12  28  47  69 104 147 193 236 300 377 439
#     4  12  25  43  73 107 139 183 246 296 357 434
#     4  12  23  46  69 102 141 189 241 299 355 429
#     4  11  24  43  74 100 138 181 244 301 352 438
#     4  11  22  43  72 106 136 183 238 301 352 422
#     4  12  25  42  73 107 145 183 236 299 363 432
#
# _framework density 21.747577
#
# number of rings (size 3 to 8) (size 9 to 14) (size 15 to 20)
#    0.000    0.333    6.667    3.000    2.333    0.667 
#    0.000    3.333    0.000    0.000    0.000    0.000 
#    0.000    0.000    0.000    0.000    0.000    0.000 
#
# Total GULP energy -594999.359765 kJ/mol
# GULP energy per Si atom -12395.819995 kJ/mol
# Density = 2.169808 g / cm^3
# Si number density = 21.747577 Si / 1000 Ang^3
#
#
#
# Elastic Constant Matrix: (Units=GPa)
#
#
# Indices 1 2 3 4 5 6 
#
# 1 121.6376 32.4794 58.6858 0.0000 0.0000 0.0000
# 2 32.4794 81.1431 12.6541 0.0000 0.0000 0.0000
# 3 58.6858 12.6541 121.4523 0.0000 0.0000 0.0000
# 4 0.0000 0.0000 0.0000 27.5354 0.0000 0.0000
# 5 0.0000 0.0000 0.0000 0.0000 44.8717 0.0000
# 6 0.0000 0.0000 0.0000 0.0000 0.0000 22.9119
#
#
#
# Elastic Compliance Matrix: (Units=1/GPa)
#
#
# Indices 1 2 3 4 5 6 
#
# 1 0.011824 -0.003905 -0.005307 0.000000 0.000000 0.000000
# 2 -0.003905 0.013817 0.000447 0.000000 0.000000 0.000000
# 3 -0.005307 0.000447 0.010751 0.000000 0.000000 0.000000
# 4 0.000000 0.000000 0.000000 0.036317 0.000000 0.000000
# 5 0.000000 0.000000 0.000000 0.000000 0.022286 0.000000
# 6 0.000000 0.000000 0.000000 0.000000 0.000000 0.043645
#
#
# Mechanical properties :
#
#
# Convention : Reuss Voigt Hill
#
# Bulk Modulus (GPa) = 53.01164 59.09684 56.05424
# Shear Modulus (GPa) = 30.77727 33.75805 32.26766
#
# Velocity S-wave (km/s) = 3.76600 3.94416 3.85611
# Velocity P-wave (km/s) = 6.58325 6.92639 6.75700
#
# Compressibility (1/GPa) = 0.01886378
#
# Stress axis : x y z
#
# Youngs Moduli (GPa) = 84.57272 72.37287 93.01305
#
# Poissons Ratio (x) = 0.28264 0.49358
# Poissons Ratio (y) = 0.33029 -0.04162
# Poissons Ratio (z) = 0.44879 -0.03238
#
# Static dielectric constant tensor:
#      x y z
#    x 4.094780 0.000000 0.000000 
#    y 0.000000 4.212540 0.000000 
#    z 0.000000 0.000000 4.058210 
# 
# 
# High freq. dielectric constant tensor:
#      x y z
#    x 1.850010 0.000000 0.000000 
#    y 0.000000 1.857460 0.000000 
#    z 0.000000 0.000000 1.863090 
# 
# From -- ./inp_files/19567.got.cif
#   From: 2010.06.25/outbox.cif.g09.slc.cpg/sg52_10_cif.got.tgz:19567.got - 2010.06.26 19:32:48.
