data_PCOD8217311
_publ_section_title
;
Structure prediction by ZEFSAII (Michael W. Deem and Ramdas Pophale) SiO2 
 PCOD8217311
Probable space group: P N N A
;
_chemical_formula_sum "Si O2"
_cell_formula_units_Z 48
_cell_length_a 9.131341
_cell_length_b 8.425762
_cell_length_c 27.260200
_cell_angle_alpha 90.000000
_cell_angle_beta 90.000000
_cell_angle_gamma 90.000000
_cell_volume 2097.359061
_symmetry_space_group_name_H-M "P N N A"
_symmetry_group_IT_number 52
_symmetry_cell_setting 'orthorhombic'
loop_
_space_group_symop_operation_xyz
x,y,z
1/2-x,-y,z
x,1/2-y,1/2-z
1/2-x,1/2+y,1/2-z
-x,-y,-z
1/2+x,y,-z
-x,1/2+y,1/2+z
1/2+x,1/2-y,1/2+z
loop_
_atom_site_type_symbol
_atom_site_label
_atom_site_fract_x
_atom_site_fract_y
_atom_site_fract_z
Si Si1 0.908790 0.065868 0.623820
Si Si2 0.159197 0.859099 0.621329
Si Si3 0.179717 0.332526 0.539355
Si Si4 0.909412 0.070775 0.733122
Si Si5 0.135985 0.632285 0.708975
Si Si6 0.154080 0.845521 0.054088
O O1 0.977869 0.074899 0.678508
O O2 0.886160 0.237901 0.600441
O O3 0.750000 0.000000 0.626049
O O4 0.017036 0.942475 0.595182
O O5 0.275000 0.787748 0.582424
O O6 0.098688 0.730249 0.659896
O O7 0.250000 0.000000 0.648116
O O8 0.250000 0.500000 0.551830
O O9 0.247326 0.263251 0.488337
O O10 0.008345 0.373192 0.532180
O O11 0.909963 0.250000 0.750000
O O12 0.750000 0.000000 0.731369
O O13 0.993621 0.953184 0.769698
O O14 0.250000 0.500000 0.693228
O O15 0.203963 0.750000 0.750000
O O16 0.250000 0.000000 0.070942
#
# Coordination Sequence:
#
# PCOD8217311 Si02
#       6
#     8   8   8   8   8   8
#     4  11  27  45  70 100 141 185 241 301 364 443
#     4  12  26  47  69 104 146 184 245 303 371 435
#     4  11  25  45  73 104 145 190 242 303 364 446
#     4  11  26  47  70 102 141 187 240 297 362 437
#     4  12  25  43  72  99 139 186 237 300 368 437
#     4  11  25  47  73 105 145 192 243 301 366 444
#
# _framework density 22.885922999999998
#
# number of rings (size 3 to 8) (size 9 to 14) (size 15 to 20)
#    0.000    0.667    3.333    4.000    9.333    3.333 
#    0.000    0.000    0.000    0.000    0.000    0.000 
#    0.000    0.000    0.000    0.000    0.000    0.000 
#
# Total GULP energy -594673.739873 kJ/mol
# GULP energy per Si atom -12389.036247 kJ/mol
# Density = 2.283383 g / cm^3
# Si number density = 22.885923 Si / 1000 Ang^3
#
#
#
# Elastic Constant Matrix: (Units=GPa)
#
#
# Indices 1 2 3 4 5 6 
#
# 1 152.1897 58.0583 48.5667 0.0000 0.0000 0.0000
# 2 58.0583 134.8741 58.1283 0.0000 0.0000 0.0000
# 3 48.5667 58.1283 89.7707 0.0000 0.0000 0.0000
# 4 0.0000 0.0000 0.0000 49.3150 0.0000 0.0000
# 5 0.0000 0.0000 0.0000 0.0000 43.4299 0.0000
# 6 0.0000 0.0000 0.0000 0.0000 0.0000 45.7098
#
#
#
# Elastic Compliance Matrix: (Units=1/GPa)
#
#
# Indices 1 2 3 4 5 6 
#
# 1 0.008429 -0.002307 -0.003067 0.000000 0.000000 0.000000
# 2 -0.002307 0.010916 -0.005820 0.000000 0.000000 0.000000
# 3 -0.003067 -0.005820 0.016567 0.000000 0.000000 0.000000
# 4 0.000000 0.000000 0.000000 0.020278 0.000000 0.000000
# 5 0.000000 0.000000 0.000000 0.000000 0.023026 0.000000
# 6 0.000000 0.000000 0.000000 0.000000 0.000000 0.021877
#
#
# Mechanical properties :
#
#
# Convention : Reuss Voigt Hill
#
# Bulk Modulus (GPa) = 73.93663 78.48234 76.20948
# Shear Modulus (GPa) = 39.06604 41.82969 40.44787
#
# Velocity S-wave (km/s) = 4.13606 4.27985 4.20857
# Velocity P-wave (km/s) = 7.42873 7.66747 7.54905
#
# Compressibility (1/GPa) = 0.01352510
#
# Stress axis : x y z
#
# Youngs Moduli (GPa) = 118.63221 91.61116 60.36032
#
# Poissons Ratio (x) = 0.21134 0.18510
# Poissons Ratio (y) = 0.27367 0.35130
# Poissons Ratio (z) = 0.36380 0.53318
#
# Static dielectric constant tensor:
#      x y z
#    x 4.344680 0.000000 0.000000 
#    y 0.000000 4.198360 0.000000 
#    z 0.000000 0.000000 4.934340 
# 
# 
# High freq. dielectric constant tensor:
#      x y z
#    x 1.927040 0.000000 0.000000 
#    y 0.000000 1.914290 0.000000 
#    z 0.000000 0.000000 1.889570 
# 
# From -- ./inp_files/44392.got.cif
#   From: 2010.06.25/outbox.cif.g09.slc.cpg/sg52_23_cif.got.tgz:44392.got - 2010.06.26 19:32:48.
