data_PCOD8217495
_publ_section_title
;
Structure prediction by ZEFSAII (Michael W. Deem and Ramdas Pophale) SiO2 
 PCOD8217495
Probable space group: P M N A
;
_chemical_formula_sum "Si O2"
_cell_formula_units_Z 56
_cell_length_a 9.073024
_cell_length_b 17.867536
_cell_length_c 20.069860
_cell_angle_alpha 90.000000
_cell_angle_beta 90.000000
_cell_angle_gamma 90.000000
_cell_volume 3253.576844
_symmetry_space_group_name_H-M "P M N A"
_symmetry_group_IT_number 53
_symmetry_cell_setting 'orthorhombic'
loop_
_space_group_symop_operation_xyz
x,y,z
1/2-x,-y,1/2+z
x,-y,-z
1/2-x,y,1/2-z
-x,-y,-z
1/2+x,y,1/2-z
-x,y,z
1/2+x,-y,1/2+z
loop_
_atom_site_type_symbol
_atom_site_label
_atom_site_fract_x
_atom_site_fract_y
_atom_site_fract_z
Si Si1 0.670634 0.716240 0.888018
Si Si2 0.171513 0.534230 0.071931
Si Si3 0.663860 0.997416 0.079891
Si Si4 0.668130 0.679189 0.039787
Si Si5 0.825927 0.434791 0.318954
Si Si6 0.827460 0.860220 0.909351
Si Si7 0.830186 0.157688 0.546436
O O1 0.500000 0.736597 0.883278
O O2 0.715250 0.650415 0.837576
O O3 0.759800 0.791058 0.867364
O O4 0.710481 0.689326 0.962420
O O5 0.222043 0.620498 0.073404
O O6 0.266065 0.489992 0.125268
O O7 0.000000 0.529233 0.090217
O O8 0.205906 0.500000 0.000000
O O9 0.500000 0.017381 0.104067
O O10 0.770358 0.057937 0.115046
O O11 0.703137 0.910253 0.098689
O O12 0.676534 0.000000 0.000000
O O13 0.500000 0.650497 0.046484
O O14 0.689081 0.759390 0.077754
O O15 0.750000 0.456066 0.250000
O O16 0.000000 0.445936 0.313276
O O17 0.000000 0.858342 0.900293
O O18 0.781569 0.849381 0.985480
O O19 0.000000 0.149454 0.520047
#
# Coordination Sequence:
#
# PCOD8217495 Si02
#       7
#     8   8   8   8   8   8   8
#     4   9  18  32  48  65  90 126 163 196 240 297
#     4  11  22  34  51  76 104 131 166 209 253 303
#     4   8  13  23  36  50  78 119 157 189 229 283
#     4   9  16  29  48  69  92 123 167 206 244 294
#     4  11  23  39  57  75  99 131 167 209 257 307
#     4  10  17  22  35  59  86 116 154 197 235 275
#     4   8  15  26  38  55  83 121 158 193 236 288
#
# _framework density 17.211827
#
# number of rings (size 3 to 8) (size 9 to 14) (size 15 to 20)
#    0.000    2.571    1.429    3.857    0.000    6.571 
#    0.000    0.000    0.000    0.000    0.000    0.000 
#    0.000    1.143    0.000    7.429    0.000    7.857 
#
# Total GULP energy -693979.127363 kJ/mol
# GULP energy per Si atom -12392.484417 kJ/mol
# Density = 1.717265 g / cm^3
# Si number density = 17.211827 Si / 1000 Ang^3
#
#
#
# Elastic Constant Matrix: (Units=GPa)
#
#
# Indices 1 2 3 4 5 6 
#
# 1 91.7847 65.8286 28.9734 0.0000 0.0000 0.0000
# 2 65.8286 146.7020 33.5323 0.0000 0.0000 0.0000
# 3 28.9734 33.5323 42.2624 0.0000 0.0000 0.0000
# 4 0.0000 0.0000 0.0000 9.8595 0.0000 0.0000
# 5 0.0000 0.0000 0.0000 0.0000 14.7423 0.0000
# 6 0.0000 0.0000 0.0000 0.0000 0.0000 21.3561
#
#
#
# Elastic Compliance Matrix: (Units=1/GPa)
#
#
# Indices 1 2 3 4 5 6 
#
# 1 0.017655 -0.006298 -0.007107 0.000000 0.000000 0.000000
# 2 -0.006298 0.010573 -0.004071 0.000000 0.000000 0.000000
# 3 -0.007107 -0.004071 0.031764 0.000000 0.000000 0.000000
# 4 0.000000 0.000000 0.000000 0.101425 0.000000 0.000000
# 5 0.000000 0.000000 0.000000 0.000000 0.067832 0.000000
# 6 0.000000 0.000000 0.000000 0.000000 0.000000 0.046825
#
#
# Mechanical properties :
#
#
# Convention : Reuss Voigt Hill
#
# Bulk Modulus (GPa) = 39.93558 59.71308 49.82433
# Shear Modulus (GPa) = 15.65563 19.35258 17.50411
#
# Velocity S-wave (km/s) = 3.01921 3.35681 3.19247
# Velocity P-wave (km/s) = 5.95037 7.05639 6.52685
#
# Compressibility (1/GPa) = 0.02504033
#
# Stress axis : x y z
#
# Youngs Moduli (GPa) = 56.63995 94.57876 31.48190
#
# Poissons Ratio (x) = 0.59565 0.22374
# Poissons Ratio (y) = 0.35671 0.12818
# Poissons Ratio (z) = 0.40253 0.38508
#
# Static dielectric constant tensor:
#      x y z
#    x 3.133470 0.000000 0.000000 
#    y 0.000000 3.859220 0.000000 
#    z 0.000000 0.000000 2.443960 
# 
# 
# High freq. dielectric constant tensor:
#      x y z
#    x 1.664840 0.000000 0.000000 
#    y 0.000000 1.692250 0.000000 
#    z 0.000000 0.000000 1.580750 
# 
# From -- ./inp_files/31043.got.cif
#   From: 2010.03.12/outbox.cif.g09.slc.cpg/sg53_16_cif.got.tgz:31043.got - 2010.04.16 14:36:59.
