data_PCOD8217626
_publ_section_title
;
Structure prediction by ZEFSAII (Michael W. Deem and Ramdas Pophale) SiO2 
 PCOD8217626
Probable space group: P M N A
;
_chemical_formula_sum "Si O2"
_cell_formula_units_Z 60
_cell_length_a 14.020389
_cell_length_b 12.563598
_cell_length_c 19.634568
_cell_angle_alpha 90.000000
_cell_angle_beta 90.000000
_cell_angle_gamma 90.000000
_cell_volume 3458.561045
_symmetry_space_group_name_H-M "P M N A"
_symmetry_group_IT_number 53
_symmetry_cell_setting 'orthorhombic'
loop_
_space_group_symop_operation_xyz
x,y,z
1/2-x,-y,1/2+z
x,-y,-z
1/2-x,y,1/2-z
-x,-y,-z
1/2+x,y,1/2-z
-x,y,z
1/2+x,-y,1/2+z
loop_
_atom_site_type_symbol
_atom_site_label
_atom_site_fract_x
_atom_site_fract_y
_atom_site_fract_z
Si Si1 0.750000 0.871342 0.750000
Si Si2 0.108652 0.212896 0.602431
Si Si3 0.609625 0.409222 0.187609
Si Si4 0.270811 0.266802 0.371801
Si Si5 0.230538 0.388764 0.672489
Si Si6 0.395833 0.012327 0.159973
Si Si7 0.187205 0.109499 0.470213
Si Si8 0.390605 0.453515 0.344574
O O1 0.695442 0.801339 0.693330
O O2 0.674299 0.948474 0.783015
O O3 0.191442 0.293775 0.625964
O O4 0.128696 0.175729 0.525740
O O5 0.000000 0.259434 0.606147
O O6 0.118170 0.113437 0.652505
O O7 0.500000 0.397428 0.165756
O O8 0.667808 0.316122 0.149786
O O9 0.648678 0.523198 0.165081
O O10 0.622771 0.406198 0.268924
O O11 0.264768 0.189720 0.437462
O O12 0.346651 0.359095 0.391046
O O13 0.250000 0.350921 0.750000
O O14 0.330682 0.437663 0.644598
O O15 0.500000 0.038435 0.187676
O O16 0.385016 0.072940 0.088366
O O17 0.235178 0.000000 0.500000
O O18 0.500000 0.477067 0.363648
#
# Coordination Sequence:
#
# PCOD8217626 Si02
#       8
#     4   8   8   8   8   8   8   8
#     4  10  18  28  46  74 102 126 162 216 254 288
#     4  10  19  33  52  73 100 137 171 199 245 306
#     4   9  16  28  47  74 105 131 159 206 261 307
#     4  10  17  30  49  76 103 130 170 207 253 300
#     4   9  18  31  50  74 103 132 166 206 252 303
#     4   9  19  32  49  73 104 134 166 207 249 294
#     4   9  19  34  51  71 101 139 171 201 246 306
#     4   9  17  31  50  74 101 130 167 210 257 302
#
# _framework density 17.348255000000002
#
# number of rings (size 3 to 8) (size 9 to 14) (size 15 to 20)
#    0.000    2.667    1.333    1.600    0.933    5.333 
#    0.000    2.667    0.000    6.000    0.000    1.867 
#    0.000    0.000    0.000    0.000    0.000    0.000 
#
# Total GULP energy -743542.366421 kJ/mol
# GULP energy per Si atom -12392.372774 kJ/mol
# Density = 1.730877 g / cm^3
# Si number density = 17.348255 Si / 1000 Ang^3
#
#
#
# Elastic Constant Matrix: (Units=GPa)
#
#
# Indices 1 2 3 4 5 6 
#
# 1 128.3392 65.5747 43.7886 0.0000 0.0000 0.0000
# 2 65.5747 98.1071 45.2895 0.0000 0.0000 0.0000
# 3 43.7886 45.2895 66.4133 0.0000 0.0000 0.0000
# 4 0.0000 0.0000 0.0000 22.8318 0.0000 0.0000
# 5 0.0000 0.0000 0.0000 0.0000 15.7491 0.0000
# 6 0.0000 0.0000 0.0000 0.0000 0.0000 22.9032
#
#
#
# Elastic Compliance Matrix: (Units=1/GPa)
#
#
# Indices 1 2 3 4 5 6 
#
# 1 0.012423 -0.006600 -0.003690 0.000000 0.000000 0.000000
# 2 -0.006600 0.018382 -0.008184 0.000000 0.000000 0.000000
# 3 -0.003690 -0.008184 0.023071 0.000000 0.000000 0.000000
# 4 0.000000 0.000000 0.000000 0.043799 0.000000 0.000000
# 5 0.000000 0.000000 0.000000 0.000000 0.063496 0.000000
# 6 0.000000 0.000000 0.000000 0.000000 0.000000 0.043662
#
#
# Mechanical properties :
#
#
# Convention : Reuss Voigt Hill
#
# Bulk Modulus (GPa) = 59.07248 66.90722 62.98985
# Shear Modulus (GPa) = 20.20815 21.51059 20.85937
#
# Velocity S-wave (km/s) = 3.41670 3.52508 3.47131
# Velocity P-wave (km/s) = 7.04911 7.43096 7.24255
#
# Compressibility (1/GPa) = 0.01692836
#
# Stress axis : x y z
#
# Youngs Moduli (GPa) = 80.49405 54.39967 43.34409
#
# Poissons Ratio (x) = 0.35905 0.15995
# Poissons Ratio (y) = 0.53128 0.35472
# Poissons Ratio (z) = 0.29704 0.44520
#
# Static dielectric constant tensor:
#      x y z
#    x 3.117010 0.000000 0.000000 
#    y 0.000000 3.347000 0.000000 
#    z 0.000000 0.000000 3.017860 
# 
# 
# High freq. dielectric constant tensor:
#      x y z
#    x 1.654310 0.000000 0.000000 
#    y 0.000000 1.678110 0.000000 
#    z 0.000000 0.000000 1.643120 
# 
# From -- ./inp_files/28492.got.cif
#   From: 2010.03.12/outbox.cif.g09.slc.cpg/sg53_15_cif.got.tgz:28492.got - 2010.04.16 14:36:59.
