data_PCOD8217196
_publ_section_title
;
Structure prediction by ZEFSAII (Michael W. Deem and Ramdas Pophale) SiO2 
 PCOD8217196
Probable space group: P N N A
;
_chemical_formula_sum "Si O2"
_cell_formula_units_Z 40
_cell_length_a 22.517143
_cell_length_b 14.924858
_cell_length_c 5.257420
_cell_angle_alpha 90.000000
_cell_angle_beta 90.000000
_cell_angle_gamma 90.000000
_cell_volume 1766.835703
_symmetry_space_group_name_H-M "P N N A"
_symmetry_group_IT_number 52
_symmetry_cell_setting 'orthorhombic'
loop_
_space_group_symop_operation_xyz
x,y,z
1/2-x,-y,z
x,1/2-y,1/2-z
1/2-x,1/2+y,1/2-z
-x,-y,-z
1/2+x,y,-z
-x,1/2+y,1/2+z
1/2+x,1/2-y,1/2+z
loop_
_atom_site_type_symbol
_atom_site_label
_atom_site_fract_x
_atom_site_fract_y
_atom_site_fract_z
Si Si1 0.332777 0.250000 0.250000
Si Si2 0.250000 0.500000 0.855429
Si Si3 0.070146 0.501902 0.507557
Si Si4 0.104797 0.201481 0.005741
Si Si5 0.371321 0.080624 0.489304
Si Si6 0.763556 0.824739 0.060577
O O1 0.370781 0.189750 0.449509
O O2 0.290111 0.328878 0.360158
O O3 0.305384 0.463721 0.019570
O O4 0.225011 0.421052 0.680737
O O5 0.089438 0.400530 0.529589
O O6 0.096449 0.560241 0.741735
O O7 0.000000 0.500000 0.500000
O O8 0.091719 0.540472 0.241073
O O9 0.074221 0.250000 0.250000
O O10 0.083445 0.250000 0.750000
O O11 0.175067 0.210645 0.053334
O O12 0.738664 0.750000 0.250000
#
# Coordination Sequence:
#
# PCOD8217196 Si02
#       6
#     4   4   8   8   8   8
#     4  12  26  42  72 110 158 188 240 308 392 462
#     4  12  24  44  74 108 152 196 238 302 394 448
#     4  12  28  53  76 102 145 200 259 302 356 436
#     4  11  24  44  71 106 138 187 245 302 363 429
#     4  12  28  46  76 109 149 193 243 308 378 443
#     4  11  23  41  66 105 156 186 235 294 374 458
#
# _framework density 22.639341999999999
#
# number of rings (size 3 to 8) (size 9 to 14) (size 15 to 20)
#    0.000    0.400    5.000    3.000    5.600    0.800 
#    5.400    0.000    0.000    0.000    0.000    0.000 
#    0.000    0.000    0.000    0.000    0.000    0.000 
#
# Total GULP energy -495771.167904 kJ/mol
# GULP energy per Si atom -12394.279198 kJ/mol
# Density = 2.258781 g / cm^3
# Si number density = 22.639342 Si / 1000 Ang^3
#
#
#
# Elastic Constant Matrix: (Units=GPa)
#
#
# Indices 1 2 3 4 5 6 
#
# 1 83.4361 -13.7650 32.0214 0.0000 0.0000 0.0000
# 2 -13.7650 116.2897 43.3682 0.0000 0.0000 0.0000
# 3 32.0214 43.3682 135.4393 0.0000 0.0000 0.0000
# 4 0.0000 0.0000 0.0000 52.4063 0.0000 0.0000
# 5 0.0000 0.0000 0.0000 0.0000 29.0285 0.0000
# 6 0.0000 0.0000 0.0000 0.0000 0.0000 55.5400
#
#
#
# Elastic Compliance Matrix: (Units=1/GPa)
#
#
# Indices 1 2 3 4 5 6 
#
# 1 0.014239 0.003340 -0.004436 0.000000 0.000000 0.000000
# 2 0.003340 0.010549 -0.004167 0.000000 0.000000 0.000000
# 3 -0.004436 -0.004167 0.009766 0.000000 0.000000 0.000000
# 4 0.000000 0.000000 0.000000 0.019082 0.000000 0.000000
# 5 0.000000 0.000000 0.000000 0.000000 0.034449 0.000000
# 6 0.000000 0.000000 0.000000 0.000000 0.000000 0.018005
#
#
# Mechanical properties :
#
#
# Convention : Reuss Voigt Hill
#
# Bulk Modulus (GPa) = 41.62009 50.93493 46.27751
# Shear Modulus (GPa) = 40.12038 45.63101 42.87569
#
# Velocity S-wave (km/s) = 4.21426 4.49437 4.35657
# Velocity P-wave (km/s) = 6.48875 7.03419 6.76697
#
# Compressibility (1/GPa) = 0.02402686
#
# Stress axis : x y z
#
# Youngs Moduli (GPa) = 70.23197 94.79899 102.39105
#
# Poissons Ratio (x) = -0.31659 0.45418
# Poissons Ratio (y) = -0.23455 0.42669
# Poissons Ratio (z) = 0.31153 0.39505
#
# Static dielectric constant tensor:
#      x y z
#    x 3.862780 0.000000 0.000000 
#    y 0.000000 4.203610 0.000000 
#    z 0.000000 0.000000 4.275230 
# 
# 
# High freq. dielectric constant tensor:
#      x y z
#    x 1.873290 0.000000 0.000000 
#    y 0.000000 1.910240 0.000000 
#    z 0.000000 0.000000 1.905000 
# 
# From -- ./inp_files/5037.got.cif
#   From: 2010.06.25/outbox.cif.g09.slc.cpg/sg52_3_cif.got.tgz:5037.got - 2010.06.26 19:32:48.
