data_PCOD8217978
_publ_section_title
;
Structure prediction by ZEFSAII (Michael W. Deem and Ramdas Pophale) SiO2 
 PCOD8217978
Probable space group: P M N A
;
_chemical_formula_sum "Si O2"
_cell_formula_units_Z 48
_cell_length_a 14.115960
_cell_length_b 15.928438
_cell_length_c 8.992435
_cell_angle_alpha 90.000000
_cell_angle_beta 90.000000
_cell_angle_gamma 90.000000
_cell_volume 2021.905789
_symmetry_space_group_name_H-M "P M N A"
_symmetry_group_IT_number 53
_symmetry_cell_setting 'orthorhombic'
loop_
_space_group_symop_operation_xyz
x,y,z
1/2-x,-y,1/2+z
x,-y,-z
1/2-x,y,1/2-z
-x,-y,-z
1/2+x,y,1/2-z
-x,y,z
1/2+x,-y,1/2+z
loop_
_atom_site_type_symbol
_atom_site_label
_atom_site_fract_x
_atom_site_fract_y
_atom_site_fract_z
Si Si1 0.757868 0.084789 0.423693
Si Si2 0.389718 0.207417 0.482890
Si Si3 0.395854 0.776686 0.856415
Si Si4 0.605703 0.399274 0.983684
Si Si5 0.605969 0.533995 0.702505
Si Si6 0.188302 0.622280 0.063105
O O1 0.750000 0.064960 0.250000
O O2 0.660989 0.116809 0.504927
O O3 0.831052 0.160642 0.451059
O O4 0.793609 0.000000 0.500000
O O5 0.500000 0.197550 0.519406
O O6 0.364366 0.231689 0.314054
O O7 0.345556 0.281703 0.584314
O O8 0.500000 0.816174 0.864751
O O9 0.393020 0.683894 0.917972
O O10 0.500000 0.406300 0.905734
O O11 0.619263 0.471193 0.115760
O O12 0.701686 0.389949 0.883288
O O13 0.500000 0.566146 0.664974
O O14 0.678684 0.593100 0.611745
O O15 0.618348 0.437055 0.656820
#
# Coordination Sequence:
#
# PCOD8217978 Si02
#       6
#     8   8   8   8   8   8
#     4  10  21  36  57  87 121 149 194 241 297 356
#     4  10  18  30  53  82 111 144 187 238 293 349
#     4   9  17  31  53  83 110 142 187 237 290 349
#     4  10  19  32  52  78 110 145 191 244 293 342
#     4  10  20  30  47  79 114 143 183 236 287 335
#     4  11  18  30  51  78 108 144 191 235 288 338
#
# _framework density 23.739978000000001
#
# number of rings (size 3 to 8) (size 9 to 14) (size 15 to 20)
#    0.000    2.000    3.333    2.500    0.000    0.667 
#    0.000    1.667    0.000    7.000    0.000    0.000 
#    0.000    0.000    0.000    0.000    0.000    0.000 
#
# Total GULP energy -595018.811671 kJ/mol
# GULP energy per Si atom -12396.225243 kJ/mol
# Density = 2.368594 g / cm^3
# Si number density = 23.739978 Si / 1000 Ang^3
#
#
#
# Elastic Constant Matrix: (Units=GPa)
#
#
# Indices 1 2 3 4 5 6 
#
# 1 144.6703 28.0961 2.3522 0.0000 0.0000 0.0000
# 2 28.0961 90.7596 4.9532 0.0000 0.0000 0.0000
# 3 2.3522 4.9532 27.4138 0.0000 0.0000 0.0000
# 4 0.0000 0.0000 0.0000 32.8023 0.0000 0.0000
# 5 0.0000 0.0000 0.0000 0.0000 28.3498 0.0000
# 6 0.0000 0.0000 0.0000 0.0000 0.0000 22.0417
#
#
#
# Elastic Compliance Matrix: (Units=1/GPa)
#
#
# Indices 1 2 3 4 5 6 
#
# 1 0.007356 -0.002265 -0.000222 0.000000 0.000000 0.000000
# 2 -0.002265 0.011825 -0.001942 0.000000 0.000000 0.000000
# 3 -0.000222 -0.001942 0.036848 0.000000 0.000000 0.000000
# 4 0.000000 0.000000 0.000000 0.030486 0.000000 0.000000
# 5 0.000000 0.000000 0.000000 0.000000 0.035274 0.000000
# 6 0.000000 0.000000 0.000000 0.000000 0.000000 0.045368
#
#
# Mechanical properties :
#
#
# Convention : Reuss Voigt Hill
#
# Bulk Modulus (GPa) = 21.19961 37.07183 29.13572
# Shear Modulus (GPa) = 26.07716 31.80157 28.93937
#
# Velocity S-wave (km/s) = 3.31788 3.66400 3.49523
# Velocity P-wave (km/s) = 4.86077 5.79219 5.34680
#
# Compressibility (1/GPa) = 0.04717069
#
# Stress axis : x y z
#
# Youngs Moduli (GPa) = 135.94802 84.56459 27.13854
#
# Poissons Ratio (x) = 0.19154 0.00602
# Poissons Ratio (y) = 0.30792 0.05271
# Poissons Ratio (z) = 0.03017 0.16425
#
# Static dielectric constant tensor:
#      x y z
#    x 4.641820 0.000000 0.000000 
#    y 0.000000 4.295370 0.000000 
#    z 0.000000 0.000000 4.107920 
# 
# 
# High freq. dielectric constant tensor:
#      x y z
#    x 1.958800 0.000000 0.000000 
#    y 0.000000 1.933410 0.000000 
#    z 0.000000 0.000000 1.921000 
# 
# From -- ./inp_files/15937.got.cif
#   From: 2010.03.12/outbox.cif.g09.slc.cpg/sg53_8_cif.got.tgz:15937.got - 2010.04.16 14:36:59.
