data_PCOD8217839
_publ_section_title
;
Structure prediction by ZEFSAII (Michael W. Deem and Ramdas Pophale) SiO2 
 PCOD8217839
Probable space group: P M N A
;
_chemical_formula_sum "Si O2"
_cell_formula_units_Z 56
_cell_length_a 9.441186
_cell_length_b 16.581976
_cell_length_c 21.647184
_cell_angle_alpha 90.000000
_cell_angle_beta 90.000000
_cell_angle_gamma 90.000000
_cell_volume 3388.942846
_symmetry_space_group_name_H-M "P M N A"
_symmetry_group_IT_number 53
_symmetry_cell_setting 'orthorhombic'
loop_
_space_group_symop_operation_xyz
x,y,z
1/2-x,-y,1/2+z
x,-y,-z
1/2-x,y,1/2-z
-x,-y,-z
1/2+x,y,1/2-z
-x,y,z
1/2+x,-y,1/2+z
loop_
_atom_site_type_symbol
_atom_site_label
_atom_site_fract_x
_atom_site_fract_y
_atom_site_fract_z
Si Si1 0.841676 0.918881 0.803694
Si Si2 0.156643 0.865054 0.477755
Si Si3 0.838173 0.726871 0.973944
Si Si4 0.343150 0.260846 0.333311
Si Si5 0.343115 0.982505 0.907352
Si Si6 0.336472 0.570417 0.950545
Si Si7 0.167566 0.586271 0.690444
O O1 0.750000 0.959089 0.750000
O O2 0.829957 0.822437 0.797414
O O3 0.784369 0.951218 0.867202
O O4 0.000000 0.949538 0.796317
O O5 0.268557 0.792282 0.480366
O O6 0.166260 0.927924 0.532775
O O7 0.000000 0.825679 0.475383
O O8 0.183517 0.921955 0.418468
O O9 0.000000 0.713528 0.994698
O O10 0.825483 0.761227 0.905107
O O11 0.758307 0.641980 0.976923
O O12 0.500000 0.299884 0.322269
O O13 0.219734 0.320875 0.311123
O O14 0.500000 0.971134 0.877438
O O15 0.500000 0.597443 0.950750
O O16 0.296539 0.548101 0.878075
O O17 0.309561 0.500000 0.000000
O O18 0.250000 0.545183 0.750000
O O19 0.000000 0.582403 0.703407
#
# Coordination Sequence:
#
# PCOD8217839 Si02
#       7
#     8   8   8   8   8   8   8
#     4  11  21  31  42  60  88 124 161 197 236 279
#     4   9  17  30  48  68  91 120 154 192 234 278
#     4  10  18  29  47  72  98 123 155 194 238 284
#     4   9  18  30  42  62  92 124 159 192 223 270
#     4   9  18  31  46  65  89 119 157 197 233 273
#     4   9  19  35  52  71  97 130 165 198 238 290
#     4  10  19  30  47  69  93 125 159 194 232 278
#
# _framework density 16.524327
#
# number of rings (size 3 to 8) (size 9 to 14) (size 15 to 20)
#    0.000    2.429    1.429    2.571    0.000    4.286 
#    0.000    1.429    0.000    0.000    0.000    1.000 
#    0.000    2.286    0.000    0.000    0.000    0.000 
#
# Total GULP energy -693808.485234 kJ/mol
# GULP energy per Si atom -12389.437236 kJ/mol
# Density = 1.648672 g / cm^3
# Si number density = 16.524327 Si / 1000 Ang^3
#
#
#
# Elastic Constant Matrix: (Units=GPa)
#
#
# Indices 1 2 3 4 5 6 
#
# 1 117.8844 43.1491 37.2263 0.0000 0.0000 0.0000
# 2 43.1491 53.4749 21.7860 0.0000 0.0000 0.0000
# 3 37.2263 21.7860 57.7490 0.0000 0.0000 0.0000
# 4 0.0000 0.0000 0.0000 14.8391 0.0000 0.0000
# 5 0.0000 0.0000 0.0000 0.0000 19.5191 0.0000
# 6 0.0000 0.0000 0.0000 0.0000 0.0000 14.4898
#
#
#
# Elastic Compliance Matrix: (Units=1/GPa)
#
#
# Indices 1 2 3 4 5 6 
#
# 1 0.013303 -0.008556 -0.005348 0.000000 0.000000 0.000000
# 2 -0.008556 0.027599 -0.004897 0.000000 0.000000 0.000000
# 3 -0.005348 -0.004897 0.022611 0.000000 0.000000 0.000000
# 4 0.000000 0.000000 0.000000 0.067389 0.000000 0.000000
# 5 0.000000 0.000000 0.000000 0.000000 0.051232 0.000000
# 6 0.000000 0.000000 0.000000 0.000000 0.000000 0.069014
#
#
# Mechanical properties :
#
#
# Convention : Reuss Voigt Hill
#
# Bulk Modulus (GPa) = 38.59107 48.15899 43.37503
# Shear Modulus (GPa) = 16.81313 18.23274 17.52293
#
# Velocity S-wave (km/s) = 3.19325 3.32533 3.25996
# Velocity P-wave (km/s) = 6.08281 6.62958 6.36207
#
# Compressibility (1/GPa) = 0.02591273
#
# Stress axis : x y z
#
# Youngs Moduli (GPa) = 75.16913 36.23338 44.22637
#
# Poissons Ratio (x) = 0.31000 0.23652
# Poissons Ratio (y) = 0.64313 0.21656
# Poissons Ratio (z) = 0.40200 0.17742
#
# Static dielectric constant tensor:
#      x y z
#    x 3.299840 0.000000 0.000000 
#    y 0.000000 2.854310 0.000000 
#    z 0.000000 0.000000 2.568020 
# 
# 
# High freq. dielectric constant tensor:
#      x y z
#    x 1.650360 0.000000 0.000000 
#    y 0.000000 1.593490 0.000000 
#    z 0.000000 0.000000 1.622070 
# 
# From -- ./inp_files/30995.got.cif
#   From: 2010.03.12/outbox.cif.g09.slc.cpg/sg53_16_cif.got.tgz:30995.got - 2010.04.16 14:36:59.
