data_PCOD8217874
_publ_section_title
;
Structure prediction by ZEFSAII (Michael W. Deem and Ramdas Pophale) SiO2 
 PCOD8217874
Probable space group: P M N A
;
_chemical_formula_sum "Si O2"
_cell_formula_units_Z 48
_cell_length_a 19.187843
_cell_length_b 4.967213
_cell_length_c 29.313166
_cell_angle_alpha 90.000000
_cell_angle_beta 90.000000
_cell_angle_gamma 90.000000
_cell_volume 2793.840876
_symmetry_space_group_name_H-M "P M N A"
_symmetry_group_IT_number 53
_symmetry_cell_setting 'orthorhombic'
loop_
_space_group_symop_operation_xyz
x,y,z
1/2-x,-y,1/2+z
x,-y,-z
1/2-x,y,1/2-z
-x,-y,-z
1/2+x,y,1/2-z
-x,y,z
1/2+x,-y,1/2+z
loop_
_atom_site_type_symbol
_atom_site_label
_atom_site_fract_x
_atom_site_fract_y
_atom_site_fract_z
Si Si1 0.852549 0.899741 0.210978
Si Si2 0.639985 0.721002 0.185598
Si Si3 0.500000 0.946322 0.724830
Si Si4 0.500000 0.444946 0.785617
Si Si5 0.270380 0.414272 0.301708
Si Si6 0.420169 0.468073 0.950260
Si Si7 0.580504 0.047350 0.107622
O O1 0.929778 0.996450 0.195831
O O2 0.794830 0.107979 0.190746
O O3 0.847637 0.874986 0.266155
O O4 0.835970 0.612516 0.187999
O O5 0.571068 0.525028 0.185366
O O6 0.702744 0.519608 0.170637
O O7 0.630239 0.956879 0.148960
O O8 0.500000 0.639745 0.742078
O O9 0.500000 0.137189 0.768782
O O10 0.250000 0.459581 0.250000
O O11 0.500000 0.561332 0.955407
O O12 0.412733 0.164520 0.933659
O O13 0.389052 0.672327 0.912186
O O14 0.383709 0.500000 0.000000
O O15 0.500000 0.065399 0.124949
#
# Coordination Sequence:
#
# PCOD8217874 Si02
#       7
#     8   8   4   4   8   8   8
#     4  10  20  31  43  59  76 108 135 171 219 255
#     4  10  20  32  44  62  86 106 141 183 218 260
#     4  10  18  30  44  56  74  96 137 174 205 254
#     4  10  20  28  40  58  77 104 126 174 226 238
#     4  10  19  30  43  56  79 108 136 163 213 265
#     4   9  18  31  45  60  82 109 137 172 216 266
#     4  10  19  30  45  65  83 106 140 180 225 257
#
# _framework density 17.180651000000001
#
# number of rings (size 3 to 8) (size 9 to 14) (size 15 to 20)
#    0.000    2.167    0.833    5.000    0.000   10.000 
#    0.000    0.000    0.000    0.000    0.000    0.000 
#    0.000    0.000    0.000    0.000    0.000    0.000 
#
# Total GULP energy -594844.054082 kJ/mol
# GULP energy per Si atom -12392.584460 kJ/mol
# Density = 1.714155 g / cm^3
# Si number density = 17.180651 Si / 1000 Ang^3
#
#
#
# Elastic Constant Matrix: (Units=GPa)
#
#
# Indices 1 2 3 4 5 6 
#
# 1 71.9947 7.3111 0.7669 0.0000 0.0000 0.0000
# 2 7.3111 53.4910 -9.0850 0.0000 0.0000 0.0000
# 3 0.7669 -9.0850 20.0908 0.0000 0.0000 0.0000
# 4 0.0000 0.0000 0.0000 12.3710 0.0000 0.0000
# 5 0.0000 0.0000 0.0000 0.0000 7.5236 0.0000
# 6 0.0000 0.0000 0.0000 0.0000 0.0000 16.0038
#
#
#
# Elastic Compliance Matrix: (Units=1/GPa)
#
#
# Indices 1 2 3 4 5 6 
#
# 1 0.014129 -0.002191 -0.001530 0.000000 0.000000 0.000000
# 2 -0.002191 0.020590 0.009394 0.000000 0.000000 0.000000
# 3 -0.001530 0.009394 0.054081 0.000000 0.000000 0.000000
# 4 0.000000 0.000000 0.000000 0.080834 0.000000 0.000000
# 5 0.000000 0.000000 0.000000 0.000000 0.132916 0.000000
# 6 0.000000 0.000000 0.000000 0.000000 0.000000 0.062485
#
#
# Mechanical properties :
#
#
# Convention : Reuss Voigt Hill
#
# Bulk Modulus (GPa) = 9.98547 15.95137 12.96842
# Shear Modulus (GPa) = 12.91758 16.95191 14.93475
#
# Velocity S-wave (km/s) = 2.74500 3.14456 2.95155
# Velocity P-wave (km/s) = 3.98388 4.74226 4.37952
#
# Compressibility (1/GPa) = 0.10014554
#
# Stress axis : x y z
#
# Youngs Moduli (GPa) = 70.77794 48.56787 18.49094
#
# Poissons Ratio (x) = 0.10641 0.02829
# Poissons Ratio (y) = 0.15507 -0.17371
# Poissons Ratio (z) = 0.10829 -0.45626
#
# Static dielectric constant tensor:
#      x y z
#    x 3.551680 0.000000 0.000000 
#    y 0.000000 3.375590 0.000000 
#    z 0.000000 0.000000 2.734530 
# 
# 
# High freq. dielectric constant tensor:
#      x y z
#    x 1.641210 0.000000 0.000000 
#    y 0.000000 1.690500 0.000000 
#    z 0.000000 0.000000 1.584640 
# 
# From -- ./inp_files/37200.got.cif
#   From: 2010.03.12/outbox.cif.g09.slc.cpg/sg53_19_cif.got.tgz:37200.got - 2010.04.16 14:36:59.
