data_PCOD8217266
_publ_section_title
;
Structure prediction by ZEFSAII (Michael W. Deem and Ramdas Pophale) SiO2 
 PCOD8217266
Probable space group: P N N A
;
_chemical_formula_sum "Si O2"
_cell_formula_units_Z 36
_cell_length_a 14.237774
_cell_length_b 18.955043
_cell_length_c 6.514926
_cell_angle_alpha 90.000000
_cell_angle_beta 90.000000
_cell_angle_gamma 90.000000
_cell_volume 1758.232713
_symmetry_space_group_name_H-M "P N N A"
_symmetry_group_IT_number 52
_symmetry_cell_setting 'orthorhombic'
loop_
_space_group_symop_operation_xyz
x,y,z
1/2-x,-y,z
x,1/2-y,1/2-z
1/2-x,1/2+y,1/2-z
-x,-y,-z
1/2+x,y,-z
-x,1/2+y,1/2+z
1/2+x,1/2-y,1/2+z
loop_
_atom_site_type_symbol
_atom_site_label
_atom_site_fract_x
_atom_site_fract_y
_atom_site_fract_z
Si Si1 0.648609 0.534548 0.474870
Si Si2 0.715675 0.682469 0.369051
Si Si3 0.598172 0.184206 0.374337
Si Si4 0.690545 0.250000 0.750000
Si Si5 0.497337 0.955221 0.699984
O O1 0.750000 0.500000 0.508002
O O2 0.650617 0.613066 0.374462
O O3 0.598696 0.540513 0.694488
O O4 0.587715 0.482207 0.338564
O O5 0.667864 0.750000 0.250000
O O6 0.807344 0.660573 0.241310
O O7 0.743912 0.702669 0.602189
O O8 0.554426 0.250000 0.250000
O O9 0.622775 0.201176 0.611121
O O10 0.519908 0.124797 0.366836
O O11 0.500000 0.000000 0.500000
#
# Coordination Sequence:
#
# PCOD8217266 Si02
#       5
#     8   8   8   4   8
#     4  11  24  44  66  91 135 168 212 274 322 387
#     4   9  19  39  66  92 120 162 212 257 314 380
#     4   9  19  39  62  92 125 163 209 256 315 382
#     4   8  18  32  70  88 120 164 206 250 318 368
#     4  11  26  41  64  98 127 171 220 263 329 392
#
# _framework density 20.475106
#
# number of rings (size 3 to 8) (size 9 to 14) (size 15 to 20)
#    0.000    2.667    2.222    0.000    3.111    6.222 
#    6.000    0.000    0.000    0.000    0.000    0.000 
#    0.000    0.000    0.000    0.000    0.000    0.000 
#
# Total GULP energy -446268.419166 kJ/mol
# GULP energy per Si atom -12396.344977 kJ/mol
# Density = 2.042850 g / cm^3
# Si number density = 20.475106 Si / 1000 Ang^3
#
#
#
# Elastic Constant Matrix: (Units=GPa)
#
#
# Indices 1 2 3 4 5 6 
#
# 1 87.4463 43.9604 32.1046 0.0000 0.0000 0.0000
# 2 43.9604 148.1480 45.3418 0.0000 0.0000 0.0000
# 3 32.1046 45.3418 134.1561 0.0000 0.0000 0.0000
# 4 0.0000 0.0000 0.0000 25.7584 0.0000 0.0000
# 5 0.0000 0.0000 0.0000 0.0000 18.9117 0.0000
# 6 0.0000 0.0000 0.0000 0.0000 0.0000 35.3200
#
#
#
# Elastic Compliance Matrix: (Units=1/GPa)
#
#
# Indices 1 2 3 4 5 6 
#
# 1 0.013984 -0.003486 -0.002168 0.000000 0.000000 0.000000
# 2 -0.003486 0.008398 -0.002004 0.000000 0.000000 0.000000
# 3 -0.002168 -0.002004 0.008650 0.000000 0.000000 0.000000
# 4 0.000000 0.000000 0.000000 0.038822 0.000000 0.000000
# 5 0.000000 0.000000 0.000000 0.000000 0.052877 0.000000
# 6 0.000000 0.000000 0.000000 0.000000 0.000000 0.028313
#
#
# Mechanical properties :
#
#
# Convention : Reuss Voigt Hill
#
# Bulk Modulus (GPa) = 63.63157 68.06266 65.84712
# Shear Modulus (GPa) = 29.13765 32.55426 30.84596
#
# Velocity S-wave (km/s) = 3.77646 3.99174 3.88559
# Velocity P-wave (km/s) = 7.08241 7.38641 7.23601
#
# Compressibility (1/GPa) = 0.01571547
#
# Stress axis : x y z
#
# Youngs Moduli (GPa) = 71.50993 119.07962 115.60388
#
# Poissons Ratio (x) = 0.41510 0.25067
# Poissons Ratio (y) = 0.24928 0.23168
# Poissons Ratio (z) = 0.15506 0.23864
#
# Static dielectric constant tensor:
#      x y z
#    x 3.429030 0.000000 0.000000 
#    y 0.000000 3.544200 0.000000 
#    z 0.000000 0.000000 4.059910 
# 
# 
# High freq. dielectric constant tensor:
#      x y z
#    x 1.775250 0.000000 0.000000 
#    y 0.000000 1.813530 0.000000 
#    z 0.000000 0.000000 1.808940 
# 
# From -- ./inp_files/2174.got.cif
#   From: 2010.06.25/outbox.cif.g09.slc.cpg/sg52_2_cif.got.tgz:2174.got - 2010.06.26 19:32:48.
