data_PCOD8217992
_publ_section_title
;
Structure prediction by ZEFSAII (Michael W. Deem and Ramdas Pophale) SiO2 
 PCOD8217992
Probable space group: P M N A
;
_chemical_formula_sum "Si O2"
_cell_formula_units_Z 64
_cell_length_a 9.230140
_cell_length_b 14.327717
_cell_length_c 29.988621
_cell_angle_alpha 90.000000
_cell_angle_beta 90.000000
_cell_angle_gamma 90.000000
_cell_volume 3965.900177
_symmetry_space_group_name_H-M "P M N A"
_symmetry_group_IT_number 53
_symmetry_cell_setting 'orthorhombic'
loop_
_space_group_symop_operation_xyz
x,y,z
1/2-x,-y,1/2+z
x,-y,-z
1/2-x,y,1/2-z
-x,-y,-z
1/2+x,y,1/2-z
-x,y,z
1/2+x,-y,1/2+z
loop_
_atom_site_type_symbol
_atom_site_label
_atom_site_fract_x
_atom_site_fract_y
_atom_site_fract_z
Si Si1 0.165415 0.036706 0.951278
Si Si2 0.663114 0.253381 0.067670
Si Si3 0.669916 0.581635 0.611993
Si Si4 0.829600 0.438540 0.959218
Si Si5 0.833679 0.764522 0.017832
Si Si6 0.832399 0.649115 0.793925
Si Si7 0.170062 0.134060 0.205116
Si Si8 0.164406 0.071920 0.377305
O O1 0.180588 0.149139 0.948173
O O2 0.000000 0.005270 0.941580
O O3 0.271204 0.996686 0.914148
O O4 0.212264 0.000000 0.000000
O O5 0.500000 0.283328 0.055864
O O6 0.751198 0.343113 0.082023
O O7 0.665332 0.177975 0.106512
O O8 0.738912 0.208495 0.024835
O O9 0.500000 0.604048 0.609385
O O10 0.709242 0.482155 0.589368
O O11 0.720077 0.587141 0.663663
O O12 0.773045 0.331721 0.960437
O O13 0.000000 0.438114 0.965549
O O14 0.762130 0.500000 0.000000
O O15 0.000000 0.752608 0.002541
O O16 0.750000 0.613936 0.750000
O O17 0.798840 0.757007 0.804738
O O18 0.000000 0.633482 0.783965
O O19 0.250000 0.103521 0.250000
O O20 0.236779 0.069050 0.166670
O O21 0.000000 0.113909 0.209276
O O22 0.000000 0.040297 0.366511
#
# Coordination Sequence:
#
# PCOD8217992 Si02
#       8
#     8   8   8   8   8   8   8   8
#     4  10  20  32  49  70  93 124 165 207 245 289
#     4  11  21  29  43  68  97 128 159 197 236 277
#     4  10  18  31  48  68  92 126 163 190 228 278
#     4   9  16  27  49  72  91 120 159 199 232 276
#     4  10  19  33  49  67  93 126 163 202 240 282
#     4   9  18  29  45  67  93 123 153 189 227 274
#     4  10  19  32  50  72  99 127 159 195 238 287
#     4  11  22  33  47  69  98 131 166 199 240 287
#
# _framework density 16.137573
#
# number of rings (size 3 to 8) (size 9 to 14) (size 15 to 20)
#    0.000    2.000    3.750    1.125    0.000    2.750 
#    0.000    1.250    0.000    0.000    0.000    0.875 
#    0.000    2.000    0.000    0.000    0.000    0.000 
#
# Total GULP energy -793460.003191 kJ/mol
# GULP energy per Si atom -12397.812550 kJ/mol
# Density = 1.610084 g / cm^3
# Si number density = 16.137573 Si / 1000 Ang^3
#
#
#
# Elastic Constant Matrix: (Units=GPa)
#
#
# Indices 1 2 3 4 5 6 
#
# 1 72.5702 24.2153 52.6680 0.0000 0.0000 0.0000
# 2 24.2153 74.0364 34.9189 0.0000 0.0000 0.0000
# 3 52.6680 34.9189 111.8383 0.0000 0.0000 0.0000
# 4 0.0000 0.0000 0.0000 22.7834 0.0000 0.0000
# 5 0.0000 0.0000 0.0000 0.0000 27.2380 0.0000
# 6 0.0000 0.0000 0.0000 0.0000 0.0000 13.7502
#
#
#
# Elastic Compliance Matrix: (Units=1/GPa)
#
#
# Indices 1 2 3 4 5 6 
#
# 1 0.021363 -0.002629 -0.009239 0.000000 0.000000 0.000000
# 2 -0.002629 0.016163 -0.003808 0.000000 0.000000 0.000000
# 3 -0.009239 -0.003808 0.014482 0.000000 0.000000 0.000000
# 4 0.000000 0.000000 0.000000 0.043892 0.000000 0.000000
# 5 0.000000 0.000000 0.000000 0.000000 0.036713 0.000000
# 6 0.000000 0.000000 0.000000 0.000000 0.000000 0.072726
#
#
# Mechanical properties :
#
#
# Convention : Reuss Voigt Hill
#
# Bulk Modulus (GPa) = 48.41863 53.56105 50.98984
# Shear Modulus (GPa) = 20.52741 22.53051 21.52896
#
# Velocity S-wave (km/s) = 3.57042 3.74057 3.65648
# Velocity P-wave (km/s) = 6.86046 7.20542 7.03506
#
# Compressibility (1/GPa) = 0.02065321
#
# Stress axis : x y z
#
# Youngs Moduli (GPa) = 46.81078 61.86959 69.05323
#
# Poissons Ratio (x) = 0.16268 0.63800
# Poissons Ratio (y) = 0.12309 0.26297
# Poissons Ratio (z) = 0.43250 0.23561
#
# Static dielectric constant tensor:
#      x y z
#    x 3.030550 0.000000 0.000000 
#    y 0.000000 3.008290 0.000000 
#    z 0.000000 0.000000 3.066210 
# 
# 
# High freq. dielectric constant tensor:
#      x y z
#    x 1.615660 0.000000 0.000000 
#    y 0.000000 1.593640 0.000000 
#    z 0.000000 0.000000 1.610700 
# 
# From -- ./inp_files/38498.got.cif
#   From: 2010.03.12/outbox.cif.g09.slc.cpg/sg53_20_cif.got.tgz:38498.got - 2010.04.16 14:36:59.
