data_PCOD8217903
_publ_section_title
;
Structure prediction by ZEFSAII (Michael W. Deem and Ramdas Pophale) SiO2 
 PCOD8217903
Probable space group: P M N A
;
_chemical_formula_sum "Si O2"
_cell_formula_units_Z 64
_cell_length_a 8.931865
_cell_length_b 15.687163
_cell_length_c 28.638329
_cell_angle_alpha 90.000000
_cell_angle_beta 90.000000
_cell_angle_gamma 90.000000
_cell_volume 4012.677285
_symmetry_space_group_name_H-M "P M N A"
_symmetry_group_IT_number 53
_symmetry_cell_setting 'orthorhombic'
loop_
_space_group_symop_operation_xyz
x,y,z
1/2-x,-y,1/2+z
x,-y,-z
1/2-x,y,1/2-z
-x,-y,-z
1/2+x,y,1/2-z
-x,y,z
1/2+x,-y,1/2+z
loop_
_atom_site_type_symbol
_atom_site_label
_atom_site_fract_x
_atom_site_fract_y
_atom_site_fract_z
Si Si1 0.677797 0.654905 0.649739
Si Si2 0.173065 0.993710 0.201078
Si Si3 0.323373 0.589213 0.552390
Si Si4 0.324672 0.664029 0.139222
Si Si5 0.176564 0.808756 0.199315
Si Si6 0.822640 0.396396 0.950010
Si Si7 0.823532 0.498601 0.700984
Si Si8 0.675654 0.177031 0.300126
O O1 0.500000 0.641887 0.653582
O O2 0.734513 0.644196 0.596293
O O3 0.755775 0.586896 0.683152
O O4 0.730623 0.748951 0.665090
O O5 0.250000 0.995038 0.250000
O O6 0.213229 0.903147 0.176748
O O7 0.000000 0.994320 0.212155
O O8 0.216145 0.084079 0.176129
O O9 0.500000 0.583259 0.552163
O O10 0.264520 0.492867 0.557505
O O11 0.274909 0.630942 0.502854
O O12 0.500000 0.681502 0.139571
O O13 0.243506 0.741314 0.164237
O O14 0.264893 0.662801 0.086289
O O15 0.283209 0.575821 0.164648
O O16 0.250000 0.798012 0.250000
O O17 0.000000 0.793562 0.204679
O O18 0.000000 0.387112 0.941772
O O19 0.750000 0.473288 0.750000
O O20 0.000000 0.509045 0.707727
O O21 0.750000 0.189212 0.250000
O O22 0.500000 0.185906 0.291979
#
# Coordination Sequence:
#
# PCOD8217903 Si02
#       8
#     8   8   8   8   8   8   8   8
#     4  10  18  30  48  68  91 120 152 184 220 264
#     4   8  15  28  44  64  88 114 146 182 223 263
#     4   8  15  28  48  70  88 114 151 189 227 269
#     4  11  22  33  45  66  92 119 153 189 228 269
#     4  10  19  31  48  67  90 120 151 186 224 267
#     4   9  16  30  50  67  87 116 152 190 228 271
#     4  11  23  34  43  59  88 124 155 183 215 256
#     4   9  17  28  44  66  92 120 148 182 219 260
#
# _framework density 15.949450000000001
#
# number of rings (size 3 to 8) (size 9 to 14) (size 15 to 20)
#    0.000    2.500    1.250    2.625    0.000    4.500 
#    0.000    1.875    0.000    0.000    0.000    0.875 
#    0.000    7.000    0.000    0.000    0.000    0.000 
#
# Total GULP energy -792979.934830 kJ/mol
# GULP energy per Si atom -12390.311482 kJ/mol
# Density = 1.591315 g / cm^3
# Si number density = 15.949450 Si / 1000 Ang^3
#
#
#
# Elastic Constant Matrix: (Units=GPa)
#
#
# Indices 1 2 3 4 5 6 
#
# 1 43.3069 35.1984 27.8996 0.0000 0.0000 0.0000
# 2 35.1984 116.0952 46.4760 0.0000 0.0000 0.0000
# 3 27.8996 46.4760 98.2194 0.0000 0.0000 0.0000
# 4 0.0000 0.0000 0.0000 8.3650 0.0000 0.0000
# 5 0.0000 0.0000 0.0000 0.0000 19.9097 0.0000
# 6 0.0000 0.0000 0.0000 0.0000 0.0000 16.6675
#
#
#
# Elastic Compliance Matrix: (Units=1/GPa)
#
#
# Indices 1 2 3 4 5 6 
#
# 1 0.033069 -0.007730 -0.005736 0.000000 0.000000 0.000000
# 2 -0.007730 0.012433 -0.003688 0.000000 0.000000 0.000000
# 3 -0.005736 -0.003688 0.013555 0.000000 0.000000 0.000000
# 4 0.000000 0.000000 0.000000 0.119545 0.000000 0.000000
# 5 0.000000 0.000000 0.000000 0.000000 0.050227 0.000000
# 6 0.000000 0.000000 0.000000 0.000000 0.000000 0.059997
#
#
# Mechanical properties :
#
#
# Convention : Reuss Voigt Hill
#
# Bulk Modulus (GPa) = 40.40182 52.97437 46.68810
# Shear Modulus (GPa) = 15.08827 18.85828 16.97327
#
# Velocity S-wave (km/s) = 3.07906 3.44230 3.26573
# Velocity P-wave (km/s) = 6.16660 7.00609 6.59971
#
# Compressibility (1/GPa) = 0.02475136
#
# Stress axis : x y z
#
# Youngs Moduli (GPa) = 30.24013 80.42827 73.77099
#
# Poissons Ratio (x) = 0.62169 0.42312
# Poissons Ratio (y) = 0.23375 0.27204
# Poissons Ratio (z) = 0.17345 0.29659
#
# Static dielectric constant tensor:
#      x y z
#    x 2.852580 0.000000 0.000000 
#    y 0.000000 3.474070 0.000000 
#    z 0.000000 0.000000 3.152950 
# 
# 
# High freq. dielectric constant tensor:
#      x y z
#    x 1.608310 0.000000 0.000000 
#    y 0.000000 1.609680 0.000000 
#    z 0.000000 0.000000 1.592310 
# 
# From -- ./inp_files/38394.got.cif
#   From: 2010.03.12/outbox.cif.g09.slc.cpg/sg53_20_cif.got.tgz:38394.got - 2010.04.16 14:36:59.
