data_PCOD8217121
_publ_section_title
;
Structure prediction by ZEFSAII (Michael W. Deem and Ramdas Pophale) SiO2 
 PCOD8217121
Probable space group: P N N A
;
_chemical_formula_sum "Si O2"
_cell_formula_units_Z 60
_cell_length_a 9.554445
_cell_length_b 11.585119
_cell_length_c 27.279991
_cell_angle_alpha 90.000000
_cell_angle_beta 90.000000
_cell_angle_gamma 90.000000
_cell_volume 3019.605353
_symmetry_space_group_name_H-M "P N N A"
_symmetry_group_IT_number 52
_symmetry_cell_setting 'orthorhombic'
loop_
_space_group_symop_operation_xyz
x,y,z
1/2-x,-y,z
x,1/2-y,1/2-z
1/2-x,1/2+y,1/2-z
-x,-y,-z
1/2+x,y,-z
-x,1/2+y,1/2+z
1/2+x,1/2-y,1/2+z
loop_
_atom_site_type_symbol
_atom_site_label
_atom_site_fract_x
_atom_site_fract_y
_atom_site_fract_z
Si Si1 0.273281 0.866432 0.061658
Si Si2 0.513871 0.755649 0.596942
Si Si3 0.725715 0.129886 0.052886
Si Si4 0.392967 0.713011 0.699776
Si Si5 0.602024 0.678375 0.204628
Si Si6 0.080964 0.495248 0.949280
Si Si7 0.033884 0.732734 0.900639
Si Si8 0.750000 0.000000 0.242781
O O1 0.428017 0.826333 0.076671
O O2 0.175808 0.771848 0.087803
O O3 0.250000 0.000000 0.078111
O O4 0.242784 0.853732 0.004141
O O5 0.434295 0.662993 0.562861
O O6 0.494495 0.726943 0.654024
O O7 0.467218 0.884553 0.582238
O O8 0.814165 0.215793 0.087167
O O9 0.750000 0.000000 0.070032
O O10 0.473944 0.750000 0.750000
O O11 0.264117 0.799087 0.692583
O O12 0.323032 0.587824 0.705126
O O13 0.539179 0.750000 0.250000
O O14 0.509790 0.709512 0.157290
O O15 0.619566 0.546630 0.223437
O O16 0.250000 0.500000 0.955699
O O17 0.020712 0.606896 0.922930
O O18 0.000000 0.500000 0.000000
#
# Coordination Sequence:
#
# PCOD8217121 Si02
#       8
#     8   8   8   8   8   8   8   4
#     4  11  26  44  61  92 131 172 209 269 326 389
#     4  12  24  40  66  93 131 167 218 259 326 382
#     4  11  22  39  65  90 123 162 217 267 317 377
#     4   9  19  35  59  93 121 158 210 267 322 376
#     4   9  19  35  58  93 120 157 207 264 317 377
#     4  12  26  41  67  97 135 176 217 266 316 390
#     4  12  24  40  65  92 132 166 218 260 327 378
#     4   8  18  32  62  88 130 148 206 270 328 362
#
# _framework density 19.870146999999999
#
# number of rings (size 3 to 8) (size 9 to 14) (size 15 to 20)
#    0.000    1.600    2.667    3.200    7.467    4.267 
#    0.000    0.667    0.000    0.000    0.000    0.000 
#    0.000    0.000    0.000    0.000    0.000    0.000 
#
# Total GULP energy -743514.121082 kJ/mol
# GULP energy per Si atom -12391.902018 kJ/mol
# Density = 1.982492 g / cm^3
# Si number density = 19.870147 Si / 1000 Ang^3
#
#
#
# Elastic Constant Matrix: (Units=GPa)
#
#
# Indices 1 2 3 4 5 6 
#
# 1 53.3496 15.4852 21.7158 0.0000 0.0000 0.0000
# 2 15.4852 119.5616 50.2192 0.0000 0.0000 0.0000
# 3 21.7158 50.2192 144.0566 0.0000 0.0000 0.0000
# 4 0.0000 0.0000 0.0000 18.7931 0.0000 0.0000
# 5 0.0000 0.0000 0.0000 0.0000 -20.2868 0.0000
# 6 0.0000 0.0000 0.0000 0.0000 0.0000 30.5043
#
#
#
# Elastic Compliance Matrix: (Units=1/GPa)
#
#
# Indices 1 2 3 4 5 6 
#
# 1 0.020217 -0.001568 -0.002501 0.000000 0.000000 0.000000
# 2 -0.001568 0.009920 -0.003222 0.000000 0.000000 0.000000
# 3 -0.002501 -0.003222 0.008442 0.000000 0.000000 0.000000
# 4 0.000000 0.000000 0.000000 0.053211 0.000000 0.000000
# 5 0.000000 0.000000 0.000000 0.000000 -0.049293 0.000000
# 6 0.000000 0.000000 0.000000 0.000000 0.000000 0.032782
#
#
# Mechanical properties :
#
#
# Convention : Reuss Voigt Hill
#
# Bulk Modulus (GPa) = 41.67065 54.64538 48.15801
# Shear Modulus (GPa) = 51.09293 21.10529 36.09911
#
# Velocity S-wave (km/s) = 5.07634 3.26262 4.26696
# Velocity P-wave (km/s) = 7.44150 6.46172 6.96885
#
# Compressibility (1/GPa) = 0.02399771
#
# Stress axis : x y z
#
# Youngs Moduli (GPa) = 49.46222 100.80376 118.45638
#
# Poissons Ratio (x) = 0.15806 0.29627
# Poissons Ratio (y) = 0.07756 0.38166
# Poissons Ratio (z) = 0.12371 0.32478
#
# Static dielectric constant tensor:
#      x y z
#    x 3.254740 0.000000 0.000000 
#    y 0.000000 3.327120 0.000000 
#    z 0.000000 0.000000 3.341040 
# 
# 
# High freq. dielectric constant tensor:
#      x y z
#    x 1.738580 0.000000 0.000000 
#    y 0.000000 1.794260 0.000000 
#    z 0.000000 0.000000 1.784290 
# 
# From -- ./inp_files/42332.got.cif
#   From: 2010.06.25/outbox.cif.g09.slc.cpg/sg52_22_cif.got.tgz:42332.got - 2010.06.26 19:32:48.
