data_PCOD8217223
_publ_section_title
;
Structure prediction by ZEFSAII (Michael W. Deem and Ramdas Pophale) SiO2 
 PCOD8217223
Probable space group: P N N A
;
_chemical_formula_sum "Si O2"
_cell_formula_units_Z 40
_cell_length_a 14.364409
_cell_length_b 10.898166
_cell_length_c 9.609769
_cell_angle_alpha 90.000000
_cell_angle_beta 90.000000
_cell_angle_gamma 90.000000
_cell_volume 1504.368147
_symmetry_space_group_name_H-M "P N N A"
_symmetry_group_IT_number 52
_symmetry_cell_setting 'orthorhombic'
loop_
_space_group_symop_operation_xyz
x,y,z
1/2-x,-y,z
x,1/2-y,1/2-z
1/2-x,1/2+y,1/2-z
-x,-y,-z
1/2+x,y,-z
-x,1/2+y,1/2+z
1/2+x,1/2-y,1/2+z
loop_
_atom_site_type_symbol
_atom_site_label
_atom_site_fract_x
_atom_site_fract_y
_atom_site_fract_z
Si Si1 0.826213 0.584968 0.859188
Si Si2 0.509412 0.448611 0.192016
Si Si3 0.299972 0.644055 0.454383
Si Si4 0.365593 0.362329 0.661791
Si Si5 0.513777 0.196929 0.054392
O O1 0.750000 0.500000 0.934089
O O2 0.799039 0.586664 0.697133
O O3 0.811245 0.711027 0.936960
O O4 0.930890 0.533016 0.879943
O O5 0.600781 0.527932 0.235631
O O6 0.539561 0.338607 0.088400
O O7 0.461360 0.376498 0.322398
O O8 0.210107 0.598548 0.543722
O O9 0.394202 0.610874 0.537073
O O10 0.321381 0.250000 0.750000
O O11 0.456410 0.306017 0.587489
#
# Coordination Sequence:
#
# PCOD8217223 Si02
#       5
#     8   8   8   8   8
#     4  11  23  44  72 102 137 193 247 298 361 442
#     4  11  25  45  76 101 142 194 241 303 373 437
#     4  11  26  43  69 106 145 181 245 306 363 440
#     4  12  26  45  71 106 142 192 236 297 375 433
#     4  11  25  47  69 107 145 188 248 303 363 450
#
# _framework density 26.589236
#
# number of rings (size 3 to 8) (size 9 to 14) (size 15 to 20)
#    0.000    0.800    2.000    4.200    5.600    8.000 
#    0.000    0.000    0.000    0.000    0.000    0.000 
#    0.000    0.000    0.000    0.000    0.000    0.000 
#
# Total GULP energy -495798.351154 kJ/mol
# GULP energy per Si atom -12394.958779 kJ/mol
# Density = 2.652872 g / cm^3
# Si number density = 26.589236 Si / 1000 Ang^3
#
#
#
# Elastic Constant Matrix: (Units=GPa)
#
#
# Indices 1 2 3 4 5 6 
#
# 1 137.2280 20.7924 9.1494 0.0000 0.0000 0.0000
# 2 20.7924 99.6980 -5.8230 0.0000 0.0000 0.0000
# 3 9.1494 -5.8230 35.1258 0.0000 0.0000 0.0000
# 4 0.0000 0.0000 0.0000 -14.4967 0.0000 0.0000
# 5 0.0000 0.0000 0.0000 0.0000 47.8381 0.0000
# 6 0.0000 0.0000 0.0000 0.0000 0.0000 33.2481
#
#
#
# Elastic Compliance Matrix: (Units=1/GPa)
#
#
# Indices 1 2 3 4 5 6 
#
# 1 0.007704 -0.001741 -0.002295 0.000000 0.000000 0.000000
# 2 -0.001741 0.010522 0.002198 0.000000 0.000000 0.000000
# 3 -0.002295 0.002198 0.029431 0.000000 0.000000 0.000000
# 4 0.000000 0.000000 0.000000 -0.068981 0.000000 0.000000
# 5 0.000000 0.000000 0.000000 0.000000 0.020904 0.000000
# 6 0.000000 0.000000 0.000000 0.000000 0.000000 0.030077
#
#
# Mechanical properties :
#
#
# Convention : Reuss Voigt Hill
#
# Bulk Modulus (GPa) = 22.73751 35.58773 29.16262
# Shear Modulus (GPa) = 104.18151 29.84676 67.01413
#
# Velocity S-wave (km/s) = 6.26633 3.35403 5.02575
# Velocity P-wave (km/s) = 7.80550 5.33035 6.68350
#
# Compressibility (1/GPa) = 0.04398020
#
# Stress axis : x y z
#
# Youngs Moduli (GPa) = 129.80391 95.04182 33.97745
#
# Poissons Ratio (x) = 0.16544 0.07799
# Poissons Ratio (y) = 0.22596 -0.07467
# Poissons Ratio (z) = 0.29793 -0.20887
#
# Static dielectric constant tensor:
#      x y z
#    x 4.878530 0.000000 0.000000 
#    y 0.000000 5.113530 0.000000 
#    z 0.000000 0.000000 4.700750 
# 
# 
# High freq. dielectric constant tensor:
#      x y z
#    x 2.047260 0.000000 0.000000 
#    y 0.000000 2.101390 0.000000 
#    z 0.000000 0.000000 2.073040 
# 
# From -- ./inp_files/19268.got.cif
#   From: 2010.06.25/outbox.cif.g09.slc.cpg/sg52_10_cif.got.tgz:19268.got - 2010.06.26 19:32:48.
