data_PCOD8217737
_publ_section_title
;
Structure prediction by ZEFSAII (Michael W. Deem and Ramdas Pophale) SiO2 
 PCOD8217737
Probable space group: P M N A
;
_chemical_formula_sum "Si O2"
_cell_formula_units_Z 64
_cell_length_a 8.918552
_cell_length_b 17.147771
_cell_length_c 22.716273
_cell_angle_alpha 90.000000
_cell_angle_beta 90.000000
_cell_angle_gamma 90.000000
_cell_volume 3474.074306
_symmetry_space_group_name_H-M "P M N A"
_symmetry_group_IT_number 53
_symmetry_cell_setting 'orthorhombic'
loop_
_space_group_symop_operation_xyz
x,y,z
1/2-x,-y,1/2+z
x,-y,-z
1/2-x,y,1/2-z
-x,-y,-z
1/2+x,y,1/2-z
-x,y,z
1/2+x,-y,1/2+z
loop_
_atom_site_type_symbol
_atom_site_label
_atom_site_fract_x
_atom_site_fract_y
_atom_site_fract_z
Si Si1 0.167862 0.326400 0.985875
Si Si2 0.824592 0.086889 0.513267
Si Si3 0.667028 0.185118 0.604658
Si Si4 0.323723 0.222570 0.075824
Si Si5 0.820210 0.558157 0.689202
Si Si6 0.179476 0.725753 0.810829
Si Si7 0.331450 0.425157 0.898360
Si Si8 0.331856 0.283535 0.808577
O O1 0.167308 0.258828 0.937979
O O2 0.231125 0.405363 0.955618
O O3 0.000000 0.342728 0.009229
O O4 0.272315 0.299470 0.039850
O O5 0.745356 0.112399 0.573298
O O6 0.782197 0.143953 0.459415
O O7 0.000000 0.089823 0.525396
O O8 0.768062 0.000000 0.500000
O O9 0.500000 0.160133 0.622017
O O10 0.754569 0.206949 0.664001
O O11 0.500000 0.229579 0.088168
O O12 0.232373 0.217296 0.136831
O O13 0.750000 0.525276 0.750000
O O14 0.747952 0.641243 0.675083
O O15 0.773187 0.502076 0.635283
O O16 0.000000 0.564123 0.695801
O O17 0.250000 0.757656 0.750000
O O18 0.000000 0.722373 0.806293
O O19 0.500000 0.437984 0.921152
O O20 0.325748 0.354783 0.852920
O O21 0.250000 0.310956 0.750000
O O22 0.500000 0.260057 0.792635
#
# Coordination Sequence:
#
# PCOD8217737 Si02
#       8
#     8   8   8   8   8   8   8   8
#     4   9  17  29  47  71  99 131 167 206 247 293
#     4   9  18  33  55  82 107 130 156 190 236 289
#     4   9  17  29  45  68  98 130 163 198 236 280
#     4  10  19  34  56  79 105 134 164 200 245 297
#     4  10  19  32  49  70  97 130 171 217 265 309
#     4  11  22  37  56  77 101 130 169 211 253 299
#     4   9  18  30  45  67  97 132 169 212 259 304
#     4  10  18  28  43  65  94 130 170 207 245 288
#
# _framework density 18.422173000000001
#
# number of rings (size 3 to 8) (size 9 to 14) (size 15 to 20)
#    0.000    2.375    0.000    4.125    0.000    5.250 
#    0.000    0.625    0.000    4.500    0.000    3.500 
#    0.000    0.000    0.000    0.000    0.000    0.000 
#
# Total GULP energy -793544.207613 kJ/mol
# GULP energy per Si atom -12399.128244 kJ/mol
# Density = 1.838024 g / cm^3
# Si number density = 18.422173 Si / 1000 Ang^3
#
#
#
# Elastic Constant Matrix: (Units=GPa)
#
#
# Indices 1 2 3 4 5 6 
#
# 1 107.1096 26.2969 35.3920 0.0000 0.0000 0.0000
# 2 26.2969 52.1072 20.0227 0.0000 0.0000 0.0000
# 3 35.3920 20.0227 69.0240 0.0000 0.0000 0.0000
# 4 0.0000 0.0000 0.0000 16.5095 0.0000 0.0000
# 5 0.0000 0.0000 0.0000 0.0000 34.5191 0.0000
# 6 0.0000 0.0000 0.0000 0.0000 0.0000 20.3997
#
#
#
# Elastic Compliance Matrix: (Units=1/GPa)
#
#
# Indices 1 2 3 4 5 6 
#
# 1 0.011989 -0.004151 -0.004943 0.000000 0.000000 0.000000
# 2 -0.004151 0.023036 -0.004554 0.000000 0.000000 0.000000
# 3 -0.004943 -0.004554 0.018343 0.000000 0.000000 0.000000
# 4 0.000000 0.000000 0.000000 0.060571 0.000000 0.000000
# 5 0.000000 0.000000 0.000000 0.000000 0.028970 0.000000
# 6 0.000000 0.000000 0.000000 0.000000 0.000000 0.049020
#
#
# Mechanical properties :
#
#
# Convention : Reuss Voigt Hill
#
# Bulk Modulus (GPa) = 38.35528 43.51823 40.93675
# Shear Modulus (GPa) = 21.93794 24.05425 22.99609
#
# Velocity S-wave (km/s) = 3.45460 3.61740 3.53694
# Velocity P-wave (km/s) = 6.06447 6.41260 6.24096
#
# Compressibility (1/GPa) = 0.02607203
#
# Stress axis : x y z
#
# Youngs Moduli (GPa) = 83.41206 43.41041 54.51577
#
# Poissons Ratio (x) = 0.18019 0.26948
# Poissons Ratio (y) = 0.34623 0.24826
# Poissons Ratio (z) = 0.41231 0.19769
#
# Static dielectric constant tensor:
#      x y z
#    x 3.591690 0.000000 0.000000 
#    y 0.000000 3.179020 0.000000 
#    z 0.000000 0.000000 3.426410 
# 
# 
# High freq. dielectric constant tensor:
#      x y z
#    x 1.727390 0.000000 0.000000 
#    y 0.000000 1.679020 0.000000 
#    z 0.000000 0.000000 1.710040 
# 
# From -- ./inp_files/31274.got.cif
#   From: 2010.03.12/outbox.cif.g09.slc.cpg/sg53_16_cif.got.tgz:31274.got - 2010.04.16 14:36:59.
