data_PCOD8217383
_publ_section_title
;
Structure prediction by ZEFSAII (Michael W. Deem and Ramdas Pophale) SiO2 
 PCOD8217383
Probable space group: P N N A
;
_chemical_formula_sum "Si O2"
_cell_formula_units_Z 40
_cell_length_a 9.636184
_cell_length_b 29.258225
_cell_length_c 6.442353
_cell_angle_alpha 90.000000
_cell_angle_beta 90.000000
_cell_angle_gamma 90.000000
_cell_volume 1816.341798
_symmetry_space_group_name_H-M "P N N A"
_symmetry_group_IT_number 52
_symmetry_cell_setting 'orthorhombic'
loop_
_space_group_symop_operation_xyz
x,y,z
1/2-x,-y,z
x,1/2-y,1/2-z
1/2-x,1/2+y,1/2-z
-x,-y,-z
1/2+x,y,-z
-x,1/2+y,1/2+z
1/2+x,1/2-y,1/2+z
loop_
_atom_site_type_symbol
_atom_site_label
_atom_site_fract_x
_atom_site_fract_y
_atom_site_fract_z
Si Si1 0.246334 0.126973 0.963381
Si Si2 0.301555 0.699342 0.200858
Si Si3 0.926739 0.338383 0.109240
Si Si4 0.417567 0.580790 0.893945
Si Si5 0.304715 0.047763 0.283479
O O1 0.372319 0.149598 0.837480
O O2 0.129881 0.106531 0.813360
O O3 0.183761 0.168587 0.094772
O O4 0.298734 0.086779 0.111256
O O5 0.247373 0.750000 0.250000
O O6 0.458358 0.702034 0.110003
O O7 0.199355 0.675420 0.038447
O O8 0.002459 0.383836 0.037188
O O9 0.532392 0.541976 0.841676
O O10 0.285853 0.559729 0.012330
O O11 0.250000 0.000000 0.189500
#
# Coordination Sequence:
#
# PCOD8217383 Si02
#       5
#     8   8   8   8   8
#     4  12  24  45  75  97 140 186 231 281 354 417
#     4  12  29  44  73 106 138 183 232 290 347 416
#     4  12  24  50  69 103 142 183 230 288 348 409
#     4  12  23  48  73  97 143 185 230 288 347 409
#     4  12  27  44  71 107 140 183 235 289 346 415
#
# _framework density 22.022286999999999
#
# number of rings (size 3 to 8) (size 9 to 14) (size 15 to 20)
#    0.000    0.000    8.000    1.800    2.800    1.600 
#    0.000    0.000    0.000    0.000    0.000    0.000 
#    0.000    0.000    0.000    0.000    0.000    0.000 
#
# Total GULP energy -496048.803772 kJ/mol
# GULP energy per Si atom -12401.220094 kJ/mol
# Density = 2.197216 g / cm^3
# Si number density = 22.022287 Si / 1000 Ang^3
#
#
#
# Elastic Constant Matrix: (Units=GPa)
#
#
# Indices 1 2 3 4 5 6 
#
# 1 139.3170 18.0404 42.3518 0.0000 0.0000 0.0000
# 2 18.0404 93.5856 21.1729 0.0000 0.0000 0.0000
# 3 42.3518 21.1729 93.7292 0.0000 0.0000 0.0000
# 4 0.0000 0.0000 0.0000 20.5928 0.0000 0.0000
# 5 0.0000 0.0000 0.0000 0.0000 20.5307 0.0000
# 6 0.0000 0.0000 0.0000 0.0000 0.0000 29.9190
#
#
#
# Elastic Compliance Matrix: (Units=1/GPa)
#
#
# Indices 1 2 3 4 5 6 
#
# 1 0.008377 -0.000799 -0.003605 0.000000 0.000000 0.000000
# 2 -0.000799 0.011337 -0.002200 0.000000 0.000000 0.000000
# 3 -0.003605 -0.002200 0.012795 0.000000 0.000000 0.000000
# 4 0.000000 0.000000 0.000000 0.048561 0.000000 0.000000
# 5 0.000000 0.000000 0.000000 0.000000 0.048707 0.000000
# 6 0.000000 0.000000 0.000000 0.000000 0.000000 0.033424
#
#
# Mechanical properties :
#
#
# Convention : Reuss Voigt Hill
#
# Bulk Modulus (GPa) = 51.80962 54.41799 53.11381
# Shear Modulus (GPa) = 27.34596 30.54629 28.94613
#
# Velocity S-wave (km/s) = 3.52766 3.72837 3.62940
# Velocity P-wave (km/s) = 6.33795 6.58015 6.46018
#
# Compressibility (1/GPa) = 0.01930143
#
# Stress axis : x y z
#
# Youngs Moduli (GPa) = 119.37165 88.20535 78.15698
#
# Poissons Ratio (x) = 0.07051 0.28173
# Poissons Ratio (y) = 0.09542 0.17193
# Poissons Ratio (z) = 0.43030 0.19404
#
# Static dielectric constant tensor:
#      x y z
#    x 4.625030 0.000000 0.000000 
#    y 0.000000 4.139230 0.000000 
#    z 0.000000 0.000000 4.143910 
# 
# 
# High freq. dielectric constant tensor:
#      x y z
#    x 1.889560 0.000000 0.000000 
#    y 0.000000 1.857240 0.000000 
#    z 0.000000 0.000000 1.870590 
# 
# From -- ./inp_files/1497.got.cif
#   From: 2010.06.25/outbox.cif.g09.slc.cpg/sg52_1_cif.got.tgz:1497.got - 2010.06.26 19:32:48.
