data_PCOD8217612
_publ_section_title
;
Structure prediction by ZEFSAII (Michael W. Deem and Ramdas Pophale) SiO2 
 PCOD8217612
Probable space group: P M N A
;
_chemical_formula_sum "Si O2"
_cell_formula_units_Z 64
_cell_length_a 9.445613
_cell_length_b 14.161635
_cell_length_c 30.293721
_cell_angle_alpha 90.000000
_cell_angle_beta 90.000000
_cell_angle_gamma 90.000000
_cell_volume 4052.249394
_symmetry_space_group_name_H-M "P M N A"
_symmetry_group_IT_number 53
_symmetry_cell_setting 'orthorhombic'
loop_
_space_group_symop_operation_xyz
x,y,z
1/2-x,-y,1/2+z
x,-y,-z
1/2-x,y,1/2-z
-x,-y,-z
1/2+x,y,1/2-z
-x,y,z
1/2+x,-y,1/2+z
loop_
_atom_site_type_symbol
_atom_site_label
_atom_site_fract_x
_atom_site_fract_y
_atom_site_fract_z
Si Si1 0.665254 0.641655 0.292342
Si Si2 0.665884 0.067854 0.458969
Si Si3 0.166467 0.925738 0.114573
Si Si4 0.341349 0.746983 0.436016
Si Si5 0.337537 0.749019 0.980779
Si Si6 0.338536 0.542610 0.954078
Si Si7 0.834082 0.860120 0.207253
Si Si8 0.657315 0.439934 0.617169
O O1 0.750000 0.605126 0.250000
O O2 0.500000 0.631467 0.282552
O O3 0.702256 0.750854 0.302711
O O4 0.711150 0.573028 0.332604
O O5 0.500000 0.091467 0.461508
O O6 0.753817 0.163985 0.459594
O O7 0.707816 0.000000 0.500000
O O8 0.705911 0.020888 0.411790
O O9 0.227845 0.838839 0.086468
O O10 0.220666 0.922467 0.165238
O O11 0.000000 0.909210 0.116394
O O12 0.500000 0.768080 0.455035
O O13 0.234248 0.716765 0.473943
O O14 0.349672 0.665546 0.400626
O O15 0.500000 0.778840 0.988433
O O16 0.327530 0.655914 0.950585
O O17 0.500000 0.507812 0.950848
O O18 0.258523 0.505642 0.911138
O O19 0.274199 0.500000 0.000000
O O20 0.750000 0.896926 0.250000
O O21 0.000000 0.874822 0.216149
O O22 0.500000 0.484796 0.615925
#
# Coordination Sequence:
#
# PCOD8217612 Si02
#       8
#     8   8   8   8   8   8   8   8
#     4   9  17  29  45  69  98 125 154 190 231 277
#     4  10  19  32  51  70  90 122 162 195 231 278
#     4   9  16  29  48  68  92 126 158 188 227 272
#     4  10  17  29  48  68  93 125 161 196 229 268
#     4  11  22  34  46  65  96 128 157 197 238 274
#     4  10  21  35  47  64  95 130 160 192 239 292
#     4   9  16  28  45  66  95 125 153 185 226 273
#     4  10  19  30  49  73  94 123 165 204 230 266
#
# _framework density 15.793696000000001
#
# number of rings (size 3 to 8) (size 9 to 14) (size 15 to 20)
#    0.000    2.250    3.750    0.375    0.000    2.000 
#    0.000    1.250    0.000    0.000    0.000    0.875 
#    0.000    2.000    0.000    0.000    0.000    0.000 
#
# Total GULP energy -793310.318156 kJ/mol
# GULP energy per Si atom -12395.473721 kJ/mol
# Density = 1.575775 g / cm^3
# Si number density = 15.793696 Si / 1000 Ang^3
#
#
#
# Elastic Constant Matrix: (Units=GPa)
#
#
# Indices 1 2 3 4 5 6 
#
# 1 61.3005 35.0189 51.5627 0.0000 0.0000 0.0000
# 2 35.0189 67.1673 40.0949 0.0000 0.0000 0.0000
# 3 51.5627 40.0949 129.9963 0.0000 0.0000 0.0000
# 4 0.0000 0.0000 0.0000 25.1943 0.0000 0.0000
# 5 0.0000 0.0000 0.0000 0.0000 25.7966 0.0000
# 6 0.0000 0.0000 0.0000 0.0000 0.0000 21.7034
#
#
#
# Elastic Compliance Matrix: (Units=1/GPa)
#
#
# Indices 1 2 3 4 5 6 
#
# 1 0.029256 -0.010205 -0.008457 0.000000 0.000000 0.000000
# 2 -0.010205 0.021808 -0.002678 0.000000 0.000000 0.000000
# 3 -0.008457 -0.002678 0.011873 0.000000 0.000000 0.000000
# 4 0.000000 0.000000 0.000000 0.039691 0.000000 0.000000
# 5 0.000000 0.000000 0.000000 0.000000 0.038765 0.000000
# 6 0.000000 0.000000 0.000000 0.000000 0.000000 0.046076
#
#
# Mechanical properties :
#
#
# Convention : Reuss Voigt Hill
#
# Bulk Modulus (GPa) = 49.36716 56.86857 53.11786
# Shear Modulus (GPa) = 21.10577 23.32469 22.21523
#
# Velocity S-wave (km/s) = 3.65957 3.84713 3.75452
# Velocity P-wave (km/s) = 7.01298 7.47122 7.24573
#
# Compressibility (1/GPa) = 0.02025638
#
# Stress axis : x y z
#
# Youngs Moduli (GPa) = 34.18048 45.85555 84.22454
#
# Poissons Ratio (x) = 0.46796 0.71228
# Poissons Ratio (y) = 0.34882 0.22558
# Poissons Ratio (z) = 0.28906 0.12282
#
# Static dielectric constant tensor:
#      x y z
#    x 2.918630 0.000000 0.000000 
#    y 0.000000 2.804760 0.000000 
#    z 0.000000 0.000000 3.059490 
# 
# 
# High freq. dielectric constant tensor:
#      x y z
#    x 1.595310 0.000000 0.000000 
#    y 0.000000 1.581230 0.000000 
#    z 0.000000 0.000000 1.600610 
# 
# From -- ./inp_files/38464.got.cif
#   From: 2010.03.12/outbox.cif.g09.slc.cpg/sg53_20_cif.got.tgz:38464.got - 2010.04.16 14:36:59.
