data_PCOD8217546
_publ_section_title
;
Structure prediction by ZEFSAII (Michael W. Deem and Ramdas Pophale) SiO2 
 PCOD8217546
Probable space group: P M N A
;
_chemical_formula_sum "Si O2"
_cell_formula_units_Z 32
_cell_length_a 8.745318
_cell_length_b 21.083113
_cell_length_c 9.730680
_cell_angle_alpha 90.000000
_cell_angle_beta 90.000000
_cell_angle_gamma 90.000000
_cell_volume 1794.128451
_symmetry_space_group_name_H-M "P M N A"
_symmetry_group_IT_number 53
_symmetry_cell_setting 'orthorhombic'
loop_
_space_group_symop_operation_xyz
x,y,z
1/2-x,-y,1/2+z
x,-y,-z
1/2-x,y,1/2-z
-x,-y,-z
1/2+x,y,1/2-z
-x,y,z
1/2+x,-y,1/2+z
loop_
_atom_site_type_symbol
_atom_site_label
_atom_site_fract_x
_atom_site_fract_y
_atom_site_fract_z
Si Si1 0.319945 0.557033 0.600608
Si Si2 0.818778 0.315370 0.402348
Si Si3 0.821729 0.192046 0.100741
Si Si4 0.178464 0.052772 0.101293
O O1 0.277121 0.500000 0.500000
O O2 0.250000 0.543000 0.750000
O O3 0.500000 0.566278 0.617036
O O4 0.247765 0.620353 0.530597
O O5 0.750000 0.312999 0.250000
O O6 0.760645 0.250839 0.479585
O O7 0.000000 0.317843 0.401629
O O8 0.750000 0.187219 0.250000
O O9 0.791798 0.122745 0.033741
O O10 0.000000 0.207735 0.111587
O O11 0.250000 0.044913 0.250000
O O12 0.000000 0.041240 0.120883
O O13 0.249810 0.000000 0.000000
#
# Coordination Sequence:
#
# PCOD8217546 Si02
#       4
#     8   8   8   8
#     4  10  20  33  50  72  97 125 156 190 231 277
#     4  10  17  26  43  66  92 119 152 192 231 271
#     4   9  15  25  42  63  89 117 149 190 232 272
#     4   9  18  31  47  69  95 123 155 191 232 277
#
# _framework density 17.835957000000001
#
# number of rings (size 3 to 8) (size 9 to 14) (size 15 to 20)
#    0.000    2.500    0.000    6.750    0.000    3.500 
#    0.000    0.000    0.000    1.500    0.000    3.500 
#    0.000    0.000    0.000    0.000    0.000    0.000 
#
# Total GULP energy -396440.640828 kJ/mol
# GULP energy per Si atom -12388.770026 kJ/mol
# Density = 1.779536 g / cm^3
# Si number density = 17.835957 Si / 1000 Ang^3
#
#
#
# Elastic Constant Matrix: (Units=GPa)
#
#
# Indices 1 2 3 4 5 6 
#
# 1 111.6188 78.9104 25.9421 0.0000 0.0000 0.0000
# 2 78.9104 208.8026 53.6431 0.0000 0.0000 0.0000
# 3 25.9421 53.6431 42.2374 0.0000 0.0000 0.0000
# 4 0.0000 0.0000 0.0000 23.5877 0.0000 0.0000
# 5 0.0000 0.0000 0.0000 0.0000 15.6864 0.0000
# 6 0.0000 0.0000 0.0000 0.0000 0.0000 28.0669
#
#
#
# Elastic Compliance Matrix: (Units=1/GPa)
#
#
# Indices 1 2 3 4 5 6 
#
# 1 0.012397 -0.004050 -0.002470 0.000000 0.000000 0.000000
# 2 -0.004050 0.008432 -0.008221 0.000000 0.000000 0.000000
# 3 -0.002470 -0.008221 0.035634 0.000000 0.000000 0.000000
# 4 0.000000 0.000000 0.000000 0.042395 0.000000 0.000000
# 5 0.000000 0.000000 0.000000 0.000000 0.063750 0.000000
# 6 0.000000 0.000000 0.000000 0.000000 0.000000 0.035629
#
#
# Mechanical properties :
#
#
# Convention : Reuss Voigt Hill
#
# Bulk Modulus (GPa) = 37.06490 75.51665 56.29077
# Shear Modulus (GPa) = 21.12267 27.07908 24.10087
#
# Velocity S-wave (km/s) = 3.44506 3.90067 3.67993
# Velocity P-wave (km/s) = 6.05398 7.91950 7.04873
#
# Compressibility (1/GPa) = 0.02697971
#
# Stress axis : x y z
#
# Youngs Moduli (GPa) = 80.66758 118.59516 28.06305
#
# Poissons Ratio (x) = 0.48036 0.06931
# Poissons Ratio (y) = 0.32673 0.23071
# Poissons Ratio (z) = 0.19923 0.97501
#
# Static dielectric constant tensor:
#      x y z
#    x 3.387630 0.000000 0.000000 
#    y 0.000000 4.964180 0.000000 
#    z 0.000000 0.000000 2.771900 
# 
# 
# High freq. dielectric constant tensor:
#      x y z
#    x 1.704860 0.000000 0.000000 
#    y 0.000000 1.728470 0.000000 
#    z 0.000000 0.000000 1.609040 
# 
# From -- ./inp_files/13862.got.cif
#   From: 2010.03.12/outbox.cif.g09.slc.cpg/sg53_7_cif.got.tgz:13862.got - 2010.04.16 14:36:59.
