data_PCOD8217843
_publ_section_title
;
Structure prediction by ZEFSAII (Michael W. Deem and Ramdas Pophale) SiO2 
 PCOD8217843
Probable space group: P M N A
;
_chemical_formula_sum "Si O2"
_cell_formula_units_Z 64
_cell_length_a 8.990026
_cell_length_b 20.723746
_cell_length_c 18.524451
_cell_angle_alpha 90.000000
_cell_angle_beta 90.000000
_cell_angle_gamma 90.000000
_cell_volume 3451.235177
_symmetry_space_group_name_H-M "P M N A"
_symmetry_group_IT_number 53
_symmetry_cell_setting 'orthorhombic'
loop_
_space_group_symop_operation_xyz
x,y,z
1/2-x,-y,1/2+z
x,-y,-z
1/2-x,y,1/2-z
-x,-y,-z
1/2+x,y,1/2-z
-x,y,z
1/2+x,-y,1/2+z
loop_
_atom_site_type_symbol
_atom_site_label
_atom_site_fract_x
_atom_site_fract_y
_atom_site_fract_z
Si Si1 0.834983 0.574104 0.183087
Si Si2 0.174463 0.243935 0.326838
Si Si3 0.825302 0.342378 0.066381
Si Si4 0.323416 0.025126 0.827518
Si Si5 0.656800 0.426269 0.311375
Si Si6 0.170012 0.070150 0.965554
Si Si7 0.328670 0.109286 0.101900
Si Si8 0.175690 0.567871 0.465336
O O1 0.750000 0.609198 0.250000
O O2 0.862445 0.500656 0.205431
O O3 0.723331 0.572021 0.117113
O O4 0.000000 0.605016 0.168353
O O5 0.250000 0.258705 0.250000
O O6 0.250943 0.283086 0.392144
O O7 0.201899 0.169558 0.346483
O O8 0.000000 0.260656 0.323143
O O9 0.783762 0.408533 0.110019
O O10 0.000000 0.329328 0.052970
O O11 0.746111 0.364303 0.993116
O O12 0.250000 0.040666 0.750000
O O13 0.500000 0.035006 0.821533
O O14 0.279086 0.952758 0.851379
O O15 0.258438 0.073272 0.889308
O O16 0.750000 0.390706 0.250000
O O17 0.500000 0.389828 0.305782
O O18 0.000000 0.090399 0.950883
O O19 0.239633 0.117452 0.026251
O O20 0.183120 0.000000 0.000000
O O21 0.500000 0.102910 0.079511
O O22 0.234590 0.500000 0.500000
O O23 0.000000 0.571473 0.473097
#
# Coordination Sequence:
#
# PCOD8217843 Si02
#       8
#     8   8   8   8   8   8   8   8
#     4  10  19  33  51  73 100 128 160 198 244 300
#     4  11  23  38  54  76 106 141 183 224 261 305
#     4  11  22  36  52  72  99 134 172 213 259 305
#     4  10  18  29  47  73 106 142 179 220 269 318
#     4   9  18  29  44  65  92 125 159 195 238 290
#     4   9  17  29  47  72 101 134 175 221 267 316
#     4   9  19  34  51  71 101 142 183 223 265 310
#     4  11  22  35  53  77 103 132 167 208 257 314
#
# _framework density 18.544086
#
# number of rings (size 3 to 8) (size 9 to 14) (size 15 to 20)
#    0.000    2.000    1.250    3.000    0.000    6.000 
#    0.000    0.000    0.000    0.000    0.000    0.875 
#    0.000    6.000    0.000    0.000    0.000    0.000 
#
# Total GULP energy -792855.936312 kJ/mol
# GULP energy per Si atom -12388.374005 kJ/mol
# Density = 1.850188 g / cm^3
# Si number density = 18.544086 Si / 1000 Ang^3
#
#
#
# Elastic Constant Matrix: (Units=GPa)
#
#
# Indices 1 2 3 4 5 6 
#
# 1 96.9137 19.4598 43.1918 0.0000 0.0000 0.0000
# 2 19.4598 31.7218 15.0899 0.0000 0.0000 0.0000
# 3 43.1918 15.0899 112.6600 0.0000 0.0000 0.0000
# 4 0.0000 0.0000 0.0000 21.4757 0.0000 0.0000
# 5 0.0000 0.0000 0.0000 0.0000 39.7623 0.0000
# 6 0.0000 0.0000 0.0000 0.0000 0.0000 19.7146
#
#
#
# Elastic Compliance Matrix: (Units=1/GPa)
#
#
# Indices 1 2 3 4 5 6 
#
# 1 0.013503 -0.006217 -0.004344 0.000000 0.000000 0.000000
# 2 -0.006217 0.036532 -0.002510 0.000000 0.000000 0.000000
# 3 -0.004344 -0.002510 0.010878 0.000000 0.000000 0.000000
# 4 0.000000 0.000000 0.000000 0.046564 0.000000 0.000000
# 5 0.000000 0.000000 0.000000 0.000000 0.025149 0.000000
# 6 0.000000 0.000000 0.000000 0.000000 0.000000 0.050724
#
#
# Mechanical properties :
#
#
# Convention : Reuss Voigt Hill
#
# Bulk Modulus (GPa) = 28.75949 44.08650 36.42299
# Shear Modulus (GPa) = 22.61611 27.09414 24.85512
#
# Velocity S-wave (km/s) = 3.49605 3.82654 3.66502
# Velocity P-wave (km/s) = 5.64259 6.58397 6.13137
#
# Compressibility (1/GPa) = 0.03477113
#
# Stress axis : x y z
#
# Youngs Moduli (GPa) = 74.05881 27.37348 91.93011
#
# Poissons Ratio (x) = 0.17018 0.39935
# Poissons Ratio (y) = 0.46042 0.23072
# Poissons Ratio (z) = 0.32171 0.06870
#
# Static dielectric constant tensor:
#      x y z
#    x 3.750570 0.000000 0.000000 
#    y 0.000000 3.013580 0.000000 
#    z 0.000000 0.000000 3.253830 
# 
# 
# High freq. dielectric constant tensor:
#      x y z
#    x 1.736280 0.000000 0.000000 
#    y 0.000000 1.663890 0.000000 
#    z 0.000000 0.000000 1.725650 
# 
# From -- ./inp_files/26883.got.cif
#   From: 2010.03.12/outbox.cif.g09.slc.cpg/sg53_14_cif.got.tgz:26883.got - 2010.04.16 14:36:59.
