data_PCOD8217548
_publ_section_title
;
Structure prediction by ZEFSAII (Michael W. Deem and Ramdas Pophale) SiO2 
 PCOD8217548
Probable space group: P M N A
;
_chemical_formula_sum "Si O2"
_cell_formula_units_Z 48
_cell_length_a 8.700692
_cell_length_b 31.217472
_cell_length_c 9.844145
_cell_angle_alpha 90.000000
_cell_angle_beta 90.000000
_cell_angle_gamma 90.000000
_cell_volume 2673.803750
_symmetry_space_group_name_H-M "P M N A"
_symmetry_group_IT_number 53
_symmetry_cell_setting 'orthorhombic'
loop_
_space_group_symop_operation_xyz
x,y,z
1/2-x,-y,1/2+z
x,-y,-z
1/2-x,y,1/2-z
-x,-y,-z
1/2+x,y,1/2-z
-x,y,z
1/2+x,-y,1/2+z
loop_
_atom_site_type_symbol
_atom_site_label
_atom_site_fract_x
_atom_site_fract_y
_atom_site_fract_z
Si Si1 0.179439 0.302166 0.602605
Si Si2 0.317165 0.373408 0.103712
Si Si3 0.181865 0.124490 0.900693
Si Si4 0.681099 0.463299 0.394339
Si Si5 0.679537 0.208115 0.898151
Si Si6 0.681220 0.962192 0.101493
O O1 0.250000 0.308847 0.750000
O O2 0.245425 0.337603 0.500103
O O3 0.213184 0.254924 0.537084
O O4 0.000000 0.308442 0.622300
O O5 0.250000 0.361892 0.250000
O O6 0.500000 0.374220 0.111830
O O7 0.256195 0.419297 0.053047
O O8 0.250000 0.126403 0.750000
O O9 0.238989 0.168156 0.977350
O O10 0.249237 0.081109 0.966462
O O11 0.000000 0.122396 0.900137
O O12 0.724591 0.500000 0.500000
O O13 0.750000 0.477002 0.250000
O O14 0.500000 0.456648 0.379520
O O15 0.750000 0.210892 0.750000
O O16 0.500000 0.198128 0.889571
O O17 0.750000 0.971644 0.250000
O O18 0.500000 0.957065 0.116791
O O19 0.727595 0.000000 0.000000
#
# Coordination Sequence:
#
# PCOD8217548 Si02
#       6
#     8   8   8   8   8   8
#     4   9  19  32  49  74 101 128 160 200 243 286
#     4  10  20  35  53  74 100 132 167 200 240 289
#     4  10  17  26  43  67  94 124 159 197 239 286
#     4  10  21  36  54  76 100 129 165 202 243 289
#     4   9  15  26  43  65  94 123 154 195 241 284
#     4  10  20  33  50  72  97 127 162 199 242 290
#
# _framework density 17.951953
#
# number of rings (size 3 to 8) (size 9 to 14) (size 15 to 20)
#    0.000    2.333    0.000    6.500    0.000    5.333 
#    0.000    3.333    0.000    1.000    0.000    2.333 
#    0.000    0.000    0.000    0.000    0.000    0.000 
#
# Total GULP energy -594877.539657 kJ/mol
# GULP energy per Si atom -12393.282076 kJ/mol
# Density = 1.791109 g / cm^3
# Si number density = 17.951953 Si / 1000 Ang^3
#
#
#
# Elastic Constant Matrix: (Units=GPa)
#
#
# Indices 1 2 3 4 5 6 
#
# 1 100.3993 69.9061 35.6125 0.0000 0.0000 0.0000
# 2 69.9061 193.8315 80.7121 0.0000 0.0000 0.0000
# 3 35.6125 80.7121 64.2071 0.0000 0.0000 0.0000
# 4 0.0000 0.0000 0.0000 27.1357 0.0000 0.0000
# 5 0.0000 0.0000 0.0000 0.0000 19.1292 0.0000
# 6 0.0000 0.0000 0.0000 0.0000 0.0000 31.2186
#
#
#
# Elastic Compliance Matrix: (Units=1/GPa)
#
#
# Indices 1 2 3 4 5 6 
#
# 1 0.013549 -0.003687 -0.002880 0.000000 0.000000 0.000000
# 2 -0.003687 0.011829 -0.012825 0.000000 0.000000 0.000000
# 3 -0.002880 -0.012825 0.033294 0.000000 0.000000 0.000000
# 4 0.000000 0.000000 0.000000 0.036852 0.000000 0.000000
# 5 0.000000 0.000000 0.000000 0.000000 0.052276 0.000000
# 6 0.000000 0.000000 0.000000 0.000000 0.000000 0.032032
#
#
# Mechanical properties :
#
#
# Convention : Reuss Voigt Hill
#
# Bulk Modulus (GPa) = 50.28197 81.21103 65.74650
# Shear Modulus (GPa) = 22.19798 26.97718 24.58758
#
# Velocity S-wave (km/s) = 3.52024 3.88073 3.70487
# Velocity P-wave (km/s) = 6.67778 8.08803 7.41650
#
# Compressibility (1/GPa) = 0.01988784
#
# Stress axis : x y z
#
# Youngs Moduli (GPa) = 73.80510 84.53540 30.03580
#
# Poissons Ratio (x) = 0.31172 0.08650
# Poissons Ratio (y) = 0.27215 0.38521
# Poissons Ratio (z) = 0.21254 1.08416
#
# Static dielectric constant tensor:
#      x y z
#    x 3.429980 0.000000 0.000000 
#    y 0.000000 4.457180 0.000000 
#    z 0.000000 0.000000 2.952250 
# 
# 
# High freq. dielectric constant tensor:
#      x y z
#    x 1.711150 0.000000 0.000000 
#    y 0.000000 1.723290 0.000000 
#    z 0.000000 0.000000 1.640800 
# 
# From -- ./inp_files/14120.got.cif
#   From: 2010.03.12/outbox.cif.g09.slc.cpg/sg53_8_cif.got.tgz:14120.got - 2010.04.16 14:36:59.
