data_PCOD8217037
_publ_section_title
;
Structure prediction by ZEFSAII (Michael W. Deem and Ramdas Pophale) SiO2 
 PCOD8217037
Probable space group: P N N A
;
_chemical_formula_sum "Si O2"
_cell_formula_units_Z 64
_cell_length_a 14.988750
_cell_length_b 17.899439
_cell_length_c 11.270437
_cell_angle_alpha 90.000000
_cell_angle_beta 90.000000
_cell_angle_gamma 90.000000
_cell_volume 3023.747981
_symmetry_space_group_name_H-M "P N N A"
_symmetry_group_IT_number 52
_symmetry_cell_setting 'orthorhombic'
loop_
_space_group_symop_operation_xyz
x,y,z
1/2-x,-y,z
x,1/2-y,1/2-z
1/2-x,1/2+y,1/2-z
-x,-y,-z
1/2+x,y,-z
-x,1/2+y,1/2+z
1/2+x,1/2-y,1/2+z
loop_
_atom_site_type_symbol
_atom_site_label
_atom_site_fract_x
_atom_site_fract_y
_atom_site_fract_z
Si Si1 0.850312 0.344213 0.905994
Si Si2 0.949771 0.875918 0.824526
Si Si3 0.500000 0.244248 1.000000
Si Si4 0.147735 1.000000 0.027008
Si Si5 0.149688 0.344213 0.094006
Si Si6 0.893400 0.000000 0.490600
Si Si7 0.418388 0.000000 0.766272
Si Si8 0.550229 0.624082 0.675474
O O1 0.750000 0.312400 0.913484
O O2 0.881894 0.340099 0.769475
O O3 0.911837 0.295515 0.994263
O O4 0.851225 0.429715 0.944665
O O5 0.899121 0.925541 0.923634
O O6 0.881894 0.840099 0.730525
O O7 0.003004 0.807863 0.884210
O O8 0.020627 0.926579 0.756583
O O9 0.588163 0.295515 0.994263
O O10 0.503004 0.192137 0.115790
O O11 0.250000 0.000000 0.066585
O O12 0.100879 0.925541 0.076366
O O13 0.140948 1.000000 0.884591
O O14 0.148775 0.429715 0.055335
O O15 0.860142 0.000000 0.353305
O O16 0.000000 0.000000 0.500000
O O17 0.479373 0.926579 0.756583
#
# Coordination Sequence:
#
# PCOD8217037 Si02
#       8
#     8   8   8   8   8   8   8   8
#     4  12  26  43  70 102 128 171 230 281 327 389
#     4  11  21  42  67  93 131 175 219 272 330 390
#     4  12  24  42  64  96 140 178 206 270 338 398
#     4  11  22  37  64 100 129 169 222 278 329 390
#     4  12  26  43  70 102 128 171 230 281 327 389
#     4  12  21  43  72  95 128 171 220 280 340 389
#     4  11  20  40  67  92 126 177 216 259 340 398
#     4  11  21  42  67  93 131 175 219 272 330 390
#
# _framework density 21.165786000000001
#
# number of rings (size 3 to 8) (size 9 to 14) (size 15 to 20)
#    0.000    0.500    6.250    3.375    0.000    4.000 
#    0.000    0.000    0.000    4.500    0.000    0.000 
#    0.000    0.000    0.000    0.000    0.000    0.000 
#
# Total GULP energy -793830.199195 kJ/mol
# GULP energy per Si atom -12403.596862 kJ/mol
# Density = 2.111761 g / cm^3
# Si number density = 21.165786 Si / 1000 Ang^3
#
#
#
# Elastic Constant Matrix: (Units=GPa)
#
#
# Indices 1 2 3 4 5 6 
#
# 1 117.4222 48.6354 36.3647 0.0000 0.0000 0.0000
# 2 48.6354 125.0136 39.0826 0.0000 0.0000 0.0000
# 3 36.3647 39.0826 137.1551 0.0000 0.0000 0.0000
# 4 0.0000 0.0000 0.0000 -1.8416 0.0000 0.0000
# 5 0.0000 0.0000 0.0000 0.0000 33.2319 0.0000
# 6 0.0000 0.0000 0.0000 0.0000 0.0000 15.0431
#
#
#
# Elastic Compliance Matrix: (Units=1/GPa)
#
#
# Indices 1 2 3 4 5 6 
#
# 1 0.010535 -0.003541 -0.001784 0.000000 0.000000 0.000000
# 2 -0.003541 0.009971 -0.001903 0.000000 0.000000 0.000000
# 3 -0.001784 -0.001903 0.008306 0.000000 0.000000 0.000000
# 4 0.000000 0.000000 0.000000 -0.543020 0.000000 0.000000
# 5 0.000000 0.000000 0.000000 0.000000 0.030092 0.000000
# 6 0.000000 0.000000 0.000000 0.000000 0.000000 0.066476
#
#
# Mechanical properties :
#
#
# Convention : Reuss Voigt Hill
#
# Bulk Modulus (GPa) = 69.64964 69.75071 69.70017
# Shear Modulus (GPa) = -12.55026 26.32057 6.88516
#
# Velocity S-wave (km/s) = -2.43770 3.53022 1.80555
# Velocity P-wave (km/s) = 5.00550 7.04575 6.11136
#
# Compressibility (1/GPa) = 0.01435758
#
# Stress axis : x y z
#
# Youngs Moduli (GPa) = 94.91732 100.28601 120.39122
#
# Poissons Ratio (x) = 0.35510 0.21482
# Poissons Ratio (y) = 0.33609 0.22905
# Poissons Ratio (z) = 0.16936 0.19080
#
# Static dielectric constant tensor:
#      x y z
#    x 3.693520 0.000000 0.000000 
#    y 0.000000 3.977710 0.000000 
#    z 0.000000 0.000000 3.884520 
# 
# 
# High freq. dielectric constant tensor:
#      x y z
#    x 1.810550 0.000000 0.000000 
#    y 0.000000 1.840710 0.000000 
#    z 0.000000 0.000000 1.838890 
# 
# From -- ./inp_files/19886.got.cif
#   From: 2010.06.25/outbox.cif.g09.slc.cpg/sg52_10_cif.got.tgz:19886.got - 2010.06.26 19:32:48.
