data_PCOD8217094
_publ_section_title
;
Structure prediction by ZEFSAII (Michael W. Deem and Ramdas Pophale) SiO2 
 PCOD8217094
Probable space group: P N N A
;
_chemical_formula_sum "Si O2"
_cell_formula_units_Z 52
_cell_length_a 23.365994
_cell_length_b 17.864831
_cell_length_c 6.531019
_cell_angle_alpha 90.000000
_cell_angle_beta 90.000000
_cell_angle_gamma 90.000000
_cell_volume 2726.240217
_symmetry_space_group_name_H-M "P N N A"
_symmetry_group_IT_number 52
_symmetry_cell_setting 'orthorhombic'
loop_
_space_group_symop_operation_xyz
x,y,z
1/2-x,-y,z
x,1/2-y,1/2-z
1/2-x,1/2+y,1/2-z
-x,-y,-z
1/2+x,y,-z
-x,1/2+y,1/2+z
1/2+x,1/2-y,1/2+z
loop_
_atom_site_type_symbol
_atom_site_label
_atom_site_fract_x
_atom_site_fract_y
_atom_site_fract_z
Si Si1 0.588017 0.662980 0.290143
Si Si2 0.690309 0.431877 0.550522
Si Si3 0.750000 0.000000 0.573800
Si Si4 0.911528 0.670864 0.669352
Si Si5 0.699686 0.577084 0.304716
Si Si6 0.509799 0.675839 0.641087
Si Si7 0.994941 0.912346 0.528677
O O1 0.578641 0.750000 0.250000
O O2 0.654784 0.644042 0.293550
O O3 0.561840 0.641009 0.510723
O O4 0.555293 0.617036 0.115085
O O5 0.639182 0.372918 0.555980
O O6 0.672118 0.505156 0.420076
O O7 0.744952 0.395583 0.433605
O O8 0.706289 0.453791 0.783228
O O9 0.715566 0.942803 0.428899
O O10 0.886601 0.750000 0.750000
O O11 0.958314 0.697972 0.507778
O O12 0.941135 0.615610 0.835438
O O13 0.532947 0.750000 0.750000
O O14 0.486008 0.616136 0.799611
O O15 0.000000 0.000000 0.500000
#
# Coordination Sequence:
#
# PCOD8217094 Si02
#       7
#     8   8   4   8   8   8   8
#     4  11  23  40  60  90 123 156 199 246 297 366
#     4   9  21  40  61  86 117 155 202 248 293 346
#     4   8  18  40  60  80 116 152 196 248 296 348
#     4  11  23  40  60  90 123 156 199 246 297 366
#     4   9  21  40  61  86 117 155 202 248 293 346
#     4  11  21  43  59  82 127 161 187 244 305 349
#     4  11  25  37  63  95 115 159 207 241 298 360
#
# _framework density 19.073886999999999
#
# number of rings (size 3 to 8) (size 9 to 14) (size 15 to 20)
#    0.000    2.154    3.077    0.923    6.462    3.692 
#    2.769    0.000    0.000    0.000    0.000    0.000 
#    0.000    0.000    0.000    0.000    0.000    0.000 
#
# Total GULP energy -644724.099907 kJ/mol
# GULP energy per Si atom -12398.540383 kJ/mol
# Density = 1.903047 g / cm^3
# Si number density = 19.073887 Si / 1000 Ang^3
#
#
#
# Elastic Constant Matrix: (Units=GPa)
#
#
# Indices 1 2 3 4 5 6 
#
# 1 86.3319 20.7795 14.7761 0.0000 0.0000 0.0000
# 2 20.7795 98.0446 17.0361 0.0000 0.0000 0.0000
# 3 14.7761 17.0361 102.2174 0.0000 0.0000 0.0000
# 4 0.0000 0.0000 0.0000 24.1384 0.0000 0.0000
# 5 0.0000 0.0000 0.0000 0.0000 16.3442 0.0000
# 6 0.0000 0.0000 0.0000 0.0000 0.0000 36.2844
#
#
#
# Elastic Compliance Matrix: (Units=1/GPa)
#
#
# Indices 1 2 3 4 5 6 
#
# 1 0.012396 -0.002385 -0.001394 0.000000 0.000000 0.000000
# 2 -0.002385 0.010962 -0.001482 0.000000 0.000000 0.000000
# 3 -0.001394 -0.001482 0.010232 0.000000 0.000000 0.000000
# 4 0.000000 0.000000 0.000000 0.041428 0.000000 0.000000
# 5 0.000000 0.000000 0.000000 0.000000 0.061184 0.000000
# 6 0.000000 0.000000 0.000000 0.000000 0.000000 0.027560
#
#
# Mechanical properties :
#
#
# Convention : Reuss Voigt Hill
#
# Bulk Modulus (GPa) = 43.35234 43.53082 43.44158
# Shear Modulus (GPa) = 27.47648 30.95355 29.21502
#
# Velocity S-wave (km/s) = 3.79955 4.03280 3.91791
# Velocity P-wave (km/s) = 6.48280 6.67506 6.57963
#
# Compressibility (1/GPa) = 0.02306680
#
# Stress axis : x y z
#
# Youngs Moduli (GPa) = 80.67195 91.22049 97.73556
#
# Poissons Ratio (x) = 0.21755 0.13628
# Poissons Ratio (y) = 0.19239 0.14488
# Poissons Ratio (z) = 0.11249 0.13522
#
# Static dielectric constant tensor:
#      x y z
#    x 3.335900 0.000000 0.000000 
#    y 0.000000 3.370440 0.000000 
#    z 0.000000 0.000000 3.302050 
# 
# 
# High freq. dielectric constant tensor:
#      x y z
#    x 1.731510 0.000000 0.000000 
#    y 0.000000 1.730760 0.000000 
#    z 0.000000 0.000000 1.758860 
# 
# From -- ./inp_files/5900.got.cif
#   From: 2010.06.25/outbox.cif.g09.slc.cpg/sg52_3_cif.got.tgz:5900.got - 2010.06.26 19:32:48.
