data_PCOD8217130
_publ_section_title
;
Structure prediction by ZEFSAII (Michael W. Deem and Ramdas Pophale) SiO2 
 PCOD8217130
Probable space group: P N N A
;
_chemical_formula_sum "Si O2"
_cell_formula_units_Z 24
_cell_length_a 27.999420
_cell_length_b 4.889180
_cell_length_c 8.053703
_cell_angle_alpha 90.000000
_cell_angle_beta 90.000000
_cell_angle_gamma 90.000000
_cell_volume 1102.505264
_symmetry_space_group_name_H-M "P N N A"
_symmetry_group_IT_number 52
_symmetry_cell_setting 'orthorhombic'
loop_
_space_group_symop_operation_xyz
x,y,z
1/2-x,-y,z
x,1/2-y,1/2-z
1/2-x,1/2+y,1/2-z
-x,-y,-z
1/2+x,y,-z
-x,1/2+y,1/2+z
1/2+x,1/2-y,1/2+z
loop_
_atom_site_type_symbol
_atom_site_label
_atom_site_fract_x
_atom_site_fract_y
_atom_site_fract_z
Si Si1 0.452355 0.859503 0.433978
Si Si2 0.099530 0.649707 0.561148
Si Si3 0.699094 0.998967 0.130050
O O1 0.459855 0.750000 0.250000
O O2 0.437918 0.599199 0.545650
O O3 0.500000 0.000000 0.500000
O O4 0.412174 0.096560 0.439613
O O5 0.097366 0.750000 0.750000
O O6 0.152932 0.545596 0.512065
O O7 0.706707 0.750000 0.250000
O O8 0.750000 0.000000 0.028723
O O9 0.687857 0.250000 0.250000
#
# Coordination Sequence:
#
# PCOD8217130 Si02
#       3
#     8   8   8
#     4  12  26  43  61  87 124 164 206 253 309 369
#     4  11  22  40  65  93 122 157 204 254 302 358
#     4   9  17  31  56  92 125 153 193 247 300 353
#
# _framework density 21.768605000000001
#
# number of rings (size 3 to 8) (size 9 to 14) (size 15 to 20)
#    0.000    1.333    0.000    8.000    0.000    2.667 
#    0.000    0.000    0.000    4.000    0.000    2.333 
#    0.000    0.000    0.000    0.000    0.000    0.000 
#
# Total GULP energy -297389.624645 kJ/mol
# GULP energy per Si atom -12391.234360 kJ/mol
# Density = 2.171906 g / cm^3
# Si number density = 21.768605 Si / 1000 Ang^3
#
#
#
# Elastic Constant Matrix: (Units=GPa)
#
#
# Indices 1 2 3 4 5 6 
#
# 1 176.2126 67.5122 76.1733 0.0000 0.0000 0.0000
# 2 67.5122 164.4013 47.5465 0.0000 0.0000 0.0000
# 3 76.1733 47.5465 77.9846 0.0000 0.0000 0.0000
# 4 0.0000 0.0000 0.0000 43.1584 0.0000 0.0000
# 5 0.0000 0.0000 0.0000 0.0000 18.4062 0.0000
# 6 0.0000 0.0000 0.0000 0.0000 0.0000 41.7032
#
#
#
# Elastic Compliance Matrix: (Units=1/GPa)
#
#
# Indices 1 2 3 4 5 6 
#
# 1 0.010149 -0.001579 -0.008951 0.000000 0.000000 0.000000
# 2 -0.001579 0.007631 -0.003110 0.000000 0.000000 0.000000
# 3 -0.008951 -0.003110 0.023462 0.000000 0.000000 0.000000
# 4 0.000000 0.000000 0.000000 0.023170 0.000000 0.000000
# 5 0.000000 0.000000 0.000000 0.000000 0.054330 0.000000
# 6 0.000000 0.000000 0.000000 0.000000 0.000000 0.023979
#
#
# Mechanical properties :
#
#
# Convention : Reuss Voigt Hill
#
# Bulk Modulus (GPa) = 71.62128 89.00697 80.31412
# Shear Modulus (GPa) = 28.62805 35.81132 32.21969
#
# Velocity S-wave (km/s) = 3.63038 4.06037 3.85138
# Velocity P-wave (km/s) = 7.10953 7.93465 7.53340
#
# Compressibility (1/GPa) = 0.01396233
#
# Stress axis : x y z
#
# Youngs Moduli (GPa) = 98.53006 131.05196 42.62250
#
# Poissons Ratio (x) = 0.20696 0.38150
# Poissons Ratio (y) = 0.15560 0.13255
# Poissons Ratio (z) = 0.88191 0.40754
#
# Static dielectric constant tensor:
#      x y z
#    x 5.096790 0.000000 0.000000 
#    y 0.000000 4.601350 0.000000 
#    z 0.000000 0.000000 3.409990 
# 
# 
# High freq. dielectric constant tensor:
#      x y z
#    x 1.881390 0.000000 0.000000 
#    y 0.000000 1.893430 0.000000 
#    z 0.000000 0.000000 1.790110 
# 
# From -- ./inp_files/14597.got.cif
#   From: 2010.06.25/outbox.cif.g09.slc.cpg/sg52_8_cif.got.tgz:14597.got - 2010.06.26 19:32:48.
