data_PCOD8217754
_publ_section_title
;
Structure prediction by ZEFSAII (Michael W. Deem and Ramdas Pophale) SiO2 
 PCOD8217754
Probable space group: P M N A
;
_chemical_formula_sum "Si O2"
_cell_formula_units_Z 56
_cell_length_a 9.381562
_cell_length_b 16.211730
_cell_length_c 20.786572
_cell_angle_alpha 90.000000
_cell_angle_beta 90.000000
_cell_angle_gamma 90.000000
_cell_volume 3161.457800
_symmetry_space_group_name_H-M "P M N A"
_symmetry_group_IT_number 53
_symmetry_cell_setting 'orthorhombic'
loop_
_space_group_symop_operation_xyz
x,y,z
1/2-x,-y,1/2+z
x,-y,-z
1/2-x,y,1/2-z
-x,-y,-z
1/2+x,y,1/2-z
-x,y,z
1/2+x,-y,1/2+z
loop_
_atom_site_type_symbol
_atom_site_label
_atom_site_fract_x
_atom_site_fract_y
_atom_site_fract_z
Si Si1 0.838161 0.987995 0.311096
Si Si2 0.840584 0.817717 0.691206
Si Si3 0.839471 0.569400 0.587127
Si Si4 0.843591 0.243575 0.955668
Si Si5 0.158393 0.717196 0.896326
Si Si6 0.668899 0.056826 0.560790
Si Si7 0.841200 0.390317 0.562607
O O1 0.750000 0.951282 0.250000
O O2 0.755221 0.969868 0.376619
O O3 0.000000 0.951287 0.312303
O O4 0.848825 0.085098 0.303376
O O5 0.750000 0.779697 0.750000
O O6 0.756458 0.792490 0.627059
O O7 0.000000 0.780245 0.690863
O O8 0.731836 0.630460 0.624232
O O9 0.783286 0.475136 0.594937
O O10 0.842148 0.596434 0.513310
O O11 0.000000 0.577274 0.614997
O O12 0.783287 0.150722 0.953519
O O13 0.749191 0.309909 0.916522
O O14 0.000000 0.244573 0.923939
O O15 0.853077 0.274202 0.028025
O O16 0.000000 0.721254 0.865745
O O17 0.500000 0.048280 0.573733
O O18 0.712883 0.000000 0.500000
O O19 0.000000 0.373185 0.587518
#
# Coordination Sequence:
#
# PCOD8217754 Si02
#       7
#     8   8   8   8   8   8   8
#     4  10  21  36  54  74  96 127 167 208 248 293
#     4  10  20  33  48  66  89 118 153 193 234 277
#     4   8  14  25  40  60  87 119 152 185 225 271
#     4   9  18  29  43  66  95 126 157 192 236 283
#     4  10  18  28  44  67  94 124 156 188 228 278
#     4  10  20  34  51  72 102 136 166 203 252 298
#     4   8  14  25  41  60  86 120 154 188 226 271
#
# _framework density 17.713346999999999
#
# number of rings (size 3 to 8) (size 9 to 14) (size 15 to 20)
#    0.000    2.714    0.000    3.000    0.000    4.857 
#    0.000    2.857    0.000    0.000    0.000    1.000 
#    0.000    2.286    0.000    0.000    0.000    0.000 
#
# Total GULP energy -693961.944315 kJ/mol
# GULP energy per Si atom -12392.177577 kJ/mol
# Density = 1.767303 g / cm^3
# Si number density = 17.713347 Si / 1000 Ang^3
#
#
#
# Elastic Constant Matrix: (Units=GPa)
#
#
# Indices 1 2 3 4 5 6 
#
# 1 116.6308 39.3772 37.9181 0.0000 0.0000 0.0000
# 2 39.3772 69.2931 16.3883 0.0000 0.0000 0.0000
# 3 37.9181 16.3883 55.7264 0.0000 0.0000 0.0000
# 4 0.0000 0.0000 0.0000 12.5961 0.0000 0.0000
# 5 0.0000 0.0000 0.0000 0.0000 22.3120 0.0000
# 6 0.0000 0.0000 0.0000 0.0000 0.0000 30.5931
#
#
#
# Elastic Compliance Matrix: (Units=1/GPa)
#
#
# Indices 1 2 3 4 5 6 
#
# 1 0.012743 -0.005579 -0.007030 0.000000 0.000000 0.000000
# 2 -0.005579 0.017953 -0.001484 0.000000 0.000000 0.000000
# 3 -0.007030 -0.001484 0.023165 0.000000 0.000000 0.000000
# 4 0.000000 0.000000 0.000000 0.079390 0.000000 0.000000
# 5 0.000000 0.000000 0.000000 0.000000 0.044819 0.000000
# 6 0.000000 0.000000 0.000000 0.000000 0.000000 0.032687
#
#
# Mechanical properties :
#
#
# Convention : Reuss Voigt Hill
#
# Bulk Modulus (GPa) = 38.94807 47.66863 43.30835
# Shear Modulus (GPa) = 20.20199 22.96467 21.58333
#
# Velocity S-wave (km/s) = 3.38079 3.60455 3.49446
# Velocity P-wave (km/s) = 6.10535 6.65532 6.38626
#
# Compressibility (1/GPa) = 0.02567521
#
# Stress axis : x y z
#
# Youngs Moduli (GPa) = 78.47287 55.70212 43.16903
#
# Poissons Ratio (x) = 0.31076 0.30349
# Poissons Ratio (y) = 0.43779 0.06404
# Poissons Ratio (z) = 0.55169 0.08264
#
# Static dielectric constant tensor:
#      x y z
#    x 3.728330 0.000000 0.000000 
#    y 0.000000 3.428370 0.000000 
#    z 0.000000 0.000000 2.865130 
# 
# 
# High freq. dielectric constant tensor:
#      x y z
#    x 1.695340 0.000000 0.000000 
#    y 0.000000 1.681340 0.000000 
#    z 0.000000 0.000000 1.632970 
# 
# From -- ./inp_files/30743.got.cif
#   From: 2010.03.12/outbox.cif.g09.slc.cpg/sg53_16_cif.got.tgz:30743.got - 2010.04.16 14:36:59.
