data_PCOD8217397
_publ_section_title
;
Structure prediction by ZEFSAII (Michael W. Deem and Ramdas Pophale) SiO2 
 PCOD8217397
Probable space group: P N N A
;
_chemical_formula_sum "Si O2"
_cell_formula_units_Z 32
_cell_length_a 13.550308
_cell_length_b 4.903284
_cell_length_c 21.045768
_cell_angle_alpha 90.000000
_cell_angle_beta 90.000000
_cell_angle_gamma 90.000000
_cell_volume 1398.302049
_symmetry_space_group_name_H-M "P N N A"
_symmetry_group_IT_number 52
_symmetry_cell_setting 'orthorhombic'
loop_
_space_group_symop_operation_xyz
x,y,z
1/2-x,-y,z
x,1/2-y,1/2-z
1/2-x,1/2+y,1/2-z
-x,-y,-z
1/2+x,y,-z
-x,1/2+y,1/2+z
1/2+x,1/2-y,1/2+z
loop_
_atom_site_type_symbol
_atom_site_label
_atom_site_fract_x
_atom_site_fract_y
_atom_site_fract_z
Si Si1 0.316188 0.247741 0.989420
Si Si2 0.183788 0.750000 0.750000
Si Si3 0.250000 0.500000 0.207988
Si Si4 0.923203 0.193143 0.617509
Si Si5 0.554354 0.805914 0.130069
O O1 0.250000 0.500000 0.965960
O O2 0.386618 0.348131 0.045774
O O3 0.250000 0.000000 0.015830
O O4 0.378973 0.131364 0.931042
O O5 0.250000 0.500000 0.774823
O O6 0.117130 0.861148 0.807120
O O7 0.291536 0.750000 0.250000
O O8 0.162520 0.619575 0.165988
O O9 0.958089 0.501557 0.629736
O O10 0.018158 0.004612 0.628441
#
# Coordination Sequence:
#
# PCOD8217397 Si02
#       5
#     8   4   4   8   8
#     4  12  24  45  71 102 142 185 228 286 352 412
#     4  12  26  48  70 102 138 180 228 286 354 416
#     4  12  28  46  72 100 146 188 230 290 358 414
#     4  12  26  46  69 104 137 182 235 287 346 413
#     4  12  26  44  73 102 138 181 235 289 341 420
#
# _framework density 22.884898
#
# number of rings (size 3 to 8) (size 9 to 14) (size 15 to 20)
#    0.000    0.000    1.250    9.000    7.000    0.000 
#    0.000    0.000    0.000    0.000    0.000    0.000 
#    0.000    0.000    0.000    0.000    0.000    0.000 
#
# Total GULP energy -397199.264371 kJ/mol
# GULP energy per Si atom -12412.477012 kJ/mol
# Density = 2.283281 g / cm^3
# Si number density = 22.884898 Si / 1000 Ang^3
#
#
#
# Elastic Constant Matrix: (Units=GPa)
#
#
# Indices 1 2 3 4 5 6 
#
# 1 109.0204 34.2384 58.0172 0.0000 0.0000 0.0000
# 2 34.2384 114.0488 25.1273 0.0000 0.0000 0.0000
# 3 58.0172 25.1273 158.4589 0.0000 0.0000 0.0000
# 4 0.0000 0.0000 0.0000 34.2403 0.0000 0.0000
# 5 0.0000 0.0000 0.0000 0.0000 39.0782 0.0000
# 6 0.0000 0.0000 0.0000 0.0000 0.0000 51.8973
#
#
#
# Elastic Compliance Matrix: (Units=1/GPa)
#
#
# Indices 1 2 3 4 5 6 
#
# 1 0.012183 -0.002771 -0.004021 0.000000 0.000000 0.000000
# 2 -0.002771 0.009716 -0.000526 0.000000 0.000000 0.000000
# 3 -0.004021 -0.000526 0.007866 0.000000 0.000000 0.000000
# 4 0.000000 0.000000 0.000000 0.029205 0.000000 0.000000
# 5 0.000000 0.000000 0.000000 0.000000 0.025590 0.000000
# 6 0.000000 0.000000 0.000000 0.000000 0.000000 0.019269
#
#
# Mechanical properties :
#
#
# Convention : Reuss Voigt Hill
#
# Bulk Modulus (GPa) = 66.10114 68.47711 67.28912
# Shear Modulus (GPa) = 40.48283 42.65284 41.56784
#
# Velocity S-wave (km/s) = 4.21048 4.32186 4.26653
# Velocity P-wave (km/s) = 7.25151 7.40891 7.33063
#
# Compressibility (1/GPa) = 0.01512833
#
# Stress axis : x y z
#
# Youngs Moduli (GPa) = 82.08236 102.92214 127.12221
#
# Poissons Ratio (x) = 0.28525 0.51117
# Poissons Ratio (y) = 0.22749 0.06686
# Poissons Ratio (z) = 0.33006 0.05413
#
# Static dielectric constant tensor:
#      x y z
#    x 4.087080 0.000000 0.000000 
#    y 0.000000 4.151820 0.000000 
#    z 0.000000 0.000000 4.134940 
# 
# 
# High freq. dielectric constant tensor:
#      x y z
#    x 1.913560 0.000000 0.000000 
#    y 0.000000 1.918640 0.000000 
#    z 0.000000 0.000000 1.911920 
# 
# From -- ./inp_files/36488.got.cif
#   From: 2010.06.25/outbox.cif.g09.slc.cpg/sg52_19_cif.got.tgz:36488.got - 2010.06.26 19:32:48.
