data_PCOD8217927
_publ_section_title
;
Structure prediction by ZEFSAII (Michael W. Deem and Ramdas Pophale) SiO2 
 PCOD8217927
Probable space group: P M N A
;
_chemical_formula_sum "Si O2"
_cell_formula_units_Z 56
_cell_length_a 14.495317
_cell_length_b 9.540241
_cell_length_c 21.865041
_cell_angle_alpha 90.000000
_cell_angle_beta 90.000000
_cell_angle_gamma 90.000000
_cell_volume 3023.690666
_symmetry_space_group_name_H-M "P M N A"
_symmetry_group_IT_number 53
_symmetry_cell_setting 'orthorhombic'
loop_
_space_group_symop_operation_xyz
x,y,z
1/2-x,-y,1/2+z
x,-y,-z
1/2-x,y,1/2-z
-x,-y,-z
1/2+x,y,1/2-z
-x,y,z
1/2+x,-y,1/2+z
loop_
_atom_site_type_symbol
_atom_site_label
_atom_site_fract_x
_atom_site_fract_y
_atom_site_fract_z
Si Si1 0.600339 0.839058 0.019975
Si Si2 0.893083 0.561309 0.118883
Si Si3 0.703696 0.233066 0.529977
Si Si4 0.604001 0.777558 0.282984
Si Si5 0.606647 0.245019 0.405131
Si Si6 0.599827 0.104827 0.842982
Si Si7 0.210915 0.013074 0.864302
O O1 0.500000 0.785198 0.993668
O O2 0.692407 0.752895 0.000096
O O3 0.597156 0.815537 0.092809
O O4 0.612879 0.000000 0.000000
O O5 0.824162 0.634059 0.070881
O O6 0.874813 0.625937 0.186609
O O7 0.868116 0.398401 0.119845
O O8 0.000000 0.583521 0.098589
O O9 0.630117 0.225435 0.476113
O O10 0.699272 0.090997 0.570284
O O11 0.500000 0.820181 0.299730
O O12 0.619559 0.777925 0.209670
O O13 0.668166 0.896135 0.310629
O O14 0.500000 0.210312 0.396182
O O15 0.664772 0.137888 0.364458
O O16 0.500000 0.030979 0.830878
O O17 0.681273 0.990263 0.846898
#
# Coordination Sequence:
#
# PCOD8217927 Si02
#       7
#     8   8   8   8   8   8   8
#     4   9  17  30  49  76 104 128 163 212 261 303
#     4   9  19  33  49  72 103 138 172 208 253 305
#     4  10  18  30  49  73 101 138 178 212 250 303
#     4   9  17  31  51  74  98 128 169 211 250 299
#     4  11  21  32  48  73 107 141 169 206 260 313
#     4   9  17  30  51  74  97 128 165 207 251 296
#     4  10  19  30  48  75 104 132 169 213 256 302
#
# _framework density 18.520413999999999
#
# number of rings (size 3 to 8) (size 9 to 14) (size 15 to 20)
#    0.000    2.429    0.000    3.857    0.000    3.429 
#    0.000    0.000    0.000   12.857    0.000    8.000 
#    0.000    0.000    0.000    0.000    0.000    0.000 
#
# Total GULP energy -693795.833758 kJ/mol
# GULP energy per Si atom -12389.211317 kJ/mol
# Density = 1.847826 g / cm^3
# Si number density = 18.520414 Si / 1000 Ang^3
#
#
#
# Elastic Constant Matrix: (Units=GPa)
#
#
# Indices 1 2 3 4 5 6 
#
# 1 124.6728 63.9188 14.9968 0.0000 0.0000 0.0000
# 2 63.9188 105.6777 30.8369 0.0000 0.0000 0.0000
# 3 14.9968 30.8369 76.1119 0.0000 0.0000 0.0000
# 4 0.0000 0.0000 0.0000 10.4848 0.0000 0.0000
# 5 0.0000 0.0000 0.0000 0.0000 23.0325 0.0000
# 6 0.0000 0.0000 0.0000 0.0000 0.0000 14.7453
#
#
#
# Elastic Compliance Matrix: (Units=1/GPa)
#
#
# Indices 1 2 3 4 5 6 
#
# 1 0.011653 -0.007234 0.000635 0.000000 0.000000 0.000000
# 2 -0.007234 0.015222 -0.004742 0.000000 0.000000 0.000000
# 3 0.000635 -0.004742 0.014935 0.000000 0.000000 0.000000
# 4 0.000000 0.000000 0.000000 0.095376 0.000000 0.000000
# 5 0.000000 0.000000 0.000000 0.000000 0.043417 0.000000
# 6 0.000000 0.000000 0.000000 0.000000 0.000000 0.067818
#
#
# Mechanical properties :
#
#
# Convention : Reuss Voigt Hill
#
# Bulk Modulus (GPa) = 52.27955 58.44083 55.36019
# Shear Modulus (GPa) = 18.01943 22.76651 20.39297
#
# Velocity S-wave (km/s) = 3.12260 3.50989 3.32189
# Velocity P-wave (km/s) = 6.42574 6.93175 6.68354
#
# Compressibility (1/GPa) = 0.01912794
#
# Stress axis : x y z
#
# Youngs Moduli (GPa) = 85.81266 65.69598 66.95838
#
# Poissons Ratio (x) = 0.47522 -0.04249
# Poissons Ratio (y) = 0.62074 0.31750
# Poissons Ratio (z) = -0.05446 0.31152
#
# Static dielectric constant tensor:
#      x y z
#    x 4.020490 0.000000 0.000000 
#    y 0.000000 3.101830 0.000000 
#    z 0.000000 0.000000 3.435380 
# 
# 
# High freq. dielectric constant tensor:
#      x y z
#    x 1.743770 0.000000 0.000000 
#    y 0.000000 1.667260 0.000000 
#    z 0.000000 0.000000 1.710720 
# 
# From -- ./inp_files/32435.got.cif
#   From: 2010.03.12/outbox.cif.g09.slc.cpg/sg53_17_cif.got.tgz:32435.got - 2010.04.16 14:36:59.
