data_PCOD8217235
_publ_section_title
;
Structure prediction by ZEFSAII (Michael W. Deem and Ramdas Pophale) SiO2 
 PCOD8217235
Probable space group: P N N A
;
_chemical_formula_sum "Si O2"
_cell_formula_units_Z 28
_cell_length_a 7.488330
_cell_length_b 13.504250
_cell_length_c 12.280246
_cell_angle_alpha 90.000000
_cell_angle_beta 90.000000
_cell_angle_gamma 90.000000
_cell_volume 1241.831040
_symmetry_space_group_name_H-M "P N N A"
_symmetry_group_IT_number 52
_symmetry_cell_setting 'orthorhombic'
loop_
_space_group_symop_operation_xyz
x,y,z
1/2-x,-y,z
x,1/2-y,1/2-z
1/2-x,1/2+y,1/2-z
-x,-y,-z
1/2+x,y,-z
-x,1/2+y,1/2+z
1/2+x,1/2-y,1/2+z
loop_
_atom_site_type_symbol
_atom_site_label
_atom_site_fract_x
_atom_site_fract_y
_atom_site_fract_z
Si Si1 0.131571 0.702932 0.861537
Si Si2 0.109839 0.586619 0.254693
Si Si3 0.773905 0.244595 0.596734
Si Si4 0.250000 0.500000 0.793772
O O1 0.212896 0.750000 0.750000
O O2 0.170844 0.586340 0.869563
O O3 0.922339 0.721607 0.861028
O O4 0.222033 0.752372 0.966578
O O5 0.250000 0.500000 0.232709
O O6 0.166401 0.648386 0.360436
O O7 0.100061 0.658122 0.147476
O O8 0.913479 0.541598 0.278698
#
# Coordination Sequence:
#
# PCOD8217235 Si02
#       4
#     8   8   8   4
#     4  12  26  48  72 112 149 196 247 303 369 434
#     4  11  23  49  73 109 151 191 247 310 366 442
#     4  11  25  46  76 104 155 196 240 311 367 433
#     4  12  26  42  80 110 142 192 256 290 372 436
#
# _framework density 22.547348
#
# number of rings (size 3 to 8) (size 9 to 14) (size 15 to 20)
#    0.000    0.571    5.714    1.714   10.000    2.286 
#    2.571    2.857    0.000    0.000    0.000    0.000 
#    0.000    0.000    0.000    0.000    0.000    0.000 
#
# Total GULP energy -347267.473685 kJ/mol
# GULP energy per Si atom -12402.409774 kJ/mol
# Density = 2.249603 g / cm^3
# Si number density = 22.547348 Si / 1000 Ang^3
#
#
#
# Elastic Constant Matrix: (Units=GPa)
#
#
# Indices 1 2 3 4 5 6 
#
# 1 117.7407 42.3242 22.0168 0.0000 0.0000 0.0000
# 2 42.3242 93.9557 47.2605 0.0000 0.0000 0.0000
# 3 22.0168 47.2605 179.3155 0.0000 0.0000 0.0000
# 4 0.0000 0.0000 0.0000 26.4278 0.0000 0.0000
# 5 0.0000 0.0000 0.0000 0.0000 25.5234 0.0000
# 6 0.0000 0.0000 0.0000 0.0000 0.0000 48.2563
#
#
#
# Elastic Compliance Matrix: (Units=1/GPa)
#
#
# Indices 1 2 3 4 5 6 
#
# 1 0.010135 -0.004542 -0.000047 0.000000 0.000000 0.000000
# 2 -0.004542 0.014305 -0.003213 0.000000 0.000000 0.000000
# 3 -0.000047 -0.003213 0.006429 0.000000 0.000000 0.000000
# 4 0.000000 0.000000 0.000000 0.037839 0.000000 0.000000
# 5 0.000000 0.000000 0.000000 0.000000 0.039180 0.000000
# 6 0.000000 0.000000 0.000000 0.000000 0.000000 0.020723
#
#
# Mechanical properties :
#
#
# Convention : Reuss Voigt Hill
#
# Bulk Modulus (GPa) = 65.50519 68.24609 66.87564
# Shear Modulus (GPa) = 33.48913 38.66886 36.07900
#
# Velocity S-wave (km/s) = 3.85811 4.14576 4.00452
# Velocity P-wave (km/s) = 6.99729 7.29726 7.14885
#
# Compressibility (1/GPa) = 0.01526597
#
# Stress axis : x y z
#
# Youngs Moduli (GPa) = 98.67152 69.90506 155.53776
#
# Poissons Ratio (x) = 0.31747 0.00737
# Poissons Ratio (y) = 0.44812 0.49969
# Poissons Ratio (z) = 0.00468 0.22458
#
# Static dielectric constant tensor:
#      x y z
#    x 4.204730 0.000000 0.000000 
#    y 0.000000 4.259270 0.000000 
#    z 0.000000 0.000000 4.199670 
# 
# 
# High freq. dielectric constant tensor:
#      x y z
#    x 1.908880 0.000000 0.000000 
#    y 0.000000 1.897850 0.000000 
#    z 0.000000 0.000000 1.865620 
# 
# From -- ./inp_files/16366.got.cif
#   From: 2010.06.25/outbox.cif.g09.slc.cpg/sg52_9_cif.got.tgz:16366.got - 2010.06.26 19:32:48.
