data_PCOD8217418
_publ_section_title
;
Structure prediction by ZEFSAII (Michael W. Deem and Ramdas Pophale) SiO2 
 PCOD8217418
Probable space group: P N N A
;
_chemical_formula_sum "Si O2"
_cell_formula_units_Z 16
_cell_length_a 4.778662
_cell_length_b 8.449892
_cell_length_c 12.749412
_cell_angle_alpha 90.000000
_cell_angle_beta 90.000000
_cell_angle_gamma 90.000000
_cell_volume 514.810774
_symmetry_space_group_name_H-M "P N N A"
_symmetry_group_IT_number 52
_symmetry_cell_setting 'orthorhombic'
loop_
_space_group_symop_operation_xyz
x,y,z
1/2-x,-y,z
x,1/2-y,1/2-z
1/2-x,1/2+y,1/2-z
-x,-y,-z
1/2+x,y,-z
-x,1/2+y,1/2+z
1/2+x,1/2-y,1/2+z
loop_
_atom_site_type_symbol
_atom_site_label
_atom_site_fract_x
_atom_site_fract_y
_atom_site_fract_z
Si Si1 0.250000 0.000000 0.875569
Si Si2 0.750000 0.500000 0.763448
Si Si3 0.571299 0.828246 0.437840
O O1 0.500386 0.921644 0.805237
O O2 0.397264 0.137518 0.944225
O O3 0.584264 0.366815 0.830476
O O4 0.391482 0.889409 0.541815
#
# Coordination Sequence:
#
# PCOD8217418 Si02
#       3
#     4   4   8
#     4  12  26  46  74 110 150 198 250 310 374 446
#     4  12  26  46  74 110 150 198 250 310 374 446
#     4  12  25  46  73 108 148 196 248 308 373 446
#
# _framework density 31.079381999999999
#
# number of rings (size 3 to 8) (size 9 to 14) (size 15 to 20)
#    0.000    0.000    0.000   10.500    0.000    4.000 
#    0.000    0.000    0.000    0.000    0.000    0.000 
#    0.000    0.000    0.000    0.000    0.000    0.000 
#
# Total GULP energy -198338.608173 kJ/mol
# GULP energy per Si atom -12396.163011 kJ/mol
# Density = 3.100864 g / cm^3
# Si number density = 31.079382 Si / 1000 Ang^3
#
#
#
# Elastic Constant Matrix: (Units=GPa)
#
#
# Indices 1 2 3 4 5 6 
#
# 1 257.4397 64.5224 80.5008 0.0000 0.0000 0.0000
# 2 64.5224 113.4044 8.6574 0.0000 0.0000 0.0000
# 3 80.5008 8.6574 86.8472 0.0000 0.0000 0.0000
# 4 0.0000 0.0000 0.0000 29.3681 0.0000 0.0000
# 5 0.0000 0.0000 0.0000 0.0000 44.7757 0.0000
# 6 0.0000 0.0000 0.0000 0.0000 0.0000 52.3653
#
#
#
# Elastic Compliance Matrix: (Units=1/GPa)
#
#
# Indices 1 2 3 4 5 6 
#
# 1 0.006474 -0.003250 -0.005677 0.000000 0.000000 0.000000
# 2 -0.003250 0.010517 0.001964 0.000000 0.000000 0.000000
# 3 -0.005677 0.001964 0.016581 0.000000 0.000000 0.000000
# 4 0.000000 0.000000 0.000000 0.034051 0.000000 0.000000
# 5 0.000000 0.000000 0.000000 0.000000 0.022334 0.000000
# 6 0.000000 0.000000 0.000000 0.000000 0.000000 0.019097
#
#
# Mechanical properties :
#
#
# Convention : Reuss Voigt Hill
#
# Bulk Modulus (GPa) = 50.90010 85.00582 67.95296
# Shear Modulus (GPa) = 38.60169 45.56920 42.08544
#
# Velocity S-wave (km/s) = 3.52808 3.83328 3.68384
# Velocity P-wave (km/s) = 5.74538 6.85584 6.32503
#
# Compressibility (1/GPa) = 0.01964633
#
# Stress axis : x y z
#
# Youngs Moduli (GPa) = 154.45877 95.08187 60.31020
#
# Poissons Ratio (x) = 0.30903 0.34239
# Poissons Ratio (y) = 0.50202 -0.11846
# Poissons Ratio (z) = 0.87688 -0.18676
#
# Static dielectric constant tensor:
#      x y z
#    x 6.563680 0.000000 0.000000 
#    y 0.000000 5.700930 0.000000 
#    z 0.000000 0.000000 5.537280 
# 
# 
# High freq. dielectric constant tensor:
#      x y z
#    x 2.325330 0.000000 0.000000 
#    y 0.000000 2.302430 0.000000 
#    z 0.000000 0.000000 2.249720 
# 
# From -- ./inp_files/23262.got.cif
#   From: 2010.06.25/outbox.cif.g09.slc.cpg/sg52_12_cif.got.tgz:23262.got - 2010.06.26 19:32:48.
