data_PCOD8217784
_publ_section_title
;
Structure prediction by ZEFSAII (Michael W. Deem and Ramdas Pophale) SiO2 
 PCOD8217784
Probable space group: P M N A
;
_chemical_formula_sum "Si O2"
_cell_formula_units_Z 60
_cell_length_a 22.406302
_cell_length_b 28.987026
_cell_length_c 5.201306
_cell_angle_alpha 90.000000
_cell_angle_beta 90.000000
_cell_angle_gamma 90.000000
_cell_volume 3378.206942
_symmetry_space_group_name_H-M "P M N A"
_symmetry_group_IT_number 53
_symmetry_cell_setting 'orthorhombic'
loop_
_space_group_symop_operation_xyz
x,y,z
1/2-x,-y,1/2+z
x,-y,-z
1/2-x,y,1/2-z
-x,-y,-z
1/2+x,y,1/2-z
-x,y,z
1/2+x,-y,1/2+z
loop_
_atom_site_type_symbol
_atom_site_label
_atom_site_fract_x
_atom_site_fract_y
_atom_site_fract_z
Si Si1 0.432711 0.202954 0.776029
Si Si2 0.321440 0.369105 0.748329
Si Si3 0.178902 0.526254 0.249775
Si Si4 0.680948 0.119176 0.257690
Si Si5 0.363336 0.779473 0.723304
Si Si6 0.108077 0.899020 0.257584
Si Si7 0.681522 0.679856 0.752238
Si Si8 0.500000 0.031029 0.750228
O O1 0.500000 0.218973 0.730988
O O2 0.392425 0.225731 0.556583
O O3 0.429032 0.147994 0.754972
O O4 0.413551 0.219645 0.057507
O O5 0.250000 0.367152 0.750000
O O6 0.344889 0.421481 0.747512
O O7 0.348188 0.342328 0.501385
O O8 0.348361 0.343136 0.997071
O O9 0.154045 0.500000 0.500000
O O10 0.250000 0.525962 0.250000
O O11 0.153986 0.500000 0.000000
O O12 0.750000 0.104872 0.250000
O O13 0.676953 0.174790 0.256794
O O14 0.651022 0.097747 0.510889
O O15 0.648433 0.097277 0.011706
O O16 0.322446 0.735032 0.763056
O O17 0.060227 0.939445 0.250752
O O18 0.750000 0.665501 0.750000
O O19 0.500000 0.000000 0.500000
O O20 0.500000 0.000000 0.000000
#
# Coordination Sequence:
#
# PCOD8217784 Si02
#       8
#     8   8   8   8   8   8   8   4
#     4  10  19  34  52  73 101 126 161 205 247 288
#     4   9  17  26  38  54  78 119 155 196 245 275
#     4   9  15  23  35  51  71  99 149 204 240 278
#     4  10  20  35  57  82 110 142 177 212 254 304
#     4  10  20  30  49  74  97 133 167 201 242 284
#     4  10  21  37  58  83 110 139 171 216 263 300
#     4  10  18  29  41  59  92 123 161 197 225 280
#     4  12  24  40  64  88 112 136 176 224 268 316
#
# _framework density 17.760901
#
# number of rings (size 3 to 8) (size 9 to 14) (size 15 to 20)
#    0.000    2.133    0.667    3.600    0.000    3.200 
#    0.000    4.000    0.000    8.000    0.000    0.000 
#    0.000    0.000    0.000    0.000    0.000  168.000 
#
# Total GULP energy -744008.437620 kJ/mol
# GULP energy per Si atom -12400.140627 kJ/mol
# Density = 1.772048 g / cm^3
# Si number density = 17.760901 Si / 1000 Ang^3
#
#
#
# Elastic Constant Matrix: (Units=GPa)
#
#
# Indices 1 2 3 4 5 6 
#
# 1 65.3900 27.8552 33.5963 0.0000 0.0000 0.0000
# 2 27.8552 111.7308 61.6102 0.0000 0.0000 0.0000
# 3 33.5963 61.6102 161.8439 0.0000 0.0000 0.0000
# 4 0.0000 0.0000 0.0000 26.4289 0.0000 0.0000
# 5 0.0000 0.0000 0.0000 0.0000 8.6845 0.0000
# 6 0.0000 0.0000 0.0000 0.0000 0.0000 12.0911
#
#
#
# Elastic Compliance Matrix: (Units=1/GPa)
#
#
# Indices 1 2 3 4 5 6 
#
# 1 0.017907 -0.003056 -0.002554 0.000000 0.000000 0.000000
# 2 -0.003056 0.011850 -0.003876 0.000000 0.000000 0.000000
# 3 -0.002554 -0.003876 0.008185 0.000000 0.000000 0.000000
# 4 0.000000 0.000000 0.000000 0.037837 0.000000 0.000000
# 5 0.000000 0.000000 0.000000 0.000000 0.115148 0.000000
# 6 0.000000 0.000000 0.000000 0.000000 0.000000 0.082705
#
#
# Mechanical properties :
#
#
# Convention : Reuss Voigt Hill
#
# Bulk Modulus (GPa) = 52.71958 65.00979 58.86469
# Shear Modulus (GPa) = 16.72650 23.83442 20.28046
#
# Velocity S-wave (km/s) = 3.07214 3.66725 3.38281
# Velocity P-wave (km/s) = 6.50626 7.39012 6.96223
#
# Compressibility (1/GPa) = 0.01896828
#
# Stress axis : x y z
#
# Youngs Moduli (GPa) = 55.84470 84.39159 122.18072
#
# Poissons Ratio (x) = 0.25791 0.31202
# Poissons Ratio (y) = 0.17067 0.47363
# Poissons Ratio (z) = 0.14262 0.32714
#
# Static dielectric constant tensor:
#      x y z
#    x 2.794950 0.000000 0.000000 
#    y 0.000000 3.235700 0.000000 
#    z 0.000000 0.000000 3.656950 
# 
# 
# High freq. dielectric constant tensor:
#      x y z
#    x 1.633960 0.000000 0.000000 
#    y 0.000000 1.682110 0.000000 
#    z 0.000000 0.000000 1.714500 
# 
# From -- ./inp_files/3078.got.cif
#   From: 2010.03.12/outbox.cif.g09.slc.cpg/sg53_2_cif.got.tgz:3078.got - 2010.04.16 14:36:59.
