data_PCOD8217041
_publ_section_title
;
Structure prediction by ZEFSAII (Michael W. Deem and Ramdas Pophale) SiO2 
 PCOD8217041
Probable space group: P N N A
;
_chemical_formula_sum "Si O2"
_cell_formula_units_Z 64
_cell_length_a 21.363231
_cell_length_b 15.658130
_cell_length_c 8.662212
_cell_angle_alpha 90.000000
_cell_angle_beta 90.000000
_cell_angle_gamma 90.000000
_cell_volume 2897.581362
_symmetry_space_group_name_H-M "P N N A"
_symmetry_group_IT_number 52
_symmetry_cell_setting 'orthorhombic'
loop_
_space_group_symop_operation_xyz
x,y,z
1/2-x,-y,z
x,1/2-y,1/2-z
1/2-x,1/2+y,1/2-z
-x,-y,-z
1/2+x,y,-z
-x,1/2+y,1/2+z
1/2+x,1/2-y,1/2+z
loop_
_atom_site_type_symbol
_atom_site_label
_atom_site_fract_x
_atom_site_fract_y
_atom_site_fract_z
Si Si1 0.911336 0.211089 0.595664
Si Si2 0.588424 0.062103 0.604564
Si Si3 0.218606 0.653726 0.190975
Si Si4 0.327971 0.005484 0.120601
Si Si5 0.950507 0.418597 0.120102
Si Si6 0.783031 0.861306 0.114691
Si Si7 0.135574 0.865257 0.898014
Si Si8 0.818278 0.827435 0.451295
O O1 0.942268 0.250000 0.750000
O O2 0.853696 0.150114 0.643608
O O3 0.962110 0.151882 0.513926
O O4 0.886242 0.278216 0.473550
O O5 0.637853 0.035988 0.735097
O O6 0.520421 0.068084 0.686550
O O7 0.615242 0.149844 0.531210
O O8 0.581710 0.000125 0.457470
O O9 0.234779 0.750000 0.250000
O O10 0.225319 0.576886 0.320141
O O11 0.263126 0.628576 0.050900
O O12 0.300420 0.939111 0.996014
O O13 0.377755 0.059913 0.021210
O O14 0.904157 0.382065 0.246506
O O15 0.708685 0.856650 0.143095
O O16 0.815177 0.869826 0.282236
O O17 0.809302 0.774025 0.041949
#
# Coordination Sequence:
#
# PCOD8217041 Si02
#       8
#     8   8   8   8   8   8   8   8
#     4  11  20  42  69 100 129 178 231 294 347 410
#     4  11  27  45  70  96 141 193 231 295 344 427
#     4  11  21  41  72 107 139 180 226 292 361 435
#     4  12  25  43  69 105 142 181 229 287 361 432
#     4  11  25  48  67 101 136 184 251 285 346 414
#     4  11  26  43  69 107 142 182 230 294 360 435
#     4  12  23  41  71 103 139 176 232 296 348 421
#     4  11  25  46  67  99 146 188 224 292 364 413
#
# _framework density 22.087385999999999
#
# number of rings (size 3 to 8) (size 9 to 14) (size 15 to 20)
#    0.000    0.750    5.000    2.250    7.000    0.500 
#    6.750    0.000    0.000    0.000    0.000    0.000 
#    0.000    0.000    0.000    0.000    0.000    0.000 
#
# Total GULP energy -793222.666273 kJ/mol
# GULP energy per Si atom -12394.104161 kJ/mol
# Density = 2.203711 g / cm^3
# Si number density = 22.087386 Si / 1000 Ang^3
#
#
#
# Elastic Constant Matrix: (Units=GPa)
#
#
# Indices 1 2 3 4 5 6 
#
# 1 63.4932 33.5589 40.8699 0.0000 0.0000 0.0000
# 2 33.5589 134.2145 54.9491 0.0000 0.0000 0.0000
# 3 40.8699 54.9491 103.0649 0.0000 0.0000 0.0000
# 4 0.0000 0.0000 0.0000 44.4309 0.0000 0.0000
# 5 0.0000 0.0000 0.0000 0.0000 25.3552 0.0000
# 6 0.0000 0.0000 0.0000 0.0000 0.0000 13.6355
#
#
#
# Elastic Compliance Matrix: (Units=1/GPa)
#
#
# Indices 1 2 3 4 5 6 
#
# 1 0.021755 -0.002440 -0.007326 0.000000 0.000000 0.000000
# 2 -0.002440 0.009805 -0.004260 0.000000 0.000000 0.000000
# 3 -0.007326 -0.004260 0.014879 0.000000 0.000000 0.000000
# 4 0.000000 0.000000 0.000000 0.022507 0.000000 0.000000
# 5 0.000000 0.000000 0.000000 0.000000 0.039440 0.000000
# 6 0.000000 0.000000 0.000000 0.000000 0.000000 0.073338
#
#
# Mechanical properties :
#
#
# Convention : Reuss Voigt Hill
#
# Bulk Modulus (GPa) = 54.38663 62.16984 58.27824
# Shear Modulus (GPa) = 23.15842 28.11063 25.63452
#
# Velocity S-wave (km/s) = 3.24155 3.57136 3.41045
# Velocity P-wave (km/s) = 6.21989 6.72417 6.47694
#
# Compressibility (1/GPa) = 0.01838687
#
# Stress axis : x y z
#
# Youngs Moduli (GPa) = 45.96626 101.98909 67.20991
#
# Poissons Ratio (x) = 0.24889 0.49237
# Poissons Ratio (y) = 0.11217 0.28630
# Poissons Ratio (z) = 0.33674 0.43445
#
# Static dielectric constant tensor:
#      x y z
#    x 4.023050 0.000000 0.000000 
#    y 0.000000 4.235790 0.000000 
#    z 0.000000 0.000000 1.662340 
# 
# 
# High freq. dielectric constant tensor:
#      x y z
#    x 1.842240 0.000000 0.000000 
#    y 0.000000 1.881840 0.000000 
#    z 0.000000 0.000000 1.889270 
# 
# From -- ./inp_files/14486.got.cif
#   From: 2010.06.25/outbox.cif.g09.slc.cpg/sg52_8_cif.got.tgz:14486.got - 2010.06.26 19:32:48.
