data_PCOD8217550
_publ_section_title
;
Structure prediction by ZEFSAII (Michael W. Deem and Ramdas Pophale) SiO2 
 PCOD8217550
Probable space group: P M N A
;
_chemical_formula_sum "Si O2"
_cell_formula_units_Z 64
_cell_length_a 8.901236
_cell_length_b 20.312850
_cell_length_c 19.867340
_cell_angle_alpha 90.000000
_cell_angle_beta 90.000000
_cell_angle_gamma 90.000000
_cell_volume 3592.203249
_symmetry_space_group_name_H-M "P M N A"
_symmetry_group_IT_number 53
_symmetry_cell_setting 'orthorhombic'
loop_
_space_group_symop_operation_xyz
x,y,z
1/2-x,-y,1/2+z
x,-y,-z
1/2-x,y,1/2-z
-x,-y,-z
1/2+x,y,1/2-z
-x,y,z
1/2+x,-y,1/2+z
loop_
_atom_site_type_symbol
_atom_site_label
_atom_site_fract_x
_atom_site_fract_y
_atom_site_fract_z
Si Si1 0.176204 0.939082 0.045241
Si Si2 0.826815 0.445663 0.944322
Si Si3 0.177079 0.558877 0.314022
Si Si4 0.676747 0.977366 0.180403
Si Si5 0.676482 0.870397 0.819052
Si Si6 0.675616 0.701768 0.313345
Si Si7 0.175446 0.700768 0.038709
Si Si8 0.322339 0.817954 0.549175
O O1 0.259678 0.937056 0.117001
O O2 0.000000 0.944706 0.060093
O O3 0.219371 0.873911 0.004581
O O4 0.232556 0.000000 0.000000
O O5 0.730506 0.475265 0.882735
O O6 0.761789 0.374075 0.967799
O O7 0.000000 0.436938 0.922226
O O8 0.806551 0.500000 0.000000
O O9 0.250000 0.521004 0.250000
O O10 0.245307 0.631521 0.315699
O O11 0.000000 0.559459 0.307741
O O12 0.750000 0.951549 0.250000
O O13 0.500000 0.966415 0.185512
O O14 0.719938 0.053604 0.169205
O O15 0.750000 0.844528 0.750000
O O16 0.500000 0.859991 0.813974
O O17 0.739935 0.827985 0.880429
O O18 0.750000 0.741844 0.250000
O O19 0.500000 0.693568 0.299257
O O20 0.706238 0.732969 0.386970
O O21 0.000000 0.697751 0.025915
O O22 0.241632 0.749454 0.982050
O O23 0.500000 0.817231 0.562345
#
# Coordination Sequence:
#
# PCOD8217550 Si02
#       8
#     8   8   8   8   8   8   8   8
#     4  10  19  31  49  73  99 129 163 197 240 288
#     4   9  17  31  51  73  98 127 160 199 244 294
#     4  10  17  26  43  68  97 125 157 196 237 280
#     4  10  20  33  51  72  99 130 164 208 249 290
#     4  10  20  33  51  75  98 124 162 206 249 291
#     4   9  15  26  44  66  92 123 162 198 234 279
#     4   8  16  30  48  71  97 129 163 195 239 291
#     4  10  19  33  52  72 100 133 163 200 242 291
#
# _framework density 17.816362999999999
#
# number of rings (size 3 to 8) (size 9 to 14) (size 15 to 20)
#    0.000    2.500    1.250    3.750    0.000    2.000 
#    0.000    3.750    0.000    2.250    0.000    0.000 
#    0.000    0.000    0.000    0.000    0.000    0.000 
#
# Total GULP energy -793160.222641 kJ/mol
# GULP energy per Si atom -12393.128479 kJ/mol
# Density = 1.777581 g / cm^3
# Si number density = 17.816363 Si / 1000 Ang^3
#
#
#
# Elastic Constant Matrix: (Units=GPa)
#
#
# Indices 1 2 3 4 5 6 
#
# 1 86.8883 23.6259 63.0361 0.0000 0.0000 0.0000
# 2 23.6259 62.6126 50.1693 0.0000 0.0000 0.0000
# 3 63.0361 50.1693 155.9230 0.0000 0.0000 0.0000
# 4 0.0000 0.0000 0.0000 19.4899 0.0000 0.0000
# 5 0.0000 0.0000 0.0000 0.0000 37.1470 0.0000
# 6 0.0000 0.0000 0.0000 0.0000 0.0000 8.8878
#
#
#
# Elastic Compliance Matrix: (Units=1/GPa)
#
#
# Indices 1 2 3 4 5 6 
#
# 1 0.016350 -0.001176 -0.006231 0.000000 0.000000 0.000000
# 2 -0.001176 0.021604 -0.006476 0.000000 0.000000 0.000000
# 3 -0.006231 -0.006476 0.011016 0.000000 0.000000 0.000000
# 4 0.000000 0.000000 0.000000 0.051309 0.000000 0.000000
# 5 0.000000 0.000000 0.000000 0.000000 0.026920 0.000000
# 6 0.000000 0.000000 0.000000 0.000000 0.000000 0.112514
#
#
# Mechanical properties :
#
#
# Convention : Reuss Voigt Hill
#
# Bulk Modulus (GPa) = 47.16300 64.34295 55.75298
# Shear Modulus (GPa) = 18.21187 24.34446 21.27816
#
# Velocity S-wave (km/s) = 3.20065 3.70051 3.45962
# Velocity P-wave (km/s) = 6.33941 7.37911 6.87893
#
# Compressibility (1/GPa) = 0.02120306
#
# Stress axis : x y z
#
# Youngs Moduli (GPa) = 61.16370 46.28828 90.77597
#
# Poissons Ratio (x) = 0.05445 0.56565
# Poissons Ratio (y) = 0.07195 0.58783
# Poissons Ratio (z) = 0.38113 0.29974
#
# Static dielectric constant tensor:
#      x y z
#    x 3.281180 0.000000 0.000000 
#    y 0.000000 3.056650 0.000000 
#    z 0.000000 0.000000 4.032100 
# 
# 
# High freq. dielectric constant tensor:
#      x y z
#    x 1.681130 0.000000 0.000000 
#    y 0.000000 1.641830 0.000000 
#    z 0.000000 0.000000 1.707840 
# 
# From -- ./inp_files/27065.got.cif
#   From: 2010.03.12/outbox.cif.g09.slc.cpg/sg53_14_cif.got.tgz:27065.got - 2010.04.16 14:36:59.
