data_PCOD8217636
_publ_section_title
;
Structure prediction by ZEFSAII (Michael W. Deem and Ramdas Pophale) SiO2 
 PCOD8217636
Probable space group: P M N A
;
_chemical_formula_sum "Si O2"
_cell_formula_units_Z 64
_cell_length_a 8.711320
_cell_length_b 11.991097
_cell_length_c 31.156227
_cell_angle_alpha 90.000000
_cell_angle_beta 90.000000
_cell_angle_gamma 90.000000
_cell_volume 3254.525981
_symmetry_space_group_name_H-M "P M N A"
_symmetry_group_IT_number 53
_symmetry_cell_setting 'orthorhombic'
loop_
_space_group_symop_operation_xyz
x,y,z
1/2-x,-y,1/2+z
x,-y,-z
1/2-x,y,1/2-z
-x,-y,-z
1/2+x,y,1/2-z
-x,y,z
1/2+x,-y,1/2+z
loop_
_atom_site_type_symbol
_atom_site_label
_atom_site_fract_x
_atom_site_fract_y
_atom_site_fract_z
Si Si1 0.682296 0.267447 0.050009
Si Si2 0.179925 0.509836 0.176025
Si Si3 0.681111 0.730561 0.206429
Si Si4 0.321435 0.503359 0.085020
Si Si5 0.321179 0.735011 0.044046
Si Si6 0.317712 0.121394 0.128990
Si Si7 0.317163 0.867308 0.124828
Si Si8 0.681552 0.734628 0.704400
O O1 0.500000 0.266328 0.047587
O O2 0.737621 0.390959 0.062646
O O3 0.741739 0.179887 0.085314
O O4 0.749933 0.236357 0.002882
O O5 0.268663 0.602093 0.203400
O O6 0.219707 0.525537 0.126480
O O7 0.237586 0.389226 0.191987
O O8 0.000000 0.525419 0.183274
O O9 0.750000 0.782821 0.250000
O O10 0.500000 0.738313 0.208469
O O11 0.746303 0.800779 0.166141
O O12 0.500000 0.495643 0.098811
O O13 0.293656 0.604323 0.052349
O O14 0.500000 0.762594 0.043171
O O15 0.247106 0.810815 0.081681
O O16 0.500000 0.131431 0.133246
O O17 0.242028 0.178536 0.169707
O O18 0.261312 0.994255 0.127226
O O19 0.500000 0.859118 0.124128
O O20 0.750000 0.769647 0.750000
O O21 0.500000 0.741761 0.706204
#
# Coordination Sequence:
#
# PCOD8217636 Si02
#       8
#     8   8   8   8   8   8   8   8
#     4   9  17  28  51  85 115 146 184 227 277 327
#     4  11  22  36  57  85 113 144 181 224 277 337
#     4  11  22  38  58  83 112 146 181 225 279 331
#     4  10  17  30  54  82 112 148 184 227 280 332
#     4   9  16  29  51  83 117 145 181 231 279 326
#     4  10  20  36  57  83 113 147 190 233 272 322
#     4   9  19  34  54  81 114 148 187 234 277 317
#     4  11  24  40  59  83 111 144 180 226 279 333
#
# _framework density 19.664923000000002
#
# number of rings (size 3 to 8) (size 9 to 14) (size 15 to 20)
#    0.000    2.000    2.500    1.875    0.000    5.000 
#    0.000    5.000    0.000    2.250    0.000    0.875 
#    0.000    0.000    0.000    0.000    0.000    0.000 
#
# Total GULP energy -793634.663995 kJ/mol
# GULP energy per Si atom -12400.541625 kJ/mol
# Density = 1.962016 g / cm^3
# Si number density = 19.664923 Si / 1000 Ang^3
#
#
#
# Elastic Constant Matrix: (Units=GPa)
#
#
# Indices 1 2 3 4 5 6 
#
# 1 32.8929 22.6164 24.8894 0.0000 0.0000 0.0000
# 2 22.6164 140.3914 68.5611 0.0000 0.0000 0.0000
# 3 24.8894 68.5611 179.6659 0.0000 0.0000 0.0000
# 4 0.0000 0.0000 0.0000 28.1896 0.0000 0.0000
# 5 0.0000 0.0000 0.0000 0.0000 23.2659 0.0000
# 6 0.0000 0.0000 0.0000 0.0000 0.0000 13.0305
#
#
#
# Elastic Compliance Matrix: (Units=1/GPa)
#
#
# Indices 1 2 3 4 5 6 
#
# 1 0.035793 -0.004111 -0.003390 0.000000 0.000000 0.000000
# 2 -0.004111 0.009226 -0.002951 0.000000 0.000000 0.000000
# 3 -0.003390 -0.002951 0.007162 0.000000 0.000000 0.000000
# 4 0.000000 0.000000 0.000000 0.035474 0.000000 0.000000
# 5 0.000000 0.000000 0.000000 0.000000 0.042981 0.000000
# 6 0.000000 0.000000 0.000000 0.000000 0.000000 0.076743
#
#
# Mechanical properties :
#
#
# Convention : Reuss Voigt Hill
#
# Bulk Modulus (GPa) = 31.97179 65.00931 48.49055
# Shear Modulus (GPa) = 20.94595 28.68942 24.81768
#
# Velocity S-wave (km/s) = 3.26719 3.82372 3.55636
# Velocity P-wave (km/s) = 5.52506 7.25429 6.44791
#
# Compressibility (1/GPa) = 0.03127758
#
# Stress axis : x y z
#
# Youngs Moduli (GPa) = 27.93834 108.38365 139.63067
#
# Poissons Ratio (x) = 0.44553 0.47333
# Poissons Ratio (y) = 0.11484 0.41211
# Poissons Ratio (z) = 0.09471 0.31988
#
# Static dielectric constant tensor:
#      x y z
#    x 3.128410 0.000000 0.000000 
#    y 0.000000 3.699180 0.000000 
#    z 0.000000 0.000000 3.934330 
# 
# 
# High freq. dielectric constant tensor:
#      x y z
#    x 1.719630 0.000000 0.000000 
#    y 0.000000 1.766190 0.000000 
#    z 0.000000 0.000000 1.785680 
# 
# From -- ./inp_files/38195.got.cif
#   From: 2010.03.12/outbox.cif.g09.slc.cpg/sg53_20_cif.got.tgz:38195.got - 2010.04.16 14:36:59.
