data_PCOD8217699
_publ_section_title
;
Structure prediction by ZEFSAII (Michael W. Deem and Ramdas Pophale) SiO2 
 PCOD8217699
Probable space group: P M N A
;
_chemical_formula_sum "Si O2"
_cell_formula_units_Z 52
_cell_length_a 15.280698
_cell_length_b 10.841509
_cell_length_c 19.778749
_cell_angle_alpha 90.000000
_cell_angle_beta 90.000000
_cell_angle_gamma 90.000000
_cell_volume 3276.662768
_symmetry_space_group_name_H-M "P M N A"
_symmetry_group_IT_number 53
_symmetry_cell_setting 'orthorhombic'
loop_
_space_group_symop_operation_xyz
x,y,z
1/2-x,-y,1/2+z
x,-y,-z
1/2-x,y,1/2-z
-x,-y,-z
1/2+x,y,1/2-z
-x,y,z
1/2+x,-y,1/2+z
loop_
_atom_site_type_symbol
_atom_site_label
_atom_site_fract_x
_atom_site_fract_y
_atom_site_fract_z
Si Si1 0.899835 0.821846 0.349044
Si Si2 0.101331 0.944316 0.569030
Si Si3 0.331752 0.535248 0.784964
Si Si4 0.711630 0.500000 0.000000
Si Si5 0.401325 0.309295 0.710872
Si Si6 0.600906 0.673922 0.904508
Si Si7 0.249211 0.341547 0.884526
O O1 0.880248 0.789240 0.270762
O O2 0.829862 0.752591 0.396870
O O3 0.000000 0.780947 0.367301
O O4 0.886262 0.966216 0.365977
O O5 0.142210 0.810743 0.586583
O O6 0.000000 0.922491 0.554297
O O7 0.143967 0.000000 0.500000
O O8 0.250000 0.607063 0.750000
O O9 0.391845 0.451687 0.735533
O O10 0.389697 0.633114 0.825999
O O11 0.281800 0.440432 0.832078
O O12 0.650477 0.577665 0.950913
O O13 0.772583 0.407813 0.956022
O O14 0.500000 0.290412 0.685096
O O15 0.337374 0.278500 0.647651
O O16 0.500000 0.670668 0.924858
#
# Coordination Sequence:
#
# PCOD8217699 Si02
#       7
#     8   8   8   4   8   8   8
#     4   9  16  27  43  61  84 114 144 174 210 253
#     4   9  17  27  38  57  88 119 142 167 204 252
#     4   8  15  27  41  60  85 108 134 171 213 254
#     4  10  19  28  41  62  90 114 138 176 218 260
#     4   9  16  28  46  63  81 109 145 184 219 250
#     4  10  18  27  42  63  86 114 144 171 205 256
#     4   9  17  28  42  62  86 111 141 177 216 258
#
# _framework density 15.869804
#
# number of rings (size 3 to 8) (size 9 to 14) (size 15 to 20)
#    0.000    2.923    0.000    3.000    0.000    5.538 
#    0.000    1.923    0.000    0.000    0.000    0.000 
#    0.000    5.538    0.000    0.000    0.000    0.000 
#
# Total GULP energy -644215.401761 kJ/mol
# GULP energy per Si atom -12388.757726 kJ/mol
# Density = 1.583368 g / cm^3
# Si number density = 15.869804 Si / 1000 Ang^3
#
#
#
# Elastic Constant Matrix: (Units=GPa)
#
#
# Indices 1 2 3 4 5 6 
#
# 1 61.7827 26.2617 32.4127 0.0000 0.0000 0.0000
# 2 26.2617 83.9085 34.1456 0.0000 0.0000 0.0000
# 3 32.4127 34.1456 56.6122 0.0000 0.0000 0.0000
# 4 0.0000 0.0000 0.0000 17.5100 0.0000 0.0000
# 5 0.0000 0.0000 0.0000 0.0000 19.1821 0.0000
# 6 0.0000 0.0000 0.0000 0.0000 0.0000 10.2765
#
#
#
# Elastic Compliance Matrix: (Units=1/GPa)
#
#
# Indices 1 2 3 4 5 6 
#
# 1 0.023522 -0.002494 -0.011963 0.000000 0.000000 0.000000
# 2 -0.002494 0.016059 -0.008258 0.000000 0.000000 0.000000
# 3 -0.011963 -0.008258 0.029494 0.000000 0.000000 0.000000
# 4 0.000000 0.000000 0.000000 0.057110 0.000000 0.000000
# 5 0.000000 0.000000 0.000000 0.000000 0.052132 0.000000
# 6 0.000000 0.000000 0.000000 0.000000 0.000000 0.097310
#
#
# Mechanical properties :
#
#
# Convention : Reuss Voigt Hill
#
# Bulk Modulus (GPa) = 42.29204 43.10480 42.69842
# Shear Modulus (GPa) = 15.20043 16.69262 15.94652
#
# Velocity S-wave (km/s) = 3.09823 3.24674 3.17335
# Velocity P-wave (km/s) = 6.28537 6.42461 6.35537
#
# Compressibility (1/GPa) = 0.02364511
#
# Stress axis : x y z
#
# Youngs Moduli (GPa) = 42.51365 62.27141 33.90491
#
# Poissons Ratio (x) = 0.15528 0.40561
# Poissons Ratio (y) = 0.10601 0.27999
# Poissons Ratio (z) = 0.50860 0.51424
#
# Static dielectric constant tensor:
#      x y z
#    x 3.002340 0.000000 0.000000 
#    y 0.000000 3.085160 0.000000 
#    z 0.000000 0.000000 3.223570 
# 
# 
# High freq. dielectric constant tensor:
#      x y z
#    x 1.581690 0.000000 0.000000 
#    y 0.000000 1.593920 0.000000 
#    z 0.000000 0.000000 1.595780 
# 
# From -- ./inp_files/28408.got.cif
#   From: 2010.03.12/outbox.cif.g09.slc.cpg/sg53_15_cif.got.tgz:28408.got - 2010.04.16 14:36:59.
