data_PCOD8217377
_publ_section_title
;
Structure prediction by ZEFSAII (Michael W. Deem and Ramdas Pophale) SiO2 
 PCOD8217377
Probable space group: P N N A
;
_chemical_formula_sum "Si O2"
_cell_formula_units_Z 28
_cell_length_a 33.752271
_cell_length_b 4.994308
_cell_length_c 7.580021
_cell_angle_alpha 90.000000
_cell_angle_beta 90.000000
_cell_angle_gamma 90.000000
_cell_volume 1277.758357
_symmetry_space_group_name_H-M "P N N A"
_symmetry_group_IT_number 52
_symmetry_cell_setting 'orthorhombic'
loop_
_space_group_symop_operation_xyz
x,y,z
1/2-x,-y,z
x,1/2-y,1/2-z
1/2-x,1/2+y,1/2-z
-x,-y,-z
1/2+x,y,-z
-x,1/2+y,1/2+z
1/2+x,1/2-y,1/2+z
loop_
_atom_site_type_symbol
_atom_site_label
_atom_site_fract_x
_atom_site_fract_y
_atom_site_fract_z
Si Si1 0.885363 0.786807 0.452979
Si Si2 0.035312 0.486865 0.134113
Si Si3 0.163456 0.783762 0.047765
Si Si4 0.775868 0.250000 0.250000
O O1 0.896343 0.750000 0.250000
O O2 0.871342 0.506802 0.539577
O O3 0.923511 0.902020 0.548374
O O4 0.850605 0.000278 0.472180
O O5 0.041954 0.750000 0.250000
O O6 0.019055 0.250000 0.250000
O O7 0.000000 0.500000 0.000000
O O8 0.177724 0.750000 0.250000
O O9 0.199166 0.862168 0.917415
O O10 0.750000 0.500000 0.183398
#
# Coordination Sequence:
#
# PCOD8217377 Si02
#       4
#     8   8   8   4
#     4  12  23  44  70 100 137 184 232 295 346 413
#     4  12  26  44  66  99 140 185 239 294 359 416
#     4  12  25  45  72 104 138 182 236 283 349 420
#     4  12  26  46  72 104 146 178 228 292 354 422
#
# _framework density 21.913377000000001
#
# number of rings (size 3 to 8) (size 9 to 14) (size 15 to 20)
#    0.000    0.000    2.857    8.571    0.000    3.429 
#    0.000    0.000    0.000    0.000    0.000    0.000 
#    0.000    0.000    0.000    0.000    0.000    0.000 
#
# Total GULP energy -347284.417224 kJ/mol
# GULP energy per Si atom -12403.014901 kJ/mol
# Density = 2.186350 g / cm^3
# Si number density = 21.913377 Si / 1000 Ang^3
#
#
#
# Elastic Constant Matrix: (Units=GPa)
#
#
# Indices 1 2 3 4 5 6 
#
# 1 106.2201 32.0890 71.5970 0.0000 0.0000 0.0000
# 2 32.0890 142.7505 67.8272 0.0000 0.0000 0.0000
# 3 71.5970 67.8272 177.9608 0.0000 0.0000 0.0000
# 4 0.0000 0.0000 0.0000 45.0772 0.0000 0.0000
# 5 0.0000 0.0000 0.0000 0.0000 32.8403 0.0000
# 6 0.0000 0.0000 0.0000 0.0000 0.0000 44.5242
#
#
#
# Elastic Compliance Matrix: (Units=1/GPa)
#
#
# Indices 1 2 3 4 5 6 
#
# 1 0.012950 -0.000532 -0.005007 0.000000 0.000000 0.000000
# 2 -0.000532 0.008576 -0.003055 0.000000 0.000000 0.000000
# 3 -0.005007 -0.003055 0.008798 0.000000 0.000000 0.000000
# 4 0.000000 0.000000 0.000000 0.022184 0.000000 0.000000
# 5 0.000000 0.000000 0.000000 0.000000 0.030450 0.000000
# 6 0.000000 0.000000 0.000000 0.000000 0.000000 0.022460
#
#
# Mechanical properties :
#
#
# Convention : Reuss Voigt Hill
#
# Bulk Modulus (GPa) = 76.12345 85.55087 80.83716
# Shear Modulus (GPa) = 39.37446 41.51620 40.44533
#
# Velocity S-wave (km/s) = 4.24349 4.35738 4.30081
# Velocity P-wave (km/s) = 7.66964 8.02751 7.85061
#
# Compressibility (1/GPa) = 0.01313656
#
# Stress axis : x y z
#
# Youngs Moduli (GPa) = 77.21814 116.60139 113.66115
#
# Poissons Ratio (x) = 0.06201 0.56915
# Poissons Ratio (y) = 0.04107 0.34720
# Poissons Ratio (z) = 0.38667 0.35619
#
# Static dielectric constant tensor:
#      x y z
#    x 3.981180 0.000000 0.000000 
#    y 0.000000 4.260100 0.000000 
#    z 0.000000 0.000000 4.195400 
# 
# 
# High freq. dielectric constant tensor:
#      x y z
#    x 1.861430 0.000000 0.000000 
#    y 0.000000 1.884070 0.000000 
#    z 0.000000 0.000000 1.881070 
# 
# From -- ./inp_files/14622.got.cif
#   From: 2010.06.25/outbox.cif.g09.slc.cpg/sg52_8_cif.got.tgz:14622.got - 2010.06.26 19:32:48.
