data_PCOD8217816
_publ_section_title
;
Structure prediction by ZEFSAII (Michael W. Deem and Ramdas Pophale) SiO2 
 PCOD8217816
Probable space group: P M N A
;
_chemical_formula_sum "Si O2"
_cell_formula_units_Z 64
_cell_length_a 8.818605
_cell_length_b 17.090896
_cell_length_c 24.084902
_cell_angle_alpha 90.000000
_cell_angle_beta 90.000000
_cell_angle_gamma 90.000000
_cell_volume 3630.024910
_symmetry_space_group_name_H-M "P M N A"
_symmetry_group_IT_number 53
_symmetry_cell_setting 'orthorhombic'
loop_
_space_group_symop_operation_xyz
x,y,z
1/2-x,-y,1/2+z
x,-y,-z
1/2-x,y,1/2-z
-x,-y,-z
1/2+x,y,1/2-z
-x,y,z
1/2+x,-y,1/2+z
loop_
_atom_site_type_symbol
_atom_site_label
_atom_site_fract_x
_atom_site_fract_y
_atom_site_fract_z
Si Si1 0.826912 0.867383 0.693838
Si Si2 0.179033 0.820550 0.530296
Si Si3 0.820751 0.143431 0.591552
Si Si4 0.180134 0.748801 0.310547
Si Si5 0.820462 0.730873 0.873895
Si Si6 0.171809 0.028581 0.408829
Si Si7 0.821708 0.591156 0.688785
Si Si8 0.674322 0.421358 0.807781
O O1 0.750000 0.895738 0.750000
O O2 0.734757 0.794521 0.670160
O O3 0.817883 0.942106 0.654131
O O4 0.000000 0.840787 0.703230
O O5 0.216042 0.810105 0.465334
O O6 0.260655 0.751736 0.564415
O O7 0.243259 0.905557 0.550496
O O8 0.000000 0.815959 0.543649
O O9 0.752855 0.190563 0.644085
O O10 0.000000 0.136173 0.599559
O O11 0.746955 0.056283 0.588089
O O12 0.250000 0.765732 0.250000
O O13 0.228620 0.661741 0.333751
O O14 0.000000 0.757590 0.305732
O O15 0.755240 0.647597 0.855754
O O16 0.000000 0.727609 0.874629
O O17 0.000000 0.016439 0.428683
O O18 0.750000 0.601728 0.750000
O O19 0.794130 0.504011 0.661284
O O20 0.000000 0.609260 0.694146
O O21 0.750000 0.434336 0.750000
O O22 0.500000 0.411187 0.795198
#
# Coordination Sequence:
#
# PCOD8217816 Si02
#       8
#     8   8   8   8   8   8   8   8
#     4  10  19  31  46  65  94 129 161 190 227 275
#     4   9  17  31  50  69  90 120 159 198 234 272
#     4   9  16  28  50  74  93 118 156 197 232 272
#     4   9  17  30  48  72  99 124 150 183 228 276
#     4  11  21  32  46  66  93 122 154 192 234 277
#     4   8  15  27  45  69  92 118 155 196 233 269
#     4  10  18  29  46  69  95 122 154 188 225 270
#     4   8  15  27  44  66  93 122 150 183 222 268
#
# _framework density 17.630732999999999
#
# number of rings (size 3 to 8) (size 9 to 14) (size 15 to 20)
#    0.000    2.750    0.000    3.375    0.000    2.500 
#    0.000    0.625    0.000   10.500    0.000    5.250 
#    0.000    0.000    0.000    0.000    0.000    0.000 
#
# Total GULP energy -792885.854193 kJ/mol
# GULP energy per Si atom -12388.841472 kJ/mol
# Density = 1.759060 g / cm^3
# Si number density = 17.630733 Si / 1000 Ang^3
#
#
#
# Elastic Constant Matrix: (Units=GPa)
#
#
# Indices 1 2 3 4 5 6 
#
# 1 60.4075 32.4520 30.2558 0.0000 0.0000 0.0000
# 2 32.4520 115.0942 58.2339 0.0000 0.0000 0.0000
# 3 30.2558 58.2339 108.0042 0.0000 0.0000 0.0000
# 4 0.0000 0.0000 0.0000 20.0565 0.0000 0.0000
# 5 0.0000 0.0000 0.0000 0.0000 21.1915 0.0000
# 6 0.0000 0.0000 0.0000 0.0000 0.0000 13.7346
#
#
#
# Elastic Compliance Matrix: (Units=1/GPa)
#
#
# Indices 1 2 3 4 5 6 
#
# 1 0.020483 -0.003950 -0.003609 0.000000 0.000000 0.000000
# 2 -0.003950 0.012710 -0.005746 0.000000 0.000000 0.000000
# 3 -0.003609 -0.005746 0.013368 0.000000 0.000000 0.000000
# 4 0.000000 0.000000 0.000000 0.049859 0.000000 0.000000
# 5 0.000000 0.000000 0.000000 0.000000 0.047189 0.000000
# 6 0.000000 0.000000 0.000000 0.000000 0.000000 0.072809
#
#
# Mechanical properties :
#
#
# Convention : Reuss Voigt Hill
#
# Bulk Modulus (GPa) = 50.12025 58.37660 54.24842
# Shear Modulus (GPa) = 20.02580 21.83414 20.92997
#
# Velocity S-wave (km/s) = 3.37389 3.52293 3.44921
# Velocity P-wave (km/s) = 6.60810 7.05199 6.83365
#
# Compressibility (1/GPa) = 0.01995201
#
# Stress axis : x y z
#
# Youngs Moduli (GPa) = 48.81985 78.68015 74.80489
#
# Poissons Ratio (x) = 0.31077 0.26994
# Poissons Ratio (y) = 0.19283 0.42986
# Poissons Ratio (z) = 0.17617 0.45213
#
# Static dielectric constant tensor:
#      x y z
#    x 3.286080 0.000000 0.000000 
#    y 0.000000 3.707680 0.000000 
#    z 0.000000 0.000000 3.151430 
# 
# 
# High freq. dielectric constant tensor:
#      x y z
#    x 1.657740 0.000000 0.000000 
#    y 0.000000 1.687890 0.000000 
#    z 0.000000 0.000000 1.660090 
# 
# From -- ./inp_files/34485.got.cif
#   From: 2010.03.12/outbox.cif.g09.slc.cpg/sg53_18_cif.got.tgz:34485.got - 2010.04.16 14:36:59.
