data_PCOD8217493
_publ_section_title
;
Structure prediction by ZEFSAII (Michael W. Deem and Ramdas Pophale) SiO2 
 PCOD8217493
Probable space group: P M N A
;
_chemical_formula_sum "Si O2"
_cell_formula_units_Z 64
_cell_length_a 8.996250
_cell_length_b 20.408337
_cell_length_c 22.106002
_cell_angle_alpha 90.000000
_cell_angle_beta 90.000000
_cell_angle_gamma 90.000000
_cell_volume 4058.628847
_symmetry_space_group_name_H-M "P M N A"
_symmetry_group_IT_number 53
_symmetry_cell_setting 'orthorhombic'
loop_
_space_group_symop_operation_xyz
x,y,z
1/2-x,-y,1/2+z
x,-y,-z
1/2-x,y,1/2-z
-x,-y,-z
1/2+x,y,1/2-z
-x,y,z
1/2+x,-y,1/2+z
loop_
_atom_site_type_symbol
_atom_site_label
_atom_site_fract_x
_atom_site_fract_y
_atom_site_fract_z
Si Si1 0.176331 0.373553 0.314561
Si Si2 0.171702 0.402476 0.962145
Si Si3 0.826000 0.856093 0.047381
Si Si4 0.334406 0.020366 0.929893
Si Si5 0.172888 0.880755 0.577310
Si Si6 0.672146 0.257509 0.104903
Si Si7 0.672388 0.460277 0.408953
Si Si8 0.675568 0.727433 0.032077
O O1 0.250000 0.380145 0.250000
O O2 0.242117 0.307109 0.346139
O O3 0.224130 0.435456 0.354855
O O4 0.000000 0.372838 0.306930
O O5 0.201703 0.462305 0.916468
O O6 0.000000 0.382227 0.961066
O O7 0.218867 0.423274 0.029697
O O8 0.269030 0.340955 0.939716
O O9 0.773616 0.919295 0.087074
O O10 0.000000 0.847677 0.054869
O O11 0.781508 0.870832 0.978827
O O12 0.747265 0.788628 0.068544
O O13 0.500000 0.043718 0.913544
O O14 0.294720 0.952537 0.893181
O O15 0.322924 0.000000 0.000000
O O16 0.200955 0.819309 0.622940
O O17 0.000000 0.878159 0.554646
O O18 0.500000 0.274568 0.103427
O O19 0.734080 0.269952 0.037383
O O20 0.500000 0.447058 0.393968
O O21 0.500000 0.733107 0.037547
#
# Coordination Sequence:
#
# PCOD8217493 Si02
#       8
#     8   8   8   8   8   8   8   8
#     4  11  21  33  47  64  85 113 148 184 221 260
#     4   9  17  29  46  66  88 110 135 173 220 262
#     4  10  17  22  31  50  76 104 134 167 203 242
#     4   8  13  22  34  47  67  98 132 165 200 238
#     4   8  14  25  38  50  68  97 133 171 207 241
#     4   8  15  27  41  57  76 101 138 178 211 250
#     4   9  18  32  47  65  88 111 136 172 218 267
#     4  10  17  27  41  58  80 108 142 176 209 249
#
# _framework density 15.768872
#
# number of rings (size 3 to 8) (size 9 to 14) (size 15 to 20)
#    0.000    2.875    1.250    4.125    0.000    2.750 
#    0.000    1.875    0.000    0.000    0.000    0.000 
#    0.000    0.000    0.000    1.125    0.000   19.375 
#
# Total GULP energy -792920.390387 kJ/mol
# GULP energy per Si atom -12389.381100 kJ/mol
# Density = 1.573298 g / cm^3
# Si number density = 15.768872 Si / 1000 Ang^3
#
#
#
# Elastic Constant Matrix: (Units=GPa)
#
#
# Indices 1 2 3 4 5 6 
#
# 1 77.6497 57.3572 16.2198 0.0000 0.0000 0.0000
# 2 57.3572 150.7885 28.6021 0.0000 0.0000 0.0000
# 3 16.2198 28.6021 39.1424 0.0000 0.0000 0.0000
# 4 0.0000 0.0000 0.0000 10.2705 0.0000 0.0000
# 5 0.0000 0.0000 0.0000 0.0000 10.0130 0.0000
# 6 0.0000 0.0000 0.0000 0.0000 0.0000 28.4336
#
#
#
# Elastic Compliance Matrix: (Units=1/GPa)
#
#
# Indices 1 2 3 4 5 6 
#
# 1 0.018186 -0.006371 -0.002880 0.000000 0.000000 0.000000
# 2 -0.006371 0.009931 -0.004617 0.000000 0.000000 0.000000
# 3 -0.002880 -0.004617 0.030115 0.000000 0.000000 0.000000
# 4 0.000000 0.000000 0.000000 0.097366 0.000000 0.000000
# 5 0.000000 0.000000 0.000000 0.000000 0.099870 0.000000
# 6 0.000000 0.000000 0.000000 0.000000 0.000000 0.035170
#
#
# Mechanical properties :
#
#
# Convention : Reuss Voigt Hill
#
# Bulk Modulus (GPa) = 32.79182 52.43764 42.61473
# Shear Modulus (GPa) = 15.21884 20.77018 17.99451
#
# Velocity S-wave (km/s) = 3.11001 3.63321 3.38174
# Velocity P-wave (km/s) = 5.80832 7.13627 6.50627
#
# Compressibility (1/GPa) = 0.03049541
#
# Stress axis : x y z
#
# Youngs Moduli (GPa) = 54.98629 100.69404 33.20629
#
# Poissons Ratio (x) = 0.64156 0.09565
# Poissons Ratio (y) = 0.35034 0.15330
# Poissons Ratio (z) = 0.15838 0.46487
#
# Static dielectric constant tensor:
#      x y z
#    x 2.863770 0.000000 0.000000 
#    y 0.000000 3.574900 0.000000 
#    z 0.000000 0.000000 2.420990 
# 
# 
# High freq. dielectric constant tensor:
#      x y z
#    x 1.599970 0.000000 0.000000 
#    y 0.000000 1.632800 0.000000 
#    z 0.000000 0.000000 1.515210 
# 
# From -- ./inp_files/34576.got.cif
#   From: 2010.03.12/outbox.cif.g09.slc.cpg/sg53_18_cif.got.tgz:34576.got - 2010.04.16 14:36:59.
