data_PCOD8217057
_publ_section_title
;
Structure prediction by ZEFSAII (Michael W. Deem and Ramdas Pophale) SiO2 
 PCOD8217057
Probable space group: P N N A
;
_chemical_formula_sum "Si O2"
_cell_formula_units_Z 64
_cell_length_a 10.852144
_cell_length_b 15.065650
_cell_length_c 17.985776
_cell_angle_alpha 90.000000
_cell_angle_beta 90.000000
_cell_angle_gamma 90.000000
_cell_volume 2940.577311
_symmetry_space_group_name_H-M "P N N A"
_symmetry_group_IT_number 52
_symmetry_cell_setting 'orthorhombic'
loop_
_space_group_symop_operation_xyz
x,y,z
1/2-x,-y,z
x,1/2-y,1/2-z
1/2-x,1/2+y,1/2-z
-x,-y,-z
1/2+x,y,-z
-x,1/2+y,1/2+z
1/2+x,1/2-y,1/2+z
loop_
_atom_site_type_symbol
_atom_site_label
_atom_site_fract_x
_atom_site_fract_y
_atom_site_fract_z
Si Si1 0.623345 0.447760 0.475248
Si Si2 0.327758 0.919790 0.676335
Si Si3 0.268373 0.781214 0.038619
Si Si4 0.059762 0.562851 0.088254
Si Si5 0.553170 0.372098 0.939905
Si Si6 0.361941 0.840456 0.830847
Si Si7 0.834122 0.224830 0.391070
Si Si8 0.394785 0.262800 0.165371
O O1 0.750000 0.500000 0.490466
O O2 0.500000 0.500000 0.500000
O O3 0.632433 0.359295 0.525749
O O4 0.616544 0.421663 0.387987
O O5 0.430057 0.962102 0.624683
O O6 0.387098 0.868664 0.746507
O O7 0.251051 0.860114 0.619917
O O8 0.250000 0.000000 0.711270
O O9 0.334001 0.686601 0.034936
O O10 0.194705 0.798477 0.115115
O O11 0.172562 0.774271 0.970688
O O12 0.128074 0.635113 0.140036
O O13 0.119105 0.463763 0.087909
O O14 0.042608 0.604104 0.006141
O O15 0.474180 0.311798 0.880088
O O16 0.222205 0.800076 0.834959
O O17 0.462846 0.763937 0.849640
O O18 0.352989 0.250000 0.250000
#
# Coordination Sequence:
#
# PCOD8217057 Si02
#       8
#     8   8   8   8   8   8   8   8
#     4  11  25  45  71 101 132 175 233 297 344 409
#     4  12  21  38  59 100 130 168 217 274 332 400
#     4  11  25  41  67  94 130 171 224 271 339 409
#     4  11  21  37  63  96 134 170 215 269 330 406
#     4  11  23  39  62  99 132 168 213 279 333 400
#     4  11  23  39  67  93 130 172 222 274 341 399
#     4  11  21  36  64  91 126 167 215 267 330 392
#     4  12  22  42  67  92 132 186 225 268 332 421
#
# _framework density 21.764434999999999
#
# number of rings (size 3 to 8) (size 9 to 14) (size 15 to 20)
#    0.000    0.750    6.250    2.250    3.500    0.500 
#    0.000    2.500    2.750    0.000    0.000    0.000 
#    0.000    0.000    0.000    0.000    0.000    0.000 
#
# Total GULP energy -793068.000935 kJ/mol
# GULP energy per Si atom -12391.687515 kJ/mol
# Density = 2.171490 g / cm^3
# Si number density = 21.764435 Si / 1000 Ang^3
#
#
#
# Elastic Constant Matrix: (Units=GPa)
#
#
# Indices 1 2 3 4 5 6 
#
# 1 56.3066 25.3576 18.7328 0.0000 0.0000 0.0000
# 2 25.3576 113.1251 31.2523 0.0000 0.0000 0.0000
# 3 18.7328 31.2523 103.5508 0.0000 0.0000 0.0000
# 4 0.0000 0.0000 0.0000 34.6860 0.0000 0.0000
# 5 0.0000 0.0000 0.0000 0.0000 25.4439 0.0000
# 6 0.0000 0.0000 0.0000 0.0000 0.0000 37.1677
#
#
#
# Elastic Compliance Matrix: (Units=1/GPa)
#
#
# Indices 1 2 3 4 5 6 
#
# 1 0.020336 -0.003864 -0.002513 0.000000 0.000000 0.000000
# 2 -0.003864 0.010378 -0.002433 0.000000 0.000000 0.000000
# 3 -0.002513 -0.002433 0.010846 0.000000 0.000000 0.000000
# 4 0.000000 0.000000 0.000000 0.028830 0.000000 0.000000
# 5 0.000000 0.000000 0.000000 0.000000 0.039302 0.000000
# 6 0.000000 0.000000 0.000000 0.000000 0.000000 0.026905
#
#
# Mechanical properties :
#
#
# Convention : Reuss Voigt Hill
#
# Bulk Modulus (GPa) = 41.77084 47.07422 44.42253
# Shear Modulus (GPa) = 30.82658 32.63551 31.73104
#
# Velocity S-wave (km/s) = 3.76756 3.87652 3.82243
# Velocity P-wave (km/s) = 6.17737 6.45852 6.31951
#
# Compressibility (1/GPa) = 0.02394014
#
# Stress axis : x y z
#
# Youngs Moduli (GPa) = 49.17359 96.35620 92.20018
#
# Poissons Ratio (x) = 0.37235 0.23166
# Poissons Ratio (y) = 0.19002 0.22433
# Poissons Ratio (z) = 0.12355 0.23445
#
# Static dielectric constant tensor:
#      x y z
#    x 3.775740 0.000000 0.000000 
#    y 0.000000 4.211090 0.000000 
#    z 0.000000 0.000000 3.782670 
# 
# 
# High freq. dielectric constant tensor:
#      x y z
#    x 1.838230 0.000000 0.000000 
#    y 0.000000 1.868310 0.000000 
#    z 0.000000 0.000000 1.838150 
# 
# From -- ./inp_files/32399.got.cif
#   From: 2010.06.25/outbox.cif.g09.slc.cpg/sg52_17_cif.got.tgz:32399.got - 2010.06.26 19:32:48.
