data_PCOD8217769
_publ_section_title
;
Structure prediction by ZEFSAII (Michael W. Deem and Ramdas Pophale) SiO2 
 PCOD8217769
Probable space group: P M N A
;
_chemical_formula_sum "Si O2"
_cell_formula_units_Z 48
_cell_length_a 9.245218
_cell_length_b 11.885990
_cell_length_c 25.558466
_cell_angle_alpha 90.000000
_cell_angle_beta 90.000000
_cell_angle_gamma 90.000000
_cell_volume 2808.583247
_symmetry_space_group_name_H-M "P M N A"
_symmetry_group_IT_number 53
_symmetry_cell_setting 'orthorhombic'
loop_
_space_group_symop_operation_xyz
x,y,z
1/2-x,-y,1/2+z
x,-y,-z
1/2-x,y,1/2-z
-x,-y,-z
1/2+x,y,1/2-z
-x,y,z
1/2+x,-y,1/2+z
loop_
_atom_site_type_symbol
_atom_site_label
_atom_site_fract_x
_atom_site_fract_y
_atom_site_fract_z
Si Si1 0.828425 0.459101 0.055733
Si Si2 0.833864 0.211300 0.075917
Si Si3 0.339099 0.136974 0.540589
Si Si4 0.335564 0.669371 0.380161
Si Si5 0.331965 0.014844 0.113842
Si Si6 0.330216 0.824394 0.195586
O O1 0.767154 0.336863 0.072304
O O2 0.786817 0.544495 0.102588
O O3 0.000000 0.450365 0.048986
O O4 0.762193 0.500000 0.000000
O O5 0.000000 0.216292 0.093669
O O6 0.747174 0.135941 0.118276
O O7 0.814065 0.150391 0.020536
O O8 0.500000 0.088048 0.551813
O O9 0.323561 0.258379 0.567052
O O10 0.222160 0.050890 0.562637
O O11 0.500000 0.670310 0.358551
O O12 0.230261 0.716170 0.335409
O O13 0.500000 0.037537 0.107671
O O14 0.296373 0.939435 0.164545
O O15 0.250000 0.835351 0.250000
O O16 0.500000 0.806509 0.204175
#
# Coordination Sequence:
#
# PCOD8217769 Si02
#       6
#     8   8   8   8   8   8
#     4   9  15  27  48  74 103 136 173 206 232 271
#     4  10  18  28  46  71 100 135 172 201 229 276
#     4   9  16  27  45  69  97 131 169 203 232 275
#     4   9  16  29  51  76 102 131 165 205 246 285
#     4  10  21  33  45  67  99 129 159 201 253 300
#     4  10  21  37  56  75  95 121 159 209 261 306
#
# _framework density 17.090468999999999
#
# number of rings (size 3 to 8) (size 9 to 14) (size 15 to 20)
#    0.000    2.500    1.667    1.500    0.000    4.667 
#    0.000    0.833    0.000    2.000    0.000    2.333 
#    0.000    0.000    0.000    0.000    0.000    0.000 
#
# Total GULP energy -595085.943390 kJ/mol
# GULP energy per Si atom -12397.623821 kJ/mol
# Density = 1.705157 g / cm^3
# Si number density = 17.090469 Si / 1000 Ang^3
#
#
#
# Elastic Constant Matrix: (Units=GPa)
#
#
# Indices 1 2 3 4 5 6 
#
# 1 77.8912 54.0494 48.2350 0.0000 0.0000 0.0000
# 2 54.0494 124.5300 49.2359 0.0000 0.0000 0.0000
# 3 48.2350 49.2359 76.1148 0.0000 0.0000 0.0000
# 4 0.0000 0.0000 0.0000 11.9697 0.0000 0.0000
# 5 0.0000 0.0000 0.0000 0.0000 19.0412 0.0000
# 6 0.0000 0.0000 0.0000 0.0000 0.0000 13.6492
#
#
#
# Elastic Compliance Matrix: (Units=1/GPa)
#
#
# Indices 1 2 3 4 5 6 
#
# 1 0.023986 -0.005913 -0.011375 0.000000 0.000000 0.000000
# 2 -0.005913 0.012247 -0.004175 0.000000 0.000000 0.000000
# 3 -0.011375 -0.004175 0.023047 0.000000 0.000000 0.000000
# 4 0.000000 0.000000 0.000000 0.083544 0.000000 0.000000
# 5 0.000000 0.000000 0.000000 0.000000 0.052518 0.000000
# 6 0.000000 0.000000 0.000000 0.000000 0.000000 0.073264
#
#
# Mechanical properties :
#
#
# Convention : Reuss Voigt Hill
#
# Bulk Modulus (GPa) = 61.14810 64.61960 62.88385
# Shear Modulus (GPa) = 15.77360 17.39971 16.58666
#
# Velocity S-wave (km/s) = 3.04130 3.19422 3.11870
# Velocity P-wave (km/s) = 6.94186 7.17610 7.05995
#
# Compressibility (1/GPa) = 0.01635374
#
# Stress axis : x y z
#
# Youngs Moduli (GPa) = 41.69142 81.65016 43.38869
#
# Poissons Ratio (x) = 0.48280 0.49356
# Poissons Ratio (y) = 0.24652 0.18116
# Poissons Ratio (z) = 0.47425 0.34091
#
# Static dielectric constant tensor:
#      x y z
#    x 3.049700 0.000000 0.000000 
#    y 0.000000 3.413120 0.000000 
#    z 0.000000 0.000000 2.922310 
# 
# 
# High freq. dielectric constant tensor:
#      x y z
#    x 1.640470 0.000000 0.000000 
#    y 0.000000 1.667710 0.000000 
#    z 0.000000 0.000000 1.627270 
# 
# From -- ./inp_files/33905.got.cif
#   From: 2010.03.12/outbox.cif.g09.slc.cpg/sg53_17_cif.got.tgz:33905.got - 2010.04.16 14:36:59.
