data_PCOD8217946
_publ_section_title
;
Structure prediction by ZEFSAII (Michael W. Deem and Ramdas Pophale) SiO2 
 PCOD8217946
Probable space group: P M N A
;
_chemical_formula_sum "Si O2"
_cell_formula_units_Z 52
_cell_length_a 30.295307
_cell_length_b 6.672764
_cell_length_c 14.504846
_cell_angle_alpha 90.000000
_cell_angle_beta 90.000000
_cell_angle_gamma 90.000000
_cell_volume 2932.204427
_symmetry_space_group_name_H-M "P M N A"
_symmetry_group_IT_number 53
_symmetry_cell_setting 'orthorhombic'
loop_
_space_group_symop_operation_xyz
x,y,z
1/2-x,-y,1/2+z
x,-y,-z
1/2-x,y,1/2-z
-x,-y,-z
1/2+x,y,1/2-z
-x,y,z
1/2+x,-y,1/2+z
loop_
_atom_site_type_symbol
_atom_site_label
_atom_site_fract_x
_atom_site_fract_y
_atom_site_fract_z
Si Si1 0.861632 0.125347 0.081886
Si Si2 0.882529 0.427537 0.603854
Si Si3 0.311470 0.135642 0.829241
Si Si4 0.179355 0.500000 0.000000
Si Si5 0.448576 0.918760 0.101709
Si Si6 0.214833 0.831339 0.126624
Si Si7 0.115506 0.828134 0.713149
O O1 0.888596 0.135530 0.176990
O O2 0.814582 0.014333 0.091126
O O3 0.853216 0.354378 0.055436
O O4 0.887228 0.000000 0.000000
O O5 0.883719 0.500000 0.500000
O O6 0.838164 0.300308 0.614069
O O7 0.926018 0.294697 0.619866
O O8 0.882624 0.598329 0.681874
O O9 0.300821 0.224922 0.729032
O O10 0.265220 0.091433 0.879905
O O11 0.340005 0.932280 0.825106
O O12 0.210056 0.628124 0.068146
O O13 0.500000 0.893176 0.120733
O O14 0.428994 0.078780 0.172581
O O15 0.438453 0.000000 0.000000
#
# Coordination Sequence:
#
# PCOD8217946 Si02
#       7
#     8   8   8   4   8   8   8
#     4   9  19  35  55  78 103 139 185 226 266 311
#     4  11  21  33  51  82 108 142 177 217 267 321
#     4   9  20  33  49  69 107 141 183 221 265 309
#     4  10  18  30  50  74  99 128 181 230 266 300
#     4  10  21  38  58  82 111 139 172 212 259 328
#     4   9  18  34  48  71 100 144 183 227 263 306
#     4  10  20  37  56  77 109 142 174 218 270 318
#
# _framework density 17.734096999999998
#
# number of rings (size 3 to 8) (size 9 to 14) (size 15 to 20)
#    0.000    2.308    1.538    0.923    1.077    3.385 
#    5.538    3.077    0.000    0.462    0.000    1.615 
#    0.000    0.000    0.000    0.000    0.000    0.000 
#
# Total GULP energy -644685.706359 kJ/mol
# GULP energy per Si atom -12397.802045 kJ/mol
# Density = 1.769373 g / cm^3
# Si number density = 17.734097 Si / 1000 Ang^3
#
#
#
# Elastic Constant Matrix: (Units=GPa)
#
#
# Indices 1 2 3 4 5 6 
#
# 1 86.8411 32.3106 32.0394 0.0000 0.0000 0.0000
# 2 32.3106 105.7064 33.5765 0.0000 0.0000 0.0000
# 3 32.0394 33.5765 92.2197 0.0000 0.0000 0.0000
# 4 0.0000 0.0000 0.0000 35.0435 0.0000 0.0000
# 5 0.0000 0.0000 0.0000 0.0000 23.2566 0.0000
# 6 0.0000 0.0000 0.0000 0.0000 0.0000 11.6950
#
#
#
# Elastic Compliance Matrix: (Units=1/GPa)
#
#
# Indices 1 2 3 4 5 6 
#
# 1 0.014055 -0.003104 -0.003753 0.000000 0.000000 0.000000
# 2 -0.003104 0.011383 -0.003066 0.000000 0.000000 0.000000
# 3 -0.003753 -0.003066 0.013264 0.000000 0.000000 0.000000
# 4 0.000000 0.000000 0.000000 0.028536 0.000000 0.000000
# 5 0.000000 0.000000 0.000000 0.000000 0.042998 0.000000
# 6 0.000000 0.000000 0.000000 0.000000 0.000000 0.085507
#
#
# Mechanical properties :
#
#
# Convention : Reuss Voigt Hill
#
# Bulk Modulus (GPa) = 53.03422 53.40225 53.21823
# Shear Modulus (GPa) = 22.53538 26.45506 24.49522
#
# Velocity S-wave (km/s) = 3.56861 3.86652 3.72055
# Velocity P-wave (km/s) = 6.85201 7.07895 6.96640
#
# Compressibility (1/GPa) = 0.01885575
#
# Stress axis : x y z
#
# Youngs Moduli (GPa) = 71.15029 87.85168 75.39309
#
# Poissons Ratio (x) = 0.27269 0.28294
# Poissons Ratio (y) = 0.22085 0.23116
# Poissons Ratio (z) = 0.26702 0.26935
#
# Static dielectric constant tensor:
#      x y z
#    x 3.069990 0.000000 0.000000 
#    y 0.000000 3.348970 0.000000 
#    z 0.000000 0.000000 3.557840 
# 
# 
# High freq. dielectric constant tensor:
#      x y z
#    x 1.657290 0.000000 0.000000 
#    y 0.000000 1.692560 0.000000 
#    z 0.000000 0.000000 1.698450 
# 
# From -- ./inp_files/25159.got.cif
#   From: 2010.03.12/outbox.cif.g09.slc.cpg/sg53_13_cif.got.tgz:25159.got - 2010.04.16 14:36:59.
