data_PCOD8217580
_publ_section_title
;
Structure prediction by ZEFSAII (Michael W. Deem and Ramdas Pophale) SiO2 
 PCOD8217580
Probable space group: P M N A
;
_chemical_formula_sum "Si O2"
_cell_formula_units_Z 40
_cell_length_a 8.584802
_cell_length_b 26.176760
_cell_length_c 9.184783
_cell_angle_alpha 90.000000
_cell_angle_beta 90.000000
_cell_angle_gamma 90.000000
_cell_volume 2064.025575
_symmetry_space_group_name_H-M "P M N A"
_symmetry_group_IT_number 53
_symmetry_cell_setting 'orthorhombic'
loop_
_space_group_symop_operation_xyz
x,y,z
1/2-x,-y,1/2+z
x,-y,-z
1/2-x,y,1/2-z
-x,-y,-z
1/2+x,y,1/2-z
-x,y,z
1/2+x,-y,1/2+z
loop_
_atom_site_type_symbol
_atom_site_label
_atom_site_fract_x
_atom_site_fract_y
_atom_site_fract_z
Si Si1 0.316159 0.950848 0.409900
Si Si2 0.184193 0.152291 0.587331
Si Si3 0.316794 0.641339 0.089778
Si Si4 0.684313 0.254553 0.587742
Si Si5 0.319616 0.449252 0.407707
O O1 0.250000 0.958394 0.250000
O O2 0.500000 0.944487 0.403212
O O3 0.244173 0.900086 0.487555
O O4 0.263308 0.000000 0.500000
O O5 0.250000 0.151185 0.750000
O O6 0.250478 0.203397 0.507409
O O7 0.000000 0.154278 0.587667
O O8 0.250000 0.630162 0.250000
O O9 0.500000 0.647683 0.104488
O O10 0.245957 0.692941 0.016456
O O11 0.276171 0.595628 0.982882
O O12 0.750000 0.254630 0.750000
O O13 0.500000 0.253406 0.586828
O O14 0.295975 0.500000 0.500000
O O15 0.250000 0.459885 0.250000
O O16 0.500000 0.433634 0.397039
#
# Coordination Sequence:
#
# PCOD8217580 Si02
#       5
#     8   8   8   8   8
#     4  10  20  33  50  73 101 134 173 216 263 314
#     4  10  17  27  45  70 100 133 171 214 262 311
#     4  11  21  35  56  83 114 145 180 221 268 319
#     4  10  17  28  47  73 105 137 173 216 263 312
#     4  11  24  41  61  85 113 146 184 224 268 317
#
# _framework density 19.379604
#
# number of rings (size 3 to 8) (size 9 to 14) (size 15 to 20)
#    0.000    1.600    0.000   10.800    0.000    4.800 
#    0.000    0.000    0.000    1.200    0.000    5.600 
#    0.000    0.000    0.000    0.000    0.000    0.000 
#
# Total GULP energy -495888.430854 kJ/mol
# GULP energy per Si atom -12397.210771 kJ/mol
# Density = 1.933550 g / cm^3
# Si number density = 19.379604 Si / 1000 Ang^3
#
#
#
# Elastic Constant Matrix: (Units=GPa)
#
#
# Indices 1 2 3 4 5 6 
#
# 1 162.9308 67.9285 24.0215 0.0000 0.0000 0.0000
# 2 67.9285 162.4127 35.1782 0.0000 0.0000 0.0000
# 3 24.0215 35.1782 54.8992 0.0000 0.0000 0.0000
# 4 0.0000 0.0000 0.0000 8.9412 0.0000 0.0000
# 5 0.0000 0.0000 0.0000 0.0000 17.5615 0.0000
# 6 0.0000 0.0000 0.0000 0.0000 0.0000 -380.4483
#
#
#
# Elastic Compliance Matrix: (Units=1/GPa)
#
#
# Indices 1 2 3 4 5 6 
#
# 1 0.007537 -0.002831 -0.001484 0.000000 0.000000 0.000000
# 2 -0.002831 0.008213 -0.004024 0.000000 0.000000 0.000000
# 3 -0.001484 -0.004024 0.021443 0.000000 0.000000 0.000000
# 4 0.000000 0.000000 0.000000 0.111842 0.000000 0.000000
# 5 0.000000 0.000000 0.000000 0.000000 0.056943 0.000000
# 6 0.000000 0.000000 0.000000 0.000000 0.000000 -0.002628
#
#
# Mechanical properties :
#
#
# Convention : Reuss Voigt Hill
#
# Bulk Modulus (GPa) = 48.74430 70.49989 59.62210
# Shear Modulus (GPa) = 22.03971 -53.91481 -15.93755
#
# Velocity S-wave (km/s) = 3.37599 -5.28023 -2.87084
# Velocity P-wave (km/s) = 6.35637 0.84676 4.45457
#
# Compressibility (1/GPa) = 0.02051522
#
# Stress axis : x y z
#
# Youngs Moduli (GPa) = 132.68731 121.76326 46.63563
#
# Poissons Ratio (x) = 0.34468 0.06920
# Poissons Ratio (y) = 0.37560 0.18766
# Poissons Ratio (z) = 0.19688 0.48996
#
# Static dielectric constant tensor:
#      x y z
#    x 3.688390 0.000000 0.000000 
#    y 0.000000 4.938830 0.000000 
#    z 0.000000 0.000000 3.046380 
# 
# 
# High freq. dielectric constant tensor:
#      x y z
#    x 1.778250 0.000000 0.000000 
#    y 0.000000 1.790750 0.000000 
#    z 0.000000 0.000000 1.689210 
# 
# From -- ./inp_files/6445.got.cif
#   From: 2010.03.12/outbox.cif.g09.slc.cpg/sg53_4_cif.got.tgz:6445.got - 2010.04.16 14:36:59.
