data_PCOD8217003
_publ_section_title
;
Structure prediction by ZEFSAII (Michael W. Deem and Ramdas Pophale) SiO2 
 PCOD8217003
Probable space group: P N N A
;
_chemical_formula_sum "Si O2"
_cell_formula_units_Z 32
_cell_length_a 7.524629
_cell_length_b 12.160847
_cell_length_c 17.392167
_cell_angle_alpha 90.000000
_cell_angle_beta 90.000000
_cell_angle_gamma 90.000000
_cell_volume 1591.485233
_symmetry_space_group_name_H-M "P N N A"
_symmetry_group_IT_number 52
_symmetry_cell_setting 'orthorhombic'
loop_
_space_group_symop_operation_xyz
x,y,z
1/2-x,-y,z
x,1/2-y,1/2-z
1/2-x,1/2+y,1/2-z
-x,-y,-z
1/2+x,y,-z
-x,1/2+y,1/2+z
1/2+x,1/2-y,1/2+z
loop_
_atom_site_type_symbol
_atom_site_label
_atom_site_fract_x
_atom_site_fract_y
_atom_site_fract_z
Si Si1 0.872039 0.291547 0.448231
Si Si2 0.249137 0.877509 0.094269
Si Si3 0.901344 0.079463 0.555816
Si Si4 0.442051 0.743829 0.838334
O O1 0.834568 0.388899 0.508773
O O2 0.846283 0.182810 0.501941
O O3 0.724010 0.295631 0.382875
O O4 0.062621 0.312117 0.408971
O O5 0.123349 0.811060 0.151775
O O6 0.250000 0.000000 0.128650
O O7 0.020151 0.121211 0.627986
O O8 0.750000 0.000000 0.591050
O O9 0.000000 0.000000 0.500000
O O10 0.387159 0.750000 0.750000
#
# Coordination Sequence:
#
# PCOD8217003 Si02
#       4
#     8   8   8   8
#     4  11  21  39  64  94 121 167 217 269 315 395
#     4  11  22  39  67  91 122 168 217 260 321 400
#     4  11  19  38  67  90 118 168 226 260 311 395
#     4  11  25  41  59  96 136 161 214 281 327 376
#
# _framework density 20.107005000000001
#
# number of rings (size 3 to 8) (size 9 to 14) (size 15 to 20)
#    0.000    1.000    7.500    2.250    0.000    2.000 
#    0.000    5.000    0.000    0.000    0.000    0.000 
#    0.000    0.000    0.000    0.000    0.000    0.000 
#
# Total GULP energy -396454.386047 kJ/mol
# GULP energy per Si atom -12389.199564 kJ/mol
# Density = 2.006124 g / cm^3
# Si number density = 20.107005 Si / 1000 Ang^3
#
#
#
# Elastic Constant Matrix: (Units=GPa)
#
#
# Indices 1 2 3 4 5 6 
#
# 1 95.9311 9.6498 4.5086 0.0000 0.0000 0.0000
# 2 9.6498 85.5321 10.9193 0.0000 0.0000 0.0000
# 3 4.5086 10.9193 90.7497 0.0000 0.0000 0.0000
# 4 0.0000 0.0000 0.0000 18.9898 0.0000 0.0000
# 5 0.0000 0.0000 0.0000 0.0000 29.1975 0.0000
# 6 0.0000 0.0000 0.0000 0.0000 0.0000 29.8656
#
#
#
# Elastic Compliance Matrix: (Units=1/GPa)
#
#
# Indices 1 2 3 4 5 6 
#
# 1 0.010557 -0.001142 -0.000387 0.000000 0.000000 0.000000
# 2 -0.001142 0.011997 -0.001387 0.000000 0.000000 0.000000
# 3 -0.000387 -0.001387 0.011205 0.000000 0.000000 0.000000
# 4 0.000000 0.000000 0.000000 0.052660 0.000000 0.000000
# 5 0.000000 0.000000 0.000000 0.000000 0.034249 0.000000
# 6 0.000000 0.000000 0.000000 0.000000 0.000000 0.033483
#
#
# Mechanical properties :
#
#
# Convention : Reuss Voigt Hill
#
# Bulk Modulus (GPa) = 35.80544 35.81871 35.81208
# Shear Modulus (GPa) = 29.53451 32.08626 30.81039
#
# Velocity S-wave (km/s) = 3.83674 3.99905 3.91873
# Velocity P-wave (km/s) = 6.12156 6.25907 6.19070
#
# Compressibility (1/GPa) = 0.02792872
#
# Stress axis : x y z
#
# Youngs Moduli (GPa) = 94.72224 83.35160 89.24247
#
# Poissons Ratio (x) = 0.09516 0.03455
# Poissons Ratio (y) = 0.10814 0.12377
# Poissons Ratio (z) = 0.03667 0.11560
#
# Static dielectric constant tensor:
#      x y z
#    x 5.327220 0.000000 0.000000 
#    y 0.000000 7.051720 0.000000 
#    z 0.000000 0.000000 3.318370 
# 
# 
# High freq. dielectric constant tensor:
#      x y z
#    x 1.799700 0.000000 0.000000 
#    y 0.000000 1.788530 0.000000 
#    z 0.000000 0.000000 1.751310 
# 
# From -- ./inp_files/24083.got.cif
#   From: 2010.06.25/outbox.cif.g09.slc.cpg/sg52_13_cif.got.tgz:24083.got - 2010.06.26 19:32:48.
