data_PCOD8217314
_publ_section_title
;
Structure prediction by ZEFSAII (Michael W. Deem and Ramdas Pophale) SiO2 
 PCOD8217314
Probable space group: P N N A
;
_chemical_formula_sum "Si O2"
_cell_formula_units_Z 36
_cell_length_a 11.503115
_cell_length_b 6.635337
_cell_length_c 21.016591
_cell_angle_alpha 90.000000
_cell_angle_beta 90.000000
_cell_angle_gamma 90.000000
_cell_volume 1604.134278
_symmetry_space_group_name_H-M "P N N A"
_symmetry_group_IT_number 52
_symmetry_cell_setting 'orthorhombic'
loop_
_space_group_symop_operation_xyz
x,y,z
1/2-x,-y,z
x,1/2-y,1/2-z
1/2-x,1/2+y,1/2-z
-x,-y,-z
1/2+x,y,-z
-x,1/2+y,1/2+z
1/2+x,1/2-y,1/2+z
loop_
_atom_site_type_symbol
_atom_site_label
_atom_site_fract_x
_atom_site_fract_y
_atom_site_fract_z
Si Si1 0.918687 0.980643 0.097122
Si Si2 0.750000 0.500000 0.895557
Si Si3 0.539202 0.656401 0.817827
Si Si4 0.154182 0.661243 0.817910
Si Si5 0.350127 0.641186 0.464356
O O1 0.954759 0.811552 0.147004
O O2 0.844283 0.155204 0.131707
O O3 0.846680 0.873308 0.040954
O O4 0.028178 0.083788 0.064978
O O5 0.662446 0.629026 0.852350
O O6 0.673736 0.367433 0.943139
O O7 0.569202 0.750000 0.750000
O O8 0.472980 0.442175 0.812638
O O9 0.250000 0.500000 0.840215
O O10 0.191350 0.750000 0.750000
O O11 0.250000 0.500000 0.435170
#
# Coordination Sequence:
#
# PCOD8217314 Si02
#       5
#     8   4   8   8   8
#     4  11  26  47  70 105 146 192 242 304 363 443
#     4  12  26  46  76 114 148 194 248 306 370 446
#     4  12  26  46  76 110 149 192 243 306 377 439
#     4  12  27  46  73 106 146 191 247 303 374 448
#     4  11  25  46  72 103 147 190 244 303 362 435
#
# _framework density 22.442012999999999
#
# number of rings (size 3 to 8) (size 9 to 14) (size 15 to 20)
#    0.000    0.444    6.667    0.667    3.111    5.333 
#    0.000    0.000    0.000    0.000    0.000    0.000 
#    0.000    0.000    0.000    0.000    0.000    0.000 
#
# Total GULP energy -446604.359365 kJ/mol
# GULP energy per Si atom -12405.676649 kJ/mol
# Density = 2.239093 g / cm^3
# Si number density = 22.442013 Si / 1000 Ang^3
#
#
#
# Elastic Constant Matrix: (Units=GPa)
#
#
# Indices 1 2 3 4 5 6 
#
# 1 74.3028 24.9755 34.7145 0.0000 0.0000 0.0000
# 2 24.9755 115.0410 71.3244 0.0000 0.0000 0.0000
# 3 34.7145 71.3244 156.0500 0.0000 0.0000 0.0000
# 4 0.0000 0.0000 0.0000 56.7374 0.0000 0.0000
# 5 0.0000 0.0000 0.0000 0.0000 32.6348 0.0000
# 6 0.0000 0.0000 0.0000 0.0000 0.0000 53.9294
#
#
#
# Elastic Compliance Matrix: (Units=1/GPa)
#
#
# Indices 1 2 3 4 5 6 
#
# 1 0.015250 -0.001685 -0.002622 0.000000 0.000000 0.000000
# 2 -0.001685 0.012316 -0.005254 0.000000 0.000000 0.000000
# 3 -0.002622 -0.005254 0.009393 0.000000 0.000000 0.000000
# 4 0.000000 0.000000 0.000000 0.017625 0.000000 0.000000
# 5 0.000000 0.000000 0.000000 0.000000 0.030642 0.000000
# 6 0.000000 0.000000 0.000000 0.000000 0.000000 0.018543
#
#
# Mechanical properties :
#
#
# Convention : Reuss Voigt Hill
#
# Bulk Modulus (GPa) = 56.06695 67.49142 61.77918
# Shear Modulus (GPa) = 38.80855 42.95228 40.88042
#
# Velocity S-wave (km/s) = 4.16297 4.37959 4.27265
# Velocity P-wave (km/s) = 6.93862 7.46414 7.20617
#
# Compressibility (1/GPa) = 0.01783582
#
# Stress axis : x y z
#
# Youngs Moduli (GPa) = 65.57385 81.19523 106.46096
#
# Poissons Ratio (x) = 0.13681 0.27918
# Poissons Ratio (y) = 0.11049 0.55938
# Poissons Ratio (z) = 0.17196 0.42663
#
# Static dielectric constant tensor:
#      x y z
#    x 4.158880 0.000000 0.000000 
#    y 0.000000 4.001960 0.000000 
#    z 0.000000 0.000000 4.158110 
# 
# 
# High freq. dielectric constant tensor:
#      x y z
#    x 1.897670 0.000000 0.000000 
#    y 0.000000 1.891890 0.000000 
#    z 0.000000 0.000000 1.892560 
# 
# From -- ./inp_files/39946.got.cif
#   From: 2010.06.25/outbox.cif.g09.slc.cpg/sg52_20_cif.got.tgz:39946.got - 2010.06.26 19:32:48.
