data_PCOD8217294
_publ_section_title
;
Structure prediction by ZEFSAII (Michael W. Deem and Ramdas Pophale) SiO2 
 PCOD8217294
Probable space group: P N N A
;
_chemical_formula_sum "Si O2"
_cell_formula_units_Z 48
_cell_length_a 27.678076
_cell_length_b 8.482689
_cell_length_c 9.316225
_cell_angle_alpha 90.000000
_cell_angle_beta 90.000000
_cell_angle_gamma 90.000000
_cell_volume 2187.305329
_symmetry_space_group_name_H-M "P N N A"
_symmetry_group_IT_number 52
_symmetry_cell_setting 'orthorhombic'
loop_
_space_group_symop_operation_xyz
x,y,z
1/2-x,-y,z
x,1/2-y,1/2-z
1/2-x,1/2+y,1/2-z
-x,-y,-z
1/2+x,y,-z
-x,1/2+y,1/2+z
1/2+x,1/2-y,1/2+z
loop_
_atom_site_type_symbol
_atom_site_label
_atom_site_fract_x
_atom_site_fract_y
_atom_site_fract_z
Si Si1 0.118268 0.203137 0.892729
Si Si2 0.948462 0.184779 0.589506
Si Si3 0.541822 0.184458 0.594715
Si Si4 0.363185 0.336609 0.596877
Si Si5 0.772950 0.333727 0.608609
Si Si6 0.720512 0.160653 0.387998
O O1 0.086889 0.250000 0.750000
O O2 0.162123 0.332778 0.882121
O O3 0.132434 0.021999 0.879873
O O4 0.088640 0.223241 0.038371
O O5 0.948033 0.250000 0.750000
O O6 0.905806 0.261380 0.496982
O O7 0.998154 0.227020 0.510763
O O8 0.943633 0.997420 0.598037
O O9 0.527807 0.250000 0.750000
O O10 0.360156 0.250000 0.750000
O O11 0.313669 0.322145 0.511484
O O12 0.750000 0.500000 0.650059
O O13 0.793424 0.250000 0.750000
O O14 0.728217 0.241739 0.541260
O O15 0.742117 0.250000 0.250000
O O16 0.750000 0.000000 0.387805
#
# Coordination Sequence:
#
# PCOD8217294 Si02
#       6
#     8   8   8   8   8   8
#     4  11  25  44  68 106 140 184 235 295 351 421
#     4  11  25  46  73 107 142 190 235 286 358 421
#     4  11  25  45  72 105 147 186 234 293 350 422
#     4  12  26  46  74 104 141 186 239 288 357 423
#     4  12  26  47  66  99 140 186 232 293 351 419
#     4  11  25  43  71 101 137 185 235 292 349 415
#
# _framework density 21.944807999999998
#
# number of rings (size 3 to 8) (size 9 to 14) (size 15 to 20)
#    0.000    0.667    1.667    5.000    9.333    6.000 
#    3.000    0.000    0.000    0.000    0.000    0.000 
#    0.000    0.000    0.000    0.000    0.000    0.000 
#
# Total GULP energy -594865.788196 kJ/mol
# GULP energy per Si atom -12393.037254 kJ/mol
# Density = 2.189486 g / cm^3
# Si number density = 21.944808 Si / 1000 Ang^3
#
#
#
# Elastic Constant Matrix: (Units=GPa)
#
#
# Indices 1 2 3 4 5 6 
#
# 1 105.7099 60.3375 62.6825 0.0000 0.0000 0.0000
# 2 60.3375 119.9894 62.1820 0.0000 0.0000 0.0000
# 3 62.6825 62.1820 187.5530 0.0000 0.0000 0.0000
# 4 0.0000 0.0000 0.0000 40.8296 0.0000 0.0000
# 5 0.0000 0.0000 0.0000 0.0000 35.6556 0.0000
# 6 0.0000 0.0000 0.0000 0.0000 0.0000 32.9001
#
#
#
# Elastic Compliance Matrix: (Units=1/GPa)
#
#
# Indices 1 2 3 4 5 6 
#
# 1 0.014489 -0.005768 -0.002930 0.000000 0.000000 0.000000
# 2 -0.005768 0.012359 -0.002170 0.000000 0.000000 0.000000
# 3 -0.002930 -0.002170 0.007031 0.000000 0.000000 0.000000
# 4 0.000000 0.000000 0.000000 0.024492 0.000000 0.000000
# 5 0.000000 0.000000 0.000000 0.000000 0.028046 0.000000
# 6 0.000000 0.000000 0.000000 0.000000 0.000000 0.030395
#
#
# Mechanical properties :
#
#
# Convention : Reuss Voigt Hill
#
# Bulk Modulus (GPa) = 82.35003 87.07292 84.71148
# Shear Modulus (GPa) = 35.06424 37.08043 36.07233
#
# Velocity S-wave (km/s) = 4.00163 4.11507 4.05875
# Velocity P-wave (km/s) = 7.67842 7.89574 7.78784
#
# Compressibility (1/GPa) = 0.01214329
#
# Stress axis : x y z
#
# Youngs Moduli (GPa) = 69.01561 80.91387 142.23516
#
# Poissons Ratio (x) = 0.46667 0.41680
# Poissons Ratio (y) = 0.39805 0.30864
# Poissons Ratio (z) = 0.20224 0.17558
#
# Static dielectric constant tensor:
#      x y z
#    x 3.992780 0.000000 0.000000 
#    y 0.000000 4.154210 0.000000 
#    z 0.000000 0.000000 4.278670 
# 
# 
# High freq. dielectric constant tensor:
#      x y z
#    x 1.864920 0.000000 0.000000 
#    y 0.000000 1.874250 0.000000 
#    z 0.000000 0.000000 1.886890 
# 
# From -- ./inp_files/15553.got.cif
#   From: 2010.06.25/outbox.cif.g09.slc.cpg/sg52_8_cif.got.tgz:15553.got - 2010.06.26 19:32:48.
