data_PCOD8217826
_publ_section_title
;
Structure prediction by ZEFSAII (Michael W. Deem and Ramdas Pophale) SiO2 
 PCOD8217826
Probable space group: P M N A
;
_chemical_formula_sum "Si O2"
_cell_formula_units_Z 64
_cell_length_a 9.110167
_cell_length_b 14.406582
_cell_length_c 30.576910
_cell_angle_alpha 90.000000
_cell_angle_beta 90.000000
_cell_angle_gamma 90.000000
_cell_volume 4013.108380
_symmetry_space_group_name_H-M "P M N A"
_symmetry_group_IT_number 53
_symmetry_cell_setting 'orthorhombic'
loop_
_space_group_symop_operation_xyz
x,y,z
1/2-x,-y,1/2+z
x,-y,-z
1/2-x,y,1/2-z
-x,-y,-z
1/2+x,y,1/2-z
-x,y,z
1/2+x,-y,1/2+z
loop_
_atom_site_type_symbol
_atom_site_label
_atom_site_fract_x
_atom_site_fract_y
_atom_site_fract_z
Si Si1 0.825257 0.926527 0.115611
Si Si2 0.173094 0.144437 0.793731
Si Si3 0.164764 0.436751 0.882953
Si Si4 0.827718 0.642682 0.206491
Si Si5 0.173572 0.450310 0.455048
Si Si6 0.174108 0.267666 0.026461
Si Si7 0.326170 0.940697 0.541479
Si Si8 0.835949 0.750867 0.068572
O O1 0.771846 0.921451 0.166050
O O2 0.755183 0.838874 0.089883
O O3 0.000000 0.916805 0.116409
O O4 0.774374 0.017082 0.088375
O O5 0.250000 0.106711 0.750000
O O6 0.220620 0.250972 0.803406
O O7 0.000000 0.136886 0.787025
O O8 0.216515 0.428788 0.832487
O O9 0.278882 0.492297 0.912397
O O10 0.161474 0.330445 0.896986
O O11 0.000000 0.479260 0.887360
O O12 0.750000 0.605065 0.250000
O O13 0.000000 0.639351 0.214090
O O14 0.229660 0.500000 0.500000
O O15 0.244301 0.349149 0.447539
O O16 0.000000 0.441454 0.455571
O O17 0.227047 0.165870 0.042007
O O18 0.000000 0.282149 0.031989
O O19 0.235521 0.280012 0.977051
O O20 0.500000 0.943573 0.537826
O O21 0.262771 0.000000 0.500000
O O22 0.000000 0.783240 0.055592
#
# Coordination Sequence:
#
# PCOD8217826 Si02
#       8
#     8   8   8   8   8   8   8   8
#     4   9  14  23  40  66  96 121 145 181 226 263
#     4   9  16  26  41  62  91 123 150 179 217 261
#     4  10  18  30  48  68  89 121 161 190 219 267
#     4   9  17  28  44  67  93 121 151 184 223 270
#     4  11  23  34  44  63  92 124 156 191 233 276
#     4  10  18  29  47  68  90 119 154 191 226 265
#     4   9  15  23  41  72  97 112 143 189 228 263
#     4   9  14  22  41  66  92 118 147 183 221 260
#
# _framework density 15.947737999999999
#
# number of rings (size 3 to 8) (size 9 to 14) (size 15 to 20)
#    0.000    2.500    3.750    0.375    0.000    1.000 
#    0.000    0.000    0.000    1.875    0.000    0.875 
#    0.000    2.000    0.000    0.000    0.000    0.000 
#
# Total GULP energy -792995.317706 kJ/mol
# GULP energy per Si atom -12390.551839 kJ/mol
# Density = 1.591144 g / cm^3
# Si number density = 15.947738 Si / 1000 Ang^3
#
#
#
# Elastic Constant Matrix: (Units=GPa)
#
#
# Indices 1 2 3 4 5 6 
#
# 1 28.8184 24.6198 29.0246 0.0000 0.0000 0.0000
# 2 24.6198 85.8757 45.5637 0.0000 0.0000 0.0000
# 3 29.0246 45.5637 125.9941 0.0000 0.0000 0.0000
# 4 0.0000 0.0000 0.0000 23.8135 0.0000 0.0000
# 5 0.0000 0.0000 0.0000 0.0000 21.8296 0.0000
# 6 0.0000 0.0000 0.0000 0.0000 0.0000 9.7340
#
#
#
# Elastic Compliance Matrix: (Units=1/GPa)
#
#
# Indices 1 2 3 4 5 6 
#
# 1 0.051927 -0.010568 -0.008140 0.000000 0.000000 0.000000
# 2 -0.010568 0.016560 -0.003554 0.000000 0.000000 0.000000
# 3 -0.008140 -0.003554 0.011098 0.000000 0.000000 0.000000
# 4 0.000000 0.000000 0.000000 0.041993 0.000000 0.000000
# 5 0.000000 0.000000 0.000000 0.000000 0.045809 0.000000
# 6 0.000000 0.000000 0.000000 0.000000 0.000000 0.102732
#
#
# Mechanical properties :
#
#
# Convention : Reuss Voigt Hill
#
# Bulk Modulus (GPa) = 28.52288 48.78937 38.65612
# Shear Modulus (GPa) = 15.32186 20.50744 17.91465
#
# Velocity S-wave (km/s) = 3.10297 3.58986 3.35525
# Velocity P-wave (km/s) = 5.54634 6.91682 6.26915
#
# Compressibility (1/GPa) = 0.03505958
#
# Stress axis : x y z
#
# Youngs Moduli (GPa) = 19.25781 60.38552 90.11037
#
# Poissons Ratio (x) = 0.63815 0.73354
# Poissons Ratio (y) = 0.20351 0.32028
# Poissons Ratio (z) = 0.15677 0.21463
#
# Static dielectric constant tensor:
#      x y z
#    x 2.637850 0.000000 0.000000 
#    y 0.000000 2.913420 0.000000 
#    z 0.000000 0.000000 3.171340 
# 
# 
# High freq. dielectric constant tensor:
#      x y z
#    x 1.570620 0.000000 0.000000 
#    y 0.000000 1.588430 0.000000 
#    z 0.000000 0.000000 1.613250 
# 
# From -- ./inp_files/38434.got.cif
#   From: 2010.03.12/outbox.cif.g09.slc.cpg/sg53_20_cif.got.tgz:38434.got - 2010.04.16 14:36:59.
