data_PCOD8217765
_publ_section_title
;
Structure prediction by ZEFSAII (Michael W. Deem and Ramdas Pophale) SiO2 
 PCOD8217765
Probable space group: P M N A
;
_chemical_formula_sum "Si O2"
_cell_formula_units_Z 64
_cell_length_a 8.881498
_cell_length_b 20.488369
_cell_length_c 20.457075
_cell_angle_alpha 90.000000
_cell_angle_beta 90.000000
_cell_angle_gamma 90.000000
_cell_volume 3722.520919
_symmetry_space_group_name_H-M "P M N A"
_symmetry_group_IT_number 53
_symmetry_cell_setting 'orthorhombic'
loop_
_space_group_symop_operation_xyz
x,y,z
1/2-x,-y,1/2+z
x,-y,-z
1/2-x,y,1/2-z
-x,-y,-z
1/2+x,y,1/2-z
-x,y,z
1/2+x,-y,1/2+z
loop_
_atom_site_type_symbol
_atom_site_label
_atom_site_fract_x
_atom_site_fract_y
_atom_site_fract_z
Si Si1 0.676247 0.486246 0.184297
Si Si2 0.171132 0.780883 0.846513
Si Si3 0.824682 0.677647 0.994411
Si Si4 0.177870 0.657268 0.644746
Si Si5 0.677438 0.064524 0.460066
Si Si6 0.677333 0.194791 0.018099
Si Si7 0.668682 0.077151 0.312978
Si Si8 0.826126 0.455903 0.939750
O O1 0.750000 0.514311 0.250000
O O2 0.500000 0.494192 0.189920
O O3 0.724595 0.410951 0.176601
O O4 0.730571 0.528695 0.123751
O O5 0.238800 0.715121 0.813592
O O6 0.282137 0.793078 0.906852
O O7 0.175737 0.844563 0.801148
O O8 0.000000 0.768596 0.870302
O O9 0.800684 0.620608 0.046840
O O10 0.000000 0.687243 0.978615
O O11 0.738051 0.656930 0.929066
O O12 0.754965 0.745811 0.022611
O O13 0.000000 0.668654 0.645136
O O14 0.500000 0.079091 0.457588
O O15 0.756298 0.123501 0.499701
O O16 0.737382 0.058651 0.384566
O O17 0.717871 0.000000 0.500000
O O18 0.500000 0.195203 0.005727
O O19 0.750000 0.044624 0.250000
O O20 0.500000 0.050384 0.310780
O O21 0.000000 0.472646 0.926306
O O22 0.767512 0.500000 0.000000
#
# Coordination Sequence:
#
# PCOD8217765 Si02
#       8
#     8   8   8   8   8   8   8   8
#     4  11  24  37  50  68  97 132 167 211 260 314
#     4   9  17  29  44  62  89 128 168 200 233 278
#     4  10  18  30  51  74  98 129 163 204 250 299
#     4  10  19  30  45  68  94 125 164 206 248 287
#     4   9  18  34  53  72  98 133 170 203 240 291
#     4  10  18  28  45  72 103 128 158 201 245 290
#     4   9  18  30  45  67  93 125 162 198 236 277
#     4  10  20  35  55  77  98 126 167 213 259 306
#
# _framework density 17.192651000000001
#
# number of rings (size 3 to 8) (size 9 to 14) (size 15 to 20)
#    0.000    2.250    1.250    4.875    0.000    6.000 
#    0.000    2.500    0.000    0.000    0.000    0.875 
#    0.000    2.000    0.000    0.000    0.000    0.000 
#
# Total GULP energy -793128.841936 kJ/mol
# GULP energy per Si atom -12392.638155 kJ/mol
# Density = 1.715352 g / cm^3
# Si number density = 17.192651 Si / 1000 Ang^3
#
#
#
# Elastic Constant Matrix: (Units=GPa)
#
#
# Indices 1 2 3 4 5 6 
#
# 1 55.6665 42.7750 26.9233 0.0000 0.0000 0.0000
# 2 42.7750 99.8857 42.9050 0.0000 0.0000 0.0000
# 3 26.9233 42.9050 79.7334 0.0000 0.0000 0.0000
# 4 0.0000 0.0000 0.0000 11.7104 0.0000 0.0000
# 5 0.0000 0.0000 0.0000 0.0000 20.6639 0.0000
# 6 0.0000 0.0000 0.0000 0.0000 0.0000 23.5797
#
#
#
# Elastic Compliance Matrix: (Units=1/GPa)
#
#
# Indices 1 2 3 4 5 6 
#
# 1 0.027658 -0.010187 -0.003857 0.000000 0.000000 0.000000
# 2 -0.010187 0.016773 -0.005586 0.000000 0.000000 0.000000
# 3 -0.003857 -0.005586 0.016850 0.000000 0.000000 0.000000
# 4 0.000000 0.000000 0.000000 0.085394 0.000000 0.000000
# 5 0.000000 0.000000 0.000000 0.000000 0.048394 0.000000
# 6 0.000000 0.000000 0.000000 0.000000 0.000000 0.042409
#
#
# Mechanical properties :
#
#
# Convention : Reuss Voigt Hill
#
# Bulk Modulus (GPa) = 45.41271 51.16578 48.28924
# Shear Modulus (GPa) = 17.60072 19.36963 18.48517
#
# Velocity S-wave (km/s) = 3.20306 3.36016 3.28255
# Velocity P-wave (km/s) = 6.33647 6.69919 6.52035
#
# Compressibility (1/GPa) = 0.02202027
#
# Stress axis : x y z
#
# Youngs Moduli (GPa) = 36.15618 59.61796 59.34680
#
# Poissons Ratio (x) = 0.60735 0.22892
# Poissons Ratio (y) = 0.36833 0.33151
# Poissons Ratio (z) = 0.13946 0.33302
#
# Static dielectric constant tensor:
#      x y z
#    x 3.218180 0.000000 0.000000 
#    y 0.000000 3.500170 0.000000 
#    z 0.000000 0.000000 2.880750 
# 
# 
# High freq. dielectric constant tensor:
#      x y z
#    x 1.670870 0.000000 0.000000 
#    y 0.000000 1.653690 0.000000 
#    z 0.000000 0.000000 1.625810 
# 
# From -- ./inp_files/31384.got.cif
#   From: 2010.03.12/outbox.cif.g09.slc.cpg/sg53_16_cif.got.tgz:31384.got - 2010.04.16 14:36:59.
