data_PCOD8217083
_publ_section_title
;
Structure prediction by ZEFSAII (Michael W. Deem and Ramdas Pophale) SiO2 
 PCOD8217083
Probable space group: P N N A
;
_chemical_formula_sum "Si O2"
_cell_formula_units_Z 48
_cell_length_a 14.168923
_cell_length_b 9.775832
_cell_length_c 16.872638
_cell_angle_alpha 90.000000
_cell_angle_beta 90.000000
_cell_angle_gamma 90.000000
_cell_volume 2337.079891
_symmetry_space_group_name_H-M "P N N A"
_symmetry_group_IT_number 52
_symmetry_cell_setting 'orthorhombic'
loop_
_space_group_symop_operation_xyz
x,y,z
1/2-x,-y,z
x,1/2-y,1/2-z
1/2-x,1/2+y,1/2-z
-x,-y,-z
1/2+x,y,-z
-x,1/2+y,1/2+z
1/2+x,1/2-y,1/2+z
loop_
_atom_site_type_symbol
_atom_site_label
_atom_site_fract_x
_atom_site_fract_y
_atom_site_fract_z
Si Si1 0.750000 0.000000 0.113017
Si Si2 0.250000 0.500000 0.206270
Si Si3 0.006330 0.839827 0.515957
Si Si4 0.174811 0.169067 0.021580
Si Si5 0.918900 0.324329 0.332834
Si Si6 0.607006 0.015148 0.830545
Si Si7 0.350493 0.235497 0.389234
O O1 0.817792 0.100426 0.162428
O O2 0.679053 0.093088 0.061997
O O3 0.327186 0.580859 0.261123
O O4 0.311319 0.398347 0.153473
O O5 0.060538 0.784453 0.595537
O O6 0.053032 0.783321 0.436639
O O7 0.898869 0.791805 0.519800
O O8 0.000000 0.000000 0.500000
O O9 0.145402 0.055041 0.084116
O O10 0.275921 0.227469 0.043253
O O11 0.917780 0.250000 0.250000
O O12 0.999068 0.440489 0.324948
O O13 0.624665 0.851708 0.824334
#
# Coordination Sequence:
#
# PCOD8217083 Si02
#       7
#     4   4   8   8   8   8   8
#     4  12  21  50  69  94 126 178 238 278 315 410
#     4  12  25  36  65 104 148 168 214 282 351 410
#     4  11  25  44  67 102 138 175 226 283 344 406
#     4  11  21  41  73  96 126 177 229 277 325 405
#     4  11  27  46  69  97 135 181 227 285 344 400
#     4  11  23  41  67 100 135 172 224 277 344 410
#     4  12  22  41  64 104 131 183 222 273 345 404
#
# _framework density 20.538450000000001
#
# number of rings (size 3 to 8) (size 9 to 14) (size 15 to 20)
#    0.000    0.667    5.000    2.500    7.000    2.667 
#    3.000    1.667    0.000    0.000    0.000    0.000 
#    0.000    0.000    0.000    0.000    0.000    0.000 
#
# Total GULP energy -594971.144163 kJ/mol
# GULP energy per Si atom -12395.232170 kJ/mol
# Density = 2.049170 g / cm^3
# Si number density = 20.538450 Si / 1000 Ang^3
#
#
#
# Elastic Constant Matrix: (Units=GPa)
#
#
# Indices 1 2 3 4 5 6 
#
# 1 97.2107 49.5638 33.3181 0.0000 0.0000 0.0000
# 2 49.5638 119.7597 41.5068 0.0000 0.0000 0.0000
# 3 33.3181 41.5068 91.8174 0.0000 0.0000 0.0000
# 4 0.0000 0.0000 0.0000 7.2556 0.0000 0.0000
# 5 0.0000 0.0000 0.0000 0.0000 17.8226 0.0000
# 6 0.0000 0.0000 0.0000 0.0000 0.0000 26.4776
#
#
#
# Elastic Compliance Matrix: (Units=1/GPa)
#
#
# Indices 1 2 3 4 5 6 
#
# 1 0.013636 -0.004658 -0.002842 0.000000 0.000000 0.000000
# 2 -0.004658 0.011493 -0.003505 0.000000 0.000000 0.000000
# 3 -0.002842 -0.003505 0.013507 0.000000 0.000000 0.000000
# 4 0.000000 0.000000 0.000000 0.137824 0.000000 0.000000
# 5 0.000000 0.000000 0.000000 0.000000 0.056109 0.000000
# 6 0.000000 0.000000 0.000000 0.000000 0.000000 0.037768
#
#
# Mechanical properties :
#
#
# Convention : Reuss Voigt Hill
#
# Bulk Modulus (GPa) = 60.15190 61.95167 61.05179
# Shear Modulus (GPa) = 16.78473 22.60444 19.69458
#
# Velocity S-wave (km/s) = 2.86183 3.32111 3.09999
# Velocity P-wave (km/s) = 6.34596 6.70341 6.52713
#
# Compressibility (1/GPa) = 0.01662458
#
# Stress axis : x y z
#
# Youngs Moduli (GPa) = 73.33395 87.01139 74.03532
#
# Poissons Ratio (x) = 0.40533 0.21044
# Poissons Ratio (y) = 0.34162 0.25949
# Poissons Ratio (z) = 0.20844 0.30497
#
# Static dielectric constant tensor:
#      x y z
#    x 0.441640 0.000000 0.000000 
#    y 0.000000 4.303740 0.000000 
#    z 0.000000 0.000000 3.800730 
# 
# 
# High freq. dielectric constant tensor:
#      x y z
#    x 1.812490 0.000000 0.000000 
#    y 0.000000 1.804370 0.000000 
#    z 0.000000 0.000000 1.800830 
# 
# From -- ./inp_files/33107.got.cif
#   From: 2010.06.25/outbox.cif.g09.slc.cpg/sg52_17_cif.got.tgz:33107.got - 2010.06.26 19:32:48.
