data_PCOD8217143
_publ_section_title
;
Structure prediction by ZEFSAII (Michael W. Deem and Ramdas Pophale) SiO2 
 PCOD8217143
Probable space group: P N N A
;
_chemical_formula_sum "Si O2"
_cell_formula_units_Z 56
_cell_length_a 14.826979
_cell_length_b 9.025892
_cell_length_c 19.477844
_cell_angle_alpha 90.000000
_cell_angle_beta 90.000000
_cell_angle_gamma 90.000000
_cell_volume 2606.655803
_symmetry_space_group_name_H-M "P N N A"
_symmetry_group_IT_number 52
_symmetry_cell_setting 'orthorhombic'
loop_
_space_group_symop_operation_xyz
x,y,z
1/2-x,-y,z
x,1/2-y,1/2-z
1/2-x,1/2+y,1/2-z
-x,-y,-z
1/2+x,y,-z
-x,1/2+y,1/2+z
1/2+x,1/2-y,1/2+z
loop_
_atom_site_type_symbol
_atom_site_label
_atom_site_fract_x
_atom_site_fract_y
_atom_site_fract_z
Si Si1 0.039222 0.001653 0.106586
Si Si2 0.416156 0.760218 0.831023
Si Si3 0.635004 0.762734 0.535045
Si Si4 0.079415 0.959014 0.355900
Si Si5 0.336326 0.586567 0.275724
Si Si6 0.706237 0.161346 0.446267
Si Si7 0.965322 0.802681 0.541666
O O1 0.105422 0.893359 0.065838
O O2 0.953986 0.919524 0.142506
O O3 0.092544 0.094956 0.163523
O O4 0.010818 0.128445 0.052785
O O5 0.394492 0.750000 0.750000
O O6 0.491337 0.641325 0.849501
O O7 0.322852 0.724981 0.871708
O O8 0.656132 0.874688 0.598525
O O9 0.718754 0.736815 0.483946
O O10 0.554642 0.856144 0.497931
O O11 0.123047 0.983145 0.282904
O O12 0.047372 0.115184 0.386482
O O13 0.250000 0.500000 0.304395
O O14 0.311251 0.750000 0.250000
O O15 0.619565 0.166111 0.494119
O O16 0.750000 0.000000 0.437627
#
# Coordination Sequence:
#
# PCOD8217143 Si02
#       7
#     8   8   8   8   8   8   8
#     4  11  25  44  67 101 139 182 223 292 360 410
#     4  11  24  47  74  97 136 188 237 284 354 422
#     4  11  25  41  70  99 137 176 228 287 348 409
#     4  11  22  41  69  96 133 181 224 283 342 416
#     4  12  28  42  64 102 141 181 230 283 353 432
#     4  12  25  43  72 103 136 184 235 287 344 421
#     4  12  23  44  68 103 136 174 232 284 350 415
#
# _framework density 21.483466
#
# number of rings (size 3 to 8) (size 9 to 14) (size 15 to 20)
#    0.000    0.571    7.143    1.714    8.000    0.000 
#    0.000    1.429    0.000    0.000    0.000    0.000 
#    0.000    0.000    0.000    0.000    0.000    0.000 
#
# Total GULP energy -694347.371391 kJ/mol
# GULP energy per Si atom -12399.060203 kJ/mol
# Density = 2.143457 g / cm^3
# Si number density = 21.483466 Si / 1000 Ang^3
#
#
#
# Elastic Constant Matrix: (Units=GPa)
#
#
# Indices 1 2 3 4 5 6 
#
# 1 104.6135 12.1128 46.1228 0.0000 0.0000 0.0000
# 2 12.1128 89.5155 22.5275 0.0000 0.0000 0.0000
# 3 46.1228 22.5275 111.0861 0.0000 0.0000 0.0000
# 4 0.0000 0.0000 0.0000 35.0425 0.0000 0.0000
# 5 0.0000 0.0000 0.0000 0.0000 34.9138 0.0000
# 6 0.0000 0.0000 0.0000 0.0000 0.0000 17.3303
#
#
#
# Elastic Compliance Matrix: (Units=1/GPa)
#
#
# Indices 1 2 3 4 5 6 
#
# 1 0.011713 -0.000380 -0.004786 0.000000 0.000000 0.000000
# 2 -0.000380 0.011784 -0.002232 0.000000 0.000000 0.000000
# 3 -0.004786 -0.002232 0.011442 0.000000 0.000000 0.000000
# 4 0.000000 0.000000 0.000000 0.028537 0.000000 0.000000
# 5 0.000000 0.000000 0.000000 0.000000 0.028642 0.000000
# 6 0.000000 0.000000 0.000000 0.000000 0.000000 0.057702
#
#
# Mechanical properties :
#
#
# Convention : Reuss Voigt Hill
#
# Bulk Modulus (GPa) = 49.64622 51.86015 50.75318
# Shear Modulus (GPa) = 29.18316 32.42079 30.80197
#
# Velocity S-wave (km/s) = 3.68965 3.88893 3.79060
# Velocity P-wave (km/s) = 6.42733 6.66011 6.54475
#
# Compressibility (1/GPa) = 0.02014252
#
# Stress axis : x y z
#
# Youngs Moduli (GPa) = 85.37371 84.85795 87.39855
#
# Poissons Ratio (x) = 0.03229 0.41830
# Poissons Ratio (y) = 0.03248 0.19506
# Poissons Ratio (z) = 0.40861 0.18939
#
# Static dielectric constant tensor:
#      x y z
#    x 3.832020 0.000000 0.000000 
#    y 0.000000 3.786520 0.000000 
#    z 0.000000 0.000000 4.176490 
# 
# 
# High freq. dielectric constant tensor:
#      x y z
#    x 1.824980 0.000000 0.000000 
#    y 0.000000 1.853050 0.000000 
#    z 0.000000 0.000000 1.856200 
# 
# From -- ./inp_files/37331.got.cif
#   From: 2010.06.25/outbox.cif.g09.slc.cpg/sg52_19_cif.got.tgz:37331.got - 2010.06.26 19:32:48.
