data_PCOD8217070
_publ_section_title
;
Structure prediction by ZEFSAII (Michael W. Deem and Ramdas Pophale) SiO2 
 PCOD8217070
Probable space group: P N N A
;
_chemical_formula_sum "Si O2"
_cell_formula_units_Z 48
_cell_length_a 12.567990
_cell_length_b 15.593043
_cell_length_c 12.392152
_cell_angle_alpha 90.000000
_cell_angle_beta 90.000000
_cell_angle_gamma 90.000000
_cell_volume 2428.529788
_symmetry_space_group_name_H-M "P N N A"
_symmetry_group_IT_number 52
_symmetry_cell_setting 'orthorhombic'
loop_
_space_group_symop_operation_xyz
x,y,z
1/2-x,-y,z
x,1/2-y,1/2-z
1/2-x,1/2+y,1/2-z
-x,-y,-z
1/2+x,y,-z
-x,1/2+y,1/2+z
1/2+x,1/2-y,1/2+z
loop_
_atom_site_type_symbol
_atom_site_label
_atom_site_fract_x
_atom_site_fract_y
_atom_site_fract_z
Si Si1 0.974899 0.871473 0.532271
Si Si2 0.876692 0.504619 0.128915
Si Si3 0.960696 0.936626 0.146155
Si Si4 0.856577 0.952434 0.930524
Si Si5 0.077638 0.761553 0.123305
Si Si6 0.313580 0.735494 0.373347
O O1 0.891881 0.810875 0.592144
O O2 0.063336 0.911730 0.615619
O O3 0.028385 0.820437 0.434603
O O4 0.904705 0.946618 0.480954
O O5 0.750000 0.500000 0.137006
O O6 0.913998 0.558870 0.233547
O O7 0.005645 0.845312 0.105318
O O8 0.871107 0.963261 0.059274
O O9 0.053713 0.005125 0.142027
O O10 0.866979 0.854364 0.897442
O O11 0.750000 0.000000 0.894963
O O12 0.081877 0.750000 0.250000
O O13 0.196254 0.767909 0.071539
O O14 0.290492 0.750000 0.250000
#
# Coordination Sequence:
#
# PCOD8217070 Si02
#       6
#     8   8   8   8   8   8
#     4  11  23  42  65  89 125 163 205 263 310 375
#     4  11  24  43  64  93 125 162 212 257 321 379
#     4  11  22  39  63  89 127 161 206 256 311 371
#     4  11  22  38  61  91 124 167 207 255 311 371
#     4  11  21  39  64  90 120 162 205 255 311 372
#     4  11  23  39  61  91 124 159 209 252 310 368
#
# _framework density 19.765046000000002
#
# number of rings (size 3 to 8) (size 9 to 14) (size 15 to 20)
#    0.000    1.000    5.000    2.500    0.000    0.000 
#    0.000    0.833    3.667    0.000    0.000    0.000 
#    0.000    0.000    0.000    0.000    0.000    0.000 
#
# Total GULP energy -594968.847582 kJ/mol
# GULP energy per Si atom -12395.184325 kJ/mol
# Density = 1.972006 g / cm^3
# Si number density = 19.765046 Si / 1000 Ang^3
#
#
#
# Elastic Constant Matrix: (Units=GPa)
#
#
# Indices 1 2 3 4 5 6 
#
# 1 124.5277 55.0658 31.1570 0.0000 0.0000 0.0000
# 2 55.0658 105.4142 15.8144 0.0000 0.0000 0.0000
# 3 31.1570 15.8144 58.5442 0.0000 0.0000 0.0000
# 4 0.0000 0.0000 0.0000 14.6631 0.0000 0.0000
# 5 0.0000 0.0000 0.0000 0.0000 -115.9197 0.0000
# 6 0.0000 0.0000 0.0000 0.0000 0.0000 43.4475
#
#
#
# Elastic Compliance Matrix: (Units=1/GPa)
#
#
# Indices 1 2 3 4 5 6 
#
# 1 0.011570 -0.005336 -0.004716 0.000000 0.000000 0.000000
# 2 -0.005336 0.012348 -0.000496 0.000000 0.000000 0.000000
# 3 -0.004716 -0.000496 0.019725 0.000000 0.000000 0.000000
# 4 0.000000 0.000000 0.000000 0.068198 0.000000 0.000000
# 5 0.000000 0.000000 0.000000 0.000000 -0.008627 0.000000
# 6 0.000000 0.000000 0.000000 0.000000 0.000000 0.023016
#
#
# Mechanical properties :
#
#
# Convention : Reuss Voigt Hill
#
# Bulk Modulus (GPa) = 44.35151 54.72895 49.54023
# Shear Modulus (GPa) = 32.29076 0.86811 16.57943
#
# Velocity S-wave (km/s) = 4.04633 0.66345 2.89939
# Velocity P-wave (km/s) = 6.65721 5.32323 6.02724
#
# Compressibility (1/GPa) = 0.02254714
#
# Stress axis : x y z
#
# Youngs Moduli (GPa) = 86.43019 80.98252 50.69750
#
# Poissons Ratio (x) = 0.43215 0.23909
# Poissons Ratio (y) = 0.46123 0.02513
# Poissons Ratio (z) = 0.40761 0.04014
#
# Static dielectric constant tensor:
#      x y z
#    x 3.922940 0.000000 0.000000 
#    y 0.000000 3.660340 0.000000 
#    z 0.000000 0.000000 3.348430 
# 
# 
# High freq. dielectric constant tensor:
#      x y z
#    x 1.782650 0.000000 0.000000 
#    y 0.000000 1.779840 0.000000 
#    z 0.000000 0.000000 1.764500 
# 
# From -- ./inp_files/26071.got.cif
#   From: 2010.06.25/outbox.cif.g09.slc.cpg/sg52_14_cif.got.tgz:26071.got - 2010.06.26 19:32:48.
