data_PCOD8217771
_publ_section_title
;
Structure prediction by ZEFSAII (Michael W. Deem and Ramdas Pophale) SiO2 
 PCOD8217771
Probable space group: P M N A
;
_chemical_formula_sum "Si O2"
_cell_formula_units_Z 64
_cell_length_a 9.029274
_cell_length_b 16.963268
_cell_length_c 23.785209
_cell_angle_alpha 90.000000
_cell_angle_beta 90.000000
_cell_angle_gamma 90.000000
_cell_volume 3643.085196
_symmetry_space_group_name_H-M "P M N A"
_symmetry_group_IT_number 53
_symmetry_cell_setting 'orthorhombic'
loop_
_space_group_symop_operation_xyz
x,y,z
1/2-x,-y,1/2+z
x,-y,-z
1/2-x,y,1/2-z
-x,-y,-z
1/2+x,y,1/2-z
-x,y,z
1/2+x,-y,1/2+z
loop_
_atom_site_type_symbol
_atom_site_label
_atom_site_fract_x
_atom_site_fract_y
_atom_site_fract_z
Si Si1 0.324895 0.348558 0.085798
Si Si2 0.826558 0.666217 0.025432
Si Si3 0.829474 0.624843 0.304338
Si Si4 0.174695 0.237244 0.865235
Si Si5 0.669076 0.924538 0.807275
Si Si6 0.674291 0.095511 0.811141
Si Si7 0.174437 0.247100 0.310159
Si Si8 0.830641 0.471206 0.585323
O O1 0.500000 0.338296 0.080548
O O2 0.266862 0.308555 0.143335
O O3 0.274632 0.439353 0.085679
O O4 0.249156 0.306045 0.032486
O O5 0.786601 0.731216 0.072470
O O6 0.765922 0.580157 0.042592
O O7 0.000000 0.658603 0.016588
O O8 0.750000 0.588177 0.250000
O O9 0.744065 0.704680 0.319407
O O10 0.812295 0.559303 0.351692
O O11 0.000000 0.645189 0.292328
O O12 0.250004 0.152654 0.856551
O O13 0.000000 0.231767 0.855567
O O14 0.750000 0.935052 0.750000
O O15 0.500000 0.917446 0.790887
O O16 0.715670 0.840773 0.835111
O O17 0.698498 0.007675 0.839139
O O18 0.750000 0.105023 0.750000
O O19 0.500000 0.114474 0.804694
O O20 0.250000 0.263105 0.250000
O O21 0.000000 0.257547 0.301157
O O22 0.000000 0.464849 0.564786
#
# Coordination Sequence:
#
# PCOD8217771 Si02
#       8
#     8   8   8   8   8   8   8   8
#     4  10  20  34  53  74  96 124 158 195 236 283
#     4  10  21  35  51  71  94 122 159 202 242 279
#     4  10  19  31  46  65  94 129 161 192 232 281
#     4  10  20  33  47  66  94 125 159 198 237 278
#     4   8  15  28  46  69  97 126 156 190 228 274
#     4  10  18  28  46  72  99 127 159 193 232 278
#     4   9  18  33  52  75 102 129 156 190 234 281
#     4   9  19  34  50  69  94 126 161 197 238 282
#
# _framework density 17.567527999999999
#
# number of rings (size 3 to 8) (size 9 to 14) (size 15 to 20)
#    0.000    2.500    0.000    2.250    0.000    5.500 
#    0.000    0.000    0.000    0.750    0.000    5.250 
#    0.000    0.000    0.000    0.000    0.000    0.000 
#
# Total GULP energy -793188.784135 kJ/mol
# GULP energy per Si atom -12393.574752 kJ/mol
# Density = 1.752754 g / cm^3
# Si number density = 17.567528 Si / 1000 Ang^3
#
#
#
# Elastic Constant Matrix: (Units=GPa)
#
#
# Indices 1 2 3 4 5 6 
#
# 1 69.5447 42.1233 46.8411 0.0000 0.0000 0.0000
# 2 42.1233 108.2357 59.2432 0.0000 0.0000 0.0000
# 3 46.8411 59.2432 109.7650 0.0000 0.0000 0.0000
# 4 0.0000 0.0000 0.0000 16.0877 0.0000 0.0000
# 5 0.0000 0.0000 0.0000 0.0000 29.0802 0.0000
# 6 0.0000 0.0000 0.0000 0.0000 0.0000 22.6383
#
#
#
# Elastic Compliance Matrix: (Units=1/GPa)
#
#
# Indices 1 2 3 4 5 6 
#
# 1 0.021817 -0.004818 -0.006710 0.000000 0.000000 0.000000
# 2 -0.004818 0.014177 -0.005596 0.000000 0.000000 0.000000
# 3 -0.006710 -0.005596 0.014994 0.000000 0.000000 0.000000
# 4 0.000000 0.000000 0.000000 0.062159 0.000000 0.000000
# 5 0.000000 0.000000 0.000000 0.000000 0.034388 0.000000
# 6 0.000000 0.000000 0.000000 0.000000 0.000000 0.044173
#
#
# Mechanical properties :
#
#
# Convention : Reuss Voigt Hill
#
# Bulk Modulus (GPa) = 59.73441 64.88452 62.30946
# Shear Modulus (GPa) = 21.59507 22.85044 22.22276
#
# Velocity S-wave (km/s) = 3.50989 3.61046 3.56053
# Velocity P-wave (km/s) = 7.10650 7.37530 7.24215
#
# Compressibility (1/GPa) = 0.01674077
#
# Stress axis : x y z
#
# Youngs Moduli (GPa) = 45.83630 70.53661 66.69449
#
# Poissons Ratio (x) = 0.33986 0.44749
# Poissons Ratio (y) = 0.22085 0.37320
# Poissons Ratio (z) = 0.30754 0.39470
#
# Static dielectric constant tensor:
#      x y z
#    x 3.271230 0.000000 0.000000 
#    y 0.000000 3.635560 0.000000 
#    z 0.000000 0.000000 3.139420 
# 
# 
# High freq. dielectric constant tensor:
#      x y z
#    x 1.684860 0.000000 0.000000 
#    y 0.000000 1.680100 0.000000 
#    z 0.000000 0.000000 1.657630 
# 
# From -- ./inp_files/34442.got.cif
#   From: 2010.03.12/outbox.cif.g09.slc.cpg/sg53_18_cif.got.tgz:34442.got - 2010.04.16 14:36:59.
