data_PCOD8217673
_publ_section_title
;
Structure prediction by ZEFSAII (Michael W. Deem and Ramdas Pophale) SiO2 
 PCOD8217673
Probable space group: P M N A
;
_chemical_formula_sum "Si O2"
_cell_formula_units_Z 64
_cell_length_a 9.064952
_cell_length_b 18.187011
_cell_length_c 26.404956
_cell_angle_alpha 90.000000
_cell_angle_beta 90.000000
_cell_angle_gamma 90.000000
_cell_volume 4353.236746
_symmetry_space_group_name_H-M "P M N A"
_symmetry_group_IT_number 53
_symmetry_cell_setting 'orthorhombic'
loop_
_space_group_symop_operation_xyz
x,y,z
1/2-x,-y,1/2+z
x,-y,-z
1/2-x,y,1/2-z
-x,-y,-z
1/2+x,y,1/2-z
-x,y,z
1/2+x,-y,1/2+z
loop_
_atom_site_type_symbol
_atom_site_label
_atom_site_fract_x
_atom_site_fract_y
_atom_site_fract_z
Si Si1 0.325676 0.158409 0.698084
Si Si2 0.328125 0.333772 0.994912
Si Si3 0.663227 0.548852 0.550086
Si Si4 0.326203 0.915803 0.103487
Si Si5 0.333983 0.042357 0.447463
Si Si6 0.328000 0.672051 0.300385
Si Si7 0.825499 0.594310 0.099100
Si Si8 0.829299 0.164418 0.500236
O O1 0.250000 0.131649 0.750000
O O2 0.500000 0.144610 0.701270
O O3 0.257573 0.112589 0.652573
O O4 0.287214 0.243599 0.688326
O O5 0.500000 0.347395 0.987924
O O6 0.272307 0.382387 0.042665
O O7 0.290418 0.249570 0.006175
O O8 0.249722 0.356038 0.943286
O O9 0.658686 0.500000 0.500000
O O10 0.500000 0.579771 0.562197
O O11 0.717046 0.492435 0.594088
O O12 0.500000 0.919447 0.113990
O O13 0.265748 0.997601 0.092316
O O14 0.287870 0.861671 0.056885
O O15 0.500000 0.051188 0.426196
O O16 0.263839 0.122313 0.457315
O O17 0.334553 0.000000 0.500000
O O18 0.250000 0.642926 0.250000
O O19 0.500000 0.661970 0.292013
O O20 0.270015 0.622527 0.346664
O O21 0.000000 0.604887 0.092244
O O22 0.000000 0.147520 0.489954
#
# Coordination Sequence:
#
# PCOD8217673 Si02
#       8
#     8   8   8   8   8   8   8   8
#     4  10  19  30  43  60  82 107 138 173 206 239
#     4  10  18  26  39  60  83 106 136 171 202 236
#     4   8  15  27  40  54  76 106 136 165 199 241
#     4  10  18  29  44  59  80 110 139 167 203 242
#     4   9  17  28  42  60  80 104 136 170 200 236
#     4   9  18  30  43  59  80 106 136 172 207 238
#     4   9  17  29  42  56  78 109 140 167 201 243
#     4   9  18  29  40  58  84 111 136 165 203 244
#
# _framework density 14.701703999999999
#
# number of rings (size 3 to 8) (size 9 to 14) (size 15 to 20)
#    0.000    2.750    0.000    3.000    0.000    6.250 
#    0.000    0.000    0.000    0.000    0.000    0.000 
#    0.000    1.000    0.000    5.250    0.000    4.875 
#
# Total GULP energy -793465.502354 kJ/mol
# GULP energy per Si atom -12397.898474 kJ/mol
# Density = 1.466824 g / cm^3
# Si number density = 14.701704 Si / 1000 Ang^3
#
#
#
# Elastic Constant Matrix: (Units=GPa)
#
#
# Indices 1 2 3 4 5 6 
#
# 1 70.1505 48.3740 40.7422 0.0000 0.0000 0.0000
# 2 48.3740 94.5274 54.6758 0.0000 0.0000 0.0000
# 3 40.7422 54.6758 85.3794 0.0000 0.0000 0.0000
# 4 0.0000 0.0000 0.0000 24.6405 0.0000 0.0000
# 5 0.0000 0.0000 0.0000 0.0000 23.9143 0.0000
# 6 0.0000 0.0000 0.0000 0.0000 0.0000 23.1342
#
#
#
# Elastic Compliance Matrix: (Units=1/GPa)
#
#
# Indices 1 2 3 4 5 6 
#
# 1 0.023604 -0.008838 -0.005604 0.000000 0.000000 0.000000
# 2 -0.008838 0.020112 -0.008662 0.000000 0.000000 0.000000
# 3 -0.005604 -0.008662 0.019934 0.000000 0.000000 0.000000
# 4 0.000000 0.000000 0.000000 0.040584 0.000000 0.000000
# 5 0.000000 0.000000 0.000000 0.000000 0.041816 0.000000
# 6 0.000000 0.000000 0.000000 0.000000 0.000000 0.043226
#
#
# Mechanical properties :
#
#
# Convention : Reuss Voigt Hill
#
# Bulk Modulus (GPa) = 57.33336 59.73792 58.53564
# Shear Modulus (GPa) = 20.72134 21.42216 21.07175
#
# Velocity S-wave (km/s) = 3.75834 3.82137 3.78998
# Velocity P-wave (km/s) = 7.61025 7.75835 7.68466
#
# Compressibility (1/GPa) = 0.01744185
#
# Stress axis : x y z
#
# Youngs Moduli (GPa) = 42.36533 49.72171 50.16641
#
# Poissons Ratio (x) = 0.43944 0.28113
# Poissons Ratio (y) = 0.37442 0.43454
# Poissons Ratio (z) = 0.23742 0.43069
#
# Static dielectric constant tensor:
#      x y z
#    x 2.955230 0.000000 0.000000 
#    y 0.000000 2.940540 0.000000 
#    z 0.000000 0.000000 2.786110 
# 
# 
# High freq. dielectric constant tensor:
#      x y z
#    x 1.573370 0.000000 0.000000 
#    y 0.000000 1.550450 0.000000 
#    z 0.000000 0.000000 1.530450 
# 
# From -- ./inp_files/34415.got.cif
#   From: 2010.03.12/outbox.cif.g09.slc.cpg/sg53_18_cif.got.tgz:34415.got - 2010.04.16 14:36:59.
