data_PCOD8217072
_publ_section_title
;
Structure prediction by ZEFSAII (Michael W. Deem and Ramdas Pophale) SiO2 
 PCOD8217072
Probable space group: P N N A
;
_chemical_formula_sum "Si O2"
_cell_formula_units_Z 40
_cell_length_a 20.114950
_cell_length_b 4.913778
_cell_length_c 20.160422
_cell_angle_alpha 90.000000
_cell_angle_beta 90.000000
_cell_angle_gamma 90.000000
_cell_volume 1992.664150
_symmetry_space_group_name_H-M "P N N A"
_symmetry_group_IT_number 52
_symmetry_cell_setting 'orthorhombic'
loop_
_space_group_symop_operation_xyz
x,y,z
1/2-x,-y,z
x,1/2-y,1/2-z
1/2-x,1/2+y,1/2-z
-x,-y,-z
1/2+x,y,-z
-x,1/2+y,1/2+z
1/2+x,1/2-y,1/2+z
loop_
_atom_site_type_symbol
_atom_site_label
_atom_site_fract_x
_atom_site_fract_y
_atom_site_fract_z
Si Si1 0.496800 0.118230 0.399083
Si Si2 0.040500 0.133357 0.181138
Si Si3 0.604856 0.414208 0.000489
Si Si4 0.678917 0.613223 0.539619
Si Si5 0.324100 0.079469 0.188173
O O1 0.479629 0.323191 0.338471
O O2 0.494842 0.810663 0.374202
O O3 0.569832 0.167764 0.430212
O O4 0.442153 0.118781 0.457288
O O5 0.011626 0.250000 0.250000
O O6 0.121530 0.163342 0.181140
O O7 0.666219 0.626292 0.008527
O O8 0.625674 0.132571 0.966113
O O9 0.750000 0.500000 0.518119
O O10 0.679863 0.724677 0.616130
O O11 0.353432 0.250000 0.250000
O O12 0.250000 0.000000 0.210023
#
# Coordination Sequence:
#
# PCOD8217072 Si02
#       5
#     8   8   8   8   8
#     4  11  22  38  59  81 112 151 197 233 294 344
#     4  12  23  38  56  83 114 151 198 244 281 331
#     4  11  21  40  59  82 111 152 195 238 293 348
#     4  11  23  38  59  84 116 148 201 245 284 329
#     4  11  23  36  52  75 114 164 207 239 272 314
#
# _framework density 20.073627999999999
#
# number of rings (size 3 to 8) (size 9 to 14) (size 15 to 20)
#    0.000    0.800    4.000    4.200    0.000    6.400 
#    0.000    0.000    0.000    0.000    0.000    0.000 
#    0.000   44.800    0.000    0.000    0.000    0.000 
#
# Total GULP energy -495562.060221 kJ/mol
# GULP energy per Si atom -12389.051506 kJ/mol
# Density = 2.002794 g / cm^3
# Si number density = 20.073628 Si / 1000 Ang^3
#
#
#
# Elastic Constant Matrix: (Units=GPa)
#
#
# Indices 1 2 3 4 5 6 
#
# 1 70.5111 27.6666 52.5875 0.0000 0.0000 0.0000
# 2 27.6666 96.4653 30.6228 0.0000 0.0000 0.0000
# 3 52.5875 30.6228 78.9182 0.0000 0.0000 0.0000
# 4 0.0000 0.0000 0.0000 39.9354 0.0000 0.0000
# 5 0.0000 0.0000 0.0000 0.0000 8.3223 0.0000
# 6 0.0000 0.0000 0.0000 0.0000 0.0000 25.1832
#
#
#
# Elastic Compliance Matrix: (Units=1/GPa)
#
#
# Indices 1 2 3 4 5 6 
#
# 1 0.028698 -0.002464 -0.018167 0.000000 0.000000 0.000000
# 2 -0.002464 0.012034 -0.003028 0.000000 0.000000 0.000000
# 3 -0.018167 -0.003028 0.025952 0.000000 0.000000 0.000000
# 4 0.000000 0.000000 0.000000 0.025040 0.000000 0.000000
# 5 0.000000 0.000000 0.000000 0.000000 0.120159 0.000000
# 6 0.000000 0.000000 0.000000 0.000000 0.000000 0.039709
#
#
# Mechanical properties :
#
#
# Convention : Reuss Voigt Hill
#
# Bulk Modulus (GPa) = 51.63468 51.96093 51.79781
# Shear Modulus (GPa) = 16.37384 23.68937 20.03161
#
# Velocity S-wave (km/s) = 2.85913 3.43902 3.16239
# Velocity P-wave (km/s) = 6.05623 6.45837 6.26053
#
# Compressibility (1/GPa) = 0.01936683
#
# Stress axis : x y z
#
# Youngs Moduli (GPa) = 34.84586 83.09624 38.53266
#
# Poissons Ratio (x) = 0.20471 0.70002
# Poissons Ratio (y) = 0.08584 0.11668
# Poissons Ratio (z) = 0.63304 0.25162
#
# Static dielectric constant tensor:
#      x y z
#    x 3.660860 0.000000 0.000000 
#    y 0.000000 3.864700 0.000000 
#    z 0.000000 0.000000 3.498870 
# 
# 
# High freq. dielectric constant tensor:
#      x y z
#    x 1.760730 0.000000 0.000000 
#    y 0.000000 1.791420 0.000000 
#    z 0.000000 0.000000 1.758020 
# 
# From -- ./inp_files/33947.got.cif
#   From: 2010.06.25/outbox.cif.g09.slc.cpg/sg52_17_cif.got.tgz:33947.got - 2010.06.26 19:32:48.
