data_PCOD8217658
_publ_section_title
;
Structure prediction by ZEFSAII (Michael W. Deem and Ramdas Pophale) SiO2 
 PCOD8217658
Probable space group: P M N A
;
_chemical_formula_sum "Si O2"
_cell_formula_units_Z 64
_cell_length_a 24.457751
_cell_length_b 7.534559
_cell_length_c 16.158159
_cell_angle_alpha 90.000000
_cell_angle_beta 90.000000
_cell_angle_gamma 90.000000
_cell_volume 2977.599169
_symmetry_space_group_name_H-M "P M N A"
_symmetry_group_IT_number 53
_symmetry_cell_setting 'orthorhombic'
loop_
_space_group_symop_operation_xyz
x,y,z
1/2-x,-y,1/2+z
x,-y,-z
1/2-x,y,1/2-z
-x,-y,-z
1/2+x,y,1/2-z
-x,y,z
1/2+x,-y,1/2+z
loop_
_atom_site_type_symbol
_atom_site_label
_atom_site_fract_x
_atom_site_fract_y
_atom_site_fract_z
Si Si1 0.255989 0.063001 0.655993
Si Si2 0.562359 0.242484 0.651866
Si Si3 0.207341 0.665238 0.876373
Si Si4 0.644513 0.969860 0.908535
Si Si5 0.343569 0.806696 0.464535
Si Si6 0.882416 0.543604 0.751511
Si Si7 0.563163 0.078165 0.230856
Si Si8 0.176143 0.432932 0.409263
O O1 0.250000 0.128434 0.750000
O O2 0.298732 0.188348 0.608709
O O3 0.276685 0.859958 0.656508
O O4 0.197763 0.091703 0.609811
O O5 0.500000 0.265836 0.623862
O O6 0.599558 0.266722 0.570944
O O7 0.576577 0.392139 0.718733
O O8 0.572527 0.046892 0.689740
O O9 0.170003 0.565793 0.810137
O O10 0.259847 0.538496 0.890033
O O11 0.175880 0.675412 0.963590
O O12 0.595885 0.009361 0.845178
O O13 0.665730 0.773189 0.899921
O O14 0.621456 0.000000 0.000000
O O15 0.353370 0.000000 0.500000
O O16 0.915559 0.727032 0.751707
O O17 0.861831 0.477878 0.661022
O O18 0.500000 0.085905 0.205147
O O19 0.158921 0.500000 0.500000
#
# Coordination Sequence:
#
# PCOD8217658 Si02
#       8
#     8   8   8   8   8   8   8   8
#     4  10  17  33  59  90 125 168 206 251 318 389
#     4  11  25  43  65  95 124 163 220 272 315 379
#     4  10  20  37  58  87 131 166 205 257 316 389
#     4  10  20  35  59  88 123 161 207 257 320 384
#     4  10  21  38  61  93 129 166 209 263 323 384
#     4  11  23  42  66  90 124 172 212 262 323 384
#     4  10  22  42  65  87 120 166 213 266 315 370
#     4  10  22  37  59  92 131 166 204 261 321 384
#
# _framework density 21.493827
#
# number of rings (size 3 to 8) (size 9 to 14) (size 15 to 20)
#    0.000    1.750    0.000    7.125    3.500    0.500 
#    2.250    1.875    0.000    1.875    0.000    0.000 
#    0.000    0.000    0.000    0.000    0.000    0.000 
#
# Total GULP energy -793803.614055 kJ/mol
# GULP energy per Si atom -12403.181470 kJ/mol
# Density = 2.144491 g / cm^3
# Si number density = 21.493827 Si / 1000 Ang^3
#
#
#
# Elastic Constant Matrix: (Units=GPa)
#
#
# Indices 1 2 3 4 5 6 
#
# 1 137.5180 25.6620 56.6003 0.0000 0.0000 0.0000
# 2 25.6620 31.4731 10.7612 0.0000 0.0000 0.0000
# 3 56.6003 10.7612 138.9431 0.0000 0.0000 0.0000
# 4 0.0000 0.0000 0.0000 25.5532 0.0000 0.0000
# 5 0.0000 0.0000 0.0000 0.0000 -163.3714 0.0000
# 6 0.0000 0.0000 0.0000 0.0000 0.0000 2.2091
#
#
#
# Elastic Compliance Matrix: (Units=1/GPa)
#
#
# Indices 1 2 3 4 5 6 
#
# 1 0.010032 -0.006967 -0.003547 0.000000 0.000000 0.000000
# 2 -0.006967 0.037476 -0.000065 0.000000 0.000000 0.000000
# 3 -0.003547 -0.000065 0.008647 0.000000 0.000000 0.000000
# 4 0.000000 0.000000 0.000000 0.039134 0.000000 0.000000
# 5 0.000000 0.000000 0.000000 0.000000 -0.006121 0.000000
# 6 0.000000 0.000000 0.000000 0.000000 0.000000 0.452666
#
#
# Mechanical properties :
#
#
# Convention : Reuss Voigt Hill
#
# Bulk Modulus (GPa) = 28.57307 54.88683 41.72995
# Shear Modulus (GPa) = 8.70086 -12.79442 -2.04678
#
# Velocity S-wave (km/s) = 2.01417 -2.44244 -0.97690
# Velocity P-wave (km/s) = 4.32801 4.19970 4.26434
#
# Compressibility (1/GPa) = 0.03499798
#
# Stress axis : x y z
#
# Youngs Moduli (GPa) = 99.68398 26.68402 115.64581
#
# Poissons Ratio (x) = 0.18590 0.41019
# Poissons Ratio (y) = 0.69447 0.00746
# Poissons Ratio (z) = 0.35358 0.00172
#
# Static dielectric constant tensor:
#      x y z
#    x 3.977450 0.000000 0.000000 
#    y 0.000000 3.764210 0.000000 
#    z 0.000000 0.000000 7.826260 
# 
# 
# High freq. dielectric constant tensor:
#      x y z
#    x 1.837180 0.000000 0.000000 
#    y 0.000000 1.840670 0.000000 
#    z 0.000000 0.000000 1.849750 
# 
# From -- ./inp_files/24702.got.cif
#   From: 2010.03.12/outbox.cif.g09.slc.cpg/sg53_13_cif.got.tgz:24702.got - 2010.04.16 14:36:59.
