data_PCOD8217103
_publ_section_title
;
Structure prediction by ZEFSAII (Michael W. Deem and Ramdas Pophale) SiO2 
 PCOD8217103
Probable space group: P N N A
;
_chemical_formula_sum "Si O2"
_cell_formula_units_Z 32
_cell_length_a 15.200799
_cell_length_b 9.256752
_cell_length_c 10.108636
_cell_angle_alpha 90.000000
_cell_angle_beta 90.000000
_cell_angle_gamma 90.000000
_cell_volume 1422.386440
_symmetry_space_group_name_H-M "P N N A"
_symmetry_group_IT_number 52
_symmetry_cell_setting 'orthorhombic'
loop_
_space_group_symop_operation_xyz
x,y,z
1/2-x,-y,z
x,1/2-y,1/2-z
1/2-x,1/2+y,1/2-z
-x,-y,-z
1/2+x,y,-z
-x,1/2+y,1/2+z
1/2+x,1/2-y,1/2+z
loop_
_atom_site_type_symbol
_atom_site_label
_atom_site_fract_x
_atom_site_fract_y
_atom_site_fract_z
Si Si1 0.155180 0.987807 0.903708
Si Si2 0.988176 0.551297 0.198330
Si Si3 0.120126 0.370432 0.336017
Si Si4 0.043243 0.719680 0.963768
O O1 0.127879 0.824169 0.944999
O O2 0.250000 0.000000 0.829737
O O3 0.080334 0.071288 0.819554
O O4 0.174405 0.076059 0.039056
O O5 0.938883 0.437230 0.100306
O O6 0.085286 0.502964 0.246848
O O7 0.010418 0.698597 0.116576
O O8 0.174390 0.250000 0.250000
O O9 0.031424 0.294218 0.380819
#
# Coordination Sequence:
#
# PCOD8217103 Si02
#       4
#     8   8   8   8
#     4  11  22  36  55  94 128 154 206 272 322 359
#     4   9  18  37  64  85 114 162 213 244 298 389
#     4   9  19  36  55  79 115 158 211 246 291 387
#     4   9  18  37  63  86 113 163 204 247 306 383
#
# _framework density 22.497402000000001
#
# number of rings (size 3 to 8) (size 9 to 14) (size 15 to 20)
#    0.000    2.500    0.000    5.250    0.000    4.000 
#   13.500    0.000    0.000    0.000    0.000    0.000 
#    0.000    0.000    0.000    0.000    0.000    0.000 
#
# Total GULP energy -396423.197751 kJ/mol
# GULP energy per Si atom -12388.224930 kJ/mol
# Density = 2.244620 g / cm^3
# Si number density = 22.497402 Si / 1000 Ang^3
#
#
#
# Elastic Constant Matrix: (Units=GPa)
#
#
# Indices 1 2 3 4 5 6 
#
# 1 64.5116 29.3757 11.5033 0.0000 0.0000 0.0000
# 2 29.3757 77.4593 21.6657 0.0000 0.0000 0.0000
# 3 11.5033 21.6657 107.3935 0.0000 0.0000 0.0000
# 4 0.0000 0.0000 0.0000 39.3127 0.0000 0.0000
# 5 0.0000 0.0000 0.0000 0.0000 13.8369 0.0000
# 6 0.0000 0.0000 0.0000 0.0000 0.0000 21.7742
#
#
#
# Elastic Compliance Matrix: (Units=1/GPa)
#
#
# Indices 1 2 3 4 5 6 
#
# 1 0.018774 -0.006950 -0.000609 0.000000 0.000000 0.000000
# 2 -0.006950 0.016255 -0.002535 0.000000 0.000000 0.000000
# 3 -0.000609 -0.002535 0.009888 0.000000 0.000000 0.000000
# 4 0.000000 0.000000 0.000000 0.025437 0.000000 0.000000
# 5 0.000000 0.000000 0.000000 0.000000 0.072270 0.000000
# 6 0.000000 0.000000 0.000000 0.000000 0.000000 0.045926
#
#
# Mechanical properties :
#
#
# Convention : Reuss Voigt Hill
#
# Bulk Modulus (GPa) = 40.43642 41.60597 41.02119
# Shear Modulus (GPa) = 23.04352 27.43940 25.24146
#
# Velocity S-wave (km/s) = 3.20390 3.49617 3.35322
# Velocity P-wave (km/s) = 5.63023 5.90181 5.76762
#
# Compressibility (1/GPa) = 0.02473018
#
# Stress axis : x y z
#
# Youngs Moduli (GPa) = 53.26447 61.52103 101.13105
#
# Poissons Ratio (x) = 0.42755 0.06158
# Poissons Ratio (y) = 0.37017 0.25635
# Poissons Ratio (z) = 0.03243 0.15595
#
# Static dielectric constant tensor:
#      x y z
#    x 3.411970 0.000000 0.000000 
#    y 0.000000 4.736950 0.000000 
#    z 0.000000 0.000000 4.604490 
# 
# 
# High freq. dielectric constant tensor:
#      x y z
#    x 1.827430 0.000000 0.000000 
#    y 0.000000 1.891950 0.000000 
#    z 0.000000 0.000000 1.904350 
# 
# From -- ./inp_files/11493.got.cif
#   From: 2010.06.25/outbox.cif.g09.slc.cpg/sg52_6_cif.got.tgz:11493.got - 2010.06.26 19:32:48.
