data_PCOD8217402
_publ_section_title
;
Structure prediction by ZEFSAII (Michael W. Deem and Ramdas Pophale) SiO2 
 PCOD8217402
Probable space group: P N N A
;
_chemical_formula_sum "Si O2"
_cell_formula_units_Z 32
_cell_length_a 8.720056
_cell_length_b 10.715411
_cell_length_c 15.020193
_cell_angle_alpha 90.000000
_cell_angle_beta 90.000000
_cell_angle_gamma 90.000000
_cell_volume 1403.471573
_symmetry_space_group_name_H-M "P N N A"
_symmetry_group_IT_number 52
_symmetry_cell_setting 'orthorhombic'
loop_
_space_group_symop_operation_xyz
x,y,z
1/2-x,-y,z
x,1/2-y,1/2-z
1/2-x,1/2+y,1/2-z
-x,-y,-z
1/2+x,y,-z
-x,1/2+y,1/2+z
1/2+x,1/2-y,1/2+z
loop_
_atom_site_type_symbol
_atom_site_label
_atom_site_fract_x
_atom_site_fract_y
_atom_site_fract_z
Si Si1 0.250000 0.500000 0.663580
Si Si2 0.940301 0.336883 0.904924
Si Si3 0.244796 0.250000 0.250000
Si Si4 0.709951 0.765876 0.410435
Si Si5 0.003259 0.564373 0.794533
O O1 0.288959 0.383370 0.600157
O O2 0.100131 0.477759 0.726126
O O3 0.851587 0.247250 0.836707
O O4 0.117713 0.308803 0.908548
O O5 0.930942 0.481273 0.873874
O O6 0.866092 0.314314 0.999829
O O7 0.140167 0.373333 0.255394
O O8 0.615292 0.826926 0.330001
#
# Coordination Sequence:
#
# PCOD8217402 Si02
#       5
#     4   8   4   8   8
#     4  12  24  46  78 104 150 198 248 312 378 444
#     4  12  27  47  73 111 149 200 246 318 366 456
#     4  12  26  46  74 112 150 190 260 300 388 440
#     4  12  26  47  74 109 152 196 256 306 383 440
#     4  12  24  48  78 109 148 200 252 312 374 451
#
# _framework density 22.800602999999999
#
# number of rings (size 3 to 8) (size 9 to 14) (size 15 to 20)
#    0.000    0.000    5.000    4.500    0.000    3.000 
#    4.500    0.000    0.000    0.000    0.000    0.000 
#    0.000    0.000    0.000    0.000    0.000    0.000 
#
# Total GULP energy -396871.287170 kJ/mol
# GULP energy per Si atom -12402.227724 kJ/mol
# Density = 2.274871 g / cm^3
# Si number density = 22.800603 Si / 1000 Ang^3
#
#
#
# Elastic Constant Matrix: (Units=GPa)
#
#
# Indices 1 2 3 4 5 6 
#
# 1 41.7277 40.3727 30.1365 0.0000 0.0000 0.0000
# 2 40.3727 151.6501 40.3741 0.0000 0.0000 0.0000
# 3 30.1365 40.3741 82.9507 0.0000 0.0000 0.0000
# 4 0.0000 0.0000 0.0000 41.6135 0.0000 0.0000
# 5 0.0000 0.0000 0.0000 0.0000 37.4546 0.0000
# 6 0.0000 0.0000 0.0000 0.0000 0.0000 40.8380
#
#
#
# Elastic Compliance Matrix: (Units=1/GPa)
#
#
# Indices 1 2 3 4 5 6 
#
# 1 0.038800 -0.007556 -0.010419 0.000000 0.000000 0.000000
# 2 -0.007556 0.009047 -0.001658 0.000000 0.000000 0.000000
# 3 -0.010419 -0.001658 0.016648 0.000000 0.000000 0.000000
# 4 0.000000 0.000000 0.000000 0.024031 0.000000 0.000000
# 5 0.000000 0.000000 0.000000 0.000000 0.026699 0.000000
# 6 0.000000 0.000000 0.000000 0.000000 0.000000 0.024487
#
#
# Mechanical properties :
#
#
# Convention : Reuss Voigt Hill
#
# Bulk Modulus (GPa) = 39.63672 55.34388 47.49030
# Shear Modulus (GPa) = 26.68285 35.01091 30.84688
#
# Velocity S-wave (km/s) = 3.42463 3.92283 3.68217
# Velocity P-wave (km/s) = 5.74972 6.69655 6.24112
#
# Compressibility (1/GPa) = 0.02522913
#
# Stress axis : x y z
#
# Youngs Moduli (GPa) = 25.77340 110.53233 60.06828
#
# Poissons Ratio (x) = 0.83513 0.62583
# Poissons Ratio (y) = 0.19473 0.09962
# Poissons Ratio (z) = 0.26852 0.18331
#
# Static dielectric constant tensor:
#      x y z
#    x 4.521300 0.000000 0.000000 
#    y 0.000000 4.411310 0.000000 
#    z 0.000000 0.000000 4.063650 
# 
# 
# High freq. dielectric constant tensor:
#      x y z
#    x 1.930140 0.000000 0.000000 
#    y 0.000000 1.901380 0.000000 
#    z 0.000000 0.000000 1.892380 
# 
# From -- ./inp_files/24110.got.cif
#   From: 2010.06.25/outbox.cif.g09.slc.cpg/sg52_13_cif.got.tgz:24110.got - 2010.06.26 19:32:48.
