data_PCOD8217161
_publ_section_title
;
Structure prediction by ZEFSAII (Michael W. Deem and Ramdas Pophale) SiO2 
 PCOD8217161
Probable space group: P N N A
;
_chemical_formula_sum "Si O2"
_cell_formula_units_Z 40
_cell_length_a 9.447914
_cell_length_b 14.003141
_cell_length_c 14.494432
_cell_angle_alpha 90.000000
_cell_angle_beta 90.000000
_cell_angle_gamma 90.000000
_cell_volume 1917.620193
_symmetry_space_group_name_H-M "P N N A"
_symmetry_group_IT_number 52
_symmetry_cell_setting 'orthorhombic'
loop_
_space_group_symop_operation_xyz
x,y,z
1/2-x,-y,z
x,1/2-y,1/2-z
1/2-x,1/2+y,1/2-z
-x,-y,-z
1/2+x,y,-z
-x,1/2+y,1/2+z
1/2+x,1/2-y,1/2+z
loop_
_atom_site_type_symbol
_atom_site_label
_atom_site_fract_x
_atom_site_fract_y
_atom_site_fract_z
Si Si1 0.375972 0.439581 0.546613
Si Si2 0.086936 0.475810 0.133875
Si Si3 0.009139 0.349239 0.963883
Si Si4 0.236105 0.228174 0.046986
Si Si5 0.958569 0.661342 0.700166
O O1 0.250000 0.500000 0.592396
O O2 0.500000 0.500000 0.500000
O O3 0.299883 0.375525 0.470584
O O4 0.433649 0.370677 0.623419
O O5 0.250000 0.500000 0.111805
O O6 0.985183 0.569788 0.117749
O O7 0.077074 0.430518 0.236097
O O8 0.029536 0.396831 0.063626
O O9 0.853435 0.308843 0.950735
O O10 0.123722 0.262459 0.966552
O O11 0.174637 0.212602 0.149906
O O12 0.035530 0.750000 0.750000
#
# Coordination Sequence:
#
# PCOD8217161 Si02
#       5
#     8   8   8   8   8
#     4  12  25  46  71  98 134 189 229 283 348 425
#     4  11  23  41  69 104 139 178 231 287 351 424
#     4  11  22  43  70 102 133 183 223 284 358 418
#     4  12  22  44  73  93 137 182 234 283 352 421
#     4  12  24  44  69 102 140 178 236 291 344 411
#
# _framework density 20.859186000000001
#
# number of rings (size 3 to 8) (size 9 to 14) (size 15 to 20)
#    0.000    0.400    8.000    0.000    2.800    0.000 
#    7.200    0.000    0.000    0.000    0.000    0.000 
#    0.000    0.000    0.000    0.000    0.000    0.000 
#
# Total GULP energy -495545.872176 kJ/mol
# GULP energy per Si atom -12388.646804 kJ/mol
# Density = 2.081171 g / cm^3
# Si number density = 20.859186 Si / 1000 Ang^3
#
#
#
# Elastic Constant Matrix: (Units=GPa)
#
#
# Indices 1 2 3 4 5 6 
#
# 1 99.8747 48.2787 35.0595 0.0000 0.0000 0.0000
# 2 48.2787 106.3763 44.6627 0.0000 0.0000 0.0000
# 3 35.0595 44.6627 85.9514 0.0000 0.0000 0.0000
# 4 0.0000 0.0000 0.0000 58.2609 0.0000 0.0000
# 5 0.0000 0.0000 0.0000 0.0000 16.9302 0.0000
# 6 0.0000 0.0000 0.0000 0.0000 0.0000 60.8143
#
#
#
# Elastic Compliance Matrix: (Units=1/GPa)
#
#
# Indices 1 2 3 4 5 6 
#
# 1 0.013385 -0.004838 -0.002946 0.000000 0.000000 0.000000
# 2 -0.004838 0.013772 -0.005183 0.000000 0.000000 0.000000
# 3 -0.002946 -0.005183 0.015529 0.000000 0.000000 0.000000
# 4 0.000000 0.000000 0.000000 0.017164 0.000000 0.000000
# 5 0.000000 0.000000 0.000000 0.000000 0.059066 0.000000
# 6 0.000000 0.000000 0.000000 0.000000 0.000000 0.016443
#
#
# Mechanical properties :
#
#
# Convention : Reuss Voigt Hill
#
# Bulk Modulus (GPa) = 59.69043 60.91155 60.30099
# Shear Modulus (GPa) = 29.96173 38.14786 34.05479
#
# Velocity S-wave (km/s) = 3.79407 4.28112 4.04493
# Velocity P-wave (km/s) = 6.91891 7.32817 7.12648
#
# Compressibility (1/GPa) = 0.01675310
#
# Stress axis : x y z
#
# Youngs Moduli (GPa) = 74.70862 72.60848 64.39407
#
# Poissons Ratio (x) = 0.35128 0.18970
# Poissons Ratio (y) = 0.36145 0.33376
# Poissons Ratio (z) = 0.22008 0.37634
#
# Static dielectric constant tensor:
#      x y z
#    x 4.516260 0.000000 0.000000 
#    y 0.000000 4.307040 0.000000 
#    z 0.000000 0.000000 3.879130 
# 
# 
# High freq. dielectric constant tensor:
#      x y z
#    x 1.813070 0.000000 0.000000 
#    y 0.000000 1.852350 0.000000 
#    z 0.000000 0.000000 1.790670 
# 
# From -- ./inp_files/24401.got.cif
#   From: 2010.06.25/outbox.cif.g09.slc.cpg/sg52_13_cif.got.tgz:24401.got - 2010.06.26 19:32:48.
