data_PCOD8217389
_publ_section_title
;
Structure prediction by ZEFSAII (Michael W. Deem and Ramdas Pophale) SiO2 
 PCOD8217389
Probable space group: P N N A
;
_chemical_formula_sum "Si O2"
_cell_formula_units_Z 56
_cell_length_a 20.593694
_cell_length_b 13.570018
_cell_length_c 9.229053
_cell_angle_alpha 90.000000
_cell_angle_beta 90.000000
_cell_angle_gamma 90.000000
_cell_volume 2579.121602
_symmetry_space_group_name_H-M "P N N A"
_symmetry_group_IT_number 52
_symmetry_cell_setting 'orthorhombic'
loop_
_space_group_symop_operation_xyz
x,y,z
1/2-x,-y,z
x,1/2-y,1/2-z
1/2-x,1/2+y,1/2-z
-x,-y,-z
1/2+x,y,-z
-x,1/2+y,1/2+z
1/2+x,1/2-y,1/2+z
loop_
_atom_site_type_symbol
_atom_site_label
_atom_site_fract_x
_atom_site_fract_y
_atom_site_fract_z
Si Si1 0.061609 0.212563 0.085847
Si Si2 0.324814 0.836371 0.504455
Si Si3 0.324115 0.500000 0.203590
Si Si4 0.099765 0.500000 0.471356
Si Si5 0.324814 0.336371 0.995546
Si Si6 0.176938 1.000000 0.741927
Si Si7 0.061609 0.712563 0.414153
O O1 0.059738 0.250000 0.250000
O O2 0.057345 0.094156 0.074971
O O3 0.127749 0.242485 0.999288
O O4 1.000000 0.257554 0.000000
O O5 0.351725 0.900691 0.368832
O O6 0.250000 0.800535 0.486883
O O7 0.332789 0.900887 0.648938
O O8 0.250000 0.500000 0.156140
O O9 0.334873 0.500000 0.374107
O O10 0.351725 0.400691 0.131168
O O11 0.121666 0.500000 0.637052
O O12 0.057345 0.594156 0.425029
O O13 0.332789 0.400887 0.851062
O O14 0.372251 0.242485 0.999288
O O15 0.250000 0.000000 0.806361
O O16 0.059738 0.750000 0.250000
#
# Coordination Sequence:
#
# PCOD8217389 Si02
#       7
#     8   8   8   8   8   8   8
#     4  12  28  47  68  98 135 178 228 278 338 401
#     4   9  20  43  71  98 132 178 223 267 331 404
#     4   9  17  36  66 100 131 163 216 277 326 384
#     4  12  24  42  65 100 135 173 222 284 328 395
#     4   9  20  43  71  98 132 178 223 267 331 404
#     4   9  21  40  68 107 143 174 215 275 342 398
#     4  12  28  47  68  98 135 178 228 278 338 401
#
# _framework density 21.712820000000001
#
# number of rings (size 3 to 8) (size 9 to 14) (size 15 to 20)
#    0.000    1.714    2.857    2.571    4.000    2.857 
#    0.000    6.429    0.000    0.000    0.000    0.000 
#    0.000    0.000    0.000    0.000    0.000    0.000 
#
# Total GULP energy -694213.213278 kJ/mol
# GULP energy per Si atom -12396.664523 kJ/mol
# Density = 2.166340 g / cm^3
# Si number density = 21.712820 Si / 1000 Ang^3
#
#
#
# Elastic Constant Matrix: (Units=GPa)
#
#
# Indices 1 2 3 4 5 6 
#
# 1 121.7788 47.3805 53.1836 0.0000 0.0000 0.0000
# 2 47.3805 106.1634 30.1606 0.0000 0.0000 0.0000
# 3 53.1836 30.1606 127.6386 0.0000 0.0000 0.0000
# 4 0.0000 0.0000 0.0000 12.9223 0.0000 0.0000
# 5 0.0000 0.0000 0.0000 0.0000 31.3088 0.0000
# 6 0.0000 0.0000 0.0000 0.0000 0.0000 12.6560
#
#
#
# Elastic Compliance Matrix: (Units=1/GPa)
#
#
# Indices 1 2 3 4 5 6 
#
# 1 0.011444 -0.004023 -0.003818 0.000000 0.000000 0.000000
# 2 -0.004023 0.011511 -0.001044 0.000000 0.000000 0.000000
# 3 -0.003818 -0.001044 0.009672 0.000000 0.000000 0.000000
# 4 0.000000 0.000000 0.000000 0.077386 0.000000 0.000000
# 5 0.000000 0.000000 0.000000 0.000000 0.031940 0.000000
# 6 0.000000 0.000000 0.000000 0.000000 0.000000 0.079014
#
#
# Mechanical properties :
#
#
# Convention : Reuss Voigt Hill
#
# Bulk Modulus (GPa) = 67.30206 68.55891 67.93049
# Shear Modulus (GPa) = 20.51796 26.36783 23.44290
#
# Velocity S-wave (km/s) = 3.07737 3.48859 3.28941
# Velocity P-wave (km/s) = 6.60989 6.91888 6.76615
#
# Compressibility (1/GPa) = 0.01485839
#
# Stress axis : x y z
#
# Youngs Moduli (GPa) = 87.38098 86.87039 103.39021
#
# Poissons Ratio (x) = 0.34947 0.39473
# Poissons Ratio (y) = 0.35152 0.10793
# Poissons Ratio (z) = 0.33361 0.09068
#
# Static dielectric constant tensor:
#      x y z
#    x 3.721030 0.000000 0.000000 
#    y 0.000000 3.981900 0.000000 
#    z 0.000000 0.000000 3.775730 
# 
# 
# High freq. dielectric constant tensor:
#      x y z
#    x 1.843180 0.000000 0.000000 
#    y 0.000000 1.854240 0.000000 
#    z 0.000000 0.000000 1.853970 
# 
# From -- ./inp_files/13435.got.cif
#   From: 2010.06.25/outbox.cif.g09.slc.cpg/sg52_7_cif.got.tgz:13435.got - 2010.06.26 19:32:48.
