data_PCOD8217648
_publ_section_title
;
Structure prediction by ZEFSAII (Michael W. Deem and Ramdas Pophale) SiO2 
 PCOD8217648
Probable space group: P M N A
;
_chemical_formula_sum "Si O2"
_cell_formula_units_Z 40
_cell_length_a 24.463094
_cell_length_b 4.947041
_cell_length_c 17.387318
_cell_angle_alpha 90.000000
_cell_angle_beta 90.000000
_cell_angle_gamma 90.000000
_cell_volume 2104.211990
_symmetry_space_group_name_H-M "P M N A"
_symmetry_group_IT_number 53
_symmetry_cell_setting 'orthorhombic'
loop_
_space_group_symop_operation_xyz
x,y,z
1/2-x,-y,1/2+z
x,-y,-z
1/2-x,y,1/2-z
-x,-y,-z
1/2+x,y,1/2-z
-x,y,z
1/2+x,-y,1/2+z
loop_
_atom_site_type_symbol
_atom_site_label
_atom_site_fract_x
_atom_site_fract_y
_atom_site_fract_z
Si Si1 0.727172 0.421234 0.586497
Si Si2 0.616170 0.804896 0.763175
Si Si3 0.500000 0.419744 0.659790
Si Si4 0.500000 0.080790 0.240034
Si Si5 0.616243 0.695260 0.342753
Si Si6 0.273424 0.071958 0.168129
O O1 0.741018 0.500000 0.500000
O O2 0.663263 0.347221 0.594328
O O3 0.740024 0.664495 0.643896
O O4 0.764993 0.165862 0.606911
O O5 0.556610 0.847828 0.804413
O O6 0.621585 0.002626 0.689706
O O7 0.622299 0.502632 0.730720
O O8 0.662282 0.860798 0.826814
O O9 0.500000 0.234439 0.737299
O O10 0.556865 0.350156 0.615529
O O11 0.500000 0.734802 0.682278
O O12 0.250000 0.972912 0.250000
#
# Coordination Sequence:
#
# PCOD8217648 Si02
#       6
#     8   8   4   4   8   8
#     4  12  24  36  51  78 113 142 172 217 267 310
#     4  10  18  30  54  76 102 129 172 217 256 302
#     4   8  16  26  47  68 100 134 169 208 244 292
#     4   8  16  28  44  78 102 122 158 220 266 288
#     4  10  17  32  48  74 103 137 172 210 252 301
#     4  12  21  36  57  80 101 140 184 216 256 313
#
# _framework density 19.009491000000001
#
# number of rings (size 3 to 8) (size 9 to 14) (size 15 to 20)
#    0.000    1.600    4.000    2.400    0.000    0.000 
#    0.000    0.500    0.000    0.000    0.000   15.400 
#    0.000    0.000    0.000    0.000    0.000    0.000 
#
# Total GULP energy -495851.475641 kJ/mol
# GULP energy per Si atom -12396.286891 kJ/mol
# Density = 1.896622 g / cm^3
# Si number density = 19.009491 Si / 1000 Ang^3
#
#
#
# Elastic Constant Matrix: (Units=GPa)
#
#
# Indices 1 2 3 4 5 6 
#
# 1 104.0506 -4.8906 30.7127 0.0000 0.0000 0.0000
# 2 -4.8906 70.0369 -2.1643 0.0000 0.0000 0.0000
# 3 30.7127 -2.1643 30.3537 0.0000 0.0000 0.0000
# 4 0.0000 0.0000 0.0000 15.1620 0.0000 0.0000
# 5 0.0000 0.0000 0.0000 0.0000 14.1171 0.0000
# 6 0.0000 0.0000 0.0000 0.0000 0.0000 22.7516
#
#
#
# Elastic Compliance Matrix: (Units=1/GPa)
#
#
# Indices 1 2 3 4 5 6 
#
# 1 0.013723 0.000530 -0.013848 0.000000 0.000000 0.000000
# 2 0.000530 0.014330 0.000485 0.000000 0.000000 0.000000
# 3 -0.013848 0.000485 0.046991 0.000000 0.000000 0.000000
# 4 0.000000 0.000000 0.000000 0.065954 0.000000 0.000000
# 5 0.000000 0.000000 0.000000 0.000000 0.070836 0.000000
# 6 0.000000 0.000000 0.000000 0.000000 0.000000 0.043953
#
#
# Mechanical properties :
#
#
# Convention : Reuss Voigt Hill
#
# Bulk Modulus (GPa) = 20.25110 27.97298 24.11204
# Shear Modulus (GPa) = 16.78351 22.45837 19.62094
#
# Velocity S-wave (km/s) = 2.97459 3.44092 3.21622
# Velocity P-wave (km/s) = 4.74066 5.52574 5.14819
#
# Compressibility (1/GPa) = 0.04938004
#
# Stress axis : x y z
#
# Youngs Moduli (GPa) = 72.87023 69.78265 21.28074
#
# Poissons Ratio (x) = -0.03701 0.29469
# Poissons Ratio (y) = -0.03865 -0.01032
# Poissons Ratio (z) = 1.00907 -0.03386
#
# Static dielectric constant tensor:
#      x y z
#    x 4.144770 0.000000 0.000000 
#    y 0.000000 3.678140 0.000000 
#    z 0.000000 0.000000 2.738030 
# 
# 
# High freq. dielectric constant tensor:
#      x y z
#    x 1.768210 0.000000 0.000000 
#    y 0.000000 1.766320 0.000000 
#    z 0.000000 0.000000 1.645610 
# 
# From -- ./inp_files/24574.got.cif
#   From: 2010.03.12/outbox.cif.g09.slc.cpg/sg53_13_cif.got.tgz:24574.got - 2010.04.16 14:36:59.
