data_PCOD8217385
_publ_section_title
;
Structure prediction by ZEFSAII (Michael W. Deem and Ramdas Pophale) SiO2 
 PCOD8217385
Probable space group: P N N A
;
_chemical_formula_sum "Si O2"
_cell_formula_units_Z 48
_cell_length_a 15.276061
_cell_length_b 11.500553
_cell_length_c 12.964429
_cell_angle_alpha 90.000000
_cell_angle_beta 90.000000
_cell_angle_gamma 90.000000
_cell_volume 2277.631714
_symmetry_space_group_name_H-M "P N N A"
_symmetry_group_IT_number 52
_symmetry_cell_setting 'orthorhombic'
loop_
_space_group_symop_operation_xyz
x,y,z
1/2-x,-y,z
x,1/2-y,1/2-z
1/2-x,1/2+y,1/2-z
-x,-y,-z
1/2+x,y,-z
-x,1/2+y,1/2+z
1/2+x,1/2-y,1/2+z
loop_
_atom_site_type_symbol
_atom_site_label
_atom_site_fract_x
_atom_site_fract_y
_atom_site_fract_z
Si Si1 0.981970 0.944035 0.799483
Si Si2 0.722711 0.750000 0.750000
Si Si3 0.431174 0.704736 0.486654
Si Si4 0.250000 0.000000 0.334564
Si Si5 0.154443 0.000510 0.904327
Si Si6 0.574318 0.448313 0.925783
Si Si7 0.395380 0.350531 0.409535
O O1 0.935319 0.850468 0.872781
O O2 0.973818 0.913113 0.680288
O O3 0.085305 0.949132 0.823868
O O4 0.936397 0.067611 0.820985
O O5 0.770196 0.878987 0.732952
O O6 0.667063 0.741028 0.645624
O O7 0.372397 0.630760 0.564449
O O8 0.388864 0.831093 0.478282
O O9 0.528473 0.718476 0.532214
O O10 0.162353 0.976608 0.403384
O O11 0.250000 0.000000 0.851921
O O12 0.159063 0.924461 0.008014
O O13 0.500000 0.500000 0.000000
#
# Coordination Sequence:
#
# PCOD8217385 Si02
#       7
#     8   4   8   4   8   8   8
#     4   9  19  40  61  91 121 172 213 259 329 378
#     4  12  24  40  62 100 134 160 222 270 322 386
#     4   9  20  37  65  89 123 168 213 260 328 391
#     4  12  30  40  68  98 126 178 216 266 334 386
#     4   9  19  35  62  96 120 163 216 270 310 381
#     4  12  25  44  62  91 131 170 211 272 328 389
#     4   9  19  36  62  88 129 162 209 264 321 381
#
# _framework density 21.07452
#
# number of rings (size 3 to 8) (size 9 to 14) (size 15 to 20)
#    0.000    2.000    1.667    3.500    5.833    0.000 
#    1.500    0.000    0.000    0.000    0.000    0.000 
#    0.000    0.000    0.000    0.000    0.000    0.000 
#
# Total GULP energy -594718.788244 kJ/mol
# GULP energy per Si atom -12389.974755 kJ/mol
# Density = 2.102655 g / cm^3
# Si number density = 21.074520 Si / 1000 Ang^3
#
#
#
# Elastic Constant Matrix: (Units=GPa)
#
#
# Indices 1 2 3 4 5 6 
#
# 1 103.8474 16.8893 14.7754 0.0000 0.0000 0.0000
# 2 16.8893 102.3591 14.0653 0.0000 0.0000 0.0000
# 3 14.7754 14.0653 68.0551 0.0000 0.0000 0.0000
# 4 0.0000 0.0000 0.0000 18.8263 0.0000 0.0000
# 5 0.0000 0.0000 0.0000 0.0000 22.5958 0.0000
# 6 0.0000 0.0000 0.0000 0.0000 0.0000 22.3155
#
#
#
# Elastic Compliance Matrix: (Units=1/GPa)
#
#
# Indices 1 2 3 4 5 6 
#
# 1 0.010130 -0.001409 -0.001908 0.000000 0.000000 0.000000
# 2 -0.001409 0.010251 -0.001813 0.000000 0.000000 0.000000
# 3 -0.001908 -0.001813 0.015483 0.000000 0.000000 0.000000
# 4 0.000000 0.000000 0.000000 0.053117 0.000000 0.000000
# 5 0.000000 0.000000 0.000000 0.000000 0.044256 0.000000
# 6 0.000000 0.000000 0.000000 0.000000 0.000000 0.044812
#
#
# Mechanical properties :
#
#
# Convention : Reuss Voigt Hill
#
# Bulk Modulus (GPa) = 39.05628 40.63573 39.84601
# Shear Modulus (GPa) = 25.40081 27.98296 26.69188
#
# Velocity S-wave (km/s) = 3.47549 3.64787 3.56272
# Velocity P-wave (km/s) = 5.88881 6.08821 5.98934
#
# Compressibility (1/GPa) = 0.02560408
#
# Stress axis : x y z
#
# Youngs Moduli (GPa) = 98.71472 97.55004 64.58752
#
# Poissons Ratio (x) = 0.13748 0.12324
# Poissons Ratio (y) = 0.13912 0.11708
# Poissons Ratio (z) = 0.18836 0.17683
#
# Static dielectric constant tensor:
#      x y z
#    x 3.743340 0.000000 0.000000 
#    y 0.000000 3.904580 0.000000 
#    z 0.000000 0.000000 3.573130 
# 
# 
# High freq. dielectric constant tensor:
#      x y z
#    x 1.821090 0.000000 0.000000 
#    y 0.000000 1.826690 0.000000 
#    z 0.000000 0.000000 1.802350 
# 
# From -- ./inp_files/20682.got.cif
#   From: 2010.06.25/outbox.cif.g09.slc.cpg/sg52_11_cif.got.tgz:20682.got - 2010.06.26 19:32:48.
