data_PCOD8217353
_publ_section_title
;
Structure prediction by ZEFSAII (Michael W. Deem and Ramdas Pophale) SiO2 
 PCOD8217353
Probable space group: P N N A
;
_chemical_formula_sum "Si O2"
_cell_formula_units_Z 48
_cell_length_a 22.841174
_cell_length_b 9.309296
_cell_length_c 10.630513
_cell_angle_alpha 90.000000
_cell_angle_beta 90.000000
_cell_angle_gamma 90.000000
_cell_volume 2260.421787
_symmetry_space_group_name_H-M "P N N A"
_symmetry_group_IT_number 52
_symmetry_cell_setting 'orthorhombic'
loop_
_space_group_symop_operation_xyz
x,y,z
1/2-x,-y,z
x,1/2-y,1/2-z
1/2-x,1/2+y,1/2-z
-x,-y,-z
1/2+x,y,-z
-x,1/2+y,1/2+z
1/2+x,1/2-y,1/2+z
loop_
_atom_site_type_symbol
_atom_site_label
_atom_site_fract_x
_atom_site_fract_y
_atom_site_fract_z
Si Si1 0.228174 0.160279 0.367157
Si Si2 0.891549 0.745831 0.956337
Si Si3 0.976864 0.278012 0.108763
Si Si4 0.105810 0.956037 0.928461
Si Si5 0.203472 0.724480 0.888870
Si Si6 0.608018 0.009595 0.354405
O O1 0.254736 0.250000 0.250000
O O2 0.157715 0.178352 0.364921
O O3 0.247572 0.218990 0.503703
O O4 0.250000 0.000000 0.345857
O O5 0.953935 0.710651 0.895462
O O6 0.887488 0.669264 0.091432
O O7 0.884681 0.917379 0.970843
O O8 0.953869 0.250000 0.250000
O O9 0.950158 0.142874 0.029717
O O10 0.945363 0.427807 0.072541
O O11 0.162776 0.857437 0.925053
O O12 0.095268 0.027280 0.792714
O O13 0.231957 0.750000 0.750000
O O14 0.167980 0.575415 0.884663
#
# Coordination Sequence:
#
# PCOD8217353 Si02
#       6
#     8   8   8   8   8   8
#     4  12  28  46  63  90 135 175 216 266 314 382
#     4  12  21  35  61  91 119 167 213 252 313 389
#     4   9  19  37  56  83 125 163 202 257 323 383
#     4   9  20  35  63  92 121 151 203 272 327 373
#     4   9  20  44  67  89 120 166 214 265 324 370
#     4   9  18  37  61  89 121 156 201 272 322 371
#
# _framework density 21.234974999999999
#
# number of rings (size 3 to 8) (size 9 to 14) (size 15 to 20)
#    0.000    2.000    1.667    4.000    2.333    1.333 
#    0.000    0.000    0.000    0.000    0.000    0.000 
#    0.000    0.000    0.000    0.000    0.000    0.000 
#
# Total GULP energy -595048.951016 kJ/mol
# GULP energy per Si atom -12396.853146 kJ/mol
# Density = 2.118664 g / cm^3
# Si number density = 21.234975 Si / 1000 Ang^3
#
#
#
# Elastic Constant Matrix: (Units=GPa)
#
#
# Indices 1 2 3 4 5 6 
#
# 1 104.9904 32.1980 30.1372 0.0000 0.0000 0.0000
# 2 32.1980 108.2329 25.6701 0.0000 0.0000 0.0000
# 3 30.1372 25.6701 77.2648 0.0000 0.0000 0.0000
# 4 0.0000 0.0000 0.0000 27.3329 0.0000 0.0000
# 5 0.0000 0.0000 0.0000 0.0000 10.9304 0.0000
# 6 0.0000 0.0000 0.0000 0.0000 0.0000 19.7793
#
#
#
# Elastic Compliance Matrix: (Units=1/GPa)
#
#
# Indices 1 2 3 4 5 6 
#
# 1 0.011325 -0.002520 -0.003580 0.000000 0.000000 0.000000
# 2 -0.002520 0.010590 -0.002536 0.000000 0.000000 0.000000
# 3 -0.003580 -0.002536 0.015181 0.000000 0.000000 0.000000
# 4 0.000000 0.000000 0.000000 0.036586 0.000000 0.000000
# 5 0.000000 0.000000 0.000000 0.000000 0.091488 0.000000
# 6 0.000000 0.000000 0.000000 0.000000 0.000000 0.050558
#
#
# Mechanical properties :
#
#
# Convention : Reuss Voigt Hill
#
# Bulk Modulus (GPa) = 50.44019 51.83319 51.13669
# Shear Modulus (GPa) = 20.86735 25.10738 22.98736
#
# Velocity S-wave (km/s) = 3.13819 3.44228 3.29374
# Velocity P-wave (km/s) = 6.07749 6.34518 6.21278
#
# Compressibility (1/GPa) = 0.01982546
#
# Stress axis : x y z
#
# Youngs Moduli (GPa) = 88.29889 94.42547 65.87026
#
# Poissons Ratio (x) = 0.23795 0.23583
# Poissons Ratio (y) = 0.22251 0.16702
# Poissons Ratio (z) = 0.31613 0.23942
#
# Static dielectric constant tensor:
#      x y z
#    x 3.687750 0.000000 0.000000 
#    y 0.000000 3.866750 0.000000 
#    z 0.000000 0.000000 3.589510 
# 
# 
# High freq. dielectric constant tensor:
#      x y z
#    x 1.829590 0.000000 0.000000 
#    y 0.000000 1.840910 0.000000 
#    z 0.000000 0.000000 1.808850 
# 
# From -- ./inp_files/22305.got.cif
#   From: 2010.06.25/outbox.cif.g09.slc.cpg/sg52_12_cif.got.tgz:22305.got - 2010.06.26 19:32:48.
