data_PCOD8217969
_publ_section_title
;
Structure prediction by ZEFSAII (Michael W. Deem and Ramdas Pophale) SiO2 
 PCOD8217969
Probable space group: P M N A
;
_chemical_formula_sum "Si O2"
_cell_formula_units_Z 40
_cell_length_a 8.694905
_cell_length_b 25.995252
_cell_length_c 9.117922
_cell_angle_alpha 90.000000
_cell_angle_beta 90.000000
_cell_angle_gamma 90.000000
_cell_volume 2060.889686
_symmetry_space_group_name_H-M "P M N A"
_symmetry_group_IT_number 53
_symmetry_cell_setting 'orthorhombic'
loop_
_space_group_symop_operation_xyz
x,y,z
1/2-x,-y,1/2+z
x,-y,-z
1/2-x,y,1/2-z
-x,-y,-z
1/2+x,y,1/2-z
-x,y,z
1/2+x,-y,1/2+z
loop_
_atom_site_type_symbol
_atom_site_label
_atom_site_fract_x
_atom_site_fract_y
_atom_site_fract_z
Si Si1 0.318938 0.449769 0.909750
Si Si2 0.819454 0.256260 0.909655
Si Si3 0.680220 0.357074 0.410399
Si Si4 0.181449 0.049900 0.910046
Si Si5 0.817501 0.152641 0.587372
O O1 0.250000 0.455760 0.750000
O O2 0.500000 0.443354 0.897517
O O3 0.271022 0.500000 0.000000
O O4 0.251701 0.400092 0.987291
O O5 0.750000 0.268273 0.750000
O O6 0.745093 0.205287 0.985099
O O7 0.000000 0.247860 0.890112
O O8 0.779454 0.302329 0.018808
O O9 0.750000 0.360183 0.250000
O O10 0.500000 0.366544 0.399552
O O11 0.250000 0.042752 0.750000
O O12 0.253325 0.100691 0.989546
O O13 0.000000 0.056737 0.900244
O O14 0.230916 0.000000 0.000000
O O15 0.750000 0.152405 0.750000
O O16 0.000000 0.152189 0.586697
#
# Coordination Sequence:
#
# PCOD8217969 Si02
#       5
#     8   8   8   8   8
#     4  11  24  41  63  90 120 154 192 235 281 332
#     4  10  20  35  56  82 109 140 181 227 275 327
#     4  11  24  40  60  85 116 153 190 233 282 334
#     4  10  20  34  53  77 106 140 178 222 271 324
#     4  10  18  30  52  78 105 139 178 222 271 324
#
# _framework density 19.409092000000001
#
# number of rings (size 3 to 8) (size 9 to 14) (size 15 to 20)
#    0.000    1.600    0.000    7.800    0.000    9.600 
#    0.000    1.000    0.000    0.000    0.000    0.000 
#    0.000    0.000    0.000    0.000    0.000    0.000 
#
# Total GULP energy -496006.033743 kJ/mol
# GULP energy per Si atom -12400.150844 kJ/mol
# Density = 1.936492 g / cm^3
# Si number density = 19.409092 Si / 1000 Ang^3
#
#
#
# Elastic Constant Matrix: (Units=GPa)
#
#
# Indices 1 2 3 4 5 6 
#
# 1 117.1579 88.8141 51.0181 0.0000 0.0000 0.0000
# 2 88.8141 185.4088 74.5915 0.0000 0.0000 0.0000
# 3 51.0181 74.5915 109.4804 0.0000 0.0000 0.0000
# 4 0.0000 0.0000 0.0000 57.9027 0.0000 0.0000
# 5 0.0000 0.0000 0.0000 0.0000 28.2015 0.0000
# 6 0.0000 0.0000 0.0000 0.0000 0.0000 37.9494
#
#
#
# Elastic Compliance Matrix: (Units=1/GPa)
#
#
# Indices 1 2 3 4 5 6 
#
# 1 0.013952 -0.005604 -0.002684 0.000000 0.000000 0.000000
# 2 -0.005604 0.009681 -0.003984 0.000000 0.000000 0.000000
# 3 -0.002684 -0.003984 0.013099 0.000000 0.000000 0.000000
# 4 0.000000 0.000000 0.000000 0.017270 0.000000 0.000000
# 5 0.000000 0.000000 0.000000 0.000000 0.035459 0.000000
# 6 0.000000 0.000000 0.000000 0.000000 0.000000 0.026351
#
#
# Mechanical properties :
#
#
# Convention : Reuss Voigt Hill
#
# Bulk Modulus (GPa) = 82.04435 93.43270 87.73852
# Shear Modulus (GPa) = 34.62151 37.98564 36.30357
#
# Velocity S-wave (km/s) = 4.22806 4.42872 4.32955
# Velocity P-wave (km/s) = 8.13623 8.62523 8.38429
#
# Compressibility (1/GPa) = 0.01218853
#
# Stress axis : x y z
#
# Youngs Moduli (GPa) = 71.67365 103.29900 76.33943
#
# Poissons Ratio (x) = 0.57884 0.20489
# Poissons Ratio (y) = 0.40163 0.30416
# Poissons Ratio (z) = 0.19236 0.41158
#
# Static dielectric constant tensor:
#      x y z
#    x 3.719950 0.000000 0.000000 
#    y 0.000000 4.408390 0.000000 
#    z 0.000000 0.000000 3.289390 
# 
# 
# High freq. dielectric constant tensor:
#      x y z
#    x 1.776400 0.000000 0.000000 
#    y 0.000000 1.786140 0.000000 
#    z 0.000000 0.000000 1.726980 
# 
# From -- ./inp_files/6447.got.cif
#   From: 2010.03.12/outbox.cif.g09.slc.cpg/sg53_4_cif.got.tgz:6447.got - 2010.04.16 14:36:59.
