data_PCOD8217394
_publ_section_title
;
Structure prediction by ZEFSAII (Michael W. Deem and Ramdas Pophale) SiO2 
 PCOD8217394
Probable space group: P N N A
;
_chemical_formula_sum "Si O2"
_cell_formula_units_Z 32
_cell_length_a 4.769979
_cell_length_b 14.424792
_cell_length_c 19.411735
_cell_angle_alpha 90.000000
_cell_angle_beta 90.000000
_cell_angle_gamma 90.000000
_cell_volume 1335.642963
_symmetry_space_group_name_H-M "P N N A"
_symmetry_group_IT_number 52
_symmetry_cell_setting 'orthorhombic'
loop_
_space_group_symop_operation_xyz
x,y,z
1/2-x,-y,z
x,1/2-y,1/2-z
1/2-x,1/2+y,1/2-z
-x,-y,-z
1/2+x,y,-z
-x,1/2+y,1/2+z
1/2+x,1/2-y,1/2+z
loop_
_atom_site_type_symbol
_atom_site_label
_atom_site_fract_x
_atom_site_fract_y
_atom_site_fract_z
Si Si1 0.484864 0.440068 0.623785
Si Si2 0.404986 0.743625 0.453616
Si Si3 0.818786 0.899108 0.655410
Si Si4 0.308859 0.642293 0.756105
O O1 0.750000 0.500000 0.649413
O O2 0.623624 0.356544 0.581579
O O3 0.287230 0.406379 0.686424
O O4 0.250000 0.500000 0.580269
O O5 0.727499 0.752899 0.476003
O O6 0.287792 0.822075 0.403068
O O7 0.632289 0.875732 0.723545
O O8 0.138088 0.900058 0.680132
O O9 0.750000 0.000000 0.624003
O O10 0.244063 0.750000 0.750000
#
# Coordination Sequence:
#
# PCOD8217394 Si02
#       4
#     8   8   8   8
#     4  12  26  45  73 107 143 183 233 294 359 425
#     4  12  28  48  71 101 143 193 245 287 341 415
#     4  12  26  46  72 106 140 182 233 293 357 421
#     4  12  24  44  74 106 143 179 223 294 368 425
#
# _framework density 23.958497999999999
#
# number of rings (size 3 to 8) (size 9 to 14) (size 15 to 20)
#    0.000    0.000    2.500    8.250    3.500    4.000 
#    0.000    0.000    0.000    0.000    0.000    0.000 
#    0.000    0.000    0.000    0.000    0.000    0.000 
#
# Total GULP energy -396810.349968 kJ/mol
# GULP energy per Si atom -12400.323437 kJ/mol
# Density = 2.390397 g / cm^3
# Si number density = 23.958498 Si / 1000 Ang^3
#
#
#
# Elastic Constant Matrix: (Units=GPa)
#
#
# Indices 1 2 3 4 5 6 
#
# 1 105.3083 43.6392 23.7537 0.0000 0.0000 0.0000
# 2 43.6392 182.8702 35.4612 0.0000 0.0000 0.0000
# 3 23.7537 35.4612 72.7861 0.0000 0.0000 0.0000
# 4 0.0000 0.0000 0.0000 -91.9822 0.0000 0.0000
# 5 0.0000 0.0000 0.0000 0.0000 47.3782 0.0000
# 6 0.0000 0.0000 0.0000 0.0000 0.0000 36.1978
#
#
#
# Elastic Compliance Matrix: (Units=1/GPa)
#
#
# Indices 1 2 3 4 5 6 
#
# 1 0.010947 -0.002120 -0.002540 0.000000 0.000000 0.000000
# 2 -0.002120 0.006449 -0.002450 0.000000 0.000000 0.000000
# 3 -0.002540 -0.002450 0.015762 0.000000 0.000000 0.000000
# 4 0.000000 0.000000 0.000000 -0.010872 0.000000 0.000000
# 5 0.000000 0.000000 0.000000 0.000000 0.021107 0.000000
# 6 0.000000 0.000000 0.000000 0.000000 0.000000 0.027626
#
#
# Mechanical properties :
#
#
# Convention : Reuss Voigt Hill
#
# Bulk Modulus (GPa) = 52.80341 62.96362 57.88352
# Shear Modulus (GPa) = 54.61373 15.52612 35.06992
#
# Velocity S-wave (km/s) = 4.77960 2.54843 3.83009
# Velocity P-wave (km/s) = 7.24892 5.91580 6.61602
#
# Compressibility (1/GPa) = 0.01893817
#
# Stress axis : x y z
#
# Youngs Moduli (GPa) = 91.34676 155.05341 63.44561
#
# Poissons Ratio (x) = 0.32870 0.16114
# Poissons Ratio (y) = 0.19365 0.15546
# Poissons Ratio (z) = 0.23201 0.37993
#
# Static dielectric constant tensor:
#      x y z
#    x 4.368460 0.000000 0.000000 
#    y 0.000000 4.669060 0.000000 
#    z 0.000000 0.000000 3.942950 
# 
# 
# High freq. dielectric constant tensor:
#      x y z
#    x 1.973670 0.000000 0.000000 
#    y 0.000000 1.974160 0.000000 
#    z 0.000000 0.000000 1.922540 
# 
# From -- ./inp_files/30023.got.cif
#   From: 2010.06.25/outbox.cif.g09.slc.cpg/sg52_16_cif.got.tgz:30023.got - 2010.06.26 19:32:48.
