data_PCOD8217872
_publ_section_title
;
Structure prediction by ZEFSAII (Michael W. Deem and Ramdas Pophale) SiO2 
 PCOD8217872
Probable space group: P M N A
;
_chemical_formula_sum "Si O2"
_cell_formula_units_Z 48
_cell_length_a 16.347755
_cell_length_b 9.057302
_cell_length_c 18.146442
_cell_angle_alpha 90.000000
_cell_angle_beta 90.000000
_cell_angle_gamma 90.000000
_cell_volume 2686.881135
_symmetry_space_group_name_H-M "P M N A"
_symmetry_group_IT_number 53
_symmetry_cell_setting 'orthorhombic'
loop_
_space_group_symop_operation_xyz
x,y,z
1/2-x,-y,1/2+z
x,-y,-z
1/2-x,y,1/2-z
-x,-y,-z
1/2+x,y,1/2-z
-x,y,z
1/2+x,-y,1/2+z
loop_
_atom_site_type_symbol
_atom_site_label
_atom_site_fract_x
_atom_site_fract_y
_atom_site_fract_z
Si Si1 0.646509 0.704774 0.653147
Si Si2 0.591270 0.670357 0.497773
Si Si3 0.092463 0.693500 0.686894
Si Si4 0.790240 0.122980 0.397662
Si Si5 0.248706 0.795078 0.443232
Si Si6 0.230145 0.453226 0.669339
O O1 0.590209 0.729502 0.581747
O O2 0.592454 0.724413 0.725805
O O3 0.718004 0.826472 0.656674
O O4 0.689317 0.544541 0.647051
O O5 0.619108 0.500000 0.500000
O O6 0.500000 0.687587 0.464438
O O7 0.652979 0.768924 0.448309
O O8 0.124075 0.838031 0.642078
O O9 0.149852 0.554833 0.669228
O O10 0.000000 0.659754 0.661861
O O11 0.786737 0.216585 0.474051
O O12 0.777476 0.950829 0.410075
O O13 0.210440 0.673062 0.389781
O O14 0.250000 0.384842 0.750000
#
# Coordination Sequence:
#
# PCOD8217872 Si02
#       6
#     8   8   8   8   8   8
#     4   9  17  33  53  78 104 140 172 206 255 328
#     4  10  18  29  53  85 111 136 164 210 267 314
#     4  10  20  35  53  77 103 135 180 228 262 300
#     4   9  20  34  55  74 103 143 180 207 260 320
#     4  10  19  36  52  77 106 140 176 216 252 321
#     4   9  18  32  53  74 100 136 175 213 264 317
#
# _framework density 17.864578000000002
#
# number of rings (size 3 to 8) (size 9 to 14) (size 15 to 20)
#    0.000    2.500    1.667    2.000    0.000    1.333 
#    0.000   11.667    0.000    0.000    0.000    0.000 
#    0.000    0.000    0.000    0.000    0.000    0.000 
#
# Total GULP energy -594957.030628 kJ/mol
# GULP energy per Si atom -12394.938138 kJ/mol
# Density = 1.782392 g / cm^3
# Si number density = 17.864578 Si / 1000 Ang^3
#
#
#
# Elastic Constant Matrix: (Units=GPa)
#
#
# Indices 1 2 3 4 5 6 
#
# 1 99.2022 38.8904 36.5715 0.0000 0.0000 0.0000
# 2 38.8904 82.0841 48.6003 0.0000 0.0000 0.0000
# 3 36.5715 48.6003 71.5864 0.0000 0.0000 0.0000
# 4 0.0000 0.0000 0.0000 26.0947 0.0000 0.0000
# 5 0.0000 0.0000 0.0000 0.0000 20.6506 0.0000
# 6 0.0000 0.0000 0.0000 0.0000 0.0000 14.7404
#
#
#
# Elastic Compliance Matrix: (Units=1/GPa)
#
#
# Indices 1 2 3 4 5 6 
#
# 1 0.013073 -0.003745 -0.004136 0.000000 0.000000 0.000000
# 2 -0.003745 0.021444 -0.012645 0.000000 0.000000 0.000000
# 3 -0.004136 -0.012645 0.024667 0.000000 0.000000 0.000000
# 4 0.000000 0.000000 0.000000 0.038322 0.000000 0.000000
# 5 0.000000 0.000000 0.000000 0.000000 0.048425 0.000000
# 6 0.000000 0.000000 0.000000 0.000000 0.000000 0.067841
#
#
# Mechanical properties :
#
#
# Convention : Reuss Voigt Hill
#
# Bulk Modulus (GPa) = 55.15272 55.66637 55.40955
# Shear Modulus (GPa) = 19.16672 20.88450 20.02561
#
# Velocity S-wave (km/s) = 3.27905 3.42284 3.35172
# Velocity P-wave (km/s) = 6.72874 6.84463 6.78693
#
# Compressibility (1/GPa) = 0.01813147
#
# Stress axis : x y z
#
# Youngs Moduli (GPa) = 76.49074 46.63336 40.53971
#
# Poissons Ratio (x) = 0.17464 0.16769
# Poissons Ratio (y) = 0.28646 0.51263
# Poissons Ratio (z) = 0.31640 0.58969
#
# Static dielectric constant tensor:
#      x y z
#    x 3.100290 0.000000 0.000000 
#    y 0.000000 3.113650 0.000000 
#    z 0.000000 0.000000 3.465850 
# 
# 
# High freq. dielectric constant tensor:
#      x y z
#    x 1.672170 0.000000 0.000000 
#    y 0.000000 1.670080 0.000000 
#    z 0.000000 0.000000 1.699180 
# 
# From -- ./inp_files/28876.got.cif
#   From: 2010.03.12/outbox.cif.g09.slc.cpg/sg53_15_cif.got.tgz:28876.got - 2010.04.16 14:36:59.
