data_PCOD8217073
_publ_section_title
;
Structure prediction by ZEFSAII (Michael W. Deem and Ramdas Pophale) SiO2 
 PCOD8217073
Probable space group: P N N A
;
_chemical_formula_sum "Si O2"
_cell_formula_units_Z 40
_cell_length_a 23.198585
_cell_length_b 9.741807
_cell_length_c 8.654261
_cell_angle_alpha 90.000000
_cell_angle_beta 90.000000
_cell_angle_gamma 90.000000
_cell_volume 1955.829561
_symmetry_space_group_name_H-M "P N N A"
_symmetry_group_IT_number 52
_symmetry_cell_setting 'orthorhombic'
loop_
_space_group_symop_operation_xyz
x,y,z
1/2-x,-y,z
x,1/2-y,1/2-z
1/2-x,1/2+y,1/2-z
-x,-y,-z
1/2+x,y,-z
-x,1/2+y,1/2+z
1/2+x,1/2-y,1/2+z
loop_
_atom_site_type_symbol
_atom_site_label
_atom_site_fract_x
_atom_site_fract_y
_atom_site_fract_z
Si Si1 0.632482 0.235887 0.930033
Si Si2 0.436393 0.025991 0.069034
Si Si3 0.938122 0.988947 0.567471
Si Si4 0.131399 0.775534 0.569647
Si Si5 0.751647 0.166911 0.591090
O O1 0.645507 0.250000 0.750000
O O2 0.579626 0.334076 0.968933
O O3 0.693888 0.283366 0.001407
O O4 0.610784 0.087104 0.985212
O O5 0.439340 0.026955 0.253161
O O6 0.410488 0.168998 0.015497
O O7 0.500000 0.000000 0.000000
O O8 0.893421 0.077140 0.470885
O O9 0.000000 0.000000 0.500000
O O10 0.128704 0.750000 0.750000
O O11 0.197042 0.777774 0.515283
O O12 0.759729 0.250000 0.750000
O O13 0.750000 0.000000 0.616728
#
# Coordination Sequence:
#
# PCOD8217073 Si02
#       5
#     8   8   8   8   8
#     4   9  21  39  64  93 125 161 213 273 332 395
#     4  11  23  42  66  99 130 171 220 272 337 401
#     4  11  21  40  68  95 129 172 215 275 334 397
#     4  12  26  43  62  95 137 178 220 270 325 395
#     4  11  23  44  72  98 125 169 225 275 337 403
#
# _framework density 20.451678999999999
#
# number of rings (size 3 to 8) (size 9 to 14) (size 15 to 20)
#    0.000    1.200    2.000    4.200    5.600    1.600 
#    3.600    3.000    0.000    0.000    0.000    0.000 
#    0.000    0.000    0.000    0.000    0.000    0.000 
#
# Total GULP energy -495768.125689 kJ/mol
# GULP energy per Si atom -12394.203142 kJ/mol
# Density = 2.040513 g / cm^3
# Si number density = 20.451679 Si / 1000 Ang^3
#
#
#
# Elastic Constant Matrix: (Units=GPa)
#
#
# Indices 1 2 3 4 5 6 
#
# 1 159.7978 22.8954 33.6883 0.0000 0.0000 0.0000
# 2 22.8954 76.3776 23.6425 0.0000 0.0000 0.0000
# 3 33.6883 23.6425 95.0050 0.0000 0.0000 0.0000
# 4 0.0000 0.0000 0.0000 23.0807 0.0000 0.0000
# 5 0.0000 0.0000 0.0000 0.0000 108.7815 0.0000
# 6 0.0000 0.0000 0.0000 0.0000 0.0000 -215.1729
#
#
#
# Elastic Compliance Matrix: (Units=1/GPa)
#
#
# Indices 1 2 3 4 5 6 
#
# 1 0.006903 -0.001421 -0.002094 0.000000 0.000000 0.000000
# 2 -0.001421 0.014478 -0.003099 0.000000 0.000000 0.000000
# 3 -0.002094 -0.003099 0.012040 0.000000 0.000000 0.000000
# 4 0.000000 0.000000 0.000000 0.043326 0.000000 0.000000
# 5 0.000000 0.000000 0.000000 0.000000 0.009193 0.000000
# 6 0.000000 0.000000 0.000000 0.000000 0.000000 -0.004647
#
#
# Mechanical properties :
#
#
# Convention : Reuss Voigt Hill
#
# Bulk Modulus (GPa) = 49.52412 54.62588 52.07500
# Shear Modulus (GPa) = 49.38197 0.06814 24.72505
#
# Velocity S-wave (km/s) = 4.91916 0.18272 3.48077
# Velocity P-wave (km/s) = 7.51877 5.17805 6.45539
#
# Compressibility (1/GPa) = 0.02019218
#
# Stress axis : x y z
#
# Youngs Moduli (GPa) = 144.86470 69.06968 83.05956
#
# Poissons Ratio (x) = 0.09815 0.17394
# Poissons Ratio (y) = 0.20586 0.25741
# Poissons Ratio (z) = 0.30337 0.21405
#
# Static dielectric constant tensor:
#      x y z
#    x 4.061210 0.000000 0.000000 
#    y 0.000000 3.890030 0.000000 
#    z 0.000000 0.000000 3.811880 
# 
# 
# High freq. dielectric constant tensor:
#      x y z
#    x 1.828800 0.000000 0.000000 
#    y 0.000000 1.815290 0.000000 
#    z 0.000000 0.000000 1.776240 
# 
# From -- ./inp_files/13946.got.cif
#   From: 2010.06.25/outbox.cif.g09.slc.cpg/sg52_7_cif.got.tgz:13946.got - 2010.06.26 19:32:48.
