data_PCOD8217471
_publ_section_title
;
Structure prediction by ZEFSAII (Michael W. Deem and Ramdas Pophale) SiO2 
 PCOD8217471
Probable space group: P M N A
;
_chemical_formula_sum "Si O2"
_cell_formula_units_Z 48
_cell_length_a 9.168363
_cell_length_b 15.214819
_cell_length_c 21.389641
_cell_angle_alpha 90.000000
_cell_angle_beta 90.000000
_cell_angle_gamma 90.000000
_cell_volume 2983.747620
_symmetry_space_group_name_H-M "P M N A"
_symmetry_group_IT_number 53
_symmetry_cell_setting 'orthorhombic'
loop_
_space_group_symop_operation_xyz
x,y,z
1/2-x,-y,1/2+z
x,-y,-z
1/2-x,y,1/2-z
-x,-y,-z
1/2+x,y,1/2-z
-x,y,z
1/2+x,-y,1/2+z
loop_
_atom_site_type_symbol
_atom_site_label
_atom_site_fract_x
_atom_site_fract_y
_atom_site_fract_z
Si Si1 0.671628 0.813307 0.815395
Si Si2 0.830305 0.339568 0.410195
Si Si3 0.329462 0.881078 0.458671
Si Si4 0.338622 0.528182 0.071945
Si Si5 0.829102 0.311624 0.961604
Si Si6 0.826877 0.939239 0.906970
O O1 0.750000 0.801500 0.750000
O O2 0.500000 0.828054 0.806157
O O3 0.705963 0.724407 0.853322
O O4 0.738846 0.897577 0.849886
O O5 0.792248 0.440551 0.389464
O O6 0.734147 0.312513 0.468990
O O7 0.000000 0.334582 0.430233
O O8 0.500000 0.892259 0.467562
O O9 0.288919 0.784203 0.432589
O O10 0.268329 0.894543 0.528958
O O11 0.279920 0.957402 0.410719
O O12 0.500000 0.558928 0.091365
O O13 0.233840 0.611691 0.083150
O O14 0.332852 0.500000 0.000000
O O15 0.000000 0.326226 0.966456
O O16 0.000000 0.926684 0.895947
#
# Coordination Sequence:
#
# PCOD8217471 Si02
#       6
#     8   8   8   8   8   8
#     4  11  22  34  48  67  89 119 157 195 231 270
#     4   9  18  31  43  58  87 122 152 181 220 269
#     4   8  15  26  45  68  93 122 149 180 229 277
#     4   8  15  27  40  57  86 121 147 173 215 262
#     4  10  16  24  42  69  93 116 147 181 217 264
#     4   9  16  31  48  64  89 123 154 185 227 274
#
# _framework density 16.087152
#
# number of rings (size 3 to 8) (size 9 to 14) (size 15 to 20)
#    0.000    2.833    1.667    3.000    0.000    3.667 
#    0.000    3.333    0.000    0.000    0.000    1.167 
#    0.000    5.333    0.000    0.000    0.000    0.000 
#
# Total GULP energy -594764.334432 kJ/mol
# GULP energy per Si atom -12390.923634 kJ/mol
# Density = 1.605054 g / cm^3
# Si number density = 16.087152 Si / 1000 Ang^3
#
#
#
# Elastic Constant Matrix: (Units=GPa)
#
#
# Indices 1 2 3 4 5 6 
#
# 1 74.8270 62.6409 32.1278 0.0000 0.0000 0.0000
# 2 62.6409 160.5755 47.3293 0.0000 0.0000 0.0000
# 3 32.1278 47.3293 55.0000 0.0000 0.0000 0.0000
# 4 0.0000 0.0000 0.0000 17.7714 0.0000 0.0000
# 5 0.0000 0.0000 0.0000 0.0000 12.1730 0.0000
# 6 0.0000 0.0000 0.0000 0.0000 0.0000 18.6420
#
#
#
# Elastic Compliance Matrix: (Units=1/GPa)
#
#
# Indices 1 2 3 4 5 6 
#
# 1 0.021814 -0.006369 -0.007261 0.000000 0.000000 0.000000
# 2 -0.006369 0.010204 -0.005060 0.000000 0.000000 0.000000
# 3 -0.007261 -0.005060 0.026778 0.000000 0.000000 0.000000
# 4 0.000000 0.000000 0.000000 0.056270 0.000000 0.000000
# 5 0.000000 0.000000 0.000000 0.000000 0.082149 0.000000
# 6 0.000000 0.000000 0.000000 0.000000 0.000000 0.053642
#
#
# Mechanical properties :
#
#
# Convention : Reuss Voigt Hill
#
# Bulk Modulus (GPa) = 46.69857 63.84428 55.27143
# Shear Modulus (GPa) = 16.92752 19.60424 18.26588
#
# Velocity S-wave (km/s) = 3.24734 3.49467 3.37327
# Velocity P-wave (km/s) = 6.56900 7.48708 7.04301
#
# Compressibility (1/GPa) = 0.02141393
#
# Stress axis : x y z
#
# Youngs Moduli (GPa) = 45.84208 98.00310 37.34428
#
# Poissons Ratio (x) = 0.62422 0.27117
# Poissons Ratio (y) = 0.29199 0.18896
# Poissons Ratio (z) = 0.33288 0.49590
#
# Static dielectric constant tensor:
#      x y z
#    x 2.972960 0.000000 0.000000 
#    y 0.000000 3.681700 0.000000 
#    z 0.000000 0.000000 2.603510 
# 
# 
# High freq. dielectric constant tensor:
#      x y z
#    x 1.611280 0.000000 0.000000 
#    y 0.000000 1.640660 0.000000 
#    z 0.000000 0.000000 1.555130 
# 
# From -- ./inp_files/30950.got.cif
#   From: 2010.03.12/outbox.cif.g09.slc.cpg/sg53_16_cif.got.tgz:30950.got - 2010.04.16 14:36:59.
