data_PCOD8217401
_publ_section_title
;
Structure prediction by ZEFSAII (Michael W. Deem and Ramdas Pophale) SiO2 
 PCOD8217401
Probable space group: P N N A
;
_chemical_formula_sum "Si O2"
_cell_formula_units_Z 32
_cell_length_a 10.328622
_cell_length_b 26.576520
_cell_length_c 4.896913
_cell_angle_alpha 90.000000
_cell_angle_beta 90.000000
_cell_angle_gamma 90.000000
_cell_volume 1344.196885
_symmetry_space_group_name_H-M "P N N A"
_symmetry_group_IT_number 52
_symmetry_cell_setting 'orthorhombic'
loop_
_space_group_symop_operation_xyz
x,y,z
1/2-x,-y,z
x,1/2-y,1/2-z
1/2-x,1/2+y,1/2-z
-x,-y,-z
1/2+x,y,-z
-x,1/2+y,1/2+z
1/2+x,1/2-y,1/2+z
loop_
_atom_site_type_symbol
_atom_site_label
_atom_site_fract_x
_atom_site_fract_y
_atom_site_fract_z
Si Si1 0.500000 0.215713 0.500000
Si Si2 0.114723 0.500000 0.208370
Si Si3 0.750000 0.849066 0.471789
Si Si4 0.750000 0.416654 0.528739
O O1 0.546004 0.250000 0.750000
O O2 0.621627 0.182458 0.405711
O O3 0.378373 0.182458 0.594289
O O4 0.453996 0.250000 0.250000
O O5 0.250000 0.500000 0.032515
O O6 0.120663 0.450468 0.405639
O O7 0.879337 0.450468 0.594361
O O8 0.000000 0.500000 0.000000
O O9 0.750000 0.899081 0.283853
O O10 0.750000 0.866605 0.785209
#
# Coordination Sequence:
#
# PCOD8217401 Si02
#       4
#     8   8   8   8
#     4  12  26  46  72 101 140 185 238 300 370 420
#     4   8  20  42  70 100 151 184 228 280 348 412
#     4  12  24  46  72 103 139 184 240 290 351 433
#     4   9  24  41  72 103 143 184 232 286 349 409
#
# _framework density 23.806035999999999
#
# number of rings (size 3 to 8) (size 9 to 14) (size 15 to 20)
#    1.500    0.000    0.000    4.500    3.500    4.000 
#    0.000    2.500    0.000    0.000    0.000    0.000 
#    0.000    0.000    0.000    0.000    0.000    0.000 
#
# Total GULP energy -396601.107737 kJ/mol
# GULP energy per Si atom -12393.784617 kJ/mol
# Density = 2.375185 g / cm^3
# Si number density = 23.806036 Si / 1000 Ang^3
#
#
#
# Elastic Constant Matrix: (Units=GPa)
#
#
# Indices 1 2 3 4 5 6 
#
# 1 163.2974 47.3137 34.6470 0.0000 0.0000 0.0000
# 2 47.3137 121.8647 32.6235 0.0000 0.0000 0.0000
# 3 34.6470 32.6235 97.8468 0.0000 0.0000 0.0000
# 4 0.0000 0.0000 0.0000 113.7481 0.0000 0.0000
# 5 0.0000 0.0000 0.0000 0.0000 24.5400 0.0000
# 6 0.0000 0.0000 0.0000 0.0000 0.0000 -2.8347
#
#
#
# Elastic Compliance Matrix: (Units=1/GPa)
#
#
# Indices 1 2 3 4 5 6 
#
# 1 0.007168 -0.002310 -0.001768 0.000000 0.000000 0.000000
# 2 -0.002310 0.009754 -0.002434 0.000000 0.000000 0.000000
# 3 -0.001768 -0.002434 0.011658 0.000000 0.000000 0.000000
# 4 0.000000 0.000000 0.000000 0.008791 0.000000 0.000000
# 5 0.000000 0.000000 0.000000 0.000000 0.040750 0.000000
# 6 0.000000 0.000000 0.000000 0.000000 0.000000 -0.352774
#
#
# Mechanical properties :
#
#
# Convention : Reuss Voigt Hill
#
# Bulk Modulus (GPa) = 64.28449 68.01970 66.15210
# Shear Modulus (GPa) = -19.49750 44.98566 12.74408
#
# Velocity S-wave (km/s) = -2.86495 4.35175 2.31623
# Velocity P-wave (km/s) = 4.01474 7.34063 5.91621
#
# Compressibility (1/GPa) = 0.01555585
#
# Stress axis : x y z
#
# Youngs Moduli (GPa) = 139.50606 102.51950 85.77956
#
# Poissons Ratio (x) = 0.23679 0.15167
# Poissons Ratio (y) = 0.32222 0.20882
# Poissons Ratio (z) = 0.24666 0.24957
#
# Static dielectric constant tensor:
#      x y z
#    x 4.035600 0.000000 0.000000 
#    y 0.000000 4.371190 0.000000 
#    z 0.000000 0.000000 3.997090 
# 
# 
# High freq. dielectric constant tensor:
#      x y z
#    x 1.937460 0.000000 0.000000 
#    y 0.000000 1.955430 0.000000 
#    z 0.000000 0.000000 1.940570 
# 
# From -- ./inp_files/409.got.cif
#   From: 2010.06.25/outbox.cif.g09.slc.cpg/sg52_1_cif.got.tgz:409.got - 2010.06.26 19:32:48.
