data_PCOD8217004
_publ_section_title
;
Structure prediction by ZEFSAII (Michael W. Deem and Ramdas Pophale) SiO2 
 PCOD8217004
Probable space group: P N N A
;
_chemical_formula_sum "Si O2"
_cell_formula_units_Z 40
_cell_length_a 9.936118
_cell_length_b 11.800015
_cell_length_c 17.985268
_cell_angle_alpha 90.000000
_cell_angle_beta 90.000000
_cell_angle_gamma 90.000000
_cell_volume 2108.706873
_symmetry_space_group_name_H-M "P N N A"
_symmetry_group_IT_number 52
_symmetry_cell_setting 'orthorhombic'
loop_
_space_group_symop_operation_xyz
x,y,z
1/2-x,-y,z
x,1/2-y,1/2-z
1/2-x,1/2+y,1/2-z
-x,-y,-z
1/2+x,y,-z
-x,1/2+y,1/2+z
1/2+x,1/2-y,1/2+z
loop_
_atom_site_type_symbol
_atom_site_label
_atom_site_fract_x
_atom_site_fract_y
_atom_site_fract_z
Si Si1 0.775528 0.312737 0.144185
Si Si2 0.355775 0.085514 0.797763
Si Si3 0.109889 0.936293 0.221974
Si Si4 0.458873 0.213555 0.359755
Si Si5 0.369547 0.423741 0.006948
O O1 0.863056 0.198492 0.152538
O O2 0.797727 0.389920 0.215859
O O3 0.619548 0.279755 0.138091
O O4 0.826490 0.380157 0.073418
O O5 0.250000 0.000000 0.835994
O O6 0.502690 0.033313 0.794973
O O7 0.087283 0.884024 0.303144
O O8 0.100717 0.835721 0.161673
O O9 0.250000 0.000000 0.216707
O O10 0.398630 0.182692 0.439962
O O11 0.250000 0.500000 0.040847
O O12 0.500000 0.500000 0.000000
#
# Coordination Sequence:
#
# PCOD8217004 Si02
#       5
#     8   8   8   8   8
#     4  11  22  38  64  94 116 159 213 238 296 370
#     4  11  19  38  68  87 114 159 204 248 290 357
#     4  11  23  39  64  93 123 154 199 255 309 347
#     4  11  22  41  62  89 125 160 197 252 303 359
#     4  12  24  39  62  89 124 157 199 250 302 356
#
# _framework density 18.968972000000001
#
# number of rings (size 3 to 8) (size 9 to 14) (size 15 to 20)
#    0.000    0.800    6.000    3.600    0.000    4.800 
#    0.000    2.000    0.000    0.000    0.000    0.000 
#    0.000    0.000    0.000    0.000    0.000    0.000 
#
# Total GULP energy -496137.407643 kJ/mol
# GULP energy per Si atom -12403.435191 kJ/mol
# Density = 1.892580 g / cm^3
# Si number density = 18.968972 Si / 1000 Ang^3
#
#
#
# Elastic Constant Matrix: (Units=GPa)
#
#
# Indices 1 2 3 4 5 6 
#
# 1 150.1282 58.2685 18.7391 0.0000 0.0000 0.0000
# 2 58.2685 115.0771 25.7608 0.0000 0.0000 0.0000
# 3 18.7391 25.7608 71.3531 0.0000 0.0000 0.0000
# 4 0.0000 0.0000 0.0000 151.9278 0.0000 0.0000
# 5 0.0000 0.0000 0.0000 0.0000 17.7623 0.0000
# 6 0.0000 0.0000 0.0000 0.0000 0.0000 43.4337
#
#
#
# Elastic Compliance Matrix: (Units=1/GPa)
#
#
# Indices 1 2 3 4 5 6 
#
# 1 0.008324 -0.004053 -0.000723 0.000000 0.000000 0.000000
# 2 -0.004053 0.011427 -0.003061 0.000000 0.000000 0.000000
# 3 -0.000723 -0.003061 0.015310 0.000000 0.000000 0.000000
# 4 0.000000 0.000000 0.000000 0.006582 0.000000 0.000000
# 5 0.000000 0.000000 0.000000 0.000000 0.056299 0.000000
# 6 0.000000 0.000000 0.000000 0.000000 0.000000 0.023024
#
#
# Mechanical properties :
#
#
# Convention : Reuss Voigt Hill
#
# Bulk Modulus (GPa) = 51.58058 60.23280 55.90669
# Shear Modulus (GPa) = 34.93988 58.21076 46.57532
#
# Velocity S-wave (km/s) = 4.29645 5.54563 4.96052
# Velocity P-wave (km/s) = 7.20165 8.53391 7.89593
#
# Compressibility (1/GPa) = 0.01938714
#
# Stress axis : x y z
#
# Youngs Moduli (GPa) = 120.12973 87.50909 65.31748
#
# Poissons Ratio (x) = 0.35469 0.04722
# Poissons Ratio (y) = 0.48690 0.19995
# Poissons Ratio (z) = 0.08684 0.26788
#
# Static dielectric constant tensor:
#      x y z
#    x 3.560460 0.000000 0.000000 
#    y 0.000000 3.532090 0.000000 
#    z 0.000000 0.000000 3.124130 
# 
# 
# High freq. dielectric constant tensor:
#      x y z
#    x 1.747290 0.000000 0.000000 
#    y 0.000000 1.754750 0.000000 
#    z 0.000000 0.000000 1.719310 
# 
# From -- ./inp_files/30845.got.cif
#   From: 2010.06.25/outbox.cif.g09.slc.cpg/sg52_16_cif.got.tgz:30845.got - 2010.06.26 19:32:48.
