data_PCOD8217141
_publ_section_title
;
Structure prediction by ZEFSAII (Michael W. Deem and Ramdas Pophale) SiO2 
 PCOD8217141
Probable space group: P N N A
;
_chemical_formula_sum "Si O2"
_cell_formula_units_Z 64
_cell_length_a 9.343745
_cell_length_b 24.672024
_cell_length_c 13.385899
_cell_angle_alpha 90.000000
_cell_angle_beta 90.000000
_cell_angle_gamma 90.000000
_cell_volume 3085.839261
_symmetry_space_group_name_H-M "P N N A"
_symmetry_group_IT_number 52
_symmetry_cell_setting 'orthorhombic'
loop_
_space_group_symop_operation_xyz
x,y,z
1/2-x,-y,z
x,1/2-y,1/2-z
1/2-x,1/2+y,1/2-z
-x,-y,-z
1/2+x,y,-z
-x,1/2+y,1/2+z
1/2+x,1/2-y,1/2+z
loop_
_atom_site_type_symbol
_atom_site_label
_atom_site_fract_x
_atom_site_fract_y
_atom_site_fract_z
Si Si1 0.962317 0.445478 0.369196
Si Si2 0.784700 0.879408 0.808009
Si Si3 0.820171 0.160199 0.596700
Si Si4 0.968257 0.064785 0.897424
Si Si5 0.353581 0.763347 0.136875
Si Si6 0.784834 0.624474 0.310822
Si Si7 0.168926 0.764144 0.864649
Si Si8 0.839232 0.662304 0.091445
O O1 0.995790 0.435589 0.485208
O O2 0.801232 0.430033 0.339207
O O3 0.058714 0.405942 0.300401
O O4 0.988761 0.508274 0.345157
O O5 0.722781 0.871214 0.697040
O O6 0.695922 0.922906 0.872200
O O7 0.790502 0.823762 0.871077
O O8 0.765979 0.222393 0.596877
O O9 0.738552 0.132189 0.502290
O O10 0.990200 0.158859 0.581846
O O11 0.054179 0.114157 0.846770
O O12 0.387403 0.750000 0.250000
O O13 0.510830 0.757717 0.084147
O O14 0.721874 0.674153 0.375250
O O15 0.783011 0.634821 0.192452
O O16 0.160171 0.750000 0.750000
O O17 0.286676 0.724988 0.914665
#
# Coordination Sequence:
#
# PCOD8217141 Si02
#       8
#     8   8   8   8   8   8   8   8
#     4  11  24  42  66  91 125 163 202 266 318 377
#     4  11  22  41  66  92 128 166 207 255 312 373
#     4  11  24  39  63  94 129 168 210 254 305 373
#     4  11  24  42  64  97 121 157 214 258 320 371
#     4   9  19  36  59  89 125 163 203 245 299 361
#     4  11  22  41  66  92 128 166 207 255 312 373
#     4   9  19  36  59  89 125 163 203 245 299 361
#     4  11  24  39  63  94 129 168 210 254 305 373
#
# _framework density 20.739902000000001
#
# number of rings (size 3 to 8) (size 9 to 14) (size 15 to 20)
#    0.000    1.500    2.500    2.250    5.250    5.500 
#    0.000    0.000    0.000    4.500    0.000    0.000 
#    0.000    0.000    0.000    0.000    0.000    0.000 
#
# Total GULP energy -793489.799079 kJ/mol
# GULP energy per Si atom -12398.278111 kJ/mol
# Density = 2.069270 g / cm^3
# Si number density = 20.739902 Si / 1000 Ang^3
#
#
#
# Elastic Constant Matrix: (Units=GPa)
#
#
# Indices 1 2 3 4 5 6 
#
# 1 104.8833 19.7298 36.7294 0.0000 0.0000 0.0000
# 2 19.7298 79.7953 25.4702 0.0000 0.0000 0.0000
# 3 36.7294 25.4702 79.4277 0.0000 0.0000 0.0000
# 4 0.0000 0.0000 0.0000 20.6446 0.0000 0.0000
# 5 0.0000 0.0000 0.0000 0.0000 36.1167 0.0000
# 6 0.0000 0.0000 0.0000 0.0000 0.0000 125.4628
#
#
#
# Elastic Compliance Matrix: (Units=1/GPa)
#
#
# Indices 1 2 3 4 5 6 
#
# 1 0.011492 -0.001276 -0.004905 0.000000 0.000000 0.000000
# 2 -0.001276 0.014103 -0.003932 0.000000 0.000000 0.000000
# 3 -0.004905 -0.003932 0.016119 0.000000 0.000000 0.000000
# 4 0.000000 0.000000 0.000000 0.048439 0.000000 0.000000
# 5 0.000000 0.000000 0.000000 0.000000 0.027688 0.000000
# 6 0.000000 0.000000 0.000000 0.000000 0.000000 0.007970
#
#
# Mechanical properties :
#
#
# Convention : Reuss Voigt Hill
#
# Bulk Modulus (GPa) = 46.53860 47.55168 47.04514
# Shear Modulus (GPa) = 32.63693 48.58995 40.61344
#
# Velocity S-wave (km/s) = 3.97120 4.84552 4.42999
# Velocity P-wave (km/s) = 6.59660 7.36769 6.99278
#
# Compressibility (1/GPa) = 0.02148754
#
# Stress axis : x y z
#
# Youngs Moduli (GPa) = 87.01597 70.90841 62.03728
#
# Poissons Ratio (x) = 0.09046 0.30430
# Poissons Ratio (y) = 0.11101 0.24395
# Poissons Ratio (z) = 0.42683 0.27884
#
# Static dielectric constant tensor:
#      x y z
#    x 3.828520 0.000000 0.000000 
#    y 0.000000 3.634840 0.000000 
#    z 0.000000 0.000000 4.002120 
# 
# 
# High freq. dielectric constant tensor:
#      x y z
#    x 1.830590 0.000000 0.000000 
#    y 0.000000 1.790310 0.000000 
#    z 0.000000 0.000000 1.808040 
# 
# From -- ./inp_files/25148.got.cif
#   From: 2010.06.25/outbox.cif.g09.slc.cpg/sg52_13_cif.got.tgz:25148.got - 2010.06.26 19:32:48.
