data_PCOD8217846
_publ_section_title
;
Structure prediction by ZEFSAII (Michael W. Deem and Ramdas Pophale) SiO2 
 PCOD8217846
Probable space group: P M N A
;
_chemical_formula_sum "Si O2"
_cell_formula_units_Z 48
_cell_length_a 9.079861
_cell_length_b 10.093550
_cell_length_c 29.609098
_cell_angle_alpha 90.000000
_cell_angle_beta 90.000000
_cell_angle_gamma 90.000000
_cell_volume 2713.615531
_symmetry_space_group_name_H-M "P M N A"
_symmetry_group_IT_number 53
_symmetry_cell_setting 'orthorhombic'
loop_
_space_group_symop_operation_xyz
x,y,z
1/2-x,-y,1/2+z
x,-y,-z
1/2-x,y,1/2-z
-x,-y,-z
1/2+x,y,1/2-z
-x,y,z
1/2+x,-y,1/2+z
loop_
_atom_site_type_symbol
_atom_site_label
_atom_site_fract_x
_atom_site_fract_y
_atom_site_fract_z
Si Si1 0.333050 0.030919 0.706204
Si Si2 0.173279 0.968273 0.383599
Si Si3 0.334578 0.284757 0.293697
Si Si4 0.331041 0.643536 0.980109
Si Si5 0.327236 0.125693 0.529892
Si Si6 0.330795 0.726583 0.881832
O O1 0.250000 0.088396 0.750000
O O2 0.500000 0.084204 0.705444
O O3 0.246687 0.082992 0.662503
O O4 0.330378 0.872982 0.707438
O O5 0.239695 0.880240 0.423392
O O6 0.000000 0.944560 0.380741
O O7 0.213682 0.121739 0.392299
O O8 0.250000 0.342358 0.250000
O O9 0.500000 0.339538 0.292164
O O10 0.261157 0.334302 0.340306
O O11 0.500000 0.688587 0.988453
O O12 0.298266 0.640746 0.926480
O O13 0.299823 0.500000 0.000000
O O14 0.219905 0.742746 0.004017
O O15 0.500000 0.129450 0.539998
O O16 0.282643 0.000000 0.500000
O O17 0.500000 0.720137 0.866926
#
# Coordination Sequence:
#
# PCOD8217846 Si02
#       6
#     8   8   8   8   8   8
#     4   9  16  26  40  63  97 131 164 202 250 304
#     4  10  18  29  48  71  97 131 170 211 256 301
#     4   9  16  25  40  63  93 127 161 200 245 296
#     4  10  21  37  55  75 101 136 175 214 258 309
#     4  11  22  34  51  75 103 134 171 213 256 303
#     4   9  17  29  46  69  97 129 164 205 250 298
#
# _framework density 17.688578
#
# number of rings (size 3 to 8) (size 9 to 14) (size 15 to 20)
#    0.000    2.333    1.667    2.000    0.000    6.333 
#    0.000    0.000    0.000    0.000    0.000    1.167 
#    0.000    2.667    0.000    0.000    0.000    0.000 
#
# Total GULP energy -595282.476927 kJ/mol
# GULP energy per Si atom -12401.718269 kJ/mol
# Density = 1.764832 g / cm^3
# Si number density = 17.688578 Si / 1000 Ang^3
#
#
#
# Elastic Constant Matrix: (Units=GPa)
#
#
# Indices 1 2 3 4 5 6 
#
# 1 114.6531 27.4532 77.0209 0.0000 0.0000 0.0000
# 2 27.4532 39.5656 33.8169 0.0000 0.0000 0.0000
# 3 77.0209 33.8169 158.2874 0.0000 0.0000 0.0000
# 4 0.0000 0.0000 0.0000 15.8699 0.0000 0.0000
# 5 0.0000 0.0000 0.0000 0.0000 39.3568 0.0000
# 6 0.0000 0.0000 0.0000 0.0000 0.0000 9.0779
#
#
#
# Elastic Compliance Matrix: (Units=1/GPa)
#
#
# Indices 1 2 3 4 5 6 
#
# 1 0.013617 -0.004631 -0.005637 0.000000 0.000000 0.000000
# 2 -0.004631 0.032495 -0.004689 0.000000 0.000000 0.000000
# 3 -0.005637 -0.004689 0.010062 0.000000 0.000000 0.000000
# 4 0.000000 0.000000 0.000000 0.063012 0.000000 0.000000
# 5 0.000000 0.000000 0.000000 0.000000 0.025409 0.000000
# 6 0.000000 0.000000 0.000000 0.000000 0.000000 0.110157
#
#
# Mechanical properties :
#
#
# Convention : Reuss Voigt Hill
#
# Bulk Modulus (GPa) = 38.07835 65.45423 51.76629
# Shear Modulus (GPa) = 17.04040 24.47527 20.75784
#
# Velocity S-wave (km/s) = 3.10716 3.72382 3.42938
# Velocity P-wave (km/s) = 5.86911 7.45474 6.70893
#
# Compressibility (1/GPa) = 0.02626164
#
# Stress axis : x y z
#
# Youngs Moduli (GPa) = 73.43532 30.77357 99.38214
#
# Poissons Ratio (x) = 0.14251 0.56019
# Poissons Ratio (y) = 0.34007 0.46601
# Poissons Ratio (z) = 0.41394 0.14430
#
# Static dielectric constant tensor:
#      x y z
#    x 3.385710 0.000000 0.000000 
#    y 0.000000 2.696790 0.000000 
#    z 0.000000 0.000000 3.479960 
# 
# 
# High freq. dielectric constant tensor:
#      x y z
#    x 1.696150 0.000000 0.000000 
#    y 0.000000 1.612360 0.000000 
#    z 0.000000 0.000000 1.703360 
# 
# From -- ./inp_files/36141.got.cif
#   From: 2010.03.12/outbox.cif.g09.slc.cpg/sg53_19_cif.got.tgz:36141.got - 2010.04.16 14:36:59.
