data_PCOD8217770
_publ_section_title
;
Structure prediction by ZEFSAII (Michael W. Deem and Ramdas Pophale) SiO2 
 PCOD8217770
Probable space group: P M N A
;
_chemical_formula_sum "Si O2"
_cell_formula_units_Z 64
_cell_length_a 8.920101
_cell_length_b 24.370153
_cell_length_c 14.818250
_cell_angle_alpha 90.000000
_cell_angle_beta 90.000000
_cell_angle_gamma 90.000000
_cell_volume 3221.253809
_symmetry_space_group_name_H-M "P M N A"
_symmetry_group_IT_number 53
_symmetry_cell_setting 'orthorhombic'
loop_
_space_group_symop_operation_xyz
x,y,z
1/2-x,-y,1/2+z
x,-y,-z
1/2-x,y,1/2-z
-x,-y,-z
1/2+x,y,1/2-z
-x,y,z
1/2+x,-y,1/2+z
loop_
_atom_site_type_symbol
_atom_site_label
_atom_site_fract_x
_atom_site_fract_y
_atom_site_fract_z
Si Si1 0.664482 0.949887 0.429204
Si Si2 0.159278 0.970058 0.672758
Si Si3 0.825387 0.516323 0.396369
Si Si4 0.824407 0.770014 0.653167
Si Si5 0.678300 0.329906 0.021700
Si Si6 0.679446 0.590648 0.660061
Si Si7 0.335475 0.872461 0.958850
Si Si8 0.818806 0.367902 0.847059
O O1 0.500000 0.937514 0.392870
O O2 0.724139 0.889781 0.461310
O O3 0.660245 0.000000 0.500000
O O4 0.766770 0.971235 0.348250
O O5 0.250000 0.938098 0.750000
O O6 0.143100 0.930553 0.588917
O O7 0.000000 0.984820 0.714417
O O8 0.811606 0.500000 0.500000
O O9 0.734413 0.472038 0.338179
O O10 0.743867 0.573169 0.376130
O O11 0.000000 0.519060 0.366280
O O12 0.750000 0.759611 0.750000
O O13 0.782595 0.723036 0.581655
O O14 0.766179 0.826622 0.607690
O O15 0.000000 0.773012 0.671690
O O16 0.500000 0.338771 0.010559
O O17 0.750379 0.381845 0.071667
O O18 0.756783 0.325230 0.923170
O O19 0.750000 0.619043 0.750000
O O20 0.500000 0.595771 0.660167
O O21 0.500000 0.852396 0.993651
O O22 0.750000 0.350915 0.750000
O O23 0.000000 0.367340 0.843865
#
# Coordination Sequence:
#
# PCOD8217770 Si02
#       8
#     8   8   8   8   8   8   8   8
#     4   9  17  29  46  70 100 136 177 219 265 320
#     4  10  18  28  46  72 106 143 180 222 268 323
#     4  11  22  38  61  87 120 154 187 230 281 337
#     4  10  22  38  59  85 116 150 188 235 285 341
#     4  11  23  41  61  85 116 150 191 238 287 337
#     4  12  24  38  58  84 117 155 193 231 280 338
#     4   9  18  33  51  75 106 143 182 223 274 326
#     4  12  25  42  65  90 117 150 191 236 285 340
#
# _framework density 19.868041000000002
#
# number of rings (size 3 to 8) (size 9 to 14) (size 15 to 20)
#    0.000    1.500    1.250    4.875    0.000    5.000 
#    0.000    0.000    0.000    0.750    0.000    3.500 
#    0.000    0.000    0.000    0.000    0.000    0.000 
#
# Total GULP energy -793122.989094 kJ/mol
# GULP energy per Si atom -12392.546705 kJ/mol
# Density = 1.982282 g / cm^3
# Si number density = 19.868041 Si / 1000 Ang^3
#
#
#
# Elastic Constant Matrix: (Units=GPa)
#
#
# Indices 1 2 3 4 5 6 
#
# 1 153.5574 40.6954 45.8219 0.0000 0.0000 0.0000
# 2 40.6954 83.9100 38.6347 0.0000 0.0000 0.0000
# 3 45.8219 38.6347 94.8714 0.0000 0.0000 0.0000
# 4 0.0000 0.0000 0.0000 26.8635 0.0000 0.0000
# 5 0.0000 0.0000 0.0000 0.0000 35.0187 0.0000
# 6 0.0000 0.0000 0.0000 0.0000 0.0000 29.6158
#
#
#
# Elastic Compliance Matrix: (Units=1/GPa)
#
#
# Indices 1 2 3 4 5 6 
#
# 1 0.008045 -0.002600 -0.002827 0.000000 0.000000 0.000000
# 2 -0.002600 0.015508 -0.005060 0.000000 0.000000 0.000000
# 3 -0.002827 -0.005060 0.013966 0.000000 0.000000 0.000000
# 4 0.000000 0.000000 0.000000 0.037225 0.000000 0.000000
# 5 0.000000 0.000000 0.000000 0.000000 0.028556 0.000000
# 6 0.000000 0.000000 0.000000 0.000000 0.000000 0.033766
#
#
# Mechanical properties :
#
#
# Convention : Reuss Voigt Hill
#
# Bulk Modulus (GPa) = 60.43611 64.73808 62.58709
# Shear Modulus (GPa) = 30.57083 32.11207 31.34145
#
# Velocity S-wave (km/s) = 3.92687 4.02464 3.97606
# Velocity P-wave (km/s) = 7.14460 7.36558 7.25593
#
# Compressibility (1/GPa) = 0.01654640
#
# Stress axis : x y z
#
# Youngs Moduli (GPa) = 124.30397 64.48223 71.60114
#
# Poissons Ratio (x) = 0.16766 0.20239
# Poissons Ratio (y) = 0.32321 0.36227
# Poissons Ratio (z) = 0.35137 0.32625
#
# Static dielectric constant tensor:
#      x y z
#    x 3.981190 0.000000 0.000000 
#    y 0.000000 3.444230 0.000000 
#    z 0.000000 0.000000 3.744710 
# 
# 
# High freq. dielectric constant tensor:
#      x y z
#    x 1.789010 0.000000 0.000000 
#    y 0.000000 1.746230 0.000000 
#    z 0.000000 0.000000 1.771570 
# 
# From -- ./inp_files/20930.got.cif
#   From: 2010.03.12/outbox.cif.g09.slc.cpg/sg53_11_cif.got.tgz:20930.got - 2010.04.16 14:36:59.
