data_PCOD8217380
_publ_section_title
;
Structure prediction by ZEFSAII (Michael W. Deem and Ramdas Pophale) SiO2 
 PCOD8217380
Probable space group: P N N A
;
_chemical_formula_sum "Si O2"
_cell_formula_units_Z 48
_cell_length_a 23.324861
_cell_length_b 6.374025
_cell_length_c 14.006327
_cell_angle_alpha 90.000000
_cell_angle_beta 90.000000
_cell_angle_gamma 90.000000
_cell_volume 2082.366116
_symmetry_space_group_name_H-M "P N N A"
_symmetry_group_IT_number 52
_symmetry_cell_setting 'orthorhombic'
loop_
_space_group_symop_operation_xyz
x,y,z
1/2-x,-y,z
x,1/2-y,1/2-z
1/2-x,1/2+y,1/2-z
-x,-y,-z
1/2+x,y,-z
-x,1/2+y,1/2+z
1/2+x,1/2-y,1/2+z
loop_
_atom_site_type_symbol
_atom_site_label
_atom_site_fract_x
_atom_site_fract_y
_atom_site_fract_z
Si Si1 0.059187 0.100364 0.514044
Si Si2 0.308738 0.600904 0.838391
Si Si3 0.815948 0.554302 0.490772
Si Si4 0.385098 0.248613 0.633968
Si Si5 0.022737 0.079337 0.832761
Si Si6 0.598033 0.146689 0.849245
O O1 0.049962 0.317696 0.572719
O O2 0.080345 0.152086 0.409030
O O3 0.096816 0.916668 0.554878
O O4 0.000000 0.000000 0.500000
O O5 0.250000 0.500000 0.871709
O O6 0.298021 0.750000 0.750000
O O7 0.352128 0.419210 0.796050
O O8 0.329383 0.724527 0.935240
O O9 0.750000 0.500000 0.511313
O O10 0.837442 0.385547 0.416113
O O11 0.849250 0.540160 0.592526
O O12 0.438088 0.371275 0.684423
O O13 0.031264 0.250000 0.750000
O O14 0.955876 0.014133 0.839161
O O15 0.618594 0.250000 0.750000
#
# Coordination Sequence:
#
# PCOD8217380 Si02
#       6
#     8   8   8   8   8   8
#     4  12  23  44  75 106 147 197 243 310 381 448
#     4  12  27  48  73 112 155 198 248 315 389 467
#     4  12  26  50  78 110 148 204 261 319 386 452
#     4  12  25  46  77 108 153 195 249 309 384 471
#     4  12  27  47  73 117 157 201 249 311 398 476
#     4  12  26  50  73 109 155 199 262 321 378 447
#
# _framework density 23.050702000000001
#
# number of rings (size 3 to 8) (size 9 to 14) (size 15 to 20)
#    0.000    0.000    6.667    3.000    0.000    4.000 
#    0.000    3.333    0.000    0.000    0.000    0.000 
#    0.000    0.000    0.000    0.000    0.000    0.000 
#
# Total GULP energy -594710.793788 kJ/mol
# GULP energy per Si atom -12389.808204 kJ/mol
# Density = 2.299824 g / cm^3
# Si number density = 23.050702 Si / 1000 Ang^3
#
#
#
# Elastic Constant Matrix: (Units=GPa)
#
#
# Indices 1 2 3 4 5 6 
#
# 1 135.6305 61.1616 35.5801 0.0000 0.0000 0.0000
# 2 61.1616 142.3847 45.4955 0.0000 0.0000 0.0000
# 3 35.5801 45.4955 143.2297 0.0000 0.0000 0.0000
# 4 0.0000 0.0000 0.0000 21.3565 0.0000 0.0000
# 5 0.0000 0.0000 0.0000 0.0000 33.7912 0.0000
# 6 0.0000 0.0000 0.0000 0.0000 0.0000 53.9280
#
#
#
# Elastic Compliance Matrix: (Units=1/GPa)
#
#
# Indices 1 2 3 4 5 6 
#
# 1 0.009314 -0.003630 -0.001161 0.000000 0.000000 0.000000
# 2 -0.003630 0.009231 -0.002030 0.000000 0.000000 0.000000
# 3 -0.001161 -0.002030 0.007915 0.000000 0.000000 0.000000
# 4 0.000000 0.000000 0.000000 0.046824 0.000000 0.000000
# 5 0.000000 0.000000 0.000000 0.000000 0.029594 0.000000
# 6 0.000000 0.000000 0.000000 0.000000 0.000000 0.018543
#
#
# Mechanical properties :
#
#
# Convention : Reuss Voigt Hill
#
# Bulk Modulus (GPa) = 78.01430 78.41325 78.21378
# Shear Modulus (GPa) = 35.88416 40.41566 38.14991
#
# Velocity S-wave (km/s) = 3.94985 4.19183 4.07264
# Velocity P-wave (km/s) = 7.39729 7.58420 7.49133
#
# Compressibility (1/GPa) = 0.01281816
#
# Stress axis : x y z
#
# Youngs Moduli (GPa) = 107.35987 108.32643 126.34087
#
# Poissons Ratio (x) = 0.39324 0.14665
# Poissons Ratio (y) = 0.38973 0.25653
# Poissons Ratio (z) = 0.12462 0.21995
#
# Static dielectric constant tensor:
#      x y z
#    x 4.431020 0.000000 0.000000 
#    y 0.000000 4.759610 0.000000 
#    z 0.000000 0.000000 4.180370 
# 
# 
# High freq. dielectric constant tensor:
#      x y z
#    x 1.926250 0.000000 0.000000 
#    y 0.000000 1.936400 0.000000 
#    z 0.000000 0.000000 1.905280 
# 
# From -- ./inp_files/29404.got.cif
#   From: 2010.06.25/outbox.cif.g09.slc.cpg/sg52_15_cif.got.tgz:29404.got - 2010.06.26 19:32:48.
