data_PCOD8217677
_publ_section_title
;
Structure prediction by ZEFSAII (Michael W. Deem and Ramdas Pophale) SiO2 
 PCOD8217677
Probable space group: P M N A
;
_chemical_formula_sum "Si O2"
_cell_formula_units_Z 64
_cell_length_a 9.068724
_cell_length_b 26.684000
_cell_length_c 18.461090
_cell_angle_alpha 90.000000
_cell_angle_beta 90.000000
_cell_angle_gamma 90.000000
_cell_volume 4467.396053
_symmetry_space_group_name_H-M "P M N A"
_symmetry_group_IT_number 53
_symmetry_cell_setting 'orthorhombic'
loop_
_space_group_symop_operation_xyz
x,y,z
1/2-x,-y,1/2+z
x,-y,-z
1/2-x,y,1/2-z
-x,-y,-z
1/2+x,y,1/2-z
-x,y,z
1/2+x,-y,1/2+z
loop_
_atom_site_type_symbol
_atom_site_label
_atom_site_fract_x
_atom_site_fract_y
_atom_site_fract_z
Si Si1 0.175041 0.893040 0.085904
Si Si2 0.328302 0.401928 0.577418
Si Si3 0.673901 0.801007 0.324686
Si Si4 0.327616 0.311812 0.675852
Si Si5 0.825937 0.009869 0.825466
Si Si6 0.674579 0.952197 0.542591
Si Si7 0.673821 0.498426 0.672147
Si Si8 0.667279 0.450247 0.047260
O O1 0.234699 0.839536 0.114387
O O2 0.228437 0.938234 0.137987
O O3 0.000000 0.891742 0.086693
O O4 0.231695 0.903172 0.002489
O O5 0.500000 0.403427 0.557718
O O6 0.278820 0.349169 0.612078
O O7 0.290541 0.445067 0.635543
O O8 0.240059 0.407042 0.502115
O O9 0.750000 0.815948 0.250000
O O10 0.500000 0.806251 0.313452
O O11 0.716903 0.744516 0.347971
O O12 0.250000 0.327659 0.750000
O O13 0.500000 0.316754 0.690768
O O14 0.750000 0.001935 0.750000
O O15 0.000000 0.011295 0.814541
O O16 0.777527 0.960903 0.874006
O O17 0.500000 0.952036 0.538863
O O18 0.735811 0.000000 0.500000
O O19 0.750000 0.500330 0.750000
O O20 0.500000 0.507403 0.680918
O O21 0.741225 0.542213 0.621363
O O22 0.500000 0.435309 0.066899
O O23 0.673331 0.500000 0.000000
#
# Coordination Sequence:
#
# PCOD8217677 Si02
#       8
#     8   8   8   8   8   8   8   8
#     4   8  13  22  36  51  67  92 125 153 177 209
#     4   9  17  28  40  54  75 103 130 155 186 220
#     4   9  16  25  37  53  73  96 122 154 186 214
#     4   9  17  27  38  54  76 100 126 156 187 217
#     4   9  15  22  34  51  70  92 118 148 180 215
#     4   7  11  20  33  48  65  88 119 149 174 207
#     4  10  18  27  40  57  78 103 129 155 183 218
#     4   9  17  28  41  57  76  98 126 158 189 223
#
# _framework density 14.326019000000001
#
# number of rings (size 3 to 8) (size 9 to 14) (size 15 to 20)
#    0.000    3.250    0.000    3.000    0.000    2.500 
#    0.000    0.000    0.000    4.125    0.000    0.000 
#    0.000    1.000    0.000    4.000    0.000    2.125 
#
# Total GULP energy -792843.894747 kJ/mol
# GULP energy per Si atom -12388.185855 kJ/mol
# Density = 1.429341 g / cm^3
# Si number density = 14.326019 Si / 1000 Ang^3
#
#
#
# Elastic Constant Matrix: (Units=GPa)
#
#
# Indices 1 2 3 4 5 6 
#
# 1 43.6999 24.0315 39.5926 0.0000 0.0000 0.0000
# 2 24.0315 80.9867 57.3913 0.0000 0.0000 0.0000
# 3 39.5926 57.3913 108.4083 0.0000 0.0000 0.0000
# 4 0.0000 0.0000 0.0000 24.7616 0.0000 0.0000
# 5 0.0000 0.0000 0.0000 0.0000 24.7792 0.0000
# 6 0.0000 0.0000 0.0000 0.0000 0.0000 11.9093
#
#
#
# Elastic Compliance Matrix: (Units=1/GPa)
#
#
# Indices 1 2 3 4 5 6 
#
# 1 0.034419 -0.002089 -0.011465 0.000000 0.000000 0.000000
# 2 -0.002089 0.019888 -0.009766 0.000000 0.000000 0.000000
# 3 -0.011465 -0.009766 0.018581 0.000000 0.000000 0.000000
# 4 0.000000 0.000000 0.000000 0.040385 0.000000 0.000000
# 5 0.000000 0.000000 0.000000 0.000000 0.040356 0.000000
# 6 0.000000 0.000000 0.000000 0.000000 0.000000 0.083968
#
#
# Mechanical properties :
#
#
# Convention : Reuss Voigt Hill
#
# Bulk Modulus (GPa) = 38.09523 52.79174 45.44348
# Shear Modulus (GPa) = 17.06560 19.76198 18.41379
#
# Velocity S-wave (km/s) = 3.45517 3.71812 3.58905
# Velocity P-wave (km/s) = 6.52433 7.44062 6.99749
#
# Compressibility (1/GPa) = 0.02625001
#
# Stress axis : x y z
#
# Youngs Moduli (GPa) = 29.05364 50.28123 53.81703
#
# Poissons Ratio (x) = 0.10503 0.61699
# Poissons Ratio (y) = 0.06069 0.52557
# Poissons Ratio (z) = 0.33309 0.49104
#
# Static dielectric constant tensor:
#      x y z
#    x 2.656870 0.000000 0.000000 
#    y 0.000000 2.892740 0.000000 
#    z 0.000000 0.000000 2.970530 
# 
# 
# High freq. dielectric constant tensor:
#      x y z
#    x 1.532650 0.000000 0.000000 
#    y 0.000000 1.518190 0.000000 
#    z 0.000000 0.000000 1.539790 
# 
# From -- ./inp_files/27088.got.cif
#   From: 2010.03.12/outbox.cif.g09.slc.cpg/sg53_14_cif.got.tgz:27088.got - 2010.04.16 14:36:59.
