data_PCOD8217960
_publ_section_title
;
Structure prediction by ZEFSAII (Michael W. Deem and Ramdas Pophale) SiO2 
 PCOD8217960
Probable space group: P M N A
;
_chemical_formula_sum "Si O2"
_cell_formula_units_Z 48
_cell_length_a 9.006225
_cell_length_b 9.276836
_cell_length_c 31.013104
_cell_angle_alpha 90.000000
_cell_angle_beta 90.000000
_cell_angle_gamma 90.000000
_cell_volume 2591.122271
_symmetry_space_group_name_H-M "P M N A"
_symmetry_group_IT_number 53
_symmetry_cell_setting 'orthorhombic'
loop_
_space_group_symop_operation_xyz
x,y,z
1/2-x,-y,1/2+z
x,-y,-z
1/2-x,y,1/2-z
-x,-y,-z
1/2+x,y,1/2-z
-x,y,z
1/2+x,-y,1/2+z
loop_
_atom_site_type_symbol
_atom_site_label
_atom_site_fract_x
_atom_site_fract_y
_atom_site_fract_z
Si Si1 0.175089 0.909887 0.960332
Si Si2 0.333700 0.921699 0.208472
Si Si3 0.322777 0.600436 0.115542
Si Si4 0.675889 0.903071 0.379088
Si Si5 0.162461 0.420182 0.709748
Si Si6 0.672887 0.415724 0.456092
O O1 0.233042 0.746297 0.962026
O O2 0.000000 0.908397 0.966258
O O3 0.219976 0.980688 0.915101
O O4 0.246366 0.000000 0.000000
O O5 0.250000 0.988750 0.250000
O O6 0.500000 0.986580 0.205520
O O7 0.242857 0.961714 0.165567
O O8 0.343160 0.751196 0.213800
O O9 0.500000 0.623019 0.115160
O O10 0.245235 0.752264 0.105735
O O11 0.269655 0.542621 0.162737
O O12 0.272322 0.484846 0.080930
O O13 0.500000 0.883509 0.374209
O O14 0.250000 0.488693 0.750000
O O15 0.000000 0.488122 0.713230
O O16 0.700861 0.500000 0.500000
O O17 0.500000 0.420928 0.442611
#
# Coordination Sequence:
#
# PCOD8217960 Si02
#       6
#     8   8   8   8   8   8
#     4   9  18  33  53  77 102 128 165 212 256 305
#     4   9  16  27  44  70 103 135 170 211 253 298
#     4  10  20  33  49  74 107 137 169 210 255 304
#     4  10  18  30  51  76 103 136 172 212 257 301
#     4   8  15  26  42  66  96 128 161 200 242 285
#     4  10  20  35  56  78  99 129 170 211 255 310
#
# _framework density 18.524792000000001
#
# number of rings (size 3 to 8) (size 9 to 14) (size 15 to 20)
#    0.000    2.667    0.000    3.500    0.000    7.667 
#    0.000    1.667    0.000    4.500    0.000    2.333 
#    0.000    0.000    0.000    0.000    0.000    0.000 
#
# Total GULP energy -595044.801718 kJ/mol
# GULP energy per Si atom -12396.766702 kJ/mol
# Density = 1.848263 g / cm^3
# Si number density = 18.524792 Si / 1000 Ang^3
#
#
#
# Elastic Constant Matrix: (Units=GPa)
#
#
# Indices 1 2 3 4 5 6 
#
# 1 84.3530 34.0106 61.6699 0.0000 0.0000 0.0000
# 2 34.0106 95.6727 72.0270 0.0000 0.0000 0.0000
# 3 61.6699 72.0270 155.5696 0.0000 0.0000 0.0000
# 4 0.0000 0.0000 0.0000 20.1416 0.0000 0.0000
# 5 0.0000 0.0000 0.0000 0.0000 31.4268 0.0000
# 6 0.0000 0.0000 0.0000 0.0000 0.0000 5.5038
#
#
#
# Elastic Compliance Matrix: (Units=1/GPa)
#
#
# Indices 1 2 3 4 5 6 
#
# 1 0.016827 -0.001474 -0.005988 0.000000 0.000000 0.000000
# 2 -0.001474 0.016174 -0.006904 0.000000 0.000000 0.000000
# 3 -0.005988 -0.006904 0.011998 0.000000 0.000000 0.000000
# 4 0.000000 0.000000 0.000000 0.049648 0.000000 0.000000
# 5 0.000000 0.000000 0.000000 0.000000 0.031820 0.000000
# 6 0.000000 0.000000 0.000000 0.000000 0.000000 0.181693
#
#
# Mechanical properties :
#
#
# Convention : Reuss Voigt Hill
#
# Bulk Modulus (GPa) = 61.47296 74.55670 68.01483
# Shear Modulus (GPa) = 14.60642 22.60696 18.60669
#
# Velocity S-wave (km/s) = 2.81103 3.49716 3.17270
# Velocity P-wave (km/s) = 6.61756 7.52603 7.08637
#
# Compressibility (1/GPa) = 0.01626731
#
# Stress axis : x y z
#
# Youngs Moduli (GPa) = 59.42822 61.82769 83.34472
#
# Poissons Ratio (x) = 0.09111 0.49908
# Poissons Ratio (y) = 0.08758 0.57543
# Poissons Ratio (z) = 0.35587 0.42687
#
# Static dielectric constant tensor:
#      x y z
#    x 3.385820 0.000000 0.000000 
#    y 0.000000 3.114420 0.000000 
#    z 0.000000 0.000000 15.250000 
# 
# 
# High freq. dielectric constant tensor:
#      x y z
#    x 1.707870 0.000000 0.000000 
#    y 0.000000 1.676640 0.000000 
#    z 0.000000 0.000000 1.738880 
# 
# From -- ./inp_files/37674.got.cif
#   From: 2010.03.12/outbox.cif.g09.slc.cpg/sg53_19_cif.got.tgz:37674.got - 2010.04.16 14:36:59.
