data_PCOD8217866
_publ_section_title
;
Structure prediction by ZEFSAII (Michael W. Deem and Ramdas Pophale) SiO2 
 PCOD8217866
Probable space group: P M N A
;
_chemical_formula_sum "Si O2"
_cell_formula_units_Z 48
_cell_length_a 16.541229
_cell_length_b 15.127229
_cell_length_c 7.383206
_cell_angle_alpha 90.000000
_cell_angle_beta 90.000000
_cell_angle_gamma 90.000000
_cell_volume 1847.447652
_symmetry_space_group_name_H-M "P M N A"
_symmetry_group_IT_number 53
_symmetry_cell_setting 'orthorhombic'
loop_
_space_group_symop_operation_xyz
x,y,z
1/2-x,-y,1/2+z
x,-y,-z
1/2-x,y,1/2-z
-x,-y,-z
1/2+x,y,1/2-z
-x,y,z
1/2+x,-y,1/2+z
loop_
_atom_site_type_symbol
_atom_site_label
_atom_site_fract_x
_atom_site_fract_y
_atom_site_fract_z
Si Si1 0.657764 0.986485 0.208467
Si Si2 0.662871 0.372544 0.873147
Si Si3 0.810916 0.679632 0.916277
Si Si4 0.593424 0.164869 0.283124
Si Si5 0.906133 0.192026 0.634369
Si Si6 0.094100 0.454287 0.266472
O O1 0.750000 0.004389 0.250000
O O2 0.633736 0.885884 0.255890
O O3 0.608398 0.060601 0.321717
O O4 0.635303 0.000000 0.000000
O O5 0.758417 0.346165 0.904782
O O6 0.613763 0.397084 0.055055
O O7 0.620905 0.286241 0.783460
O O8 0.650651 0.458675 0.748358
O O9 0.750000 0.668574 0.750000
O O10 0.850133 0.777715 0.918085
O O11 0.883535 0.608534 0.901970
O O12 0.500000 0.188255 0.317470
O O13 0.620449 0.188666 0.077047
O O14 0.000000 0.177607 0.654644
O O15 0.000000 0.480102 0.261598
#
# Coordination Sequence:
#
# PCOD8217866 Si02
#       6
#     8   8   8   8   8   8
#     4  10  22  36  57  85 121 152 194 248 306 360
#     4  10  19  30  51  81 112 143 188 248 297 350
#     4  10  18  29  50  82 112 139 188 244 295 351
#     4  10  18  31  54  82 108 141 189 244 293 344
#     4  10  18  32  54  82 110 142 191 246 291 345
#     4  10  18  31  51  79 112 147 188 237 292 349
#
# _framework density 25.981791999999999
#
# number of rings (size 3 to 8) (size 9 to 14) (size 15 to 20)
#    0.000    2.000    3.333    3.500    2.333    2.000 
#    0.000    4.167    0.000    2.000    0.000   64.167 
#    0.000    0.000    0.000    0.000    0.000    0.000 
#
# Total GULP energy -595224.582839 kJ/mol
# GULP energy per Si atom -12400.512142 kJ/mol
# Density = 2.592266 g / cm^3
# Si number density = 25.981792 Si / 1000 Ang^3
#
#
#
# Elastic Constant Matrix: (Units=GPa)
#
#
# Indices 1 2 3 4 5 6 
#
# 1 137.0519 62.3647 20.0145 0.0000 0.0000 0.0000
# 2 62.3647 239.4663 37.4809 0.0000 0.0000 0.0000
# 3 20.0145 37.4809 40.9856 0.0000 0.0000 0.0000
# 4 0.0000 0.0000 0.0000 31.3529 0.0000 0.0000
# 5 0.0000 0.0000 0.0000 0.0000 20.3882 0.0000
# 6 0.0000 0.0000 0.0000 0.0000 0.0000 52.4185
#
#
#
# Elastic Compliance Matrix: (Units=1/GPa)
#
#
# Indices 1 2 3 4 5 6 
#
# 1 0.008488 -0.001823 -0.002478 0.000000 0.000000 0.000000
# 2 -0.001823 0.005265 -0.003925 0.000000 0.000000 0.000000
# 3 -0.002478 -0.003925 0.029198 0.000000 0.000000 0.000000
# 4 0.000000 0.000000 0.000000 0.031895 0.000000 0.000000
# 5 0.000000 0.000000 0.000000 0.000000 0.049048 0.000000
# 6 0.000000 0.000000 0.000000 0.000000 0.000000 0.019077
#
#
# Mechanical properties :
#
#
# Convention : Reuss Voigt Hill
#
# Bulk Modulus (GPa) = 37.73589 73.02490 55.38040
# Shear Modulus (GPa) = 29.71681 40.67482 35.19582
#
# Velocity S-wave (km/s) = 3.38561 3.96095 3.68453
# Velocity P-wave (km/s) = 5.46248 7.00614 6.28191
#
# Compressibility (1/GPa) = 0.02649997
#
# Stress axis : x y z
#
# Youngs Moduli (GPa) = 117.81662 189.93696 34.24891
#
# Poissons Ratio (x) = 0.34618 0.08487
# Poissons Ratio (y) = 0.21474 0.13442
# Poissons Ratio (z) = 0.29196 0.74544
#
# Static dielectric constant tensor:
#      x y z
#    x 4.657410 0.000000 0.000000 
#    y 0.000000 5.061060 0.000000 
#    z 0.000000 0.000000 4.837580 
# 
# 
# High freq. dielectric constant tensor:
#      x y z
#    x 2.040740 0.000000 0.000000 
#    y 0.000000 2.059910 0.000000 
#    z 0.000000 0.000000 2.025120 
# 
# From -- ./inp_files/15952.got.cif
#   From: 2010.03.12/outbox.cif.g09.slc.cpg/sg53_8_cif.got.tgz:15952.got - 2010.04.16 14:36:59.
