data_PCOD8217096
_publ_section_title
;
Structure prediction by ZEFSAII (Michael W. Deem and Ramdas Pophale) SiO2 
 PCOD8217096
Probable space group: P N N A
;
_chemical_formula_sum "Si O2"
_cell_formula_units_Z 48
_cell_length_a 17.955688
_cell_length_b 15.687795
_cell_length_c 8.335919
_cell_angle_alpha 90.000000
_cell_angle_beta 90.000000
_cell_angle_gamma 90.000000
_cell_volume 2348.104614
_symmetry_space_group_name_H-M "P N N A"
_symmetry_group_IT_number 52
_symmetry_cell_setting 'orthorhombic'
loop_
_space_group_symop_operation_xyz
x,y,z
1/2-x,-y,z
x,1/2-y,1/2-z
1/2-x,1/2+y,1/2-z
-x,-y,-z
1/2+x,y,-z
-x,1/2+y,1/2+z
1/2+x,1/2-y,1/2+z
loop_
_atom_site_type_symbol
_atom_site_label
_atom_site_fract_x
_atom_site_fract_y
_atom_site_fract_z
Si Si1 0.306271 0.750000 0.250000
Si Si2 0.524263 0.556802 0.249871
Si Si3 0.207567 0.913075 0.263356
Si Si4 0.169702 0.980599 0.934789
Si Si5 0.977367 0.750000 0.250000
Si Si6 0.449569 0.097587 0.389473
Si Si7 0.908675 0.850297 0.970295
O O1 0.256881 0.830498 0.303227
O O2 0.360569 0.774767 0.105427
O O3 0.609908 0.553434 0.307409
O O4 0.486921 0.462546 0.249568
O O5 0.480133 0.623107 0.362468
O O6 0.518910 0.582836 0.065981
O O7 0.138669 0.912808 0.384996
O O8 0.250000 0.000000 0.301647
O O9 0.180703 0.911433 0.077330
O O10 0.250000 0.000000 0.851067
O O11 0.142871 0.067314 0.017319
O O12 0.928994 0.684945 0.355222
O O13 0.031048 0.804562 0.361569
#
# Coordination Sequence:
#
# PCOD8217096 Si02
#       7
#     4   8   8   8   4   8   8
#     4  12  23  42  68  97 140 176 234 284 347 418
#     4  11  23  42  72  95 133 180 234 287 335 422
#     4  11  22  41  67  99 137 188 224 277 351 417
#     4  11  21  43  69  98 132 184 230 277 353 412
#     4  12  25  40  66  97 134 172 230 294 347 406
#     4  11  23  41  65 103 130 175 233 280 344 408
#     4  12  23  44  68  98 134 183 228 289 343 416
#
# _framework density 20.442018999999998
#
# number of rings (size 3 to 8) (size 9 to 14) (size 15 to 20)
#    0.000    0.667    6.667    3.000    0.000    2.000 
#    3.000    0.000    0.000    0.000    0.000    0.000 
#    0.000    0.000    0.000    0.000    0.000    0.000 
#
# Total GULP energy -595187.128471 kJ/mol
# GULP energy per Si atom -12399.731843 kJ/mol
# Density = 2.039549 g / cm^3
# Si number density = 20.442019 Si / 1000 Ang^3
#
#
#
# Elastic Constant Matrix: (Units=GPa)
#
#
# Indices 1 2 3 4 5 6 
#
# 1 141.8179 44.0497 33.8132 0.0000 0.0000 0.0000
# 2 44.0497 113.5582 31.8767 0.0000 0.0000 0.0000
# 3 33.8132 31.8767 75.6108 0.0000 0.0000 0.0000
# 4 0.0000 0.0000 0.0000 31.4219 0.0000 0.0000
# 5 0.0000 0.0000 0.0000 0.0000 28.1052 0.0000
# 6 0.0000 0.0000 0.0000 0.0000 0.0000 47.0173
#
#
#
# Elastic Compliance Matrix: (Units=1/GPa)
#
#
# Indices 1 2 3 4 5 6 
#
# 1 0.008487 -0.002526 -0.002731 0.000000 0.000000 0.000000
# 2 -0.002526 0.010740 -0.003398 0.000000 0.000000 0.000000
# 3 -0.002731 -0.003398 0.015879 0.000000 0.000000 0.000000
# 4 0.000000 0.000000 0.000000 0.031825 0.000000 0.000000
# 5 0.000000 0.000000 0.000000 0.000000 0.035581 0.000000
# 6 0.000000 0.000000 0.000000 0.000000 0.000000 0.021269
#
#
# Mechanical properties :
#
#
# Convention : Reuss Voigt Hill
#
# Bulk Modulus (GPa) = 56.18910 61.16290 58.67600
# Shear Modulus (GPa) = 34.00865 36.05868 35.03367
#
# Velocity S-wave (km/s) = 4.08323 4.20450 4.14431
# Velocity P-wave (km/s) = 7.05529 7.31816 7.18793
#
# Compressibility (1/GPa) = 0.01779705
#
# Stress axis : x y z
#
# Youngs Moduli (GPa) = 117.83012 93.11278 62.97465
#
# Poissons Ratio (x) = 0.23516 0.17196
# Poissons Ratio (y) = 0.29759 0.21401
# Poissons Ratio (z) = 0.32174 0.31642
#
# Static dielectric constant tensor:
#      x y z
#    x 3.859200 0.000000 0.000000 
#    y 0.000000 3.812290 0.000000 
#    z 0.000000 0.000000 3.484740 
# 
# 
# High freq. dielectric constant tensor:
#      x y z
#    x 1.813180 0.000000 0.000000 
#    y 0.000000 1.803320 0.000000 
#    z 0.000000 0.000000 1.784170 
# 
# From -- ./inp_files/12153.got.cif
#   From: 2010.06.25/outbox.cif.g09.slc.cpg/sg52_7_cif.got.tgz:12153.got - 2010.06.26 19:32:48.
