data_PCOD8217743
_publ_section_title
;
Structure prediction by ZEFSAII (Michael W. Deem and Ramdas Pophale) SiO2 
 PCOD8217743
Probable space group: P M N A
;
_chemical_formula_sum "Si O2"
_cell_formula_units_Z 64
_cell_length_a 14.143187
_cell_length_b 9.533648
_cell_length_c 29.763585
_cell_angle_alpha 90.000000
_cell_angle_beta 90.000000
_cell_angle_gamma 90.000000
_cell_volume 4013.207701
_symmetry_space_group_name_H-M "P M N A"
_symmetry_group_IT_number 53
_symmetry_cell_setting 'orthorhombic'
loop_
_space_group_symop_operation_xyz
x,y,z
1/2-x,-y,1/2+z
x,-y,-z
1/2-x,y,1/2-z
-x,-y,-z
1/2+x,y,1/2-z
-x,y,z
1/2+x,-y,1/2+z
loop_
_atom_site_type_symbol
_atom_site_label
_atom_site_fract_x
_atom_site_fract_y
_atom_site_fract_z
Si Si1 0.109987 0.160311 0.426554
Si Si2 0.112419 0.843441 0.408839
Si Si3 0.106844 0.916683 0.723507
Si Si4 0.389412 0.791285 0.190873
Si Si5 0.110204 0.346761 0.512124
Si Si6 0.707009 0.280058 0.156853
Si Si7 0.892747 0.701425 0.798205
Si Si8 0.611704 0.493316 0.217003
O O1 0.128421 0.229127 0.474614
O O2 0.175928 0.249838 0.393470
O O3 0.000000 0.173641 0.412233
O O4 0.142819 0.998085 0.426284
O O5 0.154486 0.816843 0.358872
O O6 0.152754 0.721689 0.442071
O O7 0.000000 0.837203 0.409022
O O8 0.132948 0.080870 0.724684
O O9 0.000000 0.894773 0.704972
O O10 0.178045 0.847594 0.688811
O O11 0.115425 0.851188 0.772925
O O12 0.500000 0.771780 0.183531
O O13 0.350497 0.652622 0.215553
O O14 0.156109 0.500000 0.500000
O O15 0.000000 0.372704 0.519427
O O16 0.821250 0.298110 0.159772
O O17 0.656345 0.420326 0.173579
O O18 0.857930 0.580105 0.763649
O O19 0.000000 0.675567 0.815250
O O20 0.500000 0.478239 0.212383
#
# Coordination Sequence:
#
# PCOD8217743 Si02
#       8
#     8   8   8   8   8   8   8   8
#     4  10  18  28  44  64  88 118 147 174 207 253
#     4   9  16  27  40  59  89 121 147 167 197 244
#     4   9  15  27  44  64  87 113 142 174 210 256
#     4   9  16  25  41  64  90 119 146 172 204 248
#     4   9  18  28  40  60  89 123 148 167 198 244
#     4  11  18  28  44  63  83 111 153 184 217 254
#     4   9  19  33  45  57  81 115 150 188 227 259
#     4   9  17  27  42  63  88 116 143 177 215 255
#
# _framework density 15.947343
#
# number of rings (size 3 to 8) (size 9 to 14) (size 15 to 20)
#    0.000    2.625    1.250    3.750    1.750    1.500 
#    0.000    2.500    0.000    0.000    0.000    0.000 
#    0.000    2.500    0.000    0.000    0.000    0.125 
#
# Total GULP energy -793153.838462 kJ/mol
# GULP energy per Si atom -12393.028726 kJ/mol
# Density = 1.591105 g / cm^3
# Si number density = 15.947343 Si / 1000 Ang^3
#
#
#
# Elastic Constant Matrix: (Units=GPa)
#
#
# Indices 1 2 3 4 5 6 
#
# 1 36.9605 11.6459 17.8147 0.0000 0.0000 0.0000
# 2 11.6459 124.7159 25.0624 0.0000 0.0000 0.0000
# 3 17.8147 25.0624 46.3120 0.0000 0.0000 0.0000
# 4 0.0000 0.0000 0.0000 15.6549 0.0000 0.0000
# 5 0.0000 0.0000 0.0000 0.0000 13.8869 0.0000
# 6 0.0000 0.0000 0.0000 0.0000 0.0000 2.5241
#
#
#
# Elastic Compliance Matrix: (Units=1/GPa)
#
#
# Indices 1 2 3 4 5 6 
#
# 1 0.033254 -0.000600 -0.012467 0.000000 0.000000 0.000000
# 2 -0.000600 0.009007 -0.004644 0.000000 0.000000 0.000000
# 3 -0.012467 -0.004644 0.028901 0.000000 0.000000 0.000000
# 4 0.000000 0.000000 0.000000 0.063878 0.000000 0.000000
# 5 0.000000 0.000000 0.000000 0.000000 0.072010 0.000000
# 6 0.000000 0.000000 0.000000 0.000000 0.000000 0.396183
#
#
# Mechanical properties :
#
#
# Convention : Reuss Voigt Hill
#
# Bulk Modulus (GPa) = 27.97876 35.22603 31.60239
# Shear Modulus (GPa) = 7.68558 16.64422 12.16490
#
# Velocity S-wave (km/s) = 2.19768 3.23414 2.76491
# Velocity P-wave (km/s) = 4.90125 6.00692 5.48203
#
# Compressibility (1/GPa) = 0.03574140
#
# Stress axis : x y z
#
# Youngs Moduli (GPa) = 30.07157 111.01955 34.60045
#
# Poissons Ratio (x) = 0.06660 0.43137
# Poissons Ratio (y) = 0.01804 0.16067
# Poissons Ratio (z) = 0.37490 0.51554
#
# Static dielectric constant tensor:
#      x y z
#    x 2.646130 0.000000 0.000000 
#    y 0.000000 3.384570 0.000000 
#    z 0.000000 0.000000 2.881420 
# 
# 
# High freq. dielectric constant tensor:
#      x y z
#    x 1.555860 0.000000 0.000000 
#    y 0.000000 1.629320 0.000000 
#    z 0.000000 0.000000 1.585440 
# 
# From -- ./inp_files/38975.got.cif
#   From: 2010.03.12/outbox.cif.g09.slc.cpg/sg53_20_cif.got.tgz:38975.got - 2010.04.16 14:36:59.
