data_PCOD8217649
_publ_section_title
;
Structure prediction by ZEFSAII (Michael W. Deem and Ramdas Pophale) SiO2 
 PCOD8217649
Probable space group: P M N A
;
_chemical_formula_sum "Si O2"
_cell_formula_units_Z 64
_cell_length_a 20.230208
_cell_length_b 17.666190
_cell_length_c 9.903229
_cell_angle_alpha 90.000000
_cell_angle_beta 90.000000
_cell_angle_gamma 90.000000
_cell_volume 3539.321927
_symmetry_space_group_name_H-M "P M N A"
_symmetry_group_IT_number 53
_symmetry_cell_setting 'orthorhombic'
loop_
_space_group_symop_operation_xyz
x,y,z
1/2-x,-y,1/2+z
x,-y,-z
1/2-x,y,1/2-z
-x,-y,-z
1/2+x,y,1/2-z
-x,y,z
1/2+x,-y,1/2+z
loop_
_atom_site_type_symbol
_atom_site_label
_atom_site_fract_x
_atom_site_fract_y
_atom_site_fract_z
Si Si1 0.073070 0.962614 0.646878
Si Si2 0.176993 0.075092 0.726271
Si Si3 0.742566 0.725950 0.903576
Si Si4 0.210893 0.559022 0.621637
Si Si5 0.073568 0.709884 0.331226
Si Si6 0.571645 0.583815 0.949082
Si Si7 0.628953 0.829460 0.992089
Si Si8 0.814939 0.770133 0.157522
O O1 0.095673 0.875004 0.631511
O O2 0.000000 0.965018 0.712373
O O3 0.071084 0.000000 0.500000
O O4 0.123456 0.008133 0.743572
O O5 0.250000 0.040458 0.750000
O O6 0.173861 0.111201 0.576044
O O7 0.162051 0.142346 0.832185
O O8 0.750000 0.752427 0.750000
O O9 0.746978 0.635936 0.920755
O O10 0.672201 0.758859 0.945306
O O11 0.800910 0.756110 0.000068
O O12 0.214561 0.500000 0.500000
O O13 0.250000 0.524313 0.750000
O O14 0.133836 0.581228 0.655080
O O15 0.090525 0.638304 0.425975
O O16 0.074047 0.789556 0.413825
O O17 0.127381 0.714064 0.210599
O O18 0.000000 0.700619 0.269761
O O19 0.500000 0.610084 0.885268
O O20 0.561153 0.500000 0.000000
O O21 0.750000 0.756974 0.250000
#
# Coordination Sequence:
#
# PCOD8217649 Si02
#       8
#     8   8   8   8   8   8   8   8
#     4   9  18  29  47  77 110 137 171 228 282 321
#     4   9  16  29  50  73 104 133 178 222 279 322
#     4  11  21  34  54  81 115 148 183 227 282 337
#     4  10  21  36  54  83 113 147 190 230 285 344
#     4  10  18  29  53  81 105 141 188 235 279 330
#     4   9  17  30  49  78 110 139 178 230 282 331
#     4  10  17  32  49  75 109 141 184 231 275 332
#     4  10  17  33  55  79 106 137 182 234 274 321
#
# _framework density 18.082560000000001
#
# number of rings (size 3 to 8) (size 9 to 14) (size 15 to 20)
#    0.000    2.250    5.000    0.375    0.000    6.000 
#    0.000    0.000    0.000    4.875    0.000    0.875 
#    0.000    0.000    0.000    0.000    0.000    0.000 
#
# Total GULP energy -792939.872832 kJ/mol
# GULP energy per Si atom -12389.685513 kJ/mol
# Density = 1.804140 g / cm^3
# Si number density = 18.082560 Si / 1000 Ang^3
#
#
#
# Elastic Constant Matrix: (Units=GPa)
#
#
# Indices 1 2 3 4 5 6 
#
# 1 133.0756 32.1126 54.7198 0.0000 0.0000 0.0000
# 2 32.1126 79.8967 30.3580 0.0000 0.0000 0.0000
# 3 54.7198 30.3580 82.5788 0.0000 0.0000 0.0000
# 4 0.0000 0.0000 0.0000 24.1433 0.0000 0.0000
# 5 0.0000 0.0000 0.0000 0.0000 18.4895 0.0000
# 6 0.0000 0.0000 0.0000 0.0000 0.0000 -85.8406
#
#
#
# Elastic Compliance Matrix: (Units=1/GPa)
#
#
# Indices 1 2 3 4 5 6 
#
# 1 0.010557 -0.001842 -0.006318 0.000000 0.000000 0.000000
# 2 -0.001842 0.014870 -0.004246 0.000000 0.000000 0.000000
# 3 -0.006318 -0.004246 0.017857 0.000000 0.000000 0.000000
# 4 0.000000 0.000000 0.000000 0.041419 0.000000 0.000000
# 5 0.000000 0.000000 0.000000 0.000000 0.054085 0.000000
# 6 0.000000 0.000000 0.000000 0.000000 0.000000 -0.011650
#
#
# Mechanical properties :
#
#
# Convention : Reuss Voigt Hill
#
# Bulk Modulus (GPa) = 54.13748 58.88132 56.50940
# Shear Modulus (GPa) = 31.62384 3.24917 17.43650
#
# Velocity S-wave (km/s) = 4.18647 1.34192 3.10864
# Velocity P-wave (km/s) = 7.30567 5.91897 6.64857
#
# Compressibility (1/GPa) = 0.01847149
#
# Stress axis : x y z
#
# Youngs Moduli (GPa) = 94.72262 67.24997 56.00006
#
# Poissons Ratio (x) = 0.12391 0.35382
# Poissons Ratio (y) = 0.17453 0.23776
# Poissons Ratio (z) = 0.59848 0.28552
#
# Static dielectric constant tensor:
#      x y z
#    x 3.722330 0.000000 0.000000 
#    y 0.000000 3.435580 0.000000 
#    z 0.000000 0.000000 2.999280 
# 
# 
# High freq. dielectric constant tensor:
#      x y z
#    x 1.706990 0.000000 0.000000 
#    y 0.000000 1.708200 0.000000 
#    z 0.000000 0.000000 1.641340 
# 
# From -- ./inp_files/17185.got.cif
#   From: 2010.03.12/outbox.cif.g09.slc.cpg/sg53_9_cif.got.tgz:17185.got - 2010.04.16 14:36:59.
