data_PCOD8217870
_publ_section_title
;
Structure prediction by ZEFSAII (Michael W. Deem and Ramdas Pophale) SiO2 
 PCOD8217870
Probable space group: P M N A
;
_chemical_formula_sum "Si O2"
_cell_formula_units_Z 64
_cell_length_a 16.363875
_cell_length_b 12.654689
_cell_length_c 14.740120
_cell_angle_alpha 90.000000
_cell_angle_beta 90.000000
_cell_angle_gamma 90.000000
_cell_volume 3052.380349
_symmetry_space_group_name_H-M "P M N A"
_symmetry_group_IT_number 53
_symmetry_cell_setting 'orthorhombic'
loop_
_space_group_symop_operation_xyz
x,y,z
1/2-x,-y,1/2+z
x,-y,-z
1/2-x,y,1/2-z
-x,-y,-z
1/2+x,y,1/2-z
-x,y,z
1/2+x,-y,1/2+z
loop_
_atom_site_type_symbol
_atom_site_label
_atom_site_fract_x
_atom_site_fract_y
_atom_site_fract_z
Si Si1 0.096768 0.231779 0.814725
Si Si2 0.864597 0.526973 0.403763
Si Si3 0.091243 0.242698 0.617915
Si Si4 0.597246 0.149799 0.246906
Si Si5 0.596705 0.889889 0.955329
Si Si6 0.301716 0.434049 0.658868
Si Si7 0.904816 0.610272 0.764033
Si Si8 0.596270 0.011669 0.600869
O O1 0.129846 0.203513 0.713117
O O2 0.142892 0.331515 0.859251
O O3 0.000000 0.257267 0.812631
O O4 0.118077 0.130960 0.874094
O O5 0.903182 0.500000 0.500000
O O6 0.910041 0.631551 0.370779
O O7 0.767377 0.549773 0.417368
O O8 0.884357 0.431025 0.336623
O O9 0.133520 0.199206 0.525404
O O10 0.000000 0.196773 0.614228
O O11 0.500000 0.140965 0.243642
O O12 0.633398 0.121274 0.146564
O O13 0.624776 0.268770 0.271877
O O14 0.632763 0.070867 0.324583
O O15 0.500000 0.877799 0.945909
O O16 0.622803 0.000000 0.000000
O O17 0.250000 0.418220 0.750000
O O18 0.357481 0.538919 0.662704
O O19 0.000000 0.600723 0.784941
O O20 0.500000 0.991842 0.597560
O O21 0.634333 0.000000 0.500000
#
# Coordination Sequence:
#
# PCOD8217870 Si02
#       8
#     8   8   8   8   8   8   8   8
#     4  10  18  33  59  83 107 140 188 242 283 326
#     4  11  22  35  52  80 115 154 189 228 282 348
#     4  10  18  29  52  85 113 145 187 232 280 336
#     4   9  17  30  49  77 112 145 174 225 292 339
#     4   9  16  26  43  76 118 148 174 215 278 345
#     4  10  20  36  54  77 110 152 187 226 279 336
#     4  10  19  34  58  83 112 144 187 237 285 339
#     4   9  18  33  54  81 108 138 184 238 288 334
#
# _framework density 20.967243
#
# number of rings (size 3 to 8) (size 9 to 14) (size 15 to 20)
#    0.000    2.250    2.500    2.250    0.000    5.000 
#    2.250    0.000    0.000    3.750    0.000    0.000 
#    0.000    0.000    0.000    0.000    0.000    0.000 
#
# Total GULP energy -793074.222922 kJ/mol
# GULP energy per Si atom -12391.784733 kJ/mol
# Density = 2.091952 g / cm^3
# Si number density = 20.967243 Si / 1000 Ang^3
#
#
#
# Elastic Constant Matrix: (Units=GPa)
#
#
# Indices 1 2 3 4 5 6 
#
# 1 34.1071 21.7845 0.9581 0.0000 0.0000 0.0000
# 2 21.7845 131.2025 43.3159 0.0000 0.0000 0.0000
# 3 0.9581 43.3159 110.1580 0.0000 0.0000 0.0000
# 4 0.0000 0.0000 0.0000 27.2434 0.0000 0.0000
# 5 0.0000 0.0000 0.0000 0.0000 9.3335 0.0000
# 6 0.0000 0.0000 0.0000 0.0000 0.0000 3.2912
#
#
#
# Elastic Compliance Matrix: (Units=1/GPa)
#
#
# Indices 1 2 3 4 5 6 
#
# 1 0.033240 -0.006233 0.002162 0.000000 0.000000 0.000000
# 2 -0.006233 0.009928 -0.003849 0.000000 0.000000 0.000000
# 3 0.002162 -0.003849 0.010573 0.000000 0.000000 0.000000
# 4 0.000000 0.000000 0.000000 0.036706 0.000000 0.000000
# 5 0.000000 0.000000 0.000000 0.000000 0.107141 0.000000
# 6 0.000000 0.000000 0.000000 0.000000 0.000000 0.303837
#
#
# Mechanical properties :
#
#
# Convention : Reuss Voigt Hill
#
# Bulk Modulus (GPa) = 26.38598 45.28720 35.83659
# Shear Modulus (GPa) = 9.43580 21.93425 15.68502
#
# Velocity S-wave (km/s) = 2.12368 3.23789 2.73806
# Velocity P-wave (km/s) = 4.31568 5.96862 5.20814
#
# Compressibility (1/GPa) = 0.03789891
#
# Stress axis : x y z
#
# Youngs Moduli (GPa) = 30.08467 100.72991 94.58288
#
# Poissons Ratio (x) = 0.62782 -0.20446
# Poissons Ratio (y) = 0.18751 0.36409
# Poissons Ratio (z) = -0.06503 0.38776
#
# Static dielectric constant tensor:
#      x y z
#    x 3.582480 0.000000 0.000000 
#    y 0.000000 3.833130 0.000000 
#    z 0.000000 0.000000 4.019300 
# 
# 
# High freq. dielectric constant tensor:
#      x y z
#    x 1.776810 0.000000 0.000000 
#    y 0.000000 1.828320 0.000000 
#    z 0.000000 0.000000 1.815030 
# 
# From -- ./inp_files/23908.got.cif
#   From: 2010.03.12/outbox.cif.g09.slc.cpg/sg53_12_cif.got.tgz:23908.got - 2010.04.16 14:36:59.
