data_PCOD8217876
_publ_section_title
;
Structure prediction by ZEFSAII (Michael W. Deem and Ramdas Pophale) SiO2 
 PCOD8217876
Probable space group: P M N A
;
_chemical_formula_sum "Si O2"
_cell_formula_units_Z 64
_cell_length_a 9.149193
_cell_length_b 15.063810
_cell_length_c 29.553226
_cell_angle_alpha 90.000000
_cell_angle_beta 90.000000
_cell_angle_gamma 90.000000
_cell_volume 4073.075996
_symmetry_space_group_name_H-M "P M N A"
_symmetry_group_IT_number 53
_symmetry_cell_setting 'orthorhombic'
loop_
_space_group_symop_operation_xyz
x,y,z
1/2-x,-y,1/2+z
x,-y,-z
1/2-x,y,1/2-z
-x,-y,-z
1/2+x,y,1/2-z
-x,y,z
1/2+x,-y,1/2+z
loop_
_atom_site_type_symbol
_atom_site_label
_atom_site_fract_x
_atom_site_fract_y
_atom_site_fract_z
Si Si1 0.169370 0.443798 0.559819
Si Si2 0.831218 0.987606 0.205096
Si Si3 0.672634 0.369117 0.033628
Si Si4 0.830584 0.779644 0.205428
Si Si5 0.826385 0.967238 0.893172
Si Si6 0.670063 0.188937 0.456193
Si Si7 0.829285 0.146681 0.941096
Si Si8 0.328908 0.714162 0.119328
O O1 0.235181 0.391673 0.516473
O O2 0.221968 0.546085 0.564660
O O3 0.199927 0.388169 0.605123
O O4 0.000000 0.448928 0.548010
O O5 0.750000 0.023185 0.250000
O O6 0.770601 0.033579 0.159132
O O7 0.000000 0.009317 0.212670
O O8 0.804119 0.883517 0.197901
O O9 0.500000 0.351258 0.034935
O O10 0.749237 0.281311 0.052120
O O11 0.750000 0.745701 0.250000
O O12 0.760580 0.726397 0.164645
O O13 0.000000 0.756017 0.209081
O O14 0.767971 0.880241 0.918955
O O15 0.000000 0.969285 0.893297
O O16 0.772376 0.054307 0.920043
O O17 0.500000 0.206266 0.448612
O O18 0.698434 0.146125 0.505318
O O19 0.731052 0.223733 0.920246
O O20 0.000000 0.163228 0.929394
O O21 0.500000 0.733843 0.126819
#
# Coordination Sequence:
#
# PCOD8217876 Si02
#       8
#     8   8   8   8   8   8   8   8
#     4   8  16  29  47  65  87 123 157 183 225 280
#     4   9  17  30  47  64  87 117 151 187 225 270
#     4   9  16  31  48  63  88 122 156 189 227 273
#     4  10  19  32  48  69  94 123 155 189 232 279
#     4   9  17  31  46  63  90 127 158 184 227 282
#     4  10  19  29  46  68  91 121 160 199 232 267
#     4  10  18  30  44  63  92 128 162 188 220 272
#     4  11  19  29  47  70  93 122 158 194 230 273
#
# _framework density 15.71294
#
# number of rings (size 3 to 8) (size 9 to 14) (size 15 to 20)
#    0.000    2.500    2.500    1.875    0.000    2.000 
#    0.000    3.750    0.000    1.500    0.000    0.875 
#    0.000    4.000    0.000    0.000    0.000    0.000 
#
# Total GULP energy -793306.603351 kJ/mol
# GULP energy per Si atom -12395.415677 kJ/mol
# Density = 1.567718 g / cm^3
# Si number density = 15.712940 Si / 1000 Ang^3
#
#
#
# Elastic Constant Matrix: (Units=GPa)
#
#
# Indices 1 2 3 4 5 6 
#
# 1 53.8135 35.4079 43.4394 0.0000 0.0000 0.0000
# 2 35.4079 103.4670 58.9863 0.0000 0.0000 0.0000
# 3 43.4394 58.9863 122.2249 0.0000 0.0000 0.0000
# 4 0.0000 0.0000 0.0000 19.7205 0.0000 0.0000
# 5 0.0000 0.0000 0.0000 0.0000 20.7006 0.0000
# 6 0.0000 0.0000 0.0000 0.0000 0.0000 20.6705
#
#
#
# Elastic Compliance Matrix: (Units=1/GPa)
#
#
# Indices 1 2 3 4 5 6 
#
# 1 0.028095 -0.005411 -0.007374 0.000000 0.000000 0.000000
# 2 -0.005411 0.014375 -0.005015 0.000000 0.000000 0.000000
# 3 -0.007374 -0.005015 0.013222 0.000000 0.000000 0.000000
# 4 0.000000 0.000000 0.000000 0.050709 0.000000 0.000000
# 5 0.000000 0.000000 0.000000 0.000000 0.048308 0.000000
# 6 0.000000 0.000000 0.000000 0.000000 0.000000 0.048378
#
#
# Mechanical properties :
#
#
# Convention : Reuss Voigt Hill
#
# Bulk Modulus (GPa) = 49.76497 61.68585 55.72541
# Shear Modulus (GPa) = 20.37621 21.66312 21.01966
#
# Velocity S-wave (km/s) = 3.60499 3.71709 3.66147
# Velocity P-wave (km/s) = 7.00486 7.60036 7.30868
#
# Compressibility (1/GPa) = 0.02009446
#
# Stress axis : x y z
#
# Youngs Moduli (GPa) = 35.59327 69.56351 75.62897
#
# Poissons Ratio (x) = 0.37639 0.55768
# Poissons Ratio (y) = 0.19258 0.37925
# Poissons Ratio (z) = 0.26246 0.34883
#
# Static dielectric constant tensor:
#      x y z
#    x 2.842300 0.000000 0.000000 
#    y 0.000000 3.020260 0.000000 
#    z 0.000000 0.000000 3.121120 
# 
# 
# High freq. dielectric constant tensor:
#      x y z
#    x 1.586380 0.000000 0.000000 
#    y 0.000000 1.587320 0.000000 
#    z 0.000000 0.000000 1.595120 
# 
# From -- ./inp_files/38412.got.cif
#   From: 2010.03.12/outbox.cif.g09.slc.cpg/sg53_20_cif.got.tgz:38412.got - 2010.04.16 14:36:59.
