data_PCOD8217005
_publ_section_title
;
Structure prediction by ZEFSAII (Michael W. Deem and Ramdas Pophale) SiO2 
 PCOD8217005
Probable space group: P N N A
;
_chemical_formula_sum "Si O2"
_cell_formula_units_Z 48
_cell_length_a 8.615321
_cell_length_b 30.970825
_cell_length_c 8.839782
_cell_angle_alpha 90.000000
_cell_angle_beta 90.000000
_cell_angle_gamma 90.000000
_cell_volume 2358.662448
_symmetry_space_group_name_H-M "P N N A"
_symmetry_group_IT_number 52
_symmetry_cell_setting 'orthorhombic'
loop_
_space_group_symop_operation_xyz
x,y,z
1/2-x,-y,z
x,1/2-y,1/2-z
1/2-x,1/2+y,1/2-z
-x,-y,-z
1/2+x,y,-z
-x,1/2+y,1/2+z
1/2+x,1/2-y,1/2+z
loop_
_atom_site_type_symbol
_atom_site_label
_atom_site_fract_x
_atom_site_fract_y
_atom_site_fract_z
Si Si1 0.696107 0.127923 0.790411
Si Si2 0.722262 0.952943 0.293871
Si Si3 0.721764 0.201042 0.296292
Si Si4 0.645200 0.871479 0.096583
Si Si5 0.449157 0.921922 0.460569
Si Si6 0.089561 0.831609 0.434094
O O1 0.534152 0.140329 0.871194
O O2 0.670554 0.086766 0.678986
O O3 0.766431 0.165353 0.683394
O O4 0.825947 0.120268 0.918908
O O5 0.693999 0.916847 0.169157
O O6 0.574942 0.956626 0.405097
O O7 0.871457 0.940108 0.390596
O O8 0.750000 0.000000 0.218648
O O9 0.737579 0.250000 0.250000
O O10 0.750797 0.168037 0.157590
O O11 0.549669 0.193610 0.357025
O O12 0.851554 0.194844 0.423058
O O13 0.537497 0.877796 0.501831
#
# Coordination Sequence:
#
# PCOD8217005 Si02
#       6
#     8   8   8   8   8   8
#     4  11  22  39  71  90 127 179 212 268 334 391
#     4  11  22  38  65  99 132 170 224 272 325 395
#     4  12  25  42  67  95 129 174 217 273 334 394
#     4  11  23  42  62  97 133 172 218 271 339 383
#     4  11  19  40  67  93 124 178 217 267 326 381
#     4  12  20  45  68  92 131 170 223 271 325 395
#
# _framework density 20.350518000000001
#
# number of rings (size 3 to 8) (size 9 to 14) (size 15 to 20)
#    0.000    0.667    8.333    1.500    0.000    2.667 
#    0.000    5.833    0.000    0.000    0.000    0.000 
#    0.000    0.000    0.000    0.000    0.000    0.000 
#
# Total GULP energy -595092.667443 kJ/mol
# GULP energy per Si atom -12397.763905 kJ/mol
# Density = 2.030420 g / cm^3
# Si number density = 20.350518 Si / 1000 Ang^3
#
#
#
# Elastic Constant Matrix: (Units=GPa)
#
#
# Indices 1 2 3 4 5 6 
#
# 1 71.3549 23.3757 19.9266 0.0000 0.0000 0.0000
# 2 23.3757 112.9416 32.1719 0.0000 0.0000 0.0000
# 3 19.9266 32.1719 89.1903 0.0000 0.0000 0.0000
# 4 0.0000 0.0000 0.0000 117.0842 0.0000 0.0000
# 5 0.0000 0.0000 0.0000 0.0000 59.3568 0.0000
# 6 0.0000 0.0000 0.0000 0.0000 0.0000 25.4574
#
#
#
# Elastic Compliance Matrix: (Units=1/GPa)
#
#
# Indices 1 2 3 4 5 6 
#
# 1 0.015548 -0.002484 -0.002578 0.000000 0.000000 0.000000
# 2 -0.002484 0.010265 -0.003148 0.000000 0.000000 0.000000
# 3 -0.002578 -0.003148 0.012923 0.000000 0.000000 0.000000
# 4 0.000000 0.000000 0.000000 0.008541 0.000000 0.000000
# 5 0.000000 0.000000 0.000000 0.000000 0.016847 0.000000
# 6 0.000000 0.000000 0.000000 0.000000 0.000000 0.039281
#
#
# Mechanical properties :
#
#
# Convention : Reuss Voigt Hill
#
# Bulk Modulus (GPa) = 44.80747 47.15947 45.98347
# Shear Modulus (GPa) = 39.28866 53.58053 46.43459
#
# Velocity S-wave (km/s) = 4.39862 5.13673 4.78194
# Velocity P-wave (km/s) = 6.91830 7.64233 7.28931
#
# Compressibility (1/GPa) = 0.02231771
#
# Stress axis : x y z
#
# Youngs Moduli (GPa) = 64.31705 97.42001 77.37951
#
# Poissons Ratio (x) = 0.24196 0.19947
# Poissons Ratio (y) = 0.15974 0.24357
# Poissons Ratio (z) = 0.16580 0.30665
#
# Static dielectric constant tensor:
#      x y z
#    x 4.118520 0.000000 0.000000 
#    y 0.000000 3.508640 0.000000 
#    z 0.000000 0.000000 3.858460 
# 
# 
# High freq. dielectric constant tensor:
#      x y z
#    x 1.814370 0.000000 0.000000 
#    y 0.000000 1.766780 0.000000 
#    z 0.000000 0.000000 1.800510 
# 
# From -- ./inp_files/7691.got.cif
#   From: 2010.06.25/outbox.cif.g09.slc.cpg/sg52_4_cif.got.tgz:7691.got - 2010.06.26 19:32:48.
