data_PCOD8217640
_publ_section_title
;
Structure prediction by ZEFSAII (Michael W. Deem and Ramdas Pophale) SiO2 
 PCOD8217640
Probable space group: P M N A
;
_chemical_formula_sum "Si O2"
_cell_formula_units_Z 56
_cell_length_a 17.578472
_cell_length_b 9.356807
_cell_length_c 17.347379
_cell_angle_alpha 90.000000
_cell_angle_beta 90.000000
_cell_angle_gamma 90.000000
_cell_volume 2853.268619
_symmetry_space_group_name_H-M "P M N A"
_symmetry_group_IT_number 53
_symmetry_cell_setting 'orthorhombic'
loop_
_space_group_symop_operation_xyz
x,y,z
1/2-x,-y,1/2+z
x,-y,-z
1/2-x,y,1/2-z
-x,-y,-z
1/2+x,y,1/2-z
-x,y,z
1/2+x,-y,1/2+z
loop_
_atom_site_type_symbol
_atom_site_label
_atom_site_fract_x
_atom_site_fract_y
_atom_site_fract_z
Si Si1 0.586798 0.809452 0.792405
Si Si2 0.586164 0.433886 0.584495
Si Si3 0.917157 0.260698 0.121519
Si Si4 0.246109 0.300870 0.895579
Si Si5 0.788268 0.016262 0.670721
Si Si6 0.291411 0.412907 0.171042
Si Si7 0.726633 0.190718 0.442158
O O1 0.500000 0.805603 0.821366
O O2 0.592620 0.826032 0.700547
O O3 0.626405 0.951415 0.828614
O O4 0.626032 0.660591 0.819271
O O5 0.601583 0.500000 0.500000
O O6 0.500000 0.366896 0.590907
O O7 0.593977 0.570357 0.640914
O O8 0.654017 0.324615 0.608931
O O9 0.864989 0.197245 0.052418
O O10 0.000000 0.237813 0.085664
O O11 0.294726 0.444033 0.880826
O O12 0.278019 0.187146 0.833106
O O13 0.267874 0.241478 0.980409
O O14 0.750000 0.958879 0.750000
O O15 0.750723 0.964409 0.589432
O O16 0.250000 0.454229 0.250000
O O17 0.239752 0.297751 0.128771
#
# Coordination Sequence:
#
# PCOD8217640 Si02
#       7
#     8   8   8   8   8   8   8
#     4  10  20  38  63  83 107 151 203 247 288 342
#     4  10  18  30  51  84 123 156 184 223 281 348
#     4  10  17  30  58  87 111 149 196 232 270 340
#     4  12  22  33  55  88 122 156 189 241 302 342
#     4  11  23  39  56  81 116 155 201 245 287 348
#     4  11  19  35  59  87 116 145 195 245 284 344
#     4  11  19  36  56  83 113 153 199 237 275 348
#
# _framework density 19.626612999999999
#
# number of rings (size 3 to 8) (size 9 to 14) (size 15 to 20)
#    0.000    1.286    5.714    2.143    0.000    0.000 
#    0.000    2.143    0.000   15.429    0.000    0.000 
#    0.000    0.000    0.000    0.000    0.000    0.000 
#
# Total GULP energy -693836.544884 kJ/mol
# GULP energy per Si atom -12389.938301 kJ/mol
# Density = 1.958194 g / cm^3
# Si number density = 19.626613 Si / 1000 Ang^3
#
#
#
# Elastic Constant Matrix: (Units=GPa)
#
#
# Indices 1 2 3 4 5 6 
#
# 1 128.3144 43.6590 19.2058 0.0000 0.0000 0.0000
# 2 43.6590 84.6276 6.0200 0.0000 0.0000 0.0000
# 3 19.2058 6.0200 49.2785 0.0000 0.0000 0.0000
# 4 0.0000 0.0000 0.0000 23.3871 0.0000 0.0000
# 5 0.0000 0.0000 0.0000 0.0000 22.2664 0.0000
# 6 0.0000 0.0000 0.0000 0.0000 0.0000 23.9773
#
#
#
# Elastic Compliance Matrix: (Units=1/GPa)
#
#
# Indices 1 2 3 4 5 6 
#
# 1 0.009952 -0.004901 -0.003280 0.000000 0.000000 0.000000
# 2 -0.004901 0.014333 0.000159 0.000000 0.000000 0.000000
# 3 -0.003280 0.000159 0.021552 0.000000 0.000000 0.000000
# 4 0.000000 0.000000 0.000000 0.042759 0.000000 0.000000
# 5 0.000000 0.000000 0.000000 0.000000 0.044911 0.000000
# 6 0.000000 0.000000 0.000000 0.000000 0.000000 0.041706
#
#
# Mechanical properties :
#
#
# Convention : Reuss Voigt Hill
#
# Bulk Modulus (GPa) = 33.56425 44.44335 39.00380
# Shear Modulus (GPa) = 24.85252 26.81522 25.83387
#
# Velocity S-wave (km/s) = 3.56232 3.70032 3.63198
# Velocity P-wave (km/s) = 5.83599 6.39922 6.12408
#
# Compressibility (1/GPa) = 0.02979360
#
# Stress axis : x y z
#
# Youngs Moduli (GPa) = 100.48463 69.76691 46.40005
#
# Poissons Ratio (x) = 0.34191 0.15219
# Poissons Ratio (y) = 0.49245 -0.00738
# Poissons Ratio (z) = 0.32958 -0.01109
#
# Static dielectric constant tensor:
#      x y z
#    x 3.664290 0.000000 0.000000 
#    y 0.000000 3.499570 0.000000 
#    z 0.000000 0.000000 3.491590 
# 
# 
# High freq. dielectric constant tensor:
#      x y z
#    x 1.748650 0.000000 0.000000 
#    y 0.000000 1.750910 0.000000 
#    z 0.000000 0.000000 1.756720 
# 
# From -- ./inp_files/32796.got.cif
#   From: 2010.03.12/outbox.cif.g09.slc.cpg/sg53_17_cif.got.tgz:32796.got - 2010.04.16 14:36:59.
