data_PCOD8217297
_publ_section_title
;
Structure prediction by ZEFSAII (Michael W. Deem and Ramdas Pophale) SiO2 
 PCOD8217297
Probable space group: P N N A
;
_chemical_formula_sum "Si O2"
_cell_formula_units_Z 36
_cell_length_a 11.337113
_cell_length_b 16.692126
_cell_length_c 9.192583
_cell_angle_alpha 90.000000
_cell_angle_beta 90.000000
_cell_angle_gamma 90.000000
_cell_volume 1739.609175
_symmetry_space_group_name_H-M "P N N A"
_symmetry_group_IT_number 52
_symmetry_cell_setting 'orthorhombic'
loop_
_space_group_symop_operation_xyz
x,y,z
1/2-x,-y,z
x,1/2-y,1/2-z
1/2-x,1/2+y,1/2-z
-x,-y,-z
1/2+x,y,-z
-x,1/2+y,1/2+z
1/2+x,1/2-y,1/2+z
loop_
_atom_site_type_symbol
_atom_site_label
_atom_site_fract_x
_atom_site_fract_y
_atom_site_fract_z
Si Si1 0.596864 0.420999 0.209250
Si Si2 0.860479 0.103905 0.238370
Si Si3 0.039063 0.181731 0.443886
Si Si4 0.069345 0.663862 0.429469
Si Si5 0.235477 0.250000 0.250000
O O1 0.721611 0.380126 0.247397
O O2 0.605238 0.516159 0.207341
O O3 0.500460 0.396350 0.326826
O O4 0.556827 0.393403 0.049597
O O5 0.927777 0.167911 0.338486
O O6 0.897363 0.114437 0.072003
O O7 0.156388 0.192055 0.348993
O O8 0.013993 0.260593 0.538069
O O9 0.187596 0.692176 0.350318
#
# Coordination Sequence:
#
# PCOD8217297 Si02
#       5
#     8   8   8   8   4
#     4  11  25  44  67  96 134 172 217 270 332 389
#     4  11  25  44  67  96 134 172 217 270 332 389
#     4  12  23  44  69  97 132 174 221 271 326 395
#     4  12  23  44  69  97 132 174 221 271 326 395
#     4  12  24  40  70 104 132 172 232 270 332 384
#
# _framework density 20.694303000000001
#
# number of rings (size 3 to 8) (size 9 to 14) (size 15 to 20)
#    0.000    0.444    4.444    4.000    0.000    1.778 
#    0.000    0.000    0.000    0.000    0.000    0.000 
#    0.000    0.000    0.000    0.000    0.000    0.000 
#
# Total GULP energy -446727.284777 kJ/mol
# GULP energy per Si atom -12409.091244 kJ/mol
# Density = 2.064720 g / cm^3
# Si number density = 20.694303 Si / 1000 Ang^3
#
#
#
# Elastic Constant Matrix: (Units=GPa)
#
#
# Indices 1 2 3 4 5 6 
#
# 1 106.8015 14.1412 40.2602 0.0000 0.0000 0.0000
# 2 14.1412 42.2000 3.7711 0.0000 0.0000 0.0000
# 3 40.2602 3.7711 109.4151 0.0000 0.0000 0.0000
# 4 0.0000 0.0000 0.0000 44.4096 0.0000 0.0000
# 5 0.0000 0.0000 0.0000 0.0000 44.3731 0.0000
# 6 0.0000 0.0000 0.0000 0.0000 0.0000 36.1829
#
#
#
# Elastic Compliance Matrix: (Units=1/GPa)
#
#
# Indices 1 2 3 4 5 6 
#
# 1 0.011348 -0.003440 -0.004057 0.000000 0.000000 0.000000
# 2 -0.003440 0.024813 0.000411 0.000000 0.000000 0.000000
# 3 -0.004057 0.000411 0.010618 0.000000 0.000000 0.000000
# 4 0.000000 0.000000 0.000000 0.022518 0.000000 0.000000
# 5 0.000000 0.000000 0.000000 0.000000 0.022536 0.000000
# 6 0.000000 0.000000 0.000000 0.000000 0.000000 0.027637
#
#
# Mechanical properties :
#
#
# Convention : Reuss Voigt Hill
#
# Bulk Modulus (GPa) = 30.66936 41.64018 36.15477
# Shear Modulus (GPa) = 34.59925 38.34274 36.47099
#
# Velocity S-wave (km/s) = 4.09335 4.30910 4.20261
# Velocity P-wave (km/s) = 6.09861 6.70247 6.40766
#
# Compressibility (1/GPa) = 0.03260583
#
# Stress axis : x y z
#
# Youngs Moduli (GPa) = 88.12118 40.30184 94.17821
#
# Poissons Ratio (x) = 0.13864 0.38208
# Poissons Ratio (y) = 0.30315 -0.03867
# Poissons Ratio (z) = 0.35751 -0.01655
#
# Static dielectric constant tensor:
#      x y z
#    x 3.948570 0.000000 0.000000 
#    y 0.000000 3.578400 0.000000 
#    z 0.000000 0.000000 3.933500 
# 
# 
# High freq. dielectric constant tensor:
#      x y z
#    x 1.823630 0.000000 0.000000 
#    y 0.000000 1.807900 0.000000 
#    z 0.000000 0.000000 1.829310 
# 
# From -- ./inp_files/8502.got.cif
#   From: 2010.06.25/outbox.cif.g09.slc.cpg/sg52_5_cif.got.tgz:8502.got - 2010.06.26 19:32:48.
