data_PCOD8217117
_publ_section_title
;
Structure prediction by ZEFSAII (Michael W. Deem and Ramdas Pophale) SiO2 
 PCOD8217117
Probable space group: P N N A
;
_chemical_formula_sum "Si O2"
_cell_formula_units_Z 44
_cell_length_a 24.721023
_cell_length_b 4.974607
_cell_length_c 15.499997
_cell_angle_alpha 90.000000
_cell_angle_beta 90.000000
_cell_angle_gamma 90.000000
_cell_volume 1906.148929
_symmetry_space_group_name_H-M "P N N A"
_symmetry_group_IT_number 52
_symmetry_cell_setting 'orthorhombic'
loop_
_space_group_symop_operation_xyz
x,y,z
1/2-x,-y,z
x,1/2-y,1/2-z
1/2-x,1/2+y,1/2-z
-x,-y,-z
1/2+x,y,-z
-x,1/2+y,1/2+z
1/2+x,1/2-y,1/2+z
loop_
_atom_site_type_symbol
_atom_site_label
_atom_site_fract_x
_atom_site_fract_y
_atom_site_fract_z
Si Si1 0.648467 0.720959 0.483905
Si Si2 0.250000 0.500000 0.607773
Si Si3 0.819715 0.750000 0.250000
Si Si4 0.506977 0.250000 0.250000
Si Si5 0.646946 0.213277 0.599607
Si Si6 0.911030 0.414184 0.174175
Si Si7 0.435108 0.750000 0.250000
Si Si8 0.250000 0.500000 0.196460
O O1 0.709168 0.672384 0.450629
O O2 0.638165 0.510964 0.560892
O O3 0.602356 0.726450 0.408528
O O4 0.641880 0.020441 0.518311
O O5 0.216273 0.301401 0.666835
O O6 0.854663 0.500848 0.217649
O O7 0.545783 0.337835 0.166815
O O8 0.469563 0.494807 0.281043
O O9 0.601533 0.156232 0.670075
O O10 0.705396 0.156842 0.640905
O O11 0.941376 0.250000 0.250000
O O12 0.276783 0.250000 0.250000
#
# Coordination Sequence:
#
# PCOD8217117 Si02
#       8
#     8   4   4   4   8   8   4   4
#     4  12  26  43  69 108 149 193 230 296 348 427
#     4  12  22  39  65 106 152 194 248 272 341 417
#     4  11  22  38  67 102 145 208 236 283 324 436
#     4  11  26  46  85 102 129 194 244 297 368 438
#     4  12  27  47  72 105 149 182 240 297 363 424
#     4  11  23  47  71 101 147 192 238 284 363 431
#     4  12  26  52  76 104 134 182 244 318 370 426
#     4  12  24  45  75 106 140 200 242 284 359 441
#
# _framework density 23.083193000000001
#
# number of rings (size 3 to 8) (size 9 to 14) (size 15 to 20)
#    0.000    0.364    3.636    5.455    3.818    1.455 
#    0.000    5.455    0.000    0.000    0.000    0.000 
#    0.000    0.000    0.000    0.000    0.000    0.000 
#
# Total GULP energy -545205.744228 kJ/mol
# GULP energy per Si atom -12391.039642 kJ/mol
# Density = 2.303065 g / cm^3
# Si number density = 23.083193 Si / 1000 Ang^3
#
#
#
# Elastic Constant Matrix: (Units=GPa)
#
#
# Indices 1 2 3 4 5 6 
#
# 1 127.4748 41.0243 50.1963 0.0000 0.0000 0.0000
# 2 41.0243 98.3121 30.1259 0.0000 0.0000 0.0000
# 3 50.1963 30.1259 108.7230 0.0000 0.0000 0.0000
# 4 0.0000 0.0000 0.0000 49.4071 0.0000 0.0000
# 5 0.0000 0.0000 0.0000 0.0000 8.9205 0.0000
# 6 0.0000 0.0000 0.0000 0.0000 0.0000 80.7270
#
#
#
# Elastic Compliance Matrix: (Units=1/GPa)
#
#
# Indices 1 2 3 4 5 6 
#
# 1 0.010403 -0.003135 -0.003934 0.000000 0.000000 0.000000
# 2 -0.003135 0.012061 -0.001894 0.000000 0.000000 0.000000
# 3 -0.003934 -0.001894 0.011539 0.000000 0.000000 0.000000
# 4 0.000000 0.000000 0.000000 0.020240 0.000000 0.000000
# 5 0.000000 0.000000 0.000000 0.000000 0.112102 0.000000
# 6 0.000000 0.000000 0.000000 0.000000 0.000000 0.012387
#
#
# Mechanical properties :
#
#
# Convention : Reuss Voigt Hill
#
# Bulk Modulus (GPa) = 62.20942 64.13363 63.17152
# Shear Modulus (GPa) = 24.75035 42.02181 33.38608
#
# Velocity S-wave (km/s) = 3.27804 4.27130 3.80720
# Velocity P-wave (km/s) = 6.42930 7.22284 6.83759
#
# Compressibility (1/GPa) = 0.01607474
#
# Stress axis : x y z
#
# Youngs Moduli (GPa) = 96.12705 82.91517 86.66338
#
# Poissons Ratio (x) = 0.25998 0.34094
# Poissons Ratio (y) = 0.30140 0.16416
# Poissons Ratio (z) = 0.37818 0.15706
#
# Static dielectric constant tensor:
#      x y z
#    x 4.307470 0.000000 0.000000 
#    y 0.000000 4.360830 0.000000 
#    z 0.000000 0.000000 4.130700 
# 
# 
# High freq. dielectric constant tensor:
#      x y z
#    x 1.911770 0.000000 0.000000 
#    y 0.000000 1.931860 0.000000 
#    z 0.000000 0.000000 1.900010 
# 
# From -- ./inp_files/29400.got.cif
#   From: 2010.06.25/outbox.cif.g09.slc.cpg/sg52_15_cif.got.tgz:29400.got - 2010.06.26 19:32:48.
