data_PCOD8217757
_publ_section_title
;
Structure prediction by ZEFSAII (Michael W. Deem and Ramdas Pophale) SiO2 
 PCOD8217757
Probable space group: P M N A
;
_chemical_formula_sum "Si O2"
_cell_formula_units_Z 56
_cell_length_a 9.006063
_cell_length_b 16.126178
_cell_length_c 24.302141
_cell_angle_alpha 90.000000
_cell_angle_beta 90.000000
_cell_angle_gamma 90.000000
_cell_volume 3529.481958
_symmetry_space_group_name_H-M "P M N A"
_symmetry_group_IT_number 53
_symmetry_cell_setting 'orthorhombic'
loop_
_space_group_symop_operation_xyz
x,y,z
1/2-x,-y,1/2+z
x,-y,-z
1/2-x,y,1/2-z
-x,-y,-z
1/2+x,y,1/2-z
-x,y,z
1/2+x,-y,1/2+z
loop_
_atom_site_type_symbol
_atom_site_label
_atom_site_fract_x
_atom_site_fract_y
_atom_site_fract_z
Si Si1 0.674905 0.371966 0.486390
Si Si2 0.170750 0.187747 0.018806
Si Si3 0.170483 0.885238 0.101961
Si Si4 0.174158 0.587571 0.306197
Si Si5 0.175264 0.477970 0.911917
Si Si6 0.832798 0.036998 0.439308
Si Si7 0.825826 0.221154 0.693947
O O1 0.500000 0.365334 0.493484
O O2 0.740149 0.280150 0.476410
O O3 0.734691 0.410888 0.543550
O O4 0.714394 0.430590 0.434912
O O5 0.262042 0.128611 0.059840
O O6 0.000000 0.185054 0.037686
O O7 0.187155 0.158706 0.956418
O O8 0.263941 0.832178 0.144370
O O9 0.000000 0.890091 0.120727
O O10 0.236189 0.978153 0.100257
O O11 0.250000 0.557194 0.250000
O O12 0.237672 0.532504 0.355416
O O13 0.214049 0.683250 0.317700
O O14 0.000000 0.572933 0.300954
O O15 0.000000 0.468038 0.901607
O O16 0.000000 0.042665 0.416366
O O17 0.830733 0.000000 0.500000
O O18 0.750000 0.190657 0.750000
O O19 0.000000 0.206926 0.699334
#
# Coordination Sequence:
#
# PCOD8217757 Si02
#       7
#     8   8   8   8   8   8   8
#     4   8  15  27  45  67  91 121 152 183 222 269
#     4   9  16  27  43  64  89 117 150 182 214 258
#     4  10  18  28  45  66  88 116 147 180 217 256
#     4  10  20  32  46  65  89 118 151 187 225 263
#     4   9  16  29  47  66  90 120 153 185 221 267
#     4   9  17  28  41  60  87 116 145 177 213 253
#     4  10  20  32  45  63  88 116 147 181 216 257
#
# _framework density 15.866350000000001
#
# number of rings (size 3 to 8) (size 9 to 14) (size 15 to 20)
#    0.000    2.714    0.000    3.429    0.000    5.143 
#    0.000    2.857    0.000    0.000    0.000    1.000 
#    0.000    2.286    0.000    0.000    0.000    0.000 
#
# Total GULP energy -694357.612773 kJ/mol
# GULP energy per Si atom -12399.243085 kJ/mol
# Density = 1.583024 g / cm^3
# Si number density = 15.866350 Si / 1000 Ang^3
#
#
#
# Elastic Constant Matrix: (Units=GPa)
#
#
# Indices 1 2 3 4 5 6 
#
# 1 71.9565 38.8604 35.6392 0.0000 0.0000 0.0000
# 2 38.8604 113.8402 36.8354 0.0000 0.0000 0.0000
# 3 35.6392 36.8354 74.8319 0.0000 0.0000 0.0000
# 4 0.0000 0.0000 0.0000 18.8462 0.0000 0.0000
# 5 0.0000 0.0000 0.0000 0.0000 27.5034 0.0000
# 6 0.0000 0.0000 0.0000 0.0000 0.0000 21.7372
#
#
#
# Elastic Compliance Matrix: (Units=1/GPa)
#
#
# Indices 1 2 3 4 5 6 
#
# 1 0.019906 -0.004434 -0.007298 0.000000 0.000000 0.000000
# 2 -0.004434 0.011436 -0.003518 0.000000 0.000000 0.000000
# 3 -0.007298 -0.003518 0.018571 0.000000 0.000000 0.000000
# 4 0.000000 0.000000 0.000000 0.053061 0.000000 0.000000
# 5 0.000000 0.000000 0.000000 0.000000 0.036359 0.000000
# 6 0.000000 0.000000 0.000000 0.000000 0.000000 0.046004
#
#
# Mechanical properties :
#
#
# Convention : Reuss Voigt Hill
#
# Bulk Modulus (GPa) = 51.50931 53.69982 52.60457
# Shear Modulus (GPa) = 22.49135 23.57026 23.03081
#
# Velocity S-wave (km/s) = 3.76912 3.85846 3.81406
# Velocity P-wave (km/s) = 7.17473 7.33273 7.25416
#
# Compressibility (1/GPa) = 0.01941396
#
# Stress axis : x y z
#
# Youngs Moduli (GPa) = 50.23504 87.44347 53.84865
#
# Poissons Ratio (x) = 0.38771 0.39299
# Poissons Ratio (y) = 0.22273 0.18942
# Poissons Ratio (z) = 0.36662 0.30759
#
# Static dielectric constant tensor:
#      x y z
#    x 3.002660 0.000000 0.000000 
#    y 0.000000 3.225750 0.000000 
#    z 0.000000 0.000000 2.825140 
# 
# 
# High freq. dielectric constant tensor:
#      x y z
#    x 1.608260 0.000000 0.000000 
#    y 0.000000 1.603630 0.000000 
#    z 0.000000 0.000000 1.581790 
# 
# From -- ./inp_files/30858.got.cif
#   From: 2010.03.12/outbox.cif.g09.slc.cpg/sg53_16_cif.got.tgz:30858.got - 2010.04.16 14:36:59.
