data_PCOD8217746
_publ_section_title
;
Structure prediction by ZEFSAII (Michael W. Deem and Ramdas Pophale) SiO2 
 PCOD8217746
Probable space group: P M N A
;
_chemical_formula_sum "Si O2"
_cell_formula_units_Z 56
_cell_length_a 14.664989
_cell_length_b 9.543224
_cell_length_c 24.945348
_cell_angle_alpha 90.000000
_cell_angle_beta 90.000000
_cell_angle_gamma 90.000000
_cell_volume 3491.133258
_symmetry_space_group_name_H-M "P M N A"
_symmetry_group_IT_number 53
_symmetry_cell_setting 'orthorhombic'
loop_
_space_group_symop_operation_xyz
x,y,z
1/2-x,-y,1/2+z
x,-y,-z
1/2-x,y,1/2-z
-x,-y,-z
1/2+x,y,1/2-z
-x,y,z
1/2+x,-y,1/2+z
loop_
_atom_site_type_symbol
_atom_site_label
_atom_site_fract_x
_atom_site_fract_y
_atom_site_fract_z
Si Si1 0.343538 0.710354 0.226785
Si Si2 0.107305 0.911567 0.450215
Si Si3 0.897609 0.021863 0.666792
Si Si4 0.784966 0.515689 0.642799
Si Si5 0.892892 0.728357 0.705625
Si Si6 0.100922 0.408133 0.551787
Si Si7 0.897860 0.529350 0.802184
O O1 0.250000 0.772075 0.250000
O O2 0.322553 0.609008 0.178333
O O3 0.397490 0.620258 0.271368
O O4 0.399068 0.841277 0.204329
O O5 0.130021 0.749929 0.461892
O O6 0.000000 0.937929 0.448632
O O7 0.150163 0.000000 0.500000
O O8 0.150668 0.955194 0.391696
O O9 0.860625 0.890752 0.702034
O O10 0.000000 0.983762 0.652184
O O11 0.835318 0.657993 0.658499
O O12 0.815514 0.478842 0.583262
O O13 0.675097 0.529403 0.649262
O O14 0.868177 0.656951 0.762700
O O15 0.000000 0.705701 0.695015
O O16 0.089605 0.500000 0.500000
O O17 0.000000 0.407151 0.581002
O O18 0.000000 0.553030 0.825048
#
# Coordination Sequence:
#
# PCOD8217746 Si02
#       7
#     8   8   8   8   8   8   8
#     4   9  17  28  45  67  90 118 152 193 229 273
#     4   9  18  30  43  63  94 125 152 181 219 270
#     4  10  18  28  44  65  93 127 154 184 224 271
#     4  10  18  31  47  66  92 122 157 191 233 275
#     4   9  18  28  43  67  96 127 156 182 223 276
#     4  10  20  31  48  71  95 122 152 187 226 277
#     4   9  18  32  48  65  89 122 158 197 235 273
#
# _framework density 16.040637
#
# number of rings (size 3 to 8) (size 9 to 14) (size 15 to 20)
#    0.000    2.571    1.429    2.143    2.000    2.286 
#    0.000    0.000    0.000    0.429    0.000    0.000 
#    0.000    0.571    0.000    0.143    0.000    0.000 
#
# Total GULP energy -693784.494417 kJ/mol
# GULP energy per Si atom -12389.008829 kJ/mol
# Density = 1.600413 g / cm^3
# Si number density = 16.040637 Si / 1000 Ang^3
#
#
#
# Elastic Constant Matrix: (Units=GPa)
#
#
# Indices 1 2 3 4 5 6 
#
# 1 58.5856 23.0444 26.2563 0.0000 0.0000 0.0000
# 2 23.0444 105.9408 30.1148 0.0000 0.0000 0.0000
# 3 26.2563 30.1148 58.1216 0.0000 0.0000 0.0000
# 4 0.0000 0.0000 0.0000 16.3486 0.0000 0.0000
# 5 0.0000 0.0000 0.0000 0.0000 17.0063 0.0000
# 6 0.0000 0.0000 0.0000 0.0000 0.0000 13.4270
#
#
#
# Elastic Compliance Matrix: (Units=1/GPa)
#
#
# Indices 1 2 3 4 5 6 
#
# 1 0.021864 -0.002285 -0.008693 0.000000 0.000000 0.000000
# 2 -0.002285 0.011308 -0.004827 0.000000 0.000000 0.000000
# 3 -0.008693 -0.004827 0.023634 0.000000 0.000000 0.000000
# 4 0.000000 0.000000 0.000000 0.061167 0.000000 0.000000
# 5 0.000000 0.000000 0.000000 0.000000 0.058802 0.000000
# 6 0.000000 0.000000 0.000000 0.000000 0.000000 0.074477
#
#
# Mechanical properties :
#
#
# Convention : Reuss Voigt Hill
#
# Bulk Modulus (GPa) = 39.68933 42.38654 41.03794
# Shear Modulus (GPa) = 17.16679 18.90520 18.03600
#
# Velocity S-wave (km/s) = 3.27495 3.43677 3.35684
# Velocity P-wave (km/s) = 6.25277 6.49849 6.37681
#
# Compressibility (1/GPa) = 0.02519569
#
# Stress axis : x y z
#
# Youngs Moduli (GPa) = 45.73792 88.42999 42.31280
#
# Poissons Ratio (x) = 0.20204 0.36783
# Poissons Ratio (y) = 0.10450 0.20425
# Poissons Ratio (z) = 0.39760 0.42687
#
# Static dielectric constant tensor:
#      x y z
#    x 2.992180 0.000000 0.000000 
#    y 0.000000 3.229340 0.000000 
#    z 0.000000 0.000000 3.034470 
# 
# 
# High freq. dielectric constant tensor:
#      x y z
#    x 1.581890 0.000000 0.000000 
#    y 0.000000 1.627840 0.000000 
#    z 0.000000 0.000000 1.588490 
# 
# From -- ./inp_files/38926.got.cif
#   From: 2010.03.12/outbox.cif.g09.slc.cpg/sg53_20_cif.got.tgz:38926.got - 2010.04.16 14:36:59.
