data_PCOD8217177
_publ_section_title
;
Structure prediction by ZEFSAII (Michael W. Deem and Ramdas Pophale) SiO2 
 PCOD8217177
Probable space group: P N N A
;
_chemical_formula_sum "Si O2"
_cell_formula_units_Z 64
_cell_length_a 9.124476
_cell_length_b 23.981720
_cell_length_c 13.784493
_cell_angle_alpha 90.000000
_cell_angle_beta 90.000000
_cell_angle_gamma 90.000000
_cell_volume 3016.331423
_symmetry_space_group_name_H-M "P N N A"
_symmetry_group_IT_number 52
_symmetry_cell_setting 'orthorhombic'
loop_
_space_group_symop_operation_xyz
x,y,z
1/2-x,-y,z
x,1/2-y,1/2-z
1/2-x,1/2+y,1/2-z
-x,-y,-z
1/2+x,y,-z
-x,1/2+y,1/2+z
1/2+x,1/2-y,1/2+z
loop_
_atom_site_type_symbol
_atom_site_label
_atom_site_fract_x
_atom_site_fract_y
_atom_site_fract_z
Si Si1 0.960992 0.448887 0.368892
Si Si2 0.786168 0.883994 0.792235
Si Si3 0.815266 0.160009 0.599449
Si Si4 0.971351 0.074991 0.910882
Si Si5 0.336927 0.775464 0.098116
Si Si6 0.781713 0.622036 0.298070
Si Si7 0.177939 0.723875 0.592361
Si Si8 0.840057 0.661789 0.094700
O O1 0.984227 0.419272 0.473502
O O2 0.799820 0.434441 0.330443
O O3 0.068160 0.421284 0.289632
O O4 0.978439 0.514413 0.375503
O O5 0.710172 0.884276 0.686380
O O6 0.692823 0.914330 0.875913
O O7 0.823508 0.820122 0.816680
O O8 0.742735 0.218634 0.629553
O O9 0.735666 0.137241 0.502204
O O10 0.986587 0.168620 0.578454
O O11 0.066866 0.122579 0.858187
O O12 0.507067 0.762300 0.075274
O O13 0.251661 0.800441 0.005123
O O14 0.690874 0.677715 0.323703
O O15 0.811484 0.619760 0.183356
O O16 0.267513 0.779013 0.621808
#
# Coordination Sequence:
#
# PCOD8217177 Si02
#       8
#     8   8   8   8   8   8   8   8
#     4  11  24  42  68  95 129 165 200 264 312 385
#     4  12  24  39  67  95 126 169 211 254 314 376
#     4  11  25  42  64  92 129 168 212 262 308 368
#     4  11  24  44  64  97 129 161 210 254 322 371
#     4  11  23  37  62  96 133 169 208 254 309 377
#     4  12  24  39  67  95 126 169 211 254 314 376
#     4  11  23  37  62  96 133 169 208 254 309 377
#     4  11  25  42  64  92 129 168 212 262 308 368
#
# _framework density 21.217827
#
# number of rings (size 3 to 8) (size 9 to 14) (size 15 to 20)
#    0.000    0.750    2.500    6.750    7.000    4.000 
#    0.000    0.000    0.000    4.500    0.000    0.000 
#    0.000    0.000    0.000    0.000    0.000    0.000 
#
# Total GULP energy -793703.046108 kJ/mol
# GULP energy per Si atom -12401.610095 kJ/mol
# Density = 2.116953 g / cm^3
# Si number density = 21.217827 Si / 1000 Ang^3
#
#
#
# Elastic Constant Matrix: (Units=GPa)
#
#
# Indices 1 2 3 4 5 6 
#
# 1 138.3562 22.9359 50.2661 0.0000 0.0000 0.0000
# 2 22.9359 41.5207 37.8472 0.0000 0.0000 0.0000
# 3 50.2661 37.8472 109.1800 0.0000 0.0000 0.0000
# 4 0.0000 0.0000 0.0000 24.5934 0.0000 0.0000
# 5 0.0000 0.0000 0.0000 0.0000 35.4351 0.0000
# 6 0.0000 0.0000 0.0000 0.0000 0.0000 29.1217
#
#
#
# Elastic Compliance Matrix: (Units=1/GPa)
#
#
# Indices 1 2 3 4 5 6 
#
# 1 0.008761 -0.001700 -0.003444 0.000000 0.000000 0.000000
# 2 -0.001700 0.035540 -0.011537 0.000000 0.000000 0.000000
# 3 -0.003444 -0.011537 0.014744 0.000000 0.000000 0.000000
# 4 0.000000 0.000000 0.000000 0.040661 0.000000 0.000000
# 5 0.000000 0.000000 0.000000 0.000000 0.028221 0.000000
# 6 0.000000 0.000000 0.000000 0.000000 0.000000 0.034339
#
#
# Mechanical properties :
#
#
# Convention : Reuss Voigt Hill
#
# Bulk Modulus (GPa) = 38.93746 56.79505 47.86626
# Shear Modulus (GPa) = 24.48711 29.69723 27.09217
#
# Velocity S-wave (km/s) = 3.40086 3.74523 3.57719
# Velocity P-wave (km/s) = 5.81483 6.74745 6.29843
#
# Compressibility (1/GPa) = 0.02568221
#
# Stress axis : x y z
#
# Youngs Moduli (GPa) = 114.14444 28.13736 67.82315
#
# Poissons Ratio (x) = 0.04783 0.23359
# Poissons Ratio (y) = 0.19405 0.78249
# Poissons Ratio (z) = 0.39313 0.32463
#
# Static dielectric constant tensor:
#      x y z
#    x 3.961010 0.000000 0.000000 
#    y 0.000000 3.473560 0.000000 
#    z 0.000000 0.000000 3.817490 
# 
# 
# High freq. dielectric constant tensor:
#      x y z
#    x 1.853830 0.000000 0.000000 
#    y 0.000000 1.804860 0.000000 
#    z 0.000000 0.000000 1.827560 
# 
# From -- ./inp_files/25147.got.cif
#   From: 2010.06.25/outbox.cif.g09.slc.cpg/sg52_13_cif.got.tgz:25147.got - 2010.06.26 19:32:48.
