data_PCOD8217237
_publ_section_title
;
Structure prediction by ZEFSAII (Michael W. Deem and Ramdas Pophale) SiO2 
 PCOD8217237
Probable space group: P N N A
;
_chemical_formula_sum "Si O2"
_cell_formula_units_Z 20
_cell_length_a 7.838011
_cell_length_b 4.871367
_cell_length_c 22.725679
_cell_angle_alpha 90.000000
_cell_angle_beta 90.000000
_cell_angle_gamma 90.000000
_cell_volume 867.707970
_symmetry_space_group_name_H-M "P N N A"
_symmetry_group_IT_number 52
_symmetry_cell_setting 'orthorhombic'
loop_
_space_group_symop_operation_xyz
x,y,z
1/2-x,-y,z
x,1/2-y,1/2-z
1/2-x,1/2+y,1/2-z
-x,-y,-z
1/2+x,y,-z
-x,1/2+y,1/2+z
1/2+x,1/2-y,1/2+z
loop_
_atom_site_type_symbol
_atom_site_label
_atom_site_fract_x
_atom_site_fract_y
_atom_site_fract_z
Si Si1 0.750000 0.500000 0.289102
Si Si2 0.087351 0.803270 0.610901
Si Si3 0.250000 0.500000 0.513382
Si Si4 0.250000 0.500000 0.070504
O O1 0.674418 0.250000 0.250000
O O2 0.902621 0.374997 0.329151
O O3 0.091519 0.587017 0.556017
O O4 0.250000 0.000000 0.605218
O O5 0.919119 0.997859 0.611506
O O6 0.290978 0.748771 0.471242
#
# Coordination Sequence:
#
# PCOD8217237 Si02
#       4
#     4   8   4   4
#     4  11  24  45  74  92 124 177 230 293 354 396
#     4  11  25  42  70  98 134 179 226 269 336 402
#     4  11  24  40  62 104 144 186 210 259 330 404
#     4  12  26  39  66 102 144 173 222 266 320 412
#
# _framework density 23.049229
#
# number of rings (size 3 to 8) (size 9 to 14) (size 15 to 20)
#    0.000    0.800    4.000    2.400   11.200    0.000 
#    0.000    0.000    8.800    0.000    0.000    0.000 
#    0.000    0.000    0.000    0.000    0.000    0.000 
#
# Total GULP energy -247786.888623 kJ/mol
# GULP energy per Si atom -12389.344431 kJ/mol
# Density = 2.299677 g / cm^3
# Si number density = 23.049229 Si / 1000 Ang^3
#
#
#
# Elastic Constant Matrix: (Units=GPa)
#
#
# Indices 1 2 3 4 5 6 
#
# 1 185.2524 61.0434 57.2143 0.0000 0.0000 0.0000
# 2 61.0434 156.6497 65.4155 0.0000 0.0000 0.0000
# 3 57.2143 65.4155 130.1031 0.0000 0.0000 0.0000
# 4 0.0000 0.0000 0.0000 43.3918 0.0000 0.0000
# 5 0.0000 0.0000 0.0000 0.0000 5.8111 0.0000
# 6 0.0000 0.0000 0.0000 0.0000 0.0000 32.6036
#
#
#
# Elastic Compliance Matrix: (Units=1/GPa)
#
#
# Indices 1 2 3 4 5 6 
#
# 1 0.006593 -0.001719 -0.002035 0.000000 0.000000 0.000000
# 2 -0.001719 0.008529 -0.003532 0.000000 0.000000 0.000000
# 3 -0.002035 -0.003532 0.010357 0.000000 0.000000 0.000000
# 4 0.000000 0.000000 0.000000 0.023046 0.000000 0.000000
# 5 0.000000 0.000000 0.000000 0.000000 0.172085 0.000000
# 6 0.000000 0.000000 0.000000 0.000000 0.000000 0.030671
#
#
# Mechanical properties :
#
#
# Convention : Reuss Voigt Hill
#
# Bulk Modulus (GPa) = 91.69251 93.26129 92.47690
# Shear Modulus (GPa) = 18.55365 35.58343 27.06854
#
# Velocity S-wave (km/s) = 2.84026 3.93339 3.43064
# Velocity P-wave (km/s) = 7.11503 7.82166 7.47669
#
# Compressibility (1/GPa) = 0.01090602
#
# Stress axis : x y z
#
# Youngs Moduli (GPa) = 151.67422 117.25176 96.55355
#
# Poissons Ratio (x) = 0.20161 0.19647
# Poissons Ratio (y) = 0.26080 0.34103
# Poissons Ratio (z) = 0.30863 0.41414
#
# Static dielectric constant tensor:
#      x y z
#    x 3.757860 0.000000 0.000000 
#    y 0.000000 4.502950 0.000000 
#    z 0.000000 0.000000 4.463900 
# 
# 
# High freq. dielectric constant tensor:
#      x y z
#    x 1.874420 0.000000 0.000000 
#    y 0.000000 1.937290 0.000000 
#    z 0.000000 0.000000 1.904890 
# 
# From -- ./inp_files/35366.got.cif
#   From: 2010.06.25/outbox.cif.g09.slc.cpg/sg52_18_cif.got.tgz:35366.got - 2010.06.26 19:32:48.
