data_PCOD8217150
_publ_section_title
;
Structure prediction by ZEFSAII (Michael W. Deem and Ramdas Pophale) SiO2 
 PCOD8217150
Probable space group: P N N A
;
_chemical_formula_sum "Si O2"
_cell_formula_units_Z 44
_cell_length_a 25.873245
_cell_length_b 5.086860
_cell_length_c 15.028459
_cell_angle_alpha 90.000000
_cell_angle_beta 90.000000
_cell_angle_gamma 90.000000
_cell_volume 1977.949217
_symmetry_space_group_name_H-M "P N N A"
_symmetry_group_IT_number 52
_symmetry_cell_setting 'orthorhombic'
loop_
_space_group_symop_operation_xyz
x,y,z
1/2-x,-y,z
x,1/2-y,1/2-z
1/2-x,1/2+y,1/2-z
-x,-y,-z
1/2+x,y,-z
-x,1/2+y,1/2+z
1/2+x,1/2-y,1/2+z
loop_
_atom_site_type_symbol
_atom_site_label
_atom_site_fract_x
_atom_site_fract_y
_atom_site_fract_z
Si Si1 0.649674 0.698045 0.492717
Si Si2 0.250000 0.500000 0.599905
Si Si3 0.812954 0.750000 0.250000
Si Si4 0.517473 0.250000 0.250000
Si Si5 0.634586 0.206576 0.605376
Si Si6 0.901819 0.430447 0.175608
Si Si7 0.450052 0.750000 0.250000
Si Si8 0.216043 0.250000 0.250000
O O1 0.708502 0.655108 0.460137
O O2 0.626800 0.422161 0.528044
O O3 0.609605 0.787351 0.416549
O O4 0.650114 0.922885 0.567074
O O5 0.221218 0.294240 0.662931
O O6 0.847899 0.505226 0.222589
O O7 0.556349 0.330838 0.167029
O O8 0.482296 0.494489 0.278986
O O9 0.583437 0.171087 0.663949
O O10 0.681126 0.317274 0.665025
O O11 0.929820 0.250000 0.250000
O O12 0.250000 0.500000 0.227091
#
# Coordination Sequence:
#
# PCOD8217150 Si02
#       8
#     8   4   4   4   8   8   4   4
#     4  12  26  43  67 104 145 186 226 287 338 402
#     4  12  24  38  68  98 144 196 246 266 324 420
#     4  11  22  42  61  97 141 201 230 274 323 404
#     4  11  24  43  86  99 125 186 237 276 357 448
#     4  11  27  46  69  98 143 176 229 299 356 397
#     4  11  23  45  67 101 144 183 225 283 346 409
#     4  11  24  52  75 101 127 181 232 296 371 430
#     4  11  24  45  70  95 129 184 239 286 343 406
#
# _framework density 22.245265
#
# number of rings (size 3 to 8) (size 9 to 14) (size 15 to 20)
#    0.000    0.727    2.727    4.364    6.364    4.364 
#    0.000    5.455    0.000    0.000    0.000    0.000 
#    0.000    0.000    0.000    0.000    0.000    0.000 
#
# Total GULP energy -545526.257299 kJ/mol
# GULP energy per Si atom -12398.324030 kJ/mol
# Density = 2.219463 g / cm^3
# Si number density = 22.245265 Si / 1000 Ang^3
#
#
#
# Elastic Constant Matrix: (Units=GPa)
#
#
# Indices 1 2 3 4 5 6 
#
# 1 135.8050 61.0295 57.9635 0.0000 0.0000 0.0000
# 2 61.0295 132.2984 38.7378 0.0000 0.0000 0.0000
# 3 57.9635 38.7378 102.9090 0.0000 0.0000 0.0000
# 4 0.0000 0.0000 0.0000 48.5579 0.0000 0.0000
# 5 0.0000 0.0000 0.0000 0.0000 12.8048 0.0000
# 6 0.0000 0.0000 0.0000 0.0000 0.0000 28.4485
#
#
#
# Elastic Compliance Matrix: (Units=1/GPa)
#
#
# Indices 1 2 3 4 5 6 
#
# 1 0.011099 -0.003697 -0.004860 0.000000 0.000000 0.000000
# 2 -0.003697 0.009726 -0.001579 0.000000 0.000000 0.000000
# 3 -0.004860 -0.001579 0.013049 0.000000 0.000000 0.000000
# 4 0.000000 0.000000 0.000000 0.020594 0.000000 0.000000
# 5 0.000000 0.000000 0.000000 0.000000 0.078096 0.000000
# 6 0.000000 0.000000 0.000000 0.000000 0.000000 0.035151
#
#
# Mechanical properties :
#
#
# Convention : Reuss Voigt Hill
#
# Bulk Modulus (GPa) = 73.51423 76.27489 74.89456
# Shear Modulus (GPa) = 25.97104 32.18099 29.07601
#
# Velocity S-wave (km/s) = 3.42056 3.80760 3.61926
# Velocity P-wave (km/s) = 6.97991 7.32755 7.15584
#
# Compressibility (1/GPa) = 0.01360281
#
# Stress axis : x y z
#
# Youngs Moduli (GPa) = 90.09638 102.81243 76.63385
#
# Poissons Ratio (x) = 0.38010 0.37244
# Poissons Ratio (y) = 0.33309 0.12100
# Poissons Ratio (z) = 0.43787 0.16233
#
# Static dielectric constant tensor:
#      x y z
#    x 4.188290 0.000000 0.000000 
#    y 0.000000 4.073440 0.000000 
#    z 0.000000 0.000000 3.955310 
# 
# 
# High freq. dielectric constant tensor:
#      x y z
#    x 1.883180 0.000000 0.000000 
#    y 0.000000 1.894320 0.000000 
#    z 0.000000 0.000000 1.863010 
# 
# From -- ./inp_files/29399.got.cif
#   From: 2010.06.25/outbox.cif.g09.slc.cpg/sg52_15_cif.got.tgz:29399.got - 2010.06.26 19:32:48.
