data_PCOD8217104
_publ_section_title
;
Structure prediction by ZEFSAII (Michael W. Deem and Ramdas Pophale) SiO2 
 PCOD8217104
Probable space group: P N N A
;
_chemical_formula_sum "Si O2"
_cell_formula_units_Z 40
_cell_length_a 8.739438
_cell_length_b 19.786273
_cell_length_c 12.365165
_cell_angle_alpha 90.000000
_cell_angle_beta 90.000000
_cell_angle_gamma 90.000000
_cell_volume 2138.195536
_symmetry_space_group_name_H-M "P N N A"
_symmetry_group_IT_number 52
_symmetry_cell_setting 'orthorhombic'
loop_
_space_group_symop_operation_xyz
x,y,z
1/2-x,-y,z
x,1/2-y,1/2-z
1/2-x,1/2+y,1/2-z
-x,-y,-z
1/2+x,y,-z
-x,1/2+y,1/2+z
1/2+x,1/2-y,1/2+z
loop_
_atom_site_type_symbol
_atom_site_label
_atom_site_fract_x
_atom_site_fract_y
_atom_site_fract_z
Si Si1 0.189467 0.695256 0.891925
Si Si2 0.451524 0.333140 0.674188
Si Si3 0.690159 0.836671 0.833905
Si Si4 0.946509 0.305655 0.885725
Si Si5 0.872081 0.052906 0.013789
O O1 0.371219 0.686381 0.884449
O O2 0.103888 0.655228 0.796622
O O3 0.145678 0.773947 0.881686
O O4 0.125726 0.665052 0.004102
O O5 0.631548 0.316315 0.669230
O O6 0.413473 0.400679 0.613204
O O7 0.594965 0.773767 0.880787
O O8 0.627271 0.848704 0.712428
O O9 0.664987 0.903585 0.905876
O O10 0.750000 0.000000 0.053074
O O11 0.000000 0.000000 0.000000
#
# Coordination Sequence:
#
# PCOD8217104 Si02
#       5
#     8   8   8   8   8
#     4  11  22  36  61  88 122 155 195 258 303 356
#     4  11  22  38  59  88 121 156 204 244 305 354
#     4  11  22  38  59  88 121 156 204 245 303 357
#     4  11  22  36  61  88 122 155 195 257 305 352
#     4  12  26  40  62  88 124 164 200 247 291 358
#
# _framework density 18.707363000000001
#
# number of rings (size 3 to 8) (size 9 to 14) (size 15 to 20)
#    0.000    0.800    4.000    7.200    5.600    0.000 
#    0.000    0.000    0.000    2.400    0.000    0.000 
#    0.000    0.000    0.000    0.000    0.000    0.000 
#
# Total GULP energy -495737.148431 kJ/mol
# GULP energy per Si atom -12393.428711 kJ/mol
# Density = 1.866478 g / cm^3
# Si number density = 18.707363 Si / 1000 Ang^3
#
#
#
# Elastic Constant Matrix: (Units=GPa)
#
#
# Indices 1 2 3 4 5 6 
#
# 1 125.1580 21.7837 20.9139 0.0000 0.0000 0.0000
# 2 21.7837 80.3760 35.2561 0.0000 0.0000 0.0000
# 3 20.9139 35.2561 130.5679 0.0000 0.0000 0.0000
# 4 0.0000 0.0000 0.0000 31.4501 0.0000 0.0000
# 5 0.0000 0.0000 0.0000 0.0000 20.5767 0.0000
# 6 0.0000 0.0000 0.0000 0.0000 0.0000 29.6352
#
#
#
# Elastic Compliance Matrix: (Units=1/GPa)
#
#
# Indices 1 2 3 4 5 6 
#
# 1 0.008465 -0.001928 -0.000835 0.000000 0.000000 0.000000
# 2 -0.001928 0.014552 -0.003621 0.000000 0.000000 0.000000
# 3 -0.000835 -0.003621 0.008770 0.000000 0.000000 0.000000
# 4 0.000000 0.000000 0.000000 0.031796 0.000000 0.000000
# 5 0.000000 0.000000 0.000000 0.000000 0.048599 0.000000
# 6 0.000000 0.000000 0.000000 0.000000 0.000000 0.033744
#
#
# Mechanical properties :
#
#
# Convention : Reuss Voigt Hill
#
# Bulk Modulus (GPa) = 52.57632 54.66769 53.62201
# Shear Modulus (GPa) = 30.29686 33.54229 31.91958
#
# Velocity S-wave (km/s) = 4.02869 4.23898 4.13517
# Velocity P-wave (km/s) = 7.05734 7.29689 7.17811
#
# Compressibility (1/GPa) = 0.01901997
#
# Stress axis : x y z
#
# Youngs Moduli (GPa) = 118.13327 68.71841 114.02126
#
# Poissons Ratio (x) = 0.13247 0.09525
# Poissons Ratio (y) = 0.22774 0.41283
# Poissons Ratio (z) = 0.09868 0.24880
#
# Static dielectric constant tensor:
#      x y z
#    x 3.688900 0.000000 0.000000 
#    y 0.000000 3.182200 0.000000 
#    z 0.000000 0.000000 3.781520 
# 
# 
# High freq. dielectric constant tensor:
#      x y z
#    x 1.755030 0.000000 0.000000 
#    y 0.000000 1.684540 0.000000 
#    z 0.000000 0.000000 1.744400 
# 
# From -- ./inp_files/16811.got.cif
#   From: 2010.06.25/outbox.cif.g09.slc.cpg/sg52_9_cif.got.tgz:16811.got - 2010.06.26 19:32:48.
