data_PCOD8217457
_publ_section_title
;
Structure prediction by ZEFSAII (Michael W. Deem and Ramdas Pophale) SiO2 
 PCOD8217457
Probable space group: P M N A
;
_chemical_formula_sum "Si O2"
_cell_formula_units_Z 64
_cell_length_a 24.073528
_cell_length_b 12.183064
_cell_length_c 12.399970
_cell_angle_alpha 90.000000
_cell_angle_beta 90.000000
_cell_angle_gamma 90.000000
_cell_volume 3636.778922
_symmetry_space_group_name_H-M "P M N A"
_symmetry_group_IT_number 53
_symmetry_cell_setting 'orthorhombic'
loop_
_space_group_symop_operation_xyz
x,y,z
1/2-x,-y,1/2+z
x,-y,-z
1/2-x,y,1/2-z
-x,-y,-z
1/2+x,y,1/2-z
-x,y,z
1/2+x,-y,1/2+z
loop_
_atom_site_type_symbol
_atom_site_label
_atom_site_fract_x
_atom_site_fract_y
_atom_site_fract_z
Si Si1 0.378979 0.265191 0.905502
Si Si2 0.437600 0.870038 0.671439
Si Si3 0.292623 0.960942 0.833053
Si Si4 0.065223 0.717199 0.633547
Si Si5 0.108317 0.082317 0.764817
Si Si6 0.150749 0.127922 0.987038
Si Si7 0.061405 0.521441 0.373857
Si Si8 0.271025 0.166428 0.965735
O O1 0.403597 0.165569 0.832872
O O2 0.395447 0.380336 0.849089
O O3 0.311276 0.260537 0.915437
O O4 0.405167 0.251114 0.022636
O O5 0.500000 0.833959 0.637679
O O6 0.416966 0.802579 0.775342
O O7 0.395528 0.839736 0.574663
O O8 0.441540 0.001036 0.698980
O O9 0.250000 0.904459 0.750000
O O10 0.348125 0.988992 0.770114
O O11 0.264123 0.072318 0.876260
O O12 0.304663 0.877428 0.930181
O O13 0.081860 0.594532 0.676264
O O14 0.000000 0.720376 0.609033
O O15 0.127315 0.153069 0.867980
O O16 0.207847 0.200205 0.998798
O O17 0.166694 0.000000 0.000000
O O18 0.057785 0.500000 0.500000
O O19 0.000000 0.554534 0.330212
#
# Coordination Sequence:
#
# PCOD8217457 Si02
#       8
#     8   8   8   8   8   8   8   8
#     4  10  19  28  47  82 102 127 163 207 264 317
#     4  10  21  34  50  72 101 140 176 212 255 301
#     4  10  15  27  43  62  93 132 168 198 232 289
#     4   9  18  35  54  74 100 131 170 213 255 305
#     4  10  20  29  46  72 110 132 162 208 258 305
#     4  10  18  34  48  67  99 146 180 207 242 297
#     4   8  15  31  53  72  95 130 167 204 248 309
#     4  10  18  26  44  71  96 127 170 208 242 288
#
# _framework density 17.597989999999999
#
# number of rings (size 3 to 8) (size 9 to 14) (size 15 to 20)
#    0.000    2.375    2.500    2.625    0.000    4.750 
#    0.000    1.250    0.000    0.750   19.500    2.625 
#    0.000    0.000    0.000    0.000    0.000    0.000 
#
# Total GULP energy -792993.728992 kJ/mol
# GULP energy per Si atom -12390.527015 kJ/mol
# Density = 1.755794 g / cm^3
# Si number density = 17.597990 Si / 1000 Ang^3
#
#
#
# Elastic Constant Matrix: (Units=GPa)
#
#
# Indices 1 2 3 4 5 6 
#
# 1 82.6212 36.1834 38.0721 0.0000 0.0000 0.0000
# 2 36.1834 78.6649 30.7250 0.0000 0.0000 0.0000
# 3 38.0721 30.7250 84.4193 0.0000 0.0000 0.0000
# 4 0.0000 0.0000 0.0000 9.0257 0.0000 0.0000
# 5 0.0000 0.0000 0.0000 0.0000 21.4928 0.0000
# 6 0.0000 0.0000 0.0000 0.0000 0.0000 23.0375
#
#
#
# Elastic Compliance Matrix: (Units=1/GPa)
#
#
# Indices 1 2 3 4 5 6 
#
# 1 0.017222 -0.005698 -0.005693 0.000000 0.000000 0.000000
# 2 -0.005698 0.016704 -0.003510 0.000000 0.000000 0.000000
# 3 -0.005693 -0.003510 0.015691 0.000000 0.000000 0.000000
# 4 0.000000 0.000000 0.000000 0.110795 0.000000 0.000000
# 5 0.000000 0.000000 0.000000 0.000000 0.046527 0.000000
# 6 0.000000 0.000000 0.000000 0.000000 0.000000 0.043408
#
#
# Mechanical properties :
#
#
# Convention : Reuss Voigt Hill
#
# Bulk Modulus (GPa) = 50.46735 50.62959 50.54847
# Shear Modulus (GPa) = 17.43659 20.09286 18.76472
#
# Velocity S-wave (km/s) = 3.15116 3.38267 3.26897
# Velocity P-wave (km/s) = 6.47919 6.63997 6.56007
#
# Compressibility (1/GPa) = 0.01981479
#
# Stress axis : x y z
#
# Youngs Moduli (GPa) = 58.06427 59.86619 63.73250
#
# Poissons Ratio (x) = 0.34112 0.36284
# Poissons Ratio (y) = 0.33085 0.22368
# Poissons Ratio (z) = 0.33057 0.21011
#
# Static dielectric constant tensor:
#      x y z
#    x 3.276080 0.000000 0.000000 
#    y 0.000000 3.267350 0.000000 
#    z 0.000000 0.000000 3.283150 
# 
# 
# High freq. dielectric constant tensor:
#      x y z
#    x 1.680030 0.000000 0.000000 
#    y 0.000000 1.633230 0.000000 
#    z 0.000000 0.000000 1.676490 
# 
# From -- ./inp_files/18469.got.cif
#   From: 2010.03.12/outbox.cif.g09.slc.cpg/sg53_10_cif.got.tgz:18469.got - 2010.04.16 14:36:59.
