data_PCOD8217979
_publ_section_title
;
Structure prediction by ZEFSAII (Michael W. Deem and Ramdas Pophale) SiO2 
 PCOD8217979
Probable space group: P M N A
;
_chemical_formula_sum "Si O2"
_cell_formula_units_Z 40
_cell_length_a 17.081171
_cell_length_b 13.039308
_cell_length_c 8.767935
_cell_angle_alpha 90.000000
_cell_angle_beta 90.000000
_cell_angle_gamma 90.000000
_cell_volume 1952.852787
_symmetry_space_group_name_H-M "P M N A"
_symmetry_group_IT_number 53
_symmetry_cell_setting 'orthorhombic'
loop_
_space_group_symop_operation_xyz
x,y,z
1/2-x,-y,1/2+z
x,-y,-z
1/2-x,y,1/2-z
-x,-y,-z
1/2+x,y,1/2-z
-x,y,z
1/2+x,-y,1/2+z
loop_
_atom_site_type_symbol
_atom_site_label
_atom_site_fract_x
_atom_site_fract_y
_atom_site_fract_z
Si Si1 0.337436 0.595210 0.191233
Si Si2 0.590144 0.196953 0.810142
Si Si3 0.410299 0.172036 0.157847
Si Si4 0.669445 0.989030 0.323269
Si Si5 0.909595 0.397074 0.363307
O O1 0.250000 0.578869 0.250000
O O2 0.367252 0.702932 0.260556
O O3 0.385674 0.492996 0.245413
O O4 0.351143 0.602398 0.008768
O O5 0.500000 0.225467 0.810916
O O6 0.605287 0.098720 0.705000
O O7 0.617050 0.169400 0.981804
O O8 0.500000 0.135123 0.173448
O O9 0.355757 0.097525 0.253786
O O10 0.399565 0.288103 0.222757
O O11 0.750000 0.951093 0.250000
O O12 0.682544 0.000000 0.500000
O O13 0.000000 0.407143 0.418493
#
# Coordination Sequence:
#
# PCOD8217979 Si02
#       5
#     8   8   8   8   8
#     4  10  18  30  54  86 115 144 188 237 280 327
#     4  10  20  37  60  84 114 151 189 228 279 346
#     4   9  19  37  62  86 110 147 191 231 276 340
#     4  12  25  39  57  81 113 148 187 238 290 338
#     4   9  18  36  59  82 112 153 195 229 278 350
#
# _framework density 20.482854
#
# number of rings (size 3 to 8) (size 9 to 14) (size 15 to 20)
#    0.000    2.000    0.000    6.600    0.000    5.600 
#    0.000    4.000    0.000    0.000    0.000   23.800 
#    0.000    0.000    0.000    0.000    0.000    0.000 
#
# Total GULP energy -495754.661714 kJ/mol
# GULP energy per Si atom -12393.866543 kJ/mol
# Density = 2.043623 g / cm^3
# Si number density = 20.482854 Si / 1000 Ang^3
#
#
#
# Elastic Constant Matrix: (Units=GPa)
#
#
# Indices 1 2 3 4 5 6 
#
# 1 101.4040 43.4849 38.4064 0.0000 0.0000 0.0000
# 2 43.4849 159.1545 33.0096 0.0000 0.0000 0.0000
# 3 38.4064 33.0096 68.4375 0.0000 0.0000 0.0000
# 4 0.0000 0.0000 0.0000 10.8501 0.0000 0.0000
# 5 0.0000 0.0000 0.0000 0.0000 28.1008 0.0000
# 6 0.0000 0.0000 0.0000 0.0000 0.0000 1.5970
#
#
#
# Elastic Compliance Matrix: (Units=1/GPa)
#
#
# Indices 1 2 3 4 5 6 
#
# 1 0.013245 -0.002308 -0.006320 0.000000 0.000000 0.000000
# 2 -0.002308 0.007384 -0.002266 0.000000 0.000000 0.000000
# 3 -0.006320 -0.002266 0.019251 0.000000 0.000000 0.000000
# 4 0.000000 0.000000 0.000000 0.092165 0.000000 0.000000
# 5 0.000000 0.000000 0.000000 0.000000 0.035586 0.000000
# 6 0.000000 0.000000 0.000000 0.000000 0.000000 0.626184
#
#
# Mechanical properties :
#
#
# Convention : Reuss Voigt Hill
#
# Bulk Modulus (GPa) = 55.27200 62.08865 58.68033
# Shear Modulus (GPa) = 6.08544 22.38258 14.23401
#
# Velocity S-wave (km/s) = 1.72553 3.30926 2.63900
# Velocity P-wave (km/s) = 5.56893 6.70671 6.16413
#
# Compressibility (1/GPa) = 0.01809234
#
# Stress axis : x y z
#
# Youngs Moduli (GPa) = 75.50111 135.43066 51.94426
#
# Poissons Ratio (x) = 0.31259 0.32827
# Poissons Ratio (y) = 0.17426 0.11772
# Poissons Ratio (z) = 0.47714 0.30691
#
# Static dielectric constant tensor:
#      x y z
#    x 3.600980 0.000000 0.000000 
#    y 0.000000 4.311220 0.000000 
#    z 0.000000 0.000000 3.250300 
# 
# 
# High freq. dielectric constant tensor:
#      x y z
#    x 1.798280 0.000000 0.000000 
#    y 0.000000 1.836030 0.000000 
#    z 0.000000 0.000000 1.745860 
# 
# From -- ./inp_files/8364.got.cif
#   From: 2010.03.12/outbox.cif.g09.slc.cpg/sg53_5_cif.got.tgz:8364.got - 2010.04.16 14:36:59.
