data_PCOD8217431
_publ_section_title
;
Structure prediction by ZEFSAII (Michael W. Deem and Ramdas Pophale) SiO2 
 PCOD8217431
Probable space group: P N N A
;
_chemical_formula_sum "Si O2"
_cell_formula_units_Z 16
_cell_length_a 17.158802
_cell_length_b 7.997719
_cell_length_c 4.778973
_cell_angle_alpha 90.000000
_cell_angle_beta 90.000000
_cell_angle_gamma 90.000000
_cell_volume 655.824566
_symmetry_space_group_name_H-M "P N N A"
_symmetry_group_IT_number 52
_symmetry_cell_setting 'orthorhombic'
loop_
_space_group_symop_operation_xyz
x,y,z
1/2-x,-y,z
x,1/2-y,1/2-z
1/2-x,1/2+y,1/2-z
-x,-y,-z
1/2+x,y,-z
-x,1/2+y,1/2+z
1/2+x,1/2-y,1/2+z
loop_
_atom_site_type_symbol
_atom_site_label
_atom_site_fract_x
_atom_site_fract_y
_atom_site_fract_z
Si Si1 0.421497 0.935412 0.360876
Si Si2 0.833023 0.438074 0.354879
O O1 0.433318 0.750000 0.250000
O O2 0.603217 0.947104 0.898201
O O3 0.500000 0.000000 0.500000
O O4 0.355087 0.939742 0.598219
O O5 0.750000 0.500000 0.472917
O O6 0.830099 0.250000 0.250000
#
# Coordination Sequence:
#
# PCOD8217431 Si02
#       2
#     8   8
#     4  12  26  47  72 105 145 189 238 293 354 425
#     4  12  26  47  74 107 143 187 237 295 358 425
#
# _framework density 24.396768999999999
#
# number of rings (size 3 to 8) (size 9 to 14) (size 15 to 20)
#    0.000    0.000    0.000   10.500    0.000    4.000 
#    0.000    0.000    0.000    0.000    0.000    0.000 
#    0.000    0.000    0.000    0.000    0.000    0.000 
#
# Total GULP energy -198528.761554 kJ/mol
# GULP energy per Si atom -12408.047597 kJ/mol
# Density = 2.434124 g / cm^3
# Si number density = 24.396769 Si / 1000 Ang^3
#
#
#
# Elastic Constant Matrix: (Units=GPa)
#
#
# Indices 1 2 3 4 5 6 
#
# 1 146.5180 105.2823 75.9509 0.0000 0.0000 0.0000
# 2 105.2823 151.0366 76.2874 0.0000 0.0000 0.0000
# 3 75.9509 76.2874 177.9735 0.0000 0.0000 0.0000
# 4 0.0000 0.0000 0.0000 42.2960 0.0000 0.0000
# 5 0.0000 0.0000 0.0000 0.0000 22.5918 0.0000
# 6 0.0000 0.0000 0.0000 0.0000 0.0000 34.7682
#
#
#
# Elastic Compliance Matrix: (Units=1/GPa)
#
#
# Indices 1 2 3 4 5 6 
#
# 1 0.014407 -0.008854 -0.002353 0.000000 0.000000 0.000000
# 2 -0.008854 0.013892 -0.002176 0.000000 0.000000 0.000000
# 3 -0.002353 -0.002176 0.007556 0.000000 0.000000 0.000000
# 4 0.000000 0.000000 0.000000 0.023643 0.000000 0.000000
# 5 0.000000 0.000000 0.000000 0.000000 0.044264 0.000000
# 6 0.000000 0.000000 0.000000 0.000000 0.000000 0.028762
#
#
# Mechanical properties :
#
#
# Convention : Reuss Voigt Hill
#
# Bulk Modulus (GPa) = 110.03312 110.06325 110.04819
# Shear Modulus (GPa) = 30.80338 34.46503 32.63420
#
# Velocity S-wave (km/s) = 3.55716 3.76265 3.66135
# Velocity P-wave (km/s) = 7.87849 8.00553 7.94227
#
# Compressibility (1/GPa) = 0.00908817
#
# Stress axis : x y z
#
# Youngs Moduli (GPa) = 69.41003 71.98364 132.34928
#
# Poissons Ratio (x) = 0.63736 0.31142
# Poissons Ratio (y) = 0.61457 0.28801
# Poissons Ratio (z) = 0.16332 0.15665
#
# Static dielectric constant tensor:
#      x y z
#    x 4.625360 0.000000 0.000000 
#    y 0.000000 4.485280 0.000000 
#    z 0.000000 0.000000 5.148810 
# 
# 
# High freq. dielectric constant tensor:
#      x y z
#    x 1.981230 0.000000 0.000000 
#    y 0.000000 1.976150 0.000000 
#    z 0.000000 0.000000 1.992890 
# 
# From -- ./inp_files/567.got.cif
#   From: 2010.06.25/outbox.cif.g09.slc.cpg/sg52_1_cif.got.tgz:567.got - 2010.06.26 19:32:48.
