data_PCOD8217450
_publ_section_title
;
Structure prediction by ZEFSAII (Michael W. Deem and Ramdas Pophale) SiO2 
 PCOD8217450
Probable space group: P N N A
;
_chemical_formula_sum "Si O2"
_cell_formula_units_Z 16
_cell_length_a 16.538299
_cell_length_b 7.596386
_cell_length_c 5.091912
_cell_angle_alpha 90.000000
_cell_angle_beta 90.000000
_cell_angle_gamma 90.000000
_cell_volume 639.703539
_symmetry_space_group_name_H-M "P N N A"
_symmetry_group_IT_number 52
_symmetry_cell_setting 'orthorhombic'
loop_
_space_group_symop_operation_xyz
x,y,z
1/2-x,-y,z
x,1/2-y,1/2-z
1/2-x,1/2+y,1/2-z
-x,-y,-z
1/2+x,y,-z
-x,1/2+y,1/2+z
1/2+x,1/2-y,1/2+z
loop_
_atom_site_type_symbol
_atom_site_label
_atom_site_fract_x
_atom_site_fract_y
_atom_site_fract_z
Si Si1 0.586415 0.930962 0.585481
Si Si2 0.314115 0.750000 0.250000
Si Si3 0.703271 0.750000 0.250000
O O1 0.579147 0.750000 0.750000
O O2 0.642650 0.909814 0.326104
O O3 0.500000 0.000000 0.500000
O O4 0.629402 0.079821 0.755347
O O5 0.257611 0.713355 0.498273
#
# Coordination Sequence:
#
# PCOD8217450 Si02
#       3
#     8   4   4
#     4  12  31  55  84 124 171 222 274 345 423 498
#     4  12  31  54  89 122 170 218 288 344 411 496
#     4  12  29  54  87 124 162 224 280 342 409 492
#
# _framework density 25.011583999999999
#
# number of rings (size 3 to 8) (size 9 to 14) (size 15 to 20)
#    0.000    0.000    2.500    3.000   17.500    4.000 
#    0.000    0.000    0.000    0.000    0.000    0.000 
#    0.000    0.000    0.000    0.000    0.000    0.000 
#
# Total GULP energy -198323.070162 kJ/mol
# GULP energy per Si atom -12395.191885 kJ/mol
# Density = 2.495466 g / cm^3
# Si number density = 25.011584 Si / 1000 Ang^3
#
#
#
# Elastic Constant Matrix: (Units=GPa)
#
#
# Indices 1 2 3 4 5 6 
#
# 1 264.8044 116.9508 120.3983 0.0000 0.0000 0.0000
# 2 116.9508 210.7666 80.3512 0.0000 0.0000 0.0000
# 3 120.3983 80.3512 188.5490 0.0000 0.0000 0.0000
# 4 0.0000 0.0000 0.0000 33.9641 0.0000 0.0000
# 5 0.0000 0.0000 0.0000 0.0000 -16.5158 0.0000
# 6 0.0000 0.0000 0.0000 0.0000 0.0000 26.6829
#
#
#
# Elastic Compliance Matrix: (Units=1/GPa)
#
#
# Indices 1 2 3 4 5 6 
#
# 1 0.006116 -0.002274 -0.002936 0.000000 0.000000 0.000000
# 2 -0.002274 0.006511 -0.001322 0.000000 0.000000 0.000000
# 3 -0.002936 -0.001322 0.007742 0.000000 0.000000 0.000000
# 4 0.000000 0.000000 0.000000 0.029443 0.000000 0.000000
# 5 0.000000 0.000000 0.000000 0.000000 -0.060548 0.000000
# 6 0.000000 0.000000 0.000000 0.000000 0.000000 0.037477
#
#
# Mechanical properties :
#
#
# Convention : Reuss Voigt Hill
#
# Bulk Modulus (GPa) = 136.92676 144.39118 140.65897
# Shear Modulus (GPa) = 118.37227 31.92090 75.14658
#
# Velocity S-wave (km/s) = 6.88692 3.57633 5.48725
# Velocity P-wave (km/s) = 10.86756 8.65497 9.82376
#
# Compressibility (1/GPa) = 0.00730317
#
# Stress axis : x y z
#
# Youngs Moduli (GPa) = 163.51405 153.59539 129.16564
#
# Poissons Ratio (x) = 0.34930 0.37923
# Poissons Ratio (y) = 0.37186 0.17080
# Poissons Ratio (z) = 0.48008 0.20311
#
# Static dielectric constant tensor:
#      x y z
#    x 4.994940 0.000000 0.000000 
#    y 0.000000 4.741220 0.000000 
#    z 0.000000 0.000000 3.625420 
# 
# 
# High freq. dielectric constant tensor:
#      x y z
#    x 2.028270 0.000000 0.000000 
#    y 0.000000 2.009980 0.000000 
#    z 0.000000 0.000000 2.005250 
# 
# From -- ./inp_files/1557.got.cif
#   From: 2010.06.25/outbox.cif.g09.slc.cpg/sg52_1_cif.got.tgz:1557.got - 2010.06.26 19:32:48.
