data_PCOD8217590
_publ_section_title
;
Structure prediction by ZEFSAII (Michael W. Deem and Ramdas Pophale) SiO2 
 PCOD8217590
Probable space group: P M N A
;
_chemical_formula_sum "Si O2"
_cell_formula_units_Z 40
_cell_length_a 8.792338
_cell_length_b 9.198671
_cell_length_c 25.957289
_cell_angle_alpha 90.000000
_cell_angle_beta 90.000000
_cell_angle_gamma 90.000000
_cell_volume 2099.369066
_symmetry_space_group_name_H-M "P M N A"
_symmetry_group_IT_number 53
_symmetry_cell_setting 'orthorhombic'
loop_
_space_group_symop_operation_xyz
x,y,z
1/2-x,-y,1/2+z
x,-y,-z
1/2-x,y,1/2-z
-x,-y,-z
1/2+x,y,1/2-z
-x,y,z
1/2+x,-y,1/2+z
loop_
_atom_site_type_symbol
_atom_site_label
_atom_site_fract_x
_atom_site_fract_y
_atom_site_fract_z
Si Si1 0.176091 0.349933 0.798400
Si Si2 0.175890 0.831322 0.502345
Si Si3 0.821240 0.664060 0.698951
Si Si4 0.177531 0.666891 0.904747
Si Si5 0.825854 0.669114 0.088025
O O1 0.250000 0.259780 0.750000
O O2 0.271818 0.497004 0.801474
O O3 0.192954 0.269630 0.853391
O O4 0.000000 0.386182 0.787627
O O5 0.278196 0.759794 0.545969
O O6 0.214532 0.761404 0.447399
O O7 0.000000 0.803947 0.515066
O O8 0.216139 0.000000 0.500000
O O9 0.750000 0.740980 0.750000
O O10 0.760686 0.733492 0.645603
O O11 0.000000 0.682079 0.701278
O O12 0.222948 0.499515 0.914901
O O13 0.000000 0.678889 0.894086
O O14 0.000000 0.687436 0.069423
#
# Coordination Sequence:
#
# PCOD8217590 Si02
#       5
#     8   8   8   8   8
#     4   9  16  27  45  73 106 135 167 206 250 300
#     4  11  24  38  52  74 103 135 173 216 261 311
#     4  10  17  27  46  74 107 138 168 205 252 301
#     4  10  20  35  55  79 105 134 172 215 257 304
#     4   9  19  34  53  78 105 134 171 213 254 304
#
# _framework density 19.053343999999999
#
# number of rings (size 3 to 8) (size 9 to 14) (size 15 to 20)
#    0.000    2.200    0.000    6.600    0.000    8.800 
#    0.000    0.000    0.000    1.200    0.000    2.800 
#    0.000    0.000    0.000    0.000    0.000    0.000 
#
# Total GULP energy -495827.684042 kJ/mol
# GULP energy per Si atom -12395.692101 kJ/mol
# Density = 1.900998 g / cm^3
# Si number density = 19.053344 Si / 1000 Ang^3
#
#
#
# Elastic Constant Matrix: (Units=GPa)
#
#
# Indices 1 2 3 4 5 6 
#
# 1 107.6689 33.8050 56.0083 0.0000 0.0000 0.0000
# 2 33.8050 52.5135 39.8586 0.0000 0.0000 0.0000
# 3 56.0083 39.8586 152.5892 0.0000 0.0000 0.0000
# 4 0.0000 0.0000 0.0000 -2.6445 0.0000 0.0000
# 5 0.0000 0.0000 0.0000 0.0000 42.0245 0.0000
# 6 0.0000 0.0000 0.0000 0.0000 0.0000 19.0337
#
#
#
# Elastic Compliance Matrix: (Units=1/GPa)
#
#
# Indices 1 2 3 4 5 6 
#
# 1 0.012759 -0.005811 -0.003165 0.000000 0.000000 0.000000
# 2 -0.005811 0.026398 -0.004763 0.000000 0.000000 0.000000
# 3 -0.003165 -0.004763 0.008959 0.000000 0.000000 0.000000
# 4 0.000000 0.000000 0.000000 -0.378140 0.000000 0.000000
# 5 0.000000 0.000000 0.000000 0.000000 0.023796 0.000000
# 6 0.000000 0.000000 0.000000 0.000000 0.000000 0.052538
#
#
# Mechanical properties :
#
#
# Convention : Reuss Voigt Hill
#
# Bulk Modulus (GPa) = 48.45221 63.56838 56.01030
# Shear Modulus (GPa) = -22.79645 23.88938 0.54646
#
# Velocity S-wave (km/s) = -3.46273 3.54477 0.53612
# Velocity P-wave (km/s) = 3.08182 7.08446 5.46293
#
# Compressibility (1/GPa) = 0.02063889
#
# Stress axis : x y z
#
# Youngs Moduli (GPa) = 78.37793 37.88110 111.61378
#
# Poissons Ratio (x) = 0.22012 0.35329
# Poissons Ratio (y) = 0.45544 0.53159
# Poissons Ratio (z) = 0.24809 0.18042
#
# Static dielectric constant tensor:
#      x y z
#    x 3.563700 0.000000 0.000000 
#    y 0.000000 2.950710 0.000000 
#    z 0.000000 0.000000 4.372630 
# 
# 
# High freq. dielectric constant tensor:
#      x y z
#    x 1.752870 0.000000 0.000000 
#    y 0.000000 1.670400 0.000000 
#    z 0.000000 0.000000 1.772520 
# 
# From -- ./inp_files/36025.got.cif
#   From: 2010.03.12/outbox.cif.g09.slc.cpg/sg53_19_cif.got.tgz:36025.got - 2010.04.16 14:36:59.
