data_PCOD8217776
_publ_section_title
;
Structure prediction by ZEFSAII (Michael W. Deem and Ramdas Pophale) SiO2 
 PCOD8217776
Probable space group: P M N A
;
_chemical_formula_sum "Si O2"
_cell_formula_units_Z 48
_cell_length_a 8.770458
_cell_length_b 11.848606
_cell_length_c 26.275322
_cell_angle_alpha 90.000000
_cell_angle_beta 90.000000
_cell_angle_gamma 90.000000
_cell_volume 2730.471063
_symmetry_space_group_name_H-M "P M N A"
_symmetry_group_IT_number 53
_symmetry_cell_setting 'orthorhombic'
loop_
_space_group_symop_operation_xyz
x,y,z
1/2-x,-y,1/2+z
x,-y,-z
1/2-x,y,1/2-z
-x,-y,-z
1/2+x,y,1/2-z
-x,y,z
1/2+x,-y,1/2+z
loop_
_atom_site_type_symbol
_atom_site_label
_atom_site_fract_x
_atom_site_fract_y
_atom_site_fract_z
Si Si1 0.172036 0.162162 0.613056
Si Si2 0.182796 0.955664 0.554042
Si Si3 0.671037 0.363094 0.958339
Si Si4 0.181863 0.665764 0.305201
Si Si5 0.177216 0.508597 0.876876
Si Si6 0.177818 0.703932 0.570539
O O1 0.179022 0.234841 0.561243
O O2 0.248599 0.231445 0.659711
O O3 0.000000 0.140794 0.630272
O O4 0.244990 0.040711 0.598560
O O5 0.244494 0.830713 0.566662
O O6 0.000000 0.956831 0.552506
O O7 0.246515 0.000000 0.500000
O O8 0.500000 0.411203 0.948150
O O9 0.791238 0.439608 0.928590
O O10 0.708128 0.363180 0.017964
O O11 0.250000 0.682812 0.250000
O O12 0.235692 0.547339 0.329229
O O13 0.000000 0.665385 0.303596
O O14 0.235585 0.636888 0.884671
O O15 0.000000 0.509378 0.864288
O O16 0.000000 0.708189 0.583450
#
# Coordination Sequence:
#
# PCOD8217776 Si02
#       6
#     8   8   8   8   8   8
#     4   8  14  26  46  75 103 127 160 206 249 292
#     4   9  14  24  46  75 103 133 173 209 239 287
#     4   9  16  28  46  69  99 133 170 210 249 290
#     4  10  20  36  58  79  99 122 158 207 261 308
#     4  11  22  33  46  68 100 134 170 208 251 302
#     4  10  18  28  47  72 101 137 175 210 245 291
#
# _framework density 17.579384000000001
#
# number of rings (size 3 to 8) (size 9 to 14) (size 15 to 20)
#    0.000    2.500    1.667    3.500    0.000    2.667 
#    0.000    0.000    0.000    6.500    0.000    2.333 
#    0.000    0.000    0.000    0.000    0.000    0.000 
#
# Total GULP energy -594884.315614 kJ/mol
# GULP energy per Si atom -12393.423242 kJ/mol
# Density = 1.753937 g / cm^3
# Si number density = 17.579384 Si / 1000 Ang^3
#
#
#
# Elastic Constant Matrix: (Units=GPa)
#
#
# Indices 1 2 3 4 5 6 
#
# 1 54.7735 25.4691 26.2246 0.0000 0.0000 0.0000
# 2 25.4691 106.4265 42.3447 0.0000 0.0000 0.0000
# 3 26.2246 42.3447 92.7051 0.0000 0.0000 0.0000
# 4 0.0000 0.0000 0.0000 17.5934 0.0000 0.0000
# 5 0.0000 0.0000 0.0000 0.0000 21.3084 0.0000
# 6 0.0000 0.0000 0.0000 0.0000 0.0000 6.4384
#
#
#
# Elastic Compliance Matrix: (Units=1/GPa)
#
#
# Indices 1 2 3 4 5 6 
#
# 1 0.022092 -0.003422 -0.004686 0.000000 0.000000 0.000000
# 2 -0.003422 0.012013 -0.004519 0.000000 0.000000 0.000000
# 3 -0.004686 -0.004519 0.014177 0.000000 0.000000 0.000000
# 4 0.000000 0.000000 0.000000 0.056839 0.000000 0.000000
# 5 0.000000 0.000000 0.000000 0.000000 0.046930 0.000000
# 6 0.000000 0.000000 0.000000 0.000000 0.000000 0.155319
#
#
# Mechanical properties :
#
#
# Convention : Reuss Voigt Hill
#
# Bulk Modulus (GPa) = 43.42803 49.10910 46.26856
# Shear Modulus (GPa) = 14.69287 19.72581 17.20934
#
# Velocity S-wave (km/s) = 2.89416 3.35341 3.13221
# Velocity P-wave (km/s) = 5.99381 6.55668 6.28155
#
# Compressibility (1/GPa) = 0.02302660
#
# Stress axis : x y z
#
# Youngs Moduli (GPa) = 45.26516 83.24155 70.53807
#
# Poissons Ratio (x) = 0.28488 0.33056
# Poissons Ratio (y) = 0.15491 0.31877
# Poissons Ratio (z) = 0.21212 0.37618
#
# Static dielectric constant tensor:
#      x y z
#    x 2.861520 0.000000 0.000000 
#    y 0.000000 3.524890 0.000000 
#    z 0.000000 0.000000 3.124380 
# 
# 
# High freq. dielectric constant tensor:
#      x y z
#    x 1.639640 0.000000 0.000000 
#    y 0.000000 1.686650 0.000000 
#    z 0.000000 0.000000 1.650870 
# 
# From -- ./inp_files/37899.got.cif
#   From: 2010.03.12/outbox.cif.g09.slc.cpg/sg53_19_cif.got.tgz:37899.got - 2010.04.16 14:36:59.
