data_PCOD8217483
_publ_section_title
;
Structure prediction by ZEFSAII (Michael W. Deem and Ramdas Pophale) SiO2 
 PCOD8217483
Probable space group: P M N A
;
_chemical_formula_sum "Si O2"
_cell_formula_units_Z 64
_cell_length_a 8.850913
_cell_length_b 14.469305
_cell_length_c 30.649569
_cell_angle_alpha 90.000000
_cell_angle_beta 90.000000
_cell_angle_gamma 90.000000
_cell_volume 3925.184859
_symmetry_space_group_name_H-M "P M N A"
_symmetry_group_IT_number 53
_symmetry_cell_setting 'orthorhombic'
loop_
_space_group_symop_operation_xyz
x,y,z
1/2-x,-y,1/2+z
x,-y,-z
1/2-x,y,1/2-z
-x,-y,-z
1/2+x,y,1/2-z
-x,y,z
1/2+x,-y,1/2+z
loop_
_atom_site_type_symbol
_atom_site_label
_atom_site_fract_x
_atom_site_fract_y
_atom_site_fract_z
Si Si1 0.179441 0.155919 0.705003
Si Si2 0.177018 0.423311 0.879672
Si Si3 0.169026 0.069033 0.618269
Si Si4 0.678006 0.255511 0.022289
Si Si5 0.178216 0.369329 0.705012
Si Si6 0.822376 0.455855 0.453771
Si Si7 0.670482 0.263645 0.925584
Si Si8 0.681066 0.054652 0.043003
O O1 0.250000 0.118791 0.750000
O O2 0.246312 0.093159 0.665057
O O3 0.224765 0.262413 0.696593
O O4 0.000000 0.147511 0.707319
O O5 0.255271 0.435494 0.832604
O O6 0.236286 0.498030 0.913912
O O7 0.218108 0.320669 0.895143
O O8 0.000000 0.435096 0.874153
O O9 0.165758 0.158738 0.588372
O O10 0.000000 0.036251 0.629067
O O11 0.247921 0.990707 0.587925
O O12 0.500000 0.243769 0.018155
O O13 0.721157 0.347105 0.049323
O O14 0.742051 0.160481 0.042933
O O15 0.740786 0.269469 0.973703
O O16 0.250000 0.404164 0.750000
O O17 0.000000 0.381305 0.706865
O O18 0.770509 0.500000 0.500000
O O19 0.000000 0.471444 0.447905
O O20 0.500000 0.306181 0.923163
O O21 0.500000 0.048533 0.044075
O O22 0.739839 0.000000 0.000000
#
# Coordination Sequence:
#
# PCOD8217483 Si02
#       8
#     8   8   8   8   8   8   8   8
#     4   9  17  28  43  64  91 122 152 183 221 268
#     4  12  23  32  45  69  97 128 166 201 239 281
#     4   9  15  24  41  66  95 124 150 184 232 276
#     4   9  16  26  43  67  93 123 158 196 238 284
#     4  10  19  33  51  71  98 126 157 192 235 287
#     4  10  19  32  49  66  91 127 165 202 244 291
#     4  10  16  28  46  65  93 127 159 191 233 281
#     4   9  14  21  39  69  98 117 145 191 235 279
#
# _framework density 16.304964999999999
#
# number of rings (size 3 to 8) (size 9 to 14) (size 15 to 20)
#    0.000    2.250    3.750    1.500    0.000    0.750 
#    0.000    0.000    0.000    0.000    0.000    5.250 
#    0.000    2.000    0.000    0.000    0.000    0.000 
#
# Total GULP energy -793124.134370 kJ/mol
# GULP energy per Si atom -12392.564600 kJ/mol
# Density = 1.626785 g / cm^3
# Si number density = 16.304965 Si / 1000 Ang^3
#
#
#
# Elastic Constant Matrix: (Units=GPa)
#
#
# Indices 1 2 3 4 5 6 
#
# 1 42.4738 21.8996 40.3410 0.0000 0.0000 0.0000
# 2 21.8996 85.9936 48.8547 0.0000 0.0000 0.0000
# 3 40.3410 48.8547 143.6811 0.0000 0.0000 0.0000
# 4 0.0000 0.0000 0.0000 22.9959 0.0000 0.0000
# 5 0.0000 0.0000 0.0000 0.0000 21.6196 0.0000
# 6 0.0000 0.0000 0.0000 0.0000 0.0000 3.7552
#
#
#
# Elastic Compliance Matrix: (Units=1/GPa)
#
#
# Indices 1 2 3 4 5 6 
#
# 1 0.033132 -0.003908 -0.007974 0.000000 0.000000 0.000000
# 2 -0.003908 0.014874 -0.003960 0.000000 0.000000 0.000000
# 3 -0.007974 -0.003960 0.010545 0.000000 0.000000 0.000000
# 4 0.000000 0.000000 0.000000 0.043486 0.000000 0.000000
# 5 0.000000 0.000000 0.000000 0.000000 0.046254 0.000000
# 6 0.000000 0.000000 0.000000 0.000000 0.000000 0.266296
#
#
# Mechanical properties :
#
#
# Convention : Reuss Voigt Hill
#
# Bulk Modulus (GPa) = 37.21920 54.92656 46.07288
# Shear Modulus (GPa) = 10.98354 20.41104 15.69729
#
# Velocity S-wave (km/s) = 2.59826 3.54196 3.10616
# Velocity P-wave (km/s) = 5.64604 7.10545 6.41737
#
# Compressibility (1/GPa) = 0.02686786
#
# Stress axis : x y z
#
# Youngs Moduli (GPa) = 30.18233 67.23217 94.82965
#
# Poissons Ratio (x) = 0.26271 0.75615
# Poissons Ratio (y) = 0.11794 0.37556
# Poissons Ratio (z) = 0.24067 0.26626
#
# Static dielectric constant tensor:
#      x y z
#    x 2.714030 0.000000 0.000000 
#    y 0.000000 3.067730 0.000000 
#    z 0.000000 0.000000 3.286750 
# 
# 
# High freq. dielectric constant tensor:
#      x y z
#    x 1.587050 0.000000 0.000000 
#    y 0.000000 1.602230 0.000000 
#    z 0.000000 0.000000 1.630120 
# 
# From -- ./inp_files/38486.got.cif
#   From: 2010.03.12/outbox.cif.g09.slc.cpg/sg53_20_cif.got.tgz:38486.got - 2010.04.16 14:36:59.
