data_PCOD8217120
_publ_section_title
;
Structure prediction by ZEFSAII (Michael W. Deem and Ramdas Pophale) SiO2 
 PCOD8217120
Probable space group: P N N A
;
_chemical_formula_sum "Si O2"
_cell_formula_units_Z 36
_cell_length_a 10.075920
_cell_length_b 6.513939
_cell_length_c 26.576796
_cell_angle_alpha 90.000000
_cell_angle_beta 90.000000
_cell_angle_gamma 90.000000
_cell_volume 1744.339522
_symmetry_space_group_name_H-M "P N N A"
_symmetry_group_IT_number 52
_symmetry_cell_setting 'orthorhombic'
loop_
_space_group_symop_operation_xyz
x,y,z
1/2-x,-y,z
x,1/2-y,1/2-z
1/2-x,1/2+y,1/2-z
-x,-y,-z
1/2+x,y,-z
-x,1/2+y,1/2+z
1/2+x,1/2-y,1/2+z
loop_
_atom_site_type_symbol
_atom_site_label
_atom_site_fract_x
_atom_site_fract_y
_atom_site_fract_z
Si Si1 0.250000 0.500000 0.630214
Si Si2 0.394598 0.531235 0.126625
Si Si3 0.055636 0.285792 0.562209
Si Si4 0.625216 0.353367 0.542153
Si Si5 0.628476 0.663243 0.195422
O O1 0.180093 0.318996 0.598701
O O2 0.349464 0.370179 0.664188
O O3 0.250000 0.500000 0.152061
O O4 0.444933 0.355402 0.088190
O O5 0.363776 0.726989 0.092811
O O6 0.499754 0.554319 0.171538
O O7 0.105741 0.205272 0.507248
O O8 0.005264 0.513292 0.550829
O O9 0.750000 0.500000 0.533527
O O10 0.750000 0.500000 0.196628
O O11 0.593734 0.750000 0.250000
#
# Coordination Sequence:
#
# PCOD8217120 Si02
#       5
#     4   8   8   8   8
#     4  12  22  42  70  96 128 172 228 278 332 398
#     4  12  25  43  66 101 139 178 220 277 341 412
#     4  11  23  39  64  98 137 180 222 269 329 400
#     4  11  22  39  61  95 141 183 223 264 324 403
#     4  12  26  46  72  98 127 170 230 287 340 398
#
# _framework density 20.638185
#
# number of rings (size 3 to 8) (size 9 to 14) (size 15 to 20)
#    0.000    0.444    8.889    0.667    0.000    0.000 
#    4.000    4.444    0.000    0.000    0.000    0.000 
#    0.000    0.000    0.000    0.000    0.000    0.000 
#
# Total GULP energy -446136.097788 kJ/mol
# GULP energy per Si atom -12392.669383 kJ/mol
# Density = 2.059121 g / cm^3
# Si number density = 20.638185 Si / 1000 Ang^3
#
#
#
# Elastic Constant Matrix: (Units=GPa)
#
#
# Indices 1 2 3 4 5 6 
#
# 1 135.3905 29.0047 65.2708 0.0000 0.0000 0.0000
# 2 29.0047 59.4189 32.7006 0.0000 0.0000 0.0000
# 3 65.2708 32.7006 138.9279 0.0000 0.0000 0.0000
# 4 0.0000 0.0000 0.0000 21.6162 0.0000 0.0000
# 5 0.0000 0.0000 0.0000 0.0000 27.0276 0.0000
# 6 0.0000 0.0000 0.0000 0.0000 0.0000 32.8457
#
#
#
# Elastic Compliance Matrix: (Units=1/GPa)
#
#
# Indices 1 2 3 4 5 6 
#
# 1 0.009889 -0.002608 -0.004032 0.000000 0.000000 0.000000
# 2 -0.002608 0.020022 -0.003487 0.000000 0.000000 0.000000
# 3 -0.004032 -0.003487 0.009913 0.000000 0.000000 0.000000
# 4 0.000000 0.000000 0.000000 0.046262 0.000000 0.000000
# 5 0.000000 0.000000 0.000000 0.000000 0.036999 0.000000
# 6 0.000000 0.000000 0.000000 0.000000 0.000000 0.030445
#
#
# Mechanical properties :
#
#
# Convention : Reuss Voigt Hill
#
# Bulk Modulus (GPa) = 51.10164 65.29884 58.20024
# Shear Modulus (GPa) = 27.73037 30.08198 28.90618
#
# Velocity S-wave (km/s) = 3.66955 3.82198 3.74654
# Velocity P-wave (km/s) = 6.53977 7.15438 6.85397
#
# Compressibility (1/GPa) = 0.01956884
#
# Stress axis : x y z
#
# Youngs Moduli (GPa) = 101.12727 49.94496 100.87648
#
# Poissons Ratio (x) = 0.13026 0.40673
# Poissons Ratio (y) = 0.26375 0.35180
# Poissons Ratio (z) = 0.40774 0.17418
#
# Static dielectric constant tensor:
#      x y z
#    x 3.846480 0.000000 0.000000 
#    y 0.000000 3.651980 0.000000 
#    z 0.000000 0.000000 3.849620 
# 
# 
# High freq. dielectric constant tensor:
#      x y z
#    x 1.812670 0.000000 0.000000 
#    y 0.000000 1.801730 0.000000 
#    z 0.000000 0.000000 1.808960 
# 
# From -- ./inp_files/39936.got.cif
#   From: 2010.06.25/outbox.cif.g09.slc.cpg/sg52_20_cif.got.tgz:39936.got - 2010.06.26 19:32:48.
