data_PCOD8217267
_publ_section_title
;
Structure prediction by ZEFSAII (Michael W. Deem and Ramdas Pophale) SiO2 
 PCOD8217267
Probable space group: P N N A
;
_chemical_formula_sum "Si O2"
_cell_formula_units_Z 64
_cell_length_a 8.667455
_cell_length_b 29.763880
_cell_length_c 11.296965
_cell_angle_alpha 90.000000
_cell_angle_beta 90.000000
_cell_angle_gamma 90.000000
_cell_volume 2914.358162
_symmetry_space_group_name_H-M "P N N A"
_symmetry_group_IT_number 52
_symmetry_cell_setting 'orthorhombic'
loop_
_space_group_symop_operation_xyz
x,y,z
1/2-x,-y,z
x,1/2-y,1/2-z
1/2-x,1/2+y,1/2-z
-x,-y,-z
1/2+x,y,-z
-x,1/2+y,1/2+z
1/2+x,1/2-y,1/2+z
loop_
_atom_site_type_symbol
_atom_site_label
_atom_site_fract_x
_atom_site_fract_y
_atom_site_fract_z
Si Si1 0.185825 0.547763 0.141294
Si Si2 0.734359 0.788218 0.484440
Si Si3 0.796363 0.389318 0.647128
Si Si4 0.874888 0.816602 0.733401
Si Si5 0.303274 0.359982 0.789835
Si Si6 0.537938 0.274844 0.538464
Si Si7 0.607583 0.365193 0.432105
Si Si8 0.183407 0.049404 0.610959
O O1 0.250000 0.500000 0.177466
O O2 0.249411 0.577719 0.247637
O O3 0.001299 0.548942 0.123712
O O4 0.269931 0.563481 0.021691
O O5 0.768421 0.828284 0.392588
O O6 0.559831 0.771090 0.481161
O O7 0.792786 0.801810 0.614033
O O8 0.815748 0.740273 0.458613
O O9 0.762219 0.339063 0.691166
O O10 0.695808 0.396101 0.528115
O O11 0.978263 0.396947 0.625390
O O12 0.013139 0.852425 0.711659
O O13 0.936045 0.776565 0.819189
O O14 0.261380 0.412425 0.807794
O O15 0.227901 0.346207 0.664471
O O16 0.503044 0.324637 0.489366
O O17 0.250000 0.000000 0.643580
#
# Coordination Sequence:
#
# PCOD8217267 Si02
#       8
#     8   8   8   8   8   8   8   8
#     4  11  24  45  74 110 144 181 230 294 367 436
#     4  12  25  41  67 101 136 182 238 301 356 421
#     4  11  24  46  71  99 140 188 236 287 356 429
#     4  11  25  44  67  98 142 187 237 301 358 421
#     4  12  26  43  71 103 141 188 242 299 358 434
#     4  11  24  44  66  93 138 188 239 288 359 411
#     4  11  24  46  69  99 138 194 239 291 349 421
#     4  11  25  45  76 109 146 182 230 298 372 435
#
# _framework density 21.960239999999999
#
# number of rings (size 3 to 8) (size 9 to 14) (size 15 to 20)
#    0.000    0.750    2.500    6.375    7.000    1.500 
#    0.000    1.250    0.000    0.000    0.000    0.000 
#    0.000    0.000    0.000    0.000    0.000    0.000 
#
# Total GULP energy -792900.385759 kJ/mol
# GULP energy per Si atom -12389.068527 kJ/mol
# Density = 2.191026 g / cm^3
# Si number density = 21.960240 Si / 1000 Ang^3
#
#
#
# Elastic Constant Matrix: (Units=GPa)
#
#
# Indices 1 2 3 4 5 6 
#
# 1 96.9605 33.5549 64.4399 0.0000 0.0000 0.0000
# 2 33.5549 81.6696 55.4486 0.0000 0.0000 0.0000
# 3 64.4399 55.4486 140.7700 0.0000 0.0000 0.0000
# 4 0.0000 0.0000 0.0000 27.8556 0.0000 0.0000
# 5 0.0000 0.0000 0.0000 0.0000 39.5932 0.0000
# 6 0.0000 0.0000 0.0000 0.0000 0.0000 33.7336
#
#
#
# Elastic Compliance Matrix: (Units=1/GPa)
#
#
# Indices 1 2 3 4 5 6 
#
# 1 0.015073 -0.002059 -0.006089 0.000000 0.000000 0.000000
# 2 -0.002059 0.016996 -0.005752 0.000000 0.000000 0.000000
# 3 -0.006089 -0.005752 0.012157 0.000000 0.000000 0.000000
# 4 0.000000 0.000000 0.000000 0.035899 0.000000 0.000000
# 5 0.000000 0.000000 0.000000 0.000000 0.025257 0.000000
# 6 0.000000 0.000000 0.000000 0.000000 0.000000 0.029644
#
#
# Mechanical properties :
#
#
# Convention : Reuss Voigt Hill
#
# Bulk Modulus (GPa) = 60.88038 69.58744 65.23391
# Shear Modulus (GPa) = 29.70889 31.30025 30.50457
#
# Velocity S-wave (km/s) = 3.68210 3.77943 3.73108
# Velocity P-wave (km/s) = 6.77203 7.12756 6.95207
#
# Compressibility (1/GPa) = 0.01642565
#
# Stress axis : x y z
#
# Youngs Moduli (GPa) = 66.34567 58.83862 82.25899
#
# Poissons Ratio (x) = 0.12114 0.50086
# Poissons Ratio (y) = 0.13660 0.47316
# Poissons Ratio (z) = 0.40396 0.33844
#
# Static dielectric constant tensor:
#      x y z
#    x 4.099650 0.000000 0.000000 
#    y 0.000000 3.847840 0.000000 
#    z 0.000000 0.000000 4.097260 
# 
# 
# High freq. dielectric constant tensor:
#      x y z
#    x 1.876580 0.000000 0.000000 
#    y 0.000000 1.852990 0.000000 
#    z 0.000000 0.000000 1.874100 
# 
# From -- ./inp_files/17232.got.cif
#   From: 2010.06.25/outbox.cif.g09.slc.cpg/sg52_9_cif.got.tgz:17232.got - 2010.06.26 19:32:48.
