data_PCOD8217059
_publ_section_title
;
Structure prediction by ZEFSAII (Michael W. Deem and Ramdas Pophale) SiO2 
 PCOD8217059
Probable space group: P N N A
;
_chemical_formula_sum "Si O2"
_cell_formula_units_Z 48
_cell_length_a 8.129666
_cell_length_b 23.603054
_cell_length_c 11.817791
_cell_angle_alpha 90.000000
_cell_angle_beta 90.000000
_cell_angle_gamma 90.000000
_cell_volume 2267.656183
_symmetry_space_group_name_H-M "P N N A"
_symmetry_group_IT_number 52
_symmetry_cell_setting 'orthorhombic'
loop_
_space_group_symop_operation_xyz
x,y,z
1/2-x,-y,z
x,1/2-y,1/2-z
1/2-x,1/2+y,1/2-z
-x,-y,-z
1/2+x,y,-z
-x,1/2+y,1/2+z
1/2+x,1/2-y,1/2+z
loop_
_atom_site_type_symbol
_atom_site_label
_atom_site_fract_x
_atom_site_fract_y
_atom_site_fract_z
Si Si1 0.841562 0.259852 0.872872
Si Si2 0.836843 0.390279 0.869661
Si Si3 0.625561 0.042489 0.445092
Si Si4 0.202739 0.062245 0.149509
Si Si5 0.862470 0.692793 0.441108
Si Si6 0.393038 0.109178 0.938372
O O1 0.759168 0.250000 0.750000
O O2 0.850656 0.325330 0.906001
O O3 0.026513 0.233340 0.863760
O O4 0.735185 0.229877 0.967950
O O5 0.763502 0.393327 0.743541
O O6 0.023102 0.415323 0.865087
O O7 0.721283 0.422315 0.958667
O O8 0.750000 0.000000 0.377188
O O9 0.500000 0.000000 0.500000
O O10 0.002350 0.067590 0.140706
O O11 0.250000 0.000000 0.193604
O O12 0.294426 0.072576 0.030832
O O13 0.974706 0.649361 0.506182
O O14 0.733359 0.652005 0.372167
#
# Coordination Sequence:
#
# PCOD8217059 Si02
#       6
#     8   8   8   8   8   8
#     4  11  21  37  58  83 112 147 186 231 281 335
#     4  11  21  37  59  84 114 151 189 235 287 340
#     4   9  19  37  57  82 113 146 187 235 282 338
#     4  11  21  37  59  85 114 150 188 231 282 335
#     4   9  19  37  57  81 111 144 183 231 278 331
#     4   9  19  37  57  81 112 144 183 231 277 331
#
# _framework density 21.167231999999998
#
# number of rings (size 3 to 8) (size 9 to 14) (size 15 to 20)
#    0.000    2.000    0.000    6.000    0.000    0.000 
#    0.000   24.167    0.000    0.000    0.000    0.000 
#    0.000    0.000    0.000    0.000    0.000    0.000 
#
# Total GULP energy -594644.902046 kJ/mol
# GULP energy per Si atom -12388.435459 kJ/mol
# Density = 2.111905 g / cm^3
# Si number density = 21.167232 Si / 1000 Ang^3
#
#
#
# Elastic Constant Matrix: (Units=GPa)
#
#
# Indices 1 2 3 4 5 6 
#
# 1 79.4821 21.9820 -4.7404 0.0000 0.0000 0.0000
# 2 21.9820 99.8566 -12.8477 0.0000 0.0000 0.0000
# 3 -4.7404 -12.8477 38.0540 0.0000 0.0000 0.0000
# 4 0.0000 0.0000 0.0000 27.6892 0.0000 0.0000
# 5 0.0000 0.0000 0.0000 0.0000 29.7947 0.0000
# 6 0.0000 0.0000 0.0000 0.0000 0.0000 47.6323
#
#
#
# Elastic Compliance Matrix: (Units=1/GPa)
#
#
# Indices 1 2 3 4 5 6 
#
# 1 0.013415 -0.002862 0.000705 0.000000 0.000000 0.000000
# 2 -0.002862 0.011080 0.003384 0.000000 0.000000 0.000000
# 3 0.000705 0.003384 0.027509 0.000000 0.000000 0.000000
# 4 0.000000 0.000000 0.000000 0.036115 0.000000 0.000000
# 5 0.000000 0.000000 0.000000 0.000000 0.033563 0.000000
# 6 0.000000 0.000000 0.000000 0.000000 0.000000 0.020994
#
#
# Mechanical properties :
#
#
# Convention : Reuss Voigt Hill
#
# Bulk Modulus (GPa) = 18.36321 25.13115 21.74718
# Shear Modulus (GPa) = 31.57050 35.22314 33.39682
#
# Velocity S-wave (km/s) = 3.86616 4.08369 3.97641
# Velocity P-wave (km/s) = 5.35011 5.84242 5.60167
#
# Compressibility (1/GPa) = 0.05445672
#
# Stress axis : x y z
#
# Youngs Moduli (GPa) = 74.54260 90.25344 36.35198
#
# Poissons Ratio (x) = 0.25835 -0.02562
# Poissons Ratio (y) = 0.21338 -0.12302
# Poissons Ratio (z) = -0.05253 -0.30544
#
# Static dielectric constant tensor:
#      x y z
#    x 4.957830 0.000000 0.000000 
#    y 0.000000 4.112270 0.000000 
#    z 0.000000 0.000000 3.652580 
# 
# 
# High freq. dielectric constant tensor:
#      x y z
#    x 1.848410 0.000000 0.000000 
#    y 0.000000 1.852550 0.000000 
#    z 0.000000 0.000000 1.783490 
# 
# From -- ./inp_files/16949.got.cif
#   From: 2010.06.25/outbox.cif.g09.slc.cpg/sg52_9_cif.got.tgz:16949.got - 2010.06.26 19:32:48.
