data_PCOD8217358
_publ_section_title
;
Structure prediction by ZEFSAII (Michael W. Deem and Ramdas Pophale) SiO2 
 PCOD8217358
Probable space group: P N N A
;
_chemical_formula_sum "Si O2"
_cell_formula_units_Z 64
_cell_length_a 18.872225
_cell_length_b 8.714071
_cell_length_c 23.123257
_cell_angle_alpha 90.000000
_cell_angle_beta 90.000000
_cell_angle_gamma 90.000000
_cell_volume 3802.709993
_symmetry_space_group_name_H-M "P N N A"
_symmetry_group_IT_number 52
_symmetry_cell_setting 'orthorhombic'
loop_
_space_group_symop_operation_xyz
x,y,z
1/2-x,-y,z
x,1/2-y,1/2-z
1/2-x,1/2+y,1/2-z
-x,-y,-z
1/2+x,y,-z
-x,1/2+y,1/2+z
1/2+x,1/2-y,1/2+z
loop_
_atom_site_type_symbol
_atom_site_label
_atom_site_fract_x
_atom_site_fract_y
_atom_site_fract_z
Si Si1 0.476535 0.822249 0.091944
Si Si2 0.250000 0.181221 0.134063
Si Si3 0.523465 0.822249 0.908056
Si Si4 0.888571 0.322609 0.477877
Si Si5 0.890219 0.819902 0.688546
Si Si6 0.109781 0.819902 0.311454
Si Si7 0.750000 0.822409 0.508849
Si Si8 0.388571 0.822609 0.977877
O O1 0.556806 0.781815 0.073457
O O2 0.455250 0.716781 0.145715
O O3 0.470083 0.000000 0.109546
O O4 0.424117 0.785980 0.039249
O O5 0.181434 0.246017 0.165347
O O6 0.318566 0.246017 0.165347
O O7 0.250000 0.222880 0.066874
O O8 0.250000 0.000000 0.140318
O O9 0.544750 0.716781 0.854285
O O10 0.443194 0.781815 0.926543
O O11 0.575883 0.785980 0.960751
O O12 0.819012 0.218356 0.470825
O O13 0.866747 0.500000 0.474510
O O14 0.910393 0.750000 0.750000
O O15 0.879294 0.000000 0.693976
O O16 0.089607 0.750000 0.250000
O O17 0.819012 0.781644 0.470825
O O18 0.750000 0.000000 0.525516
#
# Coordination Sequence:
#
# PCOD8217358 Si02
#       8
#     8   8   8   8   8   8   8   8
#     4   9  18  34  54  76 100 134 174 213 255 304
#     4  12  23  37  52  70 103 141 179 217 252 299
#     4   9  18  34  54  76 100 134 174 213 255 304
#     4   9  18  33  54  75 102 137 171 208 258 309
#     4  12  24  37  53  75 103 138 177 216 257 302
#     4  12  24  37  53  75 103 138 177 216 257 302
#     4  12  22  31  49  80 109 137 173 211 256 307
#     4   9  18  33  54  75 102 137 171 208 258 309
#
# _framework density 16.830103000000001
#
# number of rings (size 3 to 8) (size 9 to 14) (size 15 to 20)
#    0.000    1.500    2.500    6.375    0.000    1.000 
#    0.000    2.500    0.000    0.000    0.000    0.875 
#    0.000    0.000    0.000    0.000    0.000    0.000 
#
# Total GULP energy -793798.892679 kJ/mol
# GULP energy per Si atom -12403.107698 kJ/mol
# Density = 1.679180 g / cm^3
# Si number density = 16.830103 Si / 1000 Ang^3
#
#
#
# Elastic Constant Matrix: (Units=GPa)
#
#
# Indices 1 2 3 4 5 6 
#
# 1 108.2291 51.4144 48.3389 0.0000 0.0000 0.0000
# 2 51.4144 121.1936 45.8065 0.0000 0.0000 0.0000
# 3 48.3389 45.8065 88.1461 0.0000 0.0000 0.0000
# 4 0.0000 0.0000 0.0000 26.4841 0.0000 0.0000
# 5 0.0000 0.0000 0.0000 0.0000 14.0222 0.0000
# 6 0.0000 0.0000 0.0000 0.0000 0.0000 26.7274
#
#
#
# Elastic Compliance Matrix: (Units=1/GPa)
#
#
# Indices 1 2 3 4 5 6 
#
# 1 0.013401 -0.003618 -0.005469 0.000000 0.000000 0.000000
# 2 -0.003618 0.011245 -0.003859 0.000000 0.000000 0.000000
# 3 -0.005469 -0.003859 0.016349 0.000000 0.000000 0.000000
# 4 0.000000 0.000000 0.000000 0.037759 0.000000 0.000000
# 5 0.000000 0.000000 0.000000 0.000000 0.071316 0.000000
# 6 0.000000 0.000000 0.000000 0.000000 0.000000 0.037415
#
#
# Mechanical properties :
#
#
# Convention : Reuss Voigt Hill
#
# Bulk Modulus (GPa) = 66.21366 67.63206 66.92286
# Shear Modulus (GPa) = 22.89259 24.91401 23.90330
#
# Velocity S-wave (km/s) = 3.69211 3.85167 3.77274
# Velocity P-wave (km/s) = 7.58969 7.74938 7.66995
#
# Compressibility (1/GPa) = 0.01510262
#
# Stress axis : x y z
#
# Youngs Moduli (GPa) = 74.62107 88.92904 61.16405
#
# Poissons Ratio (x) = 0.32176 0.33450
# Poissons Ratio (y) = 0.26999 0.23606
# Poissons Ratio (z) = 0.40809 0.34321
#
# Static dielectric constant tensor:
#      x y z
#    x 3.278710 0.000000 0.000000 
#    y 0.000000 3.145090 0.000000 
#    z 0.000000 0.000000 3.058570 
# 
# 
# High freq. dielectric constant tensor:
#      x y z
#    x 1.647170 0.000000 0.000000 
#    y 0.000000 1.655040 0.000000 
#    z 0.000000 0.000000 1.622020 
# 
# From -- ./inp_files/37679.got.cif
#   From: 2010.06.25/outbox.cif.g09.slc.cpg/sg52_19_cif.got.tgz:37679.got - 2010.06.26 19:32:48.
