data_PCOD8217611
_publ_section_title
;
Structure prediction by ZEFSAII (Michael W. Deem and Ramdas Pophale) SiO2 
 PCOD8217611
Probable space group: P M N A
;
_chemical_formula_sum "Si O2"
_cell_formula_units_Z 48
_cell_length_a 8.791836
_cell_length_b 15.088676
_cell_length_c 21.577580
_cell_angle_alpha 90.000000
_cell_angle_beta 90.000000
_cell_angle_gamma 90.000000
_cell_volume 2862.420587
_symmetry_space_group_name_H-M "P M N A"
_symmetry_group_IT_number 53
_symmetry_cell_setting 'orthorhombic'
loop_
_space_group_symop_operation_xyz
x,y,z
1/2-x,-y,1/2+z
x,-y,-z
1/2-x,y,1/2-z
-x,-y,-z
1/2+x,y,1/2-z
-x,y,z
1/2+x,-y,1/2+z
loop_
_atom_site_type_symbol
_atom_site_label
_atom_site_fract_x
_atom_site_fract_y
_atom_site_fract_z
Si Si1 0.319852 0.449809 0.584349
Si Si2 0.328306 0.974108 0.928579
Si Si3 0.321076 0.306624 0.683052
Si Si4 0.178319 0.148398 0.902326
Si Si5 0.319897 0.380312 0.040491
Si Si6 0.322420 0.199328 0.457980
O O1 0.500000 0.462597 0.578071
O O2 0.275457 0.394603 0.645283
O O3 0.236786 0.544822 0.588802
O O4 0.261944 0.395985 0.524933
O O5 0.500000 0.956375 0.907031
O O6 0.230770 0.885145 0.917613
O O7 0.260271 0.054974 0.888587
O O8 0.318811 0.000000 0.000000
O O9 0.250000 0.312786 0.750000
O O10 0.500000 0.299481 0.689382
O O11 0.260438 0.219484 0.647349
O O12 0.000000 0.132033 0.896616
O O13 0.219022 0.184891 0.970191
O O14 0.500000 0.386045 0.032406
O O15 0.269814 0.284719 0.066219
O O16 0.500000 0.214986 0.447607
#
# Coordination Sequence:
#
# PCOD8217611 Si02
#       6
#     8   8   8   8   8   8
#     4  10  19  34  49  66  94 130 165 198 242 300
#     4   9  17  27  41  67  96 122 154 193 235 275
#     4  10  21  35  51  71  95 128 169 206 242 286
#     4   9  17  31  46  64  92 128 164 194 232 287
#     4  11  20  29  46  73  99 125 159 203 249 291
#     4  10  17  29  47  67  95 131 161 189 234 293
#
# _framework density 16.769024000000002
#
# number of rings (size 3 to 8) (size 9 to 14) (size 15 to 20)
#    0.000    2.167    1.667    4.000    0.000    4.667 
#    0.000    0.000    0.000    0.000    0.000    1.167 
#    0.000    0.000    0.000    0.000    0.000    0.000 
#
# Total GULP energy -595196.034405 kJ/mol
# GULP energy per Si atom -12399.917383 kJ/mol
# Density = 1.673086 g / cm^3
# Si number density = 16.769024 Si / 1000 Ang^3
#
#
#
# Elastic Constant Matrix: (Units=GPa)
#
#
# Indices 1 2 3 4 5 6 
#
# 1 58.7045 44.3966 18.7526 0.0000 0.0000 0.0000
# 2 44.3966 149.0163 44.5096 0.0000 0.0000 0.0000
# 3 18.7526 44.5096 63.8226 0.0000 0.0000 0.0000
# 4 0.0000 0.0000 0.0000 19.4575 0.0000 0.0000
# 5 0.0000 0.0000 0.0000 0.0000 19.9115 0.0000
# 6 0.0000 0.0000 0.0000 0.0000 0.0000 30.4124
#
#
#
# Elastic Compliance Matrix: (Units=1/GPa)
#
#
# Indices 1 2 3 4 5 6 
#
# 1 0.022281 -0.005915 -0.002422 0.000000 0.000000 0.000000
# 2 -0.005915 0.010047 -0.005268 0.000000 0.000000 0.000000
# 3 -0.002422 -0.005268 0.020054 0.000000 0.000000 0.000000
# 4 0.000000 0.000000 0.000000 0.051394 0.000000 0.000000
# 5 0.000000 0.000000 0.000000 0.000000 0.050222 0.000000
# 6 0.000000 0.000000 0.000000 0.000000 0.000000 0.032881
#
#
# Mechanical properties :
#
#
# Convention : Reuss Voigt Hill
#
# Bulk Modulus (GPa) = 39.72699 54.09568 46.91134
# Shear Modulus (GPa) = 22.47385 24.88192 23.67788
#
# Velocity S-wave (km/s) = 3.66485 3.85619 3.76174
# Velocity P-wave (km/s) = 6.45370 7.22193 6.84860
#
# Compressibility (1/GPa) = 0.02517180
#
# Stress axis : x y z
#
# Youngs Moduli (GPa) = 44.88044 99.53654 49.86490
#
# Poissons Ratio (x) = 0.58876 0.12076
# Poissons Ratio (y) = 0.26547 0.26271
# Poissons Ratio (z) = 0.10869 0.52440
#
# Static dielectric constant tensor:
#      x y z
#    x 3.172340 0.000000 0.000000 
#    y 0.000000 3.481890 0.000000 
#    z 0.000000 0.000000 2.427860 
# 
# 
# High freq. dielectric constant tensor:
#      x y z
#    x 1.656570 0.000000 0.000000 
#    y 0.000000 1.665500 0.000000 
#    z 0.000000 0.000000 1.579810 
# 
# From -- ./inp_files/30501.got.cif
#   From: 2010.03.12/outbox.cif.g09.slc.cpg/sg53_16_cif.got.tgz:30501.got - 2010.04.16 14:36:59.
