data_PCOD8217213
_publ_section_title
;
Structure prediction by ZEFSAII (Michael W. Deem and Ramdas Pophale) SiO2 
 PCOD8217213
Probable space group: P N N A
;
_chemical_formula_sum "Si O2"
_cell_formula_units_Z 40
_cell_length_a 11.785347
_cell_length_b 13.474215
_cell_length_c 11.572036
_cell_angle_alpha 90.000000
_cell_angle_beta 90.000000
_cell_angle_gamma 90.000000
_cell_volume 1837.619637
_symmetry_space_group_name_H-M "P N N A"
_symmetry_group_IT_number 52
_symmetry_cell_setting 'orthorhombic'
loop_
_space_group_symop_operation_xyz
x,y,z
1/2-x,-y,z
x,1/2-y,1/2-z
1/2-x,1/2+y,1/2-z
-x,-y,-z
1/2+x,y,-z
-x,1/2+y,1/2+z
1/2+x,1/2-y,1/2+z
loop_
_atom_site_type_symbol
_atom_site_label
_atom_site_fract_x
_atom_site_fract_y
_atom_site_fract_z
Si Si1 0.036608 0.271849 0.627404
Si Si2 0.250000 0.000000 0.298971
Si Si3 0.434148 0.250000 0.750000
Si Si4 0.373554 0.673779 0.089820
Si Si5 0.748309 0.891983 0.140671
Si Si6 0.695991 0.847139 0.893974
O O1 0.975743 0.250000 0.750000
O O2 0.095268 0.187129 0.546766
O O3 0.133080 0.344397 0.674634
O O4 0.930707 0.320185 0.560586
O O5 0.164499 0.060499 0.383255
O O6 0.311151 0.080920 0.217249
O O7 0.511718 0.307098 0.840972
O O8 0.357619 0.169540 0.813647
O O9 0.274431 0.750099 0.128910
O O10 0.750000 0.000000 0.198599
O O11 0.749736 0.904064 0.002013
#
# Coordination Sequence:
#
# PCOD8217213 Si02
#       6
#     8   4   4   8   8   8
#     4  11  24  45  65  95 141 184 224 289 341 409
#     4  12  22  42  70 110 132 180 236 282 352 424
#     4  12  22  48  66 104 144 176 228 300 350 408
#     4  11  25  43  70 101 142 184 223 292 352 409
#     4  11  25  42  69 102 134 186 233 282 353 422
#     4  11  23  43  70 100 138 177 235 286 341 413
#
# _framework density 21.767292000000001
#
# number of rings (size 3 to 8) (size 9 to 14) (size 15 to 20)
#    0.000    0.800    6.000    1.200    2.800    0.800 
#    1.800    4.000    0.000    0.000    0.000    0.000 
#    0.000    0.000    0.000    0.000    0.000    0.000 
#
# Total GULP energy -495614.662067 kJ/mol
# GULP energy per Si atom -12390.366552 kJ/mol
# Density = 2.171775 g / cm^3
# Si number density = 21.767292 Si / 1000 Ang^3
#
#
#
# Elastic Constant Matrix: (Units=GPa)
#
#
# Indices 1 2 3 4 5 6 
#
# 1 126.2958 33.3543 5.7618 0.0000 0.0000 0.0000
# 2 33.3543 108.8008 29.2906 0.0000 0.0000 0.0000
# 3 5.7618 29.2906 92.5598 0.0000 0.0000 0.0000
# 4 0.0000 0.0000 0.0000 6.6058 0.0000 0.0000
# 5 0.0000 0.0000 0.0000 0.0000 39.8305 0.0000
# 6 0.0000 0.0000 0.0000 0.0000 0.0000 21.8973
#
#
#
# Elastic Compliance Matrix: (Units=1/GPa)
#
#
# Indices 1 2 3 4 5 6 
#
# 1 0.008625 -0.002732 0.000328 0.000000 0.000000 0.000000
# 2 -0.002732 0.010913 -0.003283 0.000000 0.000000 0.000000
# 3 0.000328 -0.003283 0.011822 0.000000 0.000000 0.000000
# 4 0.000000 0.000000 0.000000 0.151382 0.000000 0.000000
# 5 0.000000 0.000000 0.000000 0.000000 0.025106 0.000000
# 6 0.000000 0.000000 0.000000 0.000000 0.000000 0.045668
#
#
# Mechanical properties :
#
#
# Convention : Reuss Voigt Hill
#
# Bulk Modulus (GPa) = 50.03963 51.60777 50.82370
# Shear Modulus (GPa) = 18.41263 30.95004 24.68133
#
# Velocity S-wave (km/s) = 2.91157 3.77485 3.37096
# Velocity P-wave (km/s) = 5.86015 6.53908 6.20890
#
# Compressibility (1/GPa) = 0.01998416
#
# Stress axis : x y z
#
# Youngs Moduli (GPa) = 115.94835 91.63733 84.58516
#
# Poissons Ratio (x) = 0.25037 -0.02772
# Poissons Ratio (y) = 0.31679 0.27771
# Poissons Ratio (z) = -0.03800 0.30087
#
# Static dielectric constant tensor:
#      x y z
#    x 3.876650 0.000000 0.000000 
#    y 0.000000 3.895620 0.000000 
#    z 0.000000 0.000000 4.020590 
# 
# 
# High freq. dielectric constant tensor:
#      x y z
#    x 1.867180 0.000000 0.000000 
#    y 0.000000 1.836570 0.000000 
#    z 0.000000 0.000000 1.865820 
# 
# From -- ./inp_files/18056.got.cif
#   From: 2010.06.25/outbox.cif.g09.slc.cpg/sg52_10_cif.got.tgz:18056.got - 2010.06.26 19:32:48.
