data_PCOD8217031
_publ_section_title
;
Structure prediction by ZEFSAII (Michael W. Deem and Ramdas Pophale) SiO2 
 PCOD8217031
Probable space group: P N N A
;
_chemical_formula_sum "Si O2"
_cell_formula_units_Z 40
_cell_length_a 9.872679
_cell_length_b 11.376137
_cell_length_c 17.874019
_cell_angle_alpha 90.000000
_cell_angle_beta 90.000000
_cell_angle_gamma 90.000000
_cell_volume 2007.483782
_symmetry_space_group_name_H-M "P N N A"
_symmetry_group_IT_number 52
_symmetry_cell_setting 'orthorhombic'
loop_
_space_group_symop_operation_xyz
x,y,z
1/2-x,-y,z
x,1/2-y,1/2-z
1/2-x,1/2+y,1/2-z
-x,-y,-z
1/2+x,y,-z
-x,1/2+y,1/2+z
1/2+x,1/2-y,1/2+z
loop_
_atom_site_type_symbol
_atom_site_label
_atom_site_fract_x
_atom_site_fract_y
_atom_site_fract_z
Si Si1 0.763038 0.637800 0.559745
Si Si2 0.109551 0.557919 0.241239
Si Si3 0.514294 0.165963 0.818495
Si Si4 0.765475 0.636872 0.386872
Si Si5 0.955647 0.241351 0.854538
O O1 0.750000 0.500000 0.578290
O O2 0.798800 0.658568 0.473741
O O3 0.621341 0.711078 0.568174
O O4 0.879968 0.686440 0.614029
O O5 0.250000 0.500000 0.216979
O O6 0.045197 0.619622 0.166816
O O7 0.138074 0.664211 0.298287
O O8 0.012277 0.464845 0.282847
O O9 0.550049 0.250000 0.750000
O O10 0.369375 0.197913 0.855035
O O11 0.750000 0.500000 0.370282
O O12 0.891945 0.695360 0.345299
#
# Coordination Sequence:
#
# PCOD8217031 Si02
#       5
#     8   8   8   8   8
#     4  11  20  38  61  88 123 162 207 259 315 379
#     4  11  21  37  60  90 118 161 212 253 308 367
#     4  12  23  37  61  90 126 160 210 261 313 375
#     4  11  23  37  59  93 128 159 199 264 328 376
#     4  11  21  37  62  85 126 156 201 260 307 375
#
# _framework density 19.925442
#
# number of rings (size 3 to 8) (size 9 to 14) (size 15 to 20)
#    0.000    0.800    6.000    2.400    2.800    3.200 
#    0.000    0.000    0.000   13.200    0.000    0.000 
#    0.000    0.000    0.000    0.000    0.000    0.000 
#
# Total GULP energy -495708.183373 kJ/mol
# GULP energy per Si atom -12392.704584 kJ/mol
# Density = 1.988009 g / cm^3
# Si number density = 19.925442 Si / 1000 Ang^3
#
#
#
# Elastic Constant Matrix: (Units=GPa)
#
#
# Indices 1 2 3 4 5 6 
#
# 1 137.2721 41.4720 39.0985 0.0000 0.0000 0.0000
# 2 41.4720 76.2614 39.8554 0.0000 0.0000 0.0000
# 3 39.0985 39.8554 78.1404 0.0000 0.0000 0.0000
# 4 0.0000 0.0000 0.0000 31.4894 0.0000 0.0000
# 5 0.0000 0.0000 0.0000 0.0000 20.8192 0.0000
# 6 0.0000 0.0000 0.0000 0.0000 0.0000 23.3806
#
#
#
# Elastic Compliance Matrix: (Units=1/GPa)
#
#
# Indices 1 2 3 4 5 6 
#
# 1 0.009139 -0.003518 -0.002779 0.000000 0.000000 0.000000
# 2 -0.003518 0.019233 -0.008049 0.000000 0.000000 0.000000
# 3 -0.002779 -0.008049 0.018293 0.000000 0.000000 0.000000
# 4 0.000000 0.000000 0.000000 0.031757 0.000000 0.000000
# 5 0.000000 0.000000 0.000000 0.000000 0.048033 0.000000
# 6 0.000000 0.000000 0.000000 0.000000 0.000000 0.042771
#
#
# Mechanical properties :
#
#
# Convention : Reuss Voigt Hill
#
# Bulk Modulus (GPa) = 55.63768 59.16954 57.40361
# Shear Modulus (GPa) = 24.52096 26.55437 25.53766
#
# Velocity S-wave (km/s) = 3.51185 3.65456 3.58391
# Velocity P-wave (km/s) = 6.66541 6.89693 6.78216
#
# Compressibility (1/GPa) = 0.01797343
#
# Stress axis : x y z
#
# Youngs Moduli (GPa) = 109.42140 51.99523 54.66473
#
# Poissons Ratio (x) = 0.18291 0.15189
# Poissons Ratio (y) = 0.38492 0.44002
# Poissons Ratio (z) = 0.30403 0.41853
#
# Static dielectric constant tensor:
#      x y z
#    x 3.606210 0.000000 0.000000 
#    y 0.000000 3.668590 0.000000 
#    z 0.000000 0.000000 3.670370 
# 
# 
# High freq. dielectric constant tensor:
#      x y z
#    x 1.785420 0.000000 0.000000 
#    y 0.000000 1.751630 0.000000 
#    z 0.000000 0.000000 1.770790 
# 
# From -- ./inp_files/30855.got.cif
#   From: 2010.06.25/outbox.cif.g09.slc.cpg/sg52_16_cif.got.tgz:30855.got - 2010.06.26 19:32:48.
