data_PCOD8217543
_publ_section_title
;
Structure prediction by ZEFSAII (Michael W. Deem and Ramdas Pophale) SiO2 
 PCOD8217543
Probable space group: P M N A
;
_chemical_formula_sum "Si O2"
_cell_formula_units_Z 56
_cell_length_a 9.076380
_cell_length_b 13.772712
_cell_length_c 28.115645
_cell_angle_alpha 90.000000
_cell_angle_beta 90.000000
_cell_angle_gamma 90.000000
_cell_volume 3514.634658
_symmetry_space_group_name_H-M "P M N A"
_symmetry_group_IT_number 53
_symmetry_cell_setting 'orthorhombic'
loop_
_space_group_symop_operation_xyz
x,y,z
1/2-x,-y,1/2+z
x,-y,-z
1/2-x,y,1/2-z
-x,-y,-z
1/2+x,y,1/2-z
-x,y,z
1/2+x,-y,1/2+z
loop_
_atom_site_type_symbol
_atom_site_label
_atom_site_fract_x
_atom_site_fract_y
_atom_site_fract_z
Si Si1 0.669373 0.712130 0.035230
Si Si2 0.674074 0.489343 0.298177
Si Si3 0.671337 0.732345 0.702960
Si Si4 0.828190 0.797498 0.897941
Si Si5 0.824568 0.103064 0.480500
Si Si6 0.671720 0.424587 0.886091
Si Si7 0.666579 0.620660 0.938794
O O1 0.500000 0.733376 0.044760
O O2 0.732145 0.670959 0.085405
O O3 0.738621 0.813955 0.016513
O O4 0.690138 0.628916 0.995418
O O5 0.750000 0.525883 0.250000
O O6 0.500000 0.500405 0.293769
O O7 0.723186 0.378115 0.308536
O O8 0.731527 0.560044 0.339477
O O9 0.750000 0.773489 0.750000
O O10 0.500000 0.730958 0.714236
O O11 0.707739 0.803336 0.658590
O O12 0.739916 0.879035 0.927613
O O13 0.783171 0.689703 0.913178
O O14 0.000000 0.812363 0.907606
O O15 0.000000 0.107772 0.476316
O O16 0.769417 0.000000 0.500000
O O17 0.500000 0.415072 0.871937
O O18 0.695472 0.511875 0.922927
O O19 0.500000 0.654781 0.925741
#
# Coordination Sequence:
#
# PCOD8217543 Si02
#       7
#     8   8   8   8   8   8   8
#     4   8  15  27  43  65  89 114 148 185 217 260
#     4  10  19  31  43  60  88 121 158 191 221 260
#     4   9  18  29  42  61  88 120 152 184 216 258
#     4  10  18  29  44  66  93 120 149 185 229 269
#     4   9  18  33  51  69  89 116 152 190 227 273
#     4  10  17  26  43  64  88 120 153 184 221 258
#     4   9  16  26  41  61  88 122 154 180 209 254
#
# _framework density 15.933377
#
# number of rings (size 3 to 8) (size 9 to 14) (size 15 to 20)
#    0.000    2.714    1.429    2.143    0.000    3.714 
#    0.000    2.857    0.000    4.286    0.000    1.000 
#    0.000    2.286    0.000    0.000    0.000    0.000 
#
# Total GULP energy -693980.671507 kJ/mol
# GULP energy per Si atom -12392.511991 kJ/mol
# Density = 1.589711 g / cm^3
# Si number density = 15.933377 Si / 1000 Ang^3
#
#
#
# Elastic Constant Matrix: (Units=GPa)
#
#
# Indices 1 2 3 4 5 6 
#
# 1 44.0952 25.2816 44.3671 0.0000 0.0000 0.0000
# 2 25.2816 67.4701 58.0947 0.0000 0.0000 0.0000
# 3 44.3671 58.0947 128.2526 0.0000 0.0000 0.0000
# 4 0.0000 0.0000 0.0000 17.4768 0.0000 0.0000
# 5 0.0000 0.0000 0.0000 0.0000 27.4872 0.0000
# 6 0.0000 0.0000 0.0000 0.0000 0.0000 9.4863
#
#
#
# Elastic Compliance Matrix: (Units=1/GPa)
#
#
# Indices 1 2 3 4 5 6 
#
# 1 0.035595 -0.004484 -0.010282 0.000000 0.000000 0.000000
# 2 -0.004484 0.024863 -0.009711 0.000000 0.000000 0.000000
# 3 -0.010282 -0.009711 0.015753 0.000000 0.000000 0.000000
# 4 0.000000 0.000000 0.000000 0.057219 0.000000 0.000000
# 5 0.000000 0.000000 0.000000 0.000000 0.036381 0.000000
# 6 0.000000 0.000000 0.000000 0.000000 0.000000 0.105415
#
#
# Mechanical properties :
#
#
# Convention : Reuss Voigt Hill
#
# Bulk Modulus (GPa) = 36.68921 55.03387 45.86154
# Shear Modulus (GPa) = 15.00302 18.36169 16.68236
#
# Velocity S-wave (km/s) = 3.07190 3.39839 3.23926
# Velocity P-wave (km/s) = 5.97149 7.07204 6.54494
#
# Compressibility (1/GPa) = 0.02725597
#
# Stress axis : x y z
#
# Youngs Moduli (GPa) = 28.09386 40.21978 63.47991
#
# Poissons Ratio (x) = 0.18035 0.65272
# Poissons Ratio (y) = 0.12598 0.61646
# Poissons Ratio (z) = 0.28887 0.39058
#
# Static dielectric constant tensor:
#      x y z
#    x 2.877800 0.000000 0.000000 
#    y 0.000000 2.865520 0.000000 
#    z 0.000000 0.000000 3.141670 
# 
# 
# High freq. dielectric constant tensor:
#      x y z
#    x 1.599590 0.000000 0.000000 
#    y 0.000000 1.568170 0.000000 
#    z 0.000000 0.000000 1.614550 
# 
# From -- ./inp_files/38316.got.cif
#   From: 2010.03.12/outbox.cif.g09.slc.cpg/sg53_20_cif.got.tgz:38316.got - 2010.04.16 14:36:59.
