data_PCOD8217998
_publ_section_title
;
Structure prediction by ZEFSAII (Michael W. Deem and Ramdas Pophale) SiO2 
 PCOD8217998
Probable space group: P M N A
;
_chemical_formula_sum "Si O2"
_cell_formula_units_Z 64
_cell_length_a 8.727866
_cell_length_b 31.069936
_cell_length_c 14.182239
_cell_angle_alpha 90.000000
_cell_angle_beta 90.000000
_cell_angle_gamma 90.000000
_cell_volume 3845.857854
_symmetry_space_group_name_H-M "P M N A"
_symmetry_group_IT_number 53
_symmetry_cell_setting 'orthorhombic'
loop_
_space_group_symop_operation_xyz
x,y,z
1/2-x,-y,1/2+z
x,-y,-z
1/2-x,y,1/2-z
-x,-y,-z
1/2+x,y,1/2-z
-x,y,z
1/2+x,-y,1/2+z
loop_
_atom_site_type_symbol
_atom_site_label
_atom_site_fract_x
_atom_site_fract_y
_atom_site_fract_z
Si Si1 0.319036 0.934721 0.541589
Si Si2 0.681123 0.143678 0.146528
Si Si3 0.178057 0.606760 0.962594
Si Si4 0.678602 0.429846 0.654934
Si Si5 0.317603 0.769058 0.645854
Si Si6 0.180069 0.317060 0.352522
Si Si7 0.679434 0.979711 0.351619
Si Si8 0.820322 0.474440 0.154134
O O1 0.500000 0.926097 0.550095
O O2 0.223549 0.893600 0.573643
O O3 0.274092 0.945330 0.432888
O O4 0.269426 0.973462 0.611119
O O5 0.750000 0.134240 0.250000
O O6 0.500000 0.147837 0.157021
O O7 0.750274 0.187370 0.100135
O O8 0.286357 0.642554 0.918497
O O9 0.223686 0.559325 0.926472
O O10 0.000000 0.617437 0.941164
O O11 0.214388 0.604601 0.073533
O O12 0.750000 0.410841 0.750000
O O13 0.500000 0.434723 0.669757
O O14 0.745281 0.477742 0.631515
O O15 0.250000 0.767399 0.750000
O O16 0.500000 0.770455 0.644867
O O17 0.256188 0.725171 0.597654
O O18 0.250000 0.326228 0.250000
O O19 0.000000 0.309831 0.342138
O O20 0.750000 0.968296 0.250000
O O21 0.500000 0.978919 0.337536
O O22 0.750000 0.456060 0.250000
O O23 0.000000 0.476712 0.166060
#
# Coordination Sequence:
#
# PCOD8217998 Si02
#       8
#     8   8   8   8   8   8   8   8
#     4   9  18  32  46  66  94 127 163 201 240 280
#     4  11  20  30  46  70  97 126 158 194 232 275
#     4  10  19  31  47  67  91 121 155 187 224 270
#     4   9  18  32  48  65  88 118 153 193 231 266
#     4  10  18  31  49  68  93 124 153 184 225 274
#     4  11  21  33  48  69  97 124 151 184 223 272
#     4   9  18  31  47  65  93 128 164 203 243 281
#     4   9  17  29  45  65  90 120 151 184 223 265
#
# _framework density 16.641280999999999
#
# number of rings (size 3 to 8) (size 9 to 14) (size 15 to 20)
#    0.000    2.250    0.000    6.750    0.000    5.500 
#    0.000    1.250    0.000    3.750    0.000    0.875 
#    0.000    0.000    0.000    0.000    0.000    0.000 
#
# Total GULP energy -793302.954872 kJ/mol
# GULP energy per Si atom -12395.358670 kJ/mol
# Density = 1.660340 g / cm^3
# Si number density = 16.641281 Si / 1000 Ang^3
#
#
#
# Elastic Constant Matrix: (Units=GPa)
#
#
# Indices 1 2 3 4 5 6 
#
# 1 90.9414 46.9607 36.7370 0.0000 0.0000 0.0000
# 2 46.9607 95.9954 48.6639 0.0000 0.0000 0.0000
# 3 36.7370 48.6639 94.5650 0.0000 0.0000 0.0000
# 4 0.0000 0.0000 0.0000 -138.5970 0.0000 0.0000
# 5 0.0000 0.0000 0.0000 0.0000 25.2081 0.0000
# 6 0.0000 0.0000 0.0000 0.0000 0.0000 27.8405
#
#
#
# Elastic Compliance Matrix: (Units=1/GPa)
#
#
# Indices 1 2 3 4 5 6 
#
# 1 0.015249 -0.006030 -0.002821 0.000000 0.000000 0.000000
# 2 -0.006030 0.016478 -0.006137 0.000000 0.000000 0.000000
# 3 -0.002821 -0.006137 0.014829 0.000000 0.000000 0.000000
# 4 0.000000 0.000000 0.000000 -0.007215 0.000000 0.000000
# 5 0.000000 0.000000 0.000000 0.000000 0.039670 0.000000
# 6 0.000000 0.000000 0.000000 0.000000 0.000000 0.035919
#
#
# Mechanical properties :
#
#
# Convention : Reuss Voigt Hill
#
# Bulk Modulus (GPa) = 60.31349 60.69167 60.50258
# Shear Modulus (GPa) = 33.23728 -7.16700 13.03514
#
# Velocity S-wave (km/s) = 4.47394 -2.07753 2.80179
# Velocity P-wave (km/s) = 7.93790 5.54932 6.84854
#
# Compressibility (1/GPa) = 0.01658004
#
# Stress axis : x y z
#
# Youngs Moduli (GPa) = 65.57615 60.68629 67.43533
#
# Poissons Ratio (x) = 0.36593 0.19025
# Poissons Ratio (y) = 0.39541 0.41387
# Poissons Ratio (z) = 0.18500 0.37245
#
# Static dielectric constant tensor:
#      x y z
#    x 3.089740 0.000000 0.000000 
#    y 0.000000 3.496120 0.000000 
#    z 0.000000 0.000000 3.110720 
# 
# 
# High freq. dielectric constant tensor:
#      x y z
#    x 1.643750 0.000000 0.000000 
#    y 0.000000 1.635570 0.000000 
#    z 0.000000 0.000000 1.613500 
# 
# From -- ./inp_files/21068.got.cif
#   From: 2010.03.12/outbox.cif.g09.slc.cpg/sg53_11_cif.got.tgz:21068.got - 2010.04.16 14:36:59.
