data_PCOD8217316
_publ_section_title
;
Structure prediction by ZEFSAII (Michael W. Deem and Ramdas Pophale) SiO2 
 PCOD8217316
Probable space group: P N N A
;
_chemical_formula_sum "Si O2"
_cell_formula_units_Z 48
_cell_length_a 5.089481
_cell_length_b 14.282439
_cell_length_c 28.734677
_cell_angle_alpha 90.000000
_cell_angle_beta 90.000000
_cell_angle_gamma 90.000000
_cell_volume 2088.729473
_symmetry_space_group_name_H-M "P N N A"
_symmetry_group_IT_number 52
_symmetry_cell_setting 'orthorhombic'
loop_
_space_group_symop_operation_xyz
x,y,z
1/2-x,-y,z
x,1/2-y,1/2-z
1/2-x,1/2+y,1/2-z
-x,-y,-z
1/2+x,y,-z
-x,1/2+y,1/2+z
1/2+x,1/2-y,1/2+z
loop_
_atom_site_type_symbol
_atom_site_label
_atom_site_fract_x
_atom_site_fract_y
_atom_site_fract_z
Si Si1 0.927439 0.135826 0.969173
Si Si2 0.840665 0.186520 0.588770
Si Si3 0.991898 0.938720 0.720655
Si Si4 0.750000 0.000000 0.897404
Si Si5 0.071729 0.909261 0.822307
Si Si6 0.750000 0.500000 0.967419
Si Si7 0.159913 0.712673 0.852652
O O1 0.952629 0.240251 0.948816
O O2 0.959168 0.057352 0.928935
O O3 0.644472 0.120227 0.992022
O O4 0.571948 0.226769 0.610022
O O5 0.074133 0.168820 0.626089
O O6 0.762503 0.089571 0.565355
O O7 0.922516 0.901809 0.772645
O O8 0.040221 0.852143 0.687189
O O9 0.750000 0.000000 0.701247
O O10 0.250000 0.000000 0.722650
O O11 0.871993 0.919758 0.864929
O O12 0.234204 0.813806 0.830897
O O13 0.250000 0.000000 0.822403
O O14 0.500000 0.500000 0.000000
#
# Coordination Sequence:
#
# PCOD8217316 Si02
#       7
#     8   8   8   4   8   4   8
#     4  12  26  45  69 102 141 181 238 303 364 434
#     4  12  26  46  74 104 142 188 237 300 367 434
#     4  11  25  46  72 108 146 192 239 302 357 428
#     4  12  24  44  69 102 140 192 243 290 370 436
#     4  11  25  46  73 103 150 194 245 296 362 444
#     4  12  26  48  73 102 140 190 243 300 364 440
#     4  12  26  45  73 109 144 189 241 298 363 434
#
# _framework density 22.98048
#
# number of rings (size 3 to 8) (size 9 to 14) (size 15 to 20)
#    0.000    0.333    2.500    6.000    5.833    0.000 
#    0.000    3.333    0.000    0.000    0.000    0.000 
#    0.000    0.000    0.000    0.000    0.000    0.000 
#
# Total GULP energy -595393.792373 kJ/mol
# GULP energy per Si atom -12404.037341 kJ/mol
# Density = 2.292818 g / cm^3
# Si number density = 22.980480 Si / 1000 Ang^3
#
#
#
# Elastic Constant Matrix: (Units=GPa)
#
#
# Indices 1 2 3 4 5 6 
#
# 1 117.9695 42.8485 36.3297 0.0000 0.0000 0.0000
# 2 42.8485 148.6037 62.8233 0.0000 0.0000 0.0000
# 3 36.3297 62.8233 115.8639 0.0000 0.0000 0.0000
# 4 0.0000 0.0000 0.0000 82.3942 0.0000 0.0000
# 5 0.0000 0.0000 0.0000 0.0000 34.4186 0.0000
# 6 0.0000 0.0000 0.0000 0.0000 0.0000 34.4720
#
#
#
# Elastic Compliance Matrix: (Units=1/GPa)
#
#
# Indices 1 2 3 4 5 6 
#
# 1 0.009814 -0.001983 -0.002002 0.000000 0.000000 0.000000
# 2 -0.001983 0.009131 -0.004329 0.000000 0.000000 0.000000
# 3 -0.002002 -0.004329 0.011606 0.000000 0.000000 0.000000
# 4 0.000000 0.000000 0.000000 0.012137 0.000000 0.000000
# 5 0.000000 0.000000 0.000000 0.000000 0.029054 0.000000
# 6 0.000000 0.000000 0.000000 0.000000 0.000000 0.029009
#
#
# Mechanical properties :
#
#
# Convention : Reuss Voigt Hill
#
# Bulk Modulus (GPa) = 71.82809 74.04888 72.93849
# Shear Modulus (GPa) = 40.97679 46.28602 43.63141
#
# Velocity S-wave (km/s) = 4.22727 4.49279 4.36205
# Velocity P-wave (km/s) = 7.42633 7.69455 7.56163
#
# Compressibility (1/GPa) = 0.01392213
#
# Stress axis : x y z
#
# Youngs Moduli (GPa) = 101.89927 109.51151 86.16340
#
# Poissons Ratio (x) = 0.21721 0.17247
# Poissons Ratio (y) = 0.20211 0.37303
# Poissons Ratio (z) = 0.20397 0.47411
#
# Static dielectric constant tensor:
#      x y z
#    x 4.452530 0.000000 0.000000 
#    y 0.000000 4.165090 0.000000 
#    z 0.000000 0.000000 6.575560 
# 
# 
# High freq. dielectric constant tensor:
#      x y z
#    x 1.902550 0.000000 0.000000 
#    y 0.000000 1.922080 0.000000 
#    z 0.000000 0.000000 1.925460 
# 
# From -- ./inp_files/41718.got.cif
#   From: 2010.06.25/outbox.cif.g09.slc.cpg/sg52_21_cif.got.tgz:41718.got - 2010.06.26 19:32:48.
