data_PCOD8217559
_publ_section_title
;
Structure prediction by ZEFSAII (Michael W. Deem and Ramdas Pophale) SiO2 
 PCOD8217559
Probable space group: P M N A
;
_chemical_formula_sum "Si O2"
_cell_formula_units_Z 64
_cell_length_a 9.111190
_cell_length_b 20.038655
_cell_length_c 22.684160
_cell_angle_alpha 90.000000
_cell_angle_beta 90.000000
_cell_angle_gamma 90.000000
_cell_volume 4141.583038
_symmetry_space_group_name_H-M "P M N A"
_symmetry_group_IT_number 53
_symmetry_cell_setting 'orthorhombic'
loop_
_space_group_symop_operation_xyz
x,y,z
1/2-x,-y,1/2+z
x,-y,-z
1/2-x,y,1/2-z
-x,-y,-z
1/2+x,y,1/2-z
-x,y,z
1/2+x,-y,1/2+z
loop_
_atom_site_type_symbol
_atom_site_label
_atom_site_fract_x
_atom_site_fract_y
_atom_site_fract_z
Si Si1 0.330608 0.901261 0.598729
Si Si2 0.327829 0.849787 0.469996
Si Si3 0.835286 0.409851 0.947607
Si Si4 0.170072 0.715075 0.475655
Si Si5 0.665931 0.025442 0.933549
Si Si6 0.829699 0.322330 0.389614
Si Si7 0.664940 0.552290 0.583510
Si Si8 0.672899 0.785327 0.688003
O O1 0.500000 0.922182 0.598493
O O2 0.289785 0.864630 0.537928
O O3 0.290773 0.851687 0.651331
O O4 0.236953 0.968603 0.607754
O O5 0.500000 0.847491 0.458029
O O6 0.258111 0.779155 0.453130
O O7 0.257204 0.906196 0.428066
O O8 0.785429 0.474696 0.909369
O O9 0.000000 0.388385 0.929387
O O10 0.725326 0.348181 0.937371
O O11 0.833267 0.429704 0.015357
O O12 0.200942 0.703867 0.544688
O O13 0.000000 0.726081 0.462707
O O14 0.500000 0.038447 0.912744
O O15 0.672841 0.000000 0.000000
O O16 0.776308 0.398947 0.382261
O O17 0.736933 0.278856 0.344461
O O18 0.000000 0.318265 0.373006
O O19 0.500000 0.561864 0.608450
O O20 0.750000 0.794635 0.750000
O O21 0.500000 0.774966 0.695890
#
# Coordination Sequence:
#
# PCOD8217559 Si02
#       8
#     8   8   8   8   8   8   8   8
#     4   9  18  31  45  59  77 105 138 172 210 255
#     4  10  17  27  42  59  81 110 142 171 205 251
#     4   8  14  24  37  54  76 105 138 168 201 241
#     4  10  18  25  37  58  84 110 139 174 209 244
#     4   9  17  27  41  61  82 103 131 169 209 248
#     4  10  19  29  42  59  79 106 138 175 216 254
#     4   8  14  25  40  55  74 102 137 172 203 242
#     4  11  22  35  48  63  82 107 142 182 221 258
#
# _framework density 15.453028
#
# number of rings (size 3 to 8) (size 9 to 14) (size 15 to 20)
#    0.000    2.625    1.250    2.625    0.000    4.500 
#    0.000    2.500    0.000    0.000    0.000    0.000 
#    0.000    0.000    0.000    1.125    0.000   17.500 
#
# Total GULP energy -793434.734827 kJ/mol
# GULP energy per Si atom -12397.417732 kJ/mol
# Density = 1.541786 g / cm^3
# Si number density = 15.453028 Si / 1000 Ang^3
#
#
#
# Elastic Constant Matrix: (Units=GPa)
#
#
# Indices 1 2 3 4 5 6 
#
# 1 102.4222 77.1143 27.8782 0.0000 0.0000 0.0000
# 2 77.1143 143.1732 32.5564 0.0000 0.0000 0.0000
# 3 27.8782 32.5564 33.4389 0.0000 0.0000 0.0000
# 4 0.0000 0.0000 0.0000 9.0933 0.0000 0.0000
# 5 0.0000 0.0000 0.0000 0.0000 15.7422 0.0000
# 6 0.0000 0.0000 0.0000 0.0000 0.0000 30.8588
#
#
#
# Elastic Compliance Matrix: (Units=1/GPa)
#
#
# Indices 1 2 3 4 5 6 
#
# 1 0.017612 -0.007895 -0.006997 0.000000 0.000000 0.000000
# 2 -0.007895 0.012510 -0.005597 0.000000 0.000000 0.000000
# 3 -0.006997 -0.005597 0.041188 0.000000 0.000000 0.000000
# 4 0.000000 0.000000 0.000000 0.109971 0.000000 0.000000
# 5 0.000000 0.000000 0.000000 0.000000 0.063524 0.000000
# 6 0.000000 0.000000 0.000000 0.000000 0.000000 0.032406
#
#
# Mechanical properties :
#
#
# Convention : Reuss Voigt Hill
#
# Bulk Modulus (GPa) = 32.96880 61.57025 47.26953
# Shear Modulus (GPa) = 15.23001 20.57121 17.90061
#
# Velocity S-wave (km/s) = 3.14278 3.65253 3.40720
# Velocity P-wave (km/s) = 5.87798 7.59723 6.79222
#
# Compressibility (1/GPa) = 0.03033171
#
# Stress axis : x y z
#
# Youngs Moduli (GPa) = 56.77888 79.93792 24.27889
#
# Poissons Ratio (x) = 0.63112 0.16987
# Poissons Ratio (y) = 0.44827 0.13590
# Poissons Ratio (z) = 0.39726 0.44744
#
# Static dielectric constant tensor:
#      x y z
#    x 3.073410 0.000000 0.000000 
#    y 0.000000 3.238920 0.000000 
#    z 0.000000 0.000000 2.446990 
# 
# 
# High freq. dielectric constant tensor:
#      x y z
#    x 1.605740 0.000000 0.000000 
#    y 0.000000 1.606700 0.000000 
#    z 0.000000 0.000000 1.512460 
# 
# From -- ./inp_files/31330.got.cif
#   From: 2010.03.12/outbox.cif.g09.slc.cpg/sg53_16_cif.got.tgz:31330.got - 2010.04.16 14:36:59.
