data_PCOD8217748
_publ_section_title
;
Structure prediction by ZEFSAII (Michael W. Deem and Ramdas Pophale) SiO2 
 PCOD8217748
Probable space group: P M N A
;
_chemical_formula_sum "Si O2"
_cell_formula_units_Z 56
_cell_length_a 8.978847
_cell_length_b 21.095586
_cell_length_c 18.072913
_cell_angle_alpha 90.000000
_cell_angle_beta 90.000000
_cell_angle_gamma 90.000000
_cell_volume 3423.263449
_symmetry_space_group_name_H-M "P M N A"
_symmetry_group_IT_number 53
_symmetry_cell_setting 'orthorhombic'
loop_
_space_group_symop_operation_xyz
x,y,z
1/2-x,-y,1/2+z
x,-y,-z
1/2-x,y,1/2-z
-x,-y,-z
1/2+x,y,1/2-z
-x,y,z
1/2+x,-y,1/2+z
loop_
_atom_site_type_symbol
_atom_site_label
_atom_site_fract_x
_atom_site_fract_y
_atom_site_fract_z
Si Si1 0.674671 0.121573 0.092304
Si Si2 0.332275 0.933140 0.459542
Si Si3 0.674527 0.751967 0.828092
Si Si4 0.324081 0.494054 0.327694
Si Si5 0.164016 0.438001 0.549720
Si Si6 0.174644 0.377004 0.405139
Si Si7 0.825031 0.008453 0.671771
O O1 0.500000 0.124492 0.075857
O O2 0.733746 0.183940 0.133918
O O3 0.715487 0.061861 0.143640
O O4 0.756922 0.118283 0.013378
O O5 0.500000 0.911614 0.441026
O O6 0.329990 0.000000 0.500000
O O7 0.238812 0.938656 0.384062
O O8 0.750000 0.741344 0.750000
O O9 0.500000 0.756686 0.814332
O O10 0.717026 0.693610 0.880927
O O11 0.250000 0.510393 0.250000
O O12 0.500000 0.491678 0.319041
O O13 0.280175 0.550978 0.383979
O O14 0.267453 0.426168 0.355983
O O15 0.154299 0.500000 0.500000
O O16 0.215411 0.382578 0.492779
O O17 0.000000 0.423053 0.583081
O O18 0.000000 0.392000 0.392771
O O19 0.750000 0.019706 0.750000
O O20 0.000000 0.018281 0.678889
#
# Coordination Sequence:
#
# PCOD8217748 Si02
#       7
#     8   8   8   8   8   8   8
#     4   9  18  31  45  63  90 122 153 184 219 260
#     4   9  17  29  45  64  86 114 149 186 224 267
#     4  10  20  32  46  66  92 123 156 185 215 254
#     4  11  20  29  44  66  91 117 147 184 225 267
#     4   8  15  29  46  63  86 115 146 181 222 265
#     4   9  18  32  47  64  90 122 152 183 220 262
#     4  10  18  28  44  66  92 119 147 183 225 266
#
# _framework density 16.358657999999998
#
# number of rings (size 3 to 8) (size 9 to 14) (size 15 to 20)
#    0.000    2.571    0.000    3.857    0.000    7.143 
#    0.000    0.000    0.000    0.000    0.000    1.000 
#    0.000    4.571    0.000    0.000    0.000    0.000 
#
# Total GULP energy -694310.415728 kJ/mol
# GULP energy per Si atom -12398.400281 kJ/mol
# Density = 1.632142 g / cm^3
# Si number density = 16.358658 Si / 1000 Ang^3
#
#
#
# Elastic Constant Matrix: (Units=GPa)
#
#
# Indices 1 2 3 4 5 6 
#
# 1 82.6553 20.1048 54.4515 0.0000 0.0000 0.0000
# 2 20.1048 48.5020 34.5161 0.0000 0.0000 0.0000
# 3 54.4515 34.5161 115.3925 0.0000 0.0000 0.0000
# 4 0.0000 0.0000 0.0000 27.1479 0.0000 0.0000
# 5 0.0000 0.0000 0.0000 0.0000 32.9411 0.0000
# 6 0.0000 0.0000 0.0000 0.0000 0.0000 13.4887
#
#
#
# Elastic Compliance Matrix: (Units=1/GPa)
#
#
# Indices 1 2 3 4 5 6 
#
# 1 0.017674 -0.001767 -0.007812 0.000000 0.000000 0.000000
# 2 -0.001767 0.026370 -0.007054 0.000000 0.000000 0.000000
# 3 -0.007812 -0.007054 0.014462 0.000000 0.000000 0.000000
# 4 0.000000 0.000000 0.000000 0.036835 0.000000 0.000000
# 5 0.000000 0.000000 0.000000 0.000000 0.030357 0.000000
# 6 0.000000 0.000000 0.000000 0.000000 0.000000 0.074136
#
#
# Mechanical properties :
#
#
# Convention : Reuss Voigt Hill
#
# Bulk Modulus (GPa) = 39.61768 51.63274 45.62521
# Shear Modulus (GPa) = 20.70269 23.88069 22.29169
#
# Velocity S-wave (km/s) = 3.56132 3.82490 3.69546
# Velocity P-wave (km/s) = 6.41727 7.15108 6.79409
#
# Compressibility (1/GPa) = 0.02524125
#
# Stress axis : x y z
#
# Youngs Moduli (GPa) = 56.57898 37.92171 69.14583
#
# Poissons Ratio (x) = 0.06702 0.54014
# Poissons Ratio (y) = 0.09999 0.48775
# Poissons Ratio (z) = 0.44197 0.26750
#
# Static dielectric constant tensor:
#      x y z
#    x 3.117190 0.000000 0.000000 
#    y 0.000000 3.016920 0.000000 
#    z 0.000000 0.000000 3.293020 
# 
# 
# High freq. dielectric constant tensor:
#      x y z
#    x 1.633580 0.000000 0.000000 
#    y 0.000000 1.590440 0.000000 
#    z 0.000000 0.000000 1.631910 
# 
# From -- ./inp_files/26672.got.cif
#   From: 2010.03.12/outbox.cif.g09.slc.cpg/sg53_14_cif.got.tgz:26672.got - 2010.04.16 14:36:59.
