data_PCOD8217837
_publ_section_title
;
Structure prediction by ZEFSAII (Michael W. Deem and Ramdas Pophale) SiO2 
 PCOD8217837
Probable space group: P M N A
;
_chemical_formula_sum "Si O2"
_cell_formula_units_Z 48
_cell_length_a 8.587421
_cell_length_b 15.063556
_cell_length_c 21.114139
_cell_angle_alpha 90.000000
_cell_angle_beta 90.000000
_cell_angle_gamma 90.000000
_cell_volume 2731.263729
_symmetry_space_group_name_H-M "P M N A"
_symmetry_group_IT_number 53
_symmetry_cell_setting 'orthorhombic'
loop_
_space_group_symop_operation_xyz
x,y,z
1/2-x,-y,1/2+z
x,-y,-z
1/2-x,y,1/2-z
-x,-y,-z
1/2+x,y,1/2-z
-x,y,z
1/2+x,-y,1/2+z
loop_
_atom_site_type_symbol
_atom_site_label
_atom_site_fract_x
_atom_site_fract_y
_atom_site_fract_z
Si Si1 0.179691 0.801330 0.547758
Si Si2 0.175639 0.979919 0.926041
Si Si3 0.320884 0.158217 0.901166
Si Si4 0.317662 0.690849 0.319084
Si Si5 0.682255 0.617049 0.545688
Si Si6 0.317168 0.440502 0.914875
O O1 0.244668 0.885065 0.587026
O O2 0.207274 0.815196 0.473515
O O3 0.271667 0.714178 0.570573
O O4 0.000000 0.789091 0.564189
O O5 0.000000 0.978067 0.900069
O O6 0.271368 0.056225 0.889585
O O7 0.179003 0.000000 0.000000
O O8 0.500000 0.170762 0.881505
O O9 0.213497 0.220143 0.858513
O O10 0.250000 0.704917 0.250000
O O11 0.500000 0.672019 0.316292
O O12 0.232720 0.606181 0.350034
O O13 0.500000 0.601433 0.553416
O O14 0.772153 0.544132 0.587922
O O15 0.728776 0.607531 0.472356
O O16 0.500000 0.429124 0.926213
#
# Coordination Sequence:
#
# PCOD8217837 Si02
#       6
#     8   8   8   8   8   8
#     4  10  18  29  47  72 103 136 169 205 252 306
#     4   9  17  28  44  68  99 132 167 203 245 295
#     4  10  19  32  49  70 100 134 170 209 253 302
#     4  12  24  38  55  75 101 135 176 217 259 307
#     4  11  20  31  50  75 103 136 171 210 259 313
#     4  11  21  35  51  72 101 134 171 213 260 310
#
# _framework density 17.574280999999999
#
# number of rings (size 3 to 8) (size 9 to 14) (size 15 to 20)
#    0.000    1.500    1.667    7.000    0.000    3.333 
#    0.000    0.000    0.000    0.000    0.000    1.167 
#    0.000    0.000    0.000    0.000    0.000    0.000 
#
# Total GULP energy -595359.699849 kJ/mol
# GULP energy per Si atom -12403.327080 kJ/mol
# Density = 1.753428 g / cm^3
# Si number density = 17.574281 Si / 1000 Ang^3
#
#
#
# Elastic Constant Matrix: (Units=GPa)
#
#
# Indices 1 2 3 4 5 6 
#
# 1 93.6702 32.6790 17.8583 0.0000 0.0000 0.0000
# 2 32.6790 133.1057 17.1493 0.0000 0.0000 0.0000
# 3 17.8583 17.1493 31.9745 0.0000 0.0000 0.0000
# 4 0.0000 0.0000 0.0000 0.1570 0.0000 0.0000
# 5 0.0000 0.0000 0.0000 0.0000 19.6972 0.0000
# 6 0.0000 0.0000 0.0000 0.0000 0.0000 36.5105
#
#
#
# Elastic Compliance Matrix: (Units=1/GPa)
#
#
# Indices 1 2 3 4 5 6 
#
# 1 0.012596 -0.002348 -0.005776 0.000000 0.000000 0.000000
# 2 -0.002348 0.008508 -0.003252 0.000000 0.000000 0.000000
# 3 -0.005776 -0.003252 0.036245 0.000000 0.000000 0.000000
# 4 0.000000 0.000000 0.000000 6.369447 0.000000 0.000000
# 5 0.000000 0.000000 0.000000 0.000000 0.050769 0.000000
# 6 0.000000 0.000000 0.000000 0.000000 0.000000 0.027389
#
#
# Mechanical properties :
#
#
# Convention : Reuss Voigt Hill
#
# Bulk Modulus (GPa) = 28.90363 43.79151 36.34757
# Shear Modulus (GPa) = 0.76461 24.01053 12.38757
#
# Velocity S-wave (km/s) = 0.66032 3.70027 2.65782
# Velocity P-wave (km/s) = 4.13081 6.57480 5.49052
#
# Compressibility (1/GPa) = 0.03459773
#
# Stress axis : x y z
#
# Youngs Moduli (GPa) = 79.38921 117.53178 27.59011
#
# Poissons Ratio (x) = 0.27601 0.15935
# Poissons Ratio (y) = 0.18644 0.08972
# Poissons Ratio (z) = 0.45853 0.38219
#
# Static dielectric constant tensor:
#      x y z
#    x 3.424960 0.000000 0.000000 
#    y 0.000000 3.567400 0.000000 
#    z 0.000000 0.000000 2.778450 
# 
# 
# High freq. dielectric constant tensor:
#      x y z
#    x 1.701820 0.000000 0.000000 
#    y 0.000000 1.698170 0.000000 
#    z 0.000000 0.000000 1.609840 
# 
# From -- ./inp_files/26246.got.cif
#   From: 2010.03.12/outbox.cif.g09.slc.cpg/sg53_14_cif.got.tgz:26246.got - 2010.04.16 14:36:59.
