data_PCOD8217712
_publ_section_title
;
Structure prediction by ZEFSAII (Michael W. Deem and Ramdas Pophale) SiO2 
 PCOD8217712
Probable space group: P M N A
;
_chemical_formula_sum "Si O2"
_cell_formula_units_Z 64
_cell_length_a 9.105019
_cell_length_b 16.677318
_cell_length_c 23.997252
_cell_angle_alpha 90.000000
_cell_angle_beta 90.000000
_cell_angle_gamma 90.000000
_cell_volume 3643.917858
_symmetry_space_group_name_H-M "P M N A"
_symmetry_group_IT_number 53
_symmetry_cell_setting 'orthorhombic'
loop_
_space_group_symop_operation_xyz
x,y,z
1/2-x,-y,1/2+z
x,-y,-z
1/2-x,y,1/2-z
-x,-y,-z
1/2+x,y,1/2-z
-x,y,z
1/2+x,-y,1/2+z
loop_
_atom_site_type_symbol
_atom_site_label
_atom_site_fract_x
_atom_site_fract_y
_atom_site_fract_z
Si Si1 0.333328 0.772289 0.628859
Si Si2 0.669989 0.389329 0.307494
Si Si3 0.171293 0.907288 0.690428
Si Si4 0.826936 0.667556 0.975201
Si Si5 0.832202 0.080829 0.693568
Si Si6 0.668998 0.651493 0.083755
Si Si7 0.172274 0.255569 0.690974
Si Si8 0.170184 0.464247 0.407750
O O1 0.500000 0.803418 0.629499
O O2 0.311144 0.702130 0.673691
O O3 0.228395 0.845255 0.644574
O O4 0.291018 0.739405 0.567701
O O5 0.750000 0.402703 0.250000
O O6 0.500000 0.413057 0.302473
O O7 0.746332 0.449019 0.350386
O O8 0.250000 0.895718 0.750000
O O9 0.000000 0.891469 0.700923
O O10 0.198447 0.996101 0.662172
O O11 0.743608 0.586712 0.956993
O O12 0.000000 0.649719 0.976189
O O13 0.767354 0.693012 0.035828
O O14 0.750000 0.070874 0.750000
O O15 0.787545 0.166184 0.665963
O O16 0.000000 0.086570 0.710086
O O17 0.500000 0.677679 0.075449
O O18 0.725964 0.681822 0.144090
O O19 0.688111 0.556949 0.078276
O O20 0.250000 0.272655 0.750000
O O21 0.000000 0.265468 0.701956
O O22 0.000000 0.439532 0.402290
#
# Coordination Sequence:
#
# PCOD8217712 Si02
#       8
#     8   8   8   8   8   8   8   8
#     4   9  19  33  47  67  95 126 161 200 238 279
#     4  10  20  33  48  68  97 133 168 200 241 291
#     4  10  18  27  45  73 100 128 161 195 235 282
#     4  10  21  36  53  72  95 126 164 203 243 287
#     4   8  15  28  46  69  97 127 158 192 231 279
#     4  10  21  35  53  76  98 124 159 200 244 288
#     4   9  18  34  53  74 102 130 157 193 238 286
#     4  10  20  34  51  72  98 127 162 204 247 289
#
# _framework density 17.563513
#
# number of rings (size 3 to 8) (size 9 to 14) (size 15 to 20)
#    0.000    2.500    0.000    3.000    0.000    8.000 
#    0.000    1.250    0.000    0.750    0.000    5.250 
#    0.000    0.000    0.000    0.000    0.000    0.000 
#
# Total GULP energy -793164.386554 kJ/mol
# GULP energy per Si atom -12393.193540 kJ/mol
# Density = 1.752354 g / cm^3
# Si number density = 17.563513 Si / 1000 Ang^3
#
#
#
# Elastic Constant Matrix: (Units=GPa)
#
#
# Indices 1 2 3 4 5 6 
#
# 1 88.4515 40.0618 50.9680 0.0000 0.0000 0.0000
# 2 40.0618 70.4255 40.6443 0.0000 0.0000 0.0000
# 3 50.9680 40.6443 115.3043 0.0000 0.0000 0.0000
# 4 0.0000 0.0000 0.0000 16.0057 0.0000 0.0000
# 5 0.0000 0.0000 0.0000 0.0000 31.8710 0.0000
# 6 0.0000 0.0000 0.0000 0.0000 0.0000 22.0778
#
#
#
# Elastic Compliance Matrix: (Units=1/GPa)
#
#
# Indices 1 2 3 4 5 6 
#
# 1 0.017477 -0.006884 -0.005299 0.000000 0.000000 0.000000
# 2 -0.006884 0.020537 -0.004196 0.000000 0.000000 0.000000
# 3 -0.005299 -0.004196 0.012494 0.000000 0.000000 0.000000
# 4 0.000000 0.000000 0.000000 0.062478 0.000000 0.000000
# 5 0.000000 0.000000 0.000000 0.000000 0.031376 0.000000
# 6 0.000000 0.000000 0.000000 0.000000 0.000000 0.045294
#
#
# Mechanical properties :
#
#
# Convention : Reuss Voigt Hill
#
# Bulk Modulus (GPa) = 56.33747 59.72552 58.03150
# Shear Modulus (GPa) = 21.89803 23.49137 22.69470
#
# Velocity S-wave (km/s) = 3.53482 3.66117 3.59855
# Velocity P-wave (km/s) = 6.98613 7.20774 7.09780
#
# Compressibility (1/GPa) = 0.01775018
#
# Stress axis : x y z
#
# Youngs Moduli (GPa) = 57.21910 48.69250 80.03738
#
# Poissons Ratio (x) = 0.33518 0.42410
# Poissons Ratio (y) = 0.39387 0.33587
# Poissons Ratio (z) = 0.30319 0.20434
#
# Static dielectric constant tensor:
#      x y z
#    x 3.350900 0.000000 0.000000 
#    y 0.000000 3.554280 0.000000 
#    z 0.000000 0.000000 3.043570 
# 
# 
# High freq. dielectric constant tensor:
#      x y z
#    x 1.688220 0.000000 0.000000 
#    y 0.000000 1.675700 0.000000 
#    z 0.000000 0.000000 1.658390 
# 
# From -- ./inp_files/34170.got.cif
#   From: 2010.03.12/outbox.cif.g09.slc.cpg/sg53_18_cif.got.tgz:34170.got - 2010.04.16 14:36:59.
