data_PCOD8217694
_publ_section_title
;
Structure prediction by ZEFSAII (Michael W. Deem and Ramdas Pophale) SiO2 
 PCOD8217694
Probable space group: P M N A
;
_chemical_formula_sum "Si O2"
_cell_formula_units_Z 64
_cell_length_a 8.914853
_cell_length_b 20.256873
_cell_length_c 21.640028
_cell_angle_alpha 90.000000
_cell_angle_beta 90.000000
_cell_angle_gamma 90.000000
_cell_volume 3907.908711
_symmetry_space_group_name_H-M "P M N A"
_symmetry_group_IT_number 53
_symmetry_cell_setting 'orthorhombic'
loop_
_space_group_symop_operation_xyz
x,y,z
1/2-x,-y,1/2+z
x,-y,-z
1/2-x,y,1/2-z
-x,-y,-z
1/2+x,y,1/2-z
-x,y,z
1/2+x,-y,1/2+z
loop_
_atom_site_type_symbol
_atom_site_label
_atom_site_fract_x
_atom_site_fract_y
_atom_site_fract_z
Si Si1 0.332359 0.510752 0.426933
Si Si2 0.322119 0.862177 0.815449
Si Si3 0.328375 0.095800 0.543754
Si Si4 0.821655 0.250727 0.107270
Si Si5 0.332103 0.383343 0.091050
Si Si6 0.323730 0.776444 0.022569
Si Si7 0.672822 0.957248 0.592335
Si Si8 0.334174 0.363575 0.945073
O O1 0.325657 0.500000 0.500000
O O2 0.500000 0.505443 0.401559
O O3 0.235775 0.454926 0.392049
O O4 0.272868 0.584182 0.410856
O O5 0.250000 0.878561 0.750000
O O6 0.500000 0.853965 0.810357
O O7 0.249903 0.794807 0.840327
O O8 0.284171 0.923867 0.859388
O O9 0.500000 0.117961 0.551022
O O10 0.222491 0.158046 0.560244
O O11 0.295065 0.073211 0.474366
O O12 0.292750 0.035650 0.590335
O O13 0.768963 0.325599 0.120333
O O14 0.768332 0.224538 0.040957
O O15 0.000000 0.246727 0.110576
O O16 0.500000 0.378860 0.118204
O O17 0.334505 0.375521 0.017927
O O18 0.500000 0.775724 0.006598
O O19 0.282197 0.712444 0.064682
O O20 0.500000 0.944373 0.611303
O O21 0.500000 0.374824 0.917957
#
# Coordination Sequence:
#
# PCOD8217694 Si02
#       8
#     8   8   8   8   8   8   8   8
#     4   9  15  22  33  51  73 102 141 178 211 250
#     4  12  24  37  52  69  89 117 150 188 231 276
#     4   9  17  29  48  68  92 119 146 183 229 272
#     4  11  20  31  45  62  85 111 145 186 224 266
#     4   9  16  26  39  54  75 105 140 178 217 255
#     4  10  18  27  41  63  88 115 149 185 223 266
#     4   9  18  33  49  69  91 116 147 184 227 274
#     4   8  15  24  33  49  77 110 141 176 214 253
#
# _framework density 16.377044999999999
#
# number of rings (size 3 to 8) (size 9 to 14) (size 15 to 20)
#    0.000    2.375    1.250    4.875    0.000    5.500 
#    0.000    1.250    0.000    0.000    0.000    0.000 
#    0.000    0.000    0.000    1.125    0.000   17.625 
#
# Total GULP energy -793387.692433 kJ/mol
# GULP energy per Si atom -12396.682694 kJ/mol
# Density = 1.633977 g / cm^3
# Si number density = 16.377045 Si / 1000 Ang^3
#
#
#
# Elastic Constant Matrix: (Units=GPa)
#
#
# Indices 1 2 3 4 5 6 
#
# 1 124.8302 62.8228 24.5344 0.0000 0.0000 0.0000
# 2 62.8228 140.7170 21.4578 0.0000 0.0000 0.0000
# 3 24.5344 21.4578 31.6928 0.0000 0.0000 0.0000
# 4 0.0000 0.0000 0.0000 9.2793 0.0000 0.0000
# 5 0.0000 0.0000 0.0000 0.0000 13.7178 0.0000
# 6 0.0000 0.0000 0.0000 0.0000 0.0000 34.7147
#
#
#
# Elastic Compliance Matrix: (Units=1/GPa)
#
#
# Indices 1 2 3 4 5 6 
#
# 1 0.011247 -0.004119 -0.005918 0.000000 0.000000 0.000000
# 2 -0.004119 0.009433 -0.003198 0.000000 0.000000 0.000000
# 3 -0.005918 -0.003198 0.038300 0.000000 0.000000 0.000000
# 4 0.000000 0.000000 0.000000 0.107767 0.000000 0.000000
# 5 0.000000 0.000000 0.000000 0.000000 0.072898 0.000000
# 6 0.000000 0.000000 0.000000 0.000000 0.000000 0.028806
#
#
# Mechanical properties :
#
#
# Convention : Reuss Voigt Hill
#
# Bulk Modulus (GPa) = 30.76014 57.20777 43.98395
# Shear Modulus (GPa) = 16.35288 24.10403 20.22845
#
# Velocity S-wave (km/s) = 3.16337 3.84059 3.51831
# Velocity P-wave (km/s) = 5.67149 7.39421 6.58939
#
# Compressibility (1/GPa) = 0.03250961
#
# Stress axis : x y z
#
# Youngs Moduli (GPa) = 88.91418 106.01154 26.10998
#
# Poissons Ratio (x) = 0.43663 0.15452
# Poissons Ratio (y) = 0.36621 0.08351
# Poissons Ratio (z) = 0.52619 0.33905
#
# Static dielectric constant tensor:
#      x y z
#    x 3.191860 0.000000 0.000000 
#    y 0.000000 3.502510 0.000000 
#    z 0.000000 0.000000 2.486230 
# 
# 
# High freq. dielectric constant tensor:
#      x y z
#    x 1.642400 0.000000 0.000000 
#    y 0.000000 1.650900 0.000000 
#    z 0.000000 0.000000 1.542280 
# 
# From -- ./inp_files/34567.got.cif
#   From: 2010.03.12/outbox.cif.g09.slc.cpg/sg53_18_cif.got.tgz:34567.got - 2010.04.16 14:36:59.
