data_PCOD8217583
_publ_section_title
;
Structure prediction by ZEFSAII (Michael W. Deem and Ramdas Pophale) SiO2 
 PCOD8217583
Probable space group: P M N A
;
_chemical_formula_sum "Si O2"
_cell_formula_units_Z 64
_cell_length_a 8.849260
_cell_length_b 16.731279
_cell_length_c 24.168815
_cell_angle_alpha 90.000000
_cell_angle_beta 90.000000
_cell_angle_gamma 90.000000
_cell_volume 3578.421166
_symmetry_space_group_name_H-M "P M N A"
_symmetry_group_IT_number 53
_symmetry_cell_setting 'orthorhombic'
loop_
_space_group_symop_operation_xyz
x,y,z
1/2-x,-y,1/2+z
x,-y,-z
1/2-x,y,1/2-z
-x,-y,-z
1/2+x,y,1/2-z
-x,y,z
1/2+x,-y,1/2+z
loop_
_atom_site_type_symbol
_atom_site_label
_atom_site_fract_x
_atom_site_fract_y
_atom_site_fract_z
Si Si1 0.821290 0.887767 0.692093
Si Si2 0.178694 0.827337 0.526302
Si Si3 0.324940 0.150887 0.583782
Si Si4 0.175684 0.758910 0.190618
Si Si5 0.678149 0.732008 0.869283
Si Si6 0.324216 0.034099 0.408095
Si Si7 0.819802 0.574312 0.689002
Si Si8 0.823559 0.418342 0.809459
O O1 0.750000 0.910292 0.750000
O O2 0.764169 0.800278 0.672883
O O3 0.763315 0.953151 0.649021
O O4 0.000000 0.892479 0.695814
O O5 0.233799 0.804056 0.464952
O O6 0.228491 0.756123 0.568410
O O7 0.256834 0.910298 0.543930
O O8 0.000000 0.840105 0.528073
O O9 0.500000 0.174517 0.578441
O O10 0.263637 0.180254 0.643695
O O11 0.298328 0.057301 0.575631
O O12 0.250000 0.775664 0.250000
O O13 0.206713 0.669700 0.165620
O O14 0.000000 0.771563 0.201508
O O15 0.500000 0.728840 0.866439
O O16 0.741728 0.646398 0.849807
O O17 0.500000 0.054067 0.400493
O O18 0.750000 0.584938 0.750000
O O19 0.759909 0.492263 0.659622
O O20 0.000000 0.573171 0.693334
O O21 0.750000 0.416274 0.750000
O O22 0.000000 0.437954 0.805611
#
# Coordination Sequence:
#
# PCOD8217583 Si02
#       8
#     8   8   8   8   8   8   8   8
#     4  10  19  32  48  68  98 133 167 200 241 291
#     4  10  20  35  53  73  97 126 163 203 242 285
#     4  10  21  36  53  74  97 124 159 200 244 288
#     4   9  19  35  53  73 100 128 156 194 239 288
#     4   8  17  31  46  67  96 128 161 199 236 276
#     4  10  20  34  51  71  97 128 163 204 247 288
#     4  10  17  27  45  70  99 127 157 193 233 278
#     4   9  16  28  46  69  96 125 156 191 233 280
#
# _framework density 17.884982999999998
#
# number of rings (size 3 to 8) (size 9 to 14) (size 15 to 20)
#    0.000    2.500    0.000    4.125    0.000    4.000 
#    0.000    8.125    0.000    0.750    0.000    5.250 
#    0.000    0.000    0.000    0.000    0.000    0.000 
#
# Total GULP energy -793213.241157 kJ/mol
# GULP energy per Si atom -12393.956893 kJ/mol
# Density = 1.784428 g / cm^3
# Si number density = 17.884983 Si / 1000 Ang^3
#
#
#
# Elastic Constant Matrix: (Units=GPa)
#
#
# Indices 1 2 3 4 5 6 
#
# 1 74.5064 32.3241 36.0699 0.0000 0.0000 0.0000
# 2 32.3241 77.4900 38.5841 0.0000 0.0000 0.0000
# 3 36.0699 38.5841 115.5610 0.0000 0.0000 0.0000
# 4 0.0000 0.0000 0.0000 20.3349 0.0000 0.0000
# 5 0.0000 0.0000 0.0000 0.0000 28.4697 0.0000
# 6 0.0000 0.0000 0.0000 0.0000 0.0000 14.1519
#
#
#
# Elastic Compliance Matrix: (Units=1/GPa)
#
#
# Indices 1 2 3 4 5 6 
#
# 1 0.017580 -0.005519 -0.003645 0.000000 0.000000 0.000000
# 2 -0.005519 0.017210 -0.004024 0.000000 0.000000 0.000000
# 3 -0.003645 -0.004024 0.011135 0.000000 0.000000 0.000000
# 4 0.000000 0.000000 0.000000 0.049176 0.000000 0.000000
# 5 0.000000 0.000000 0.000000 0.000000 0.035125 0.000000
# 6 0.000000 0.000000 0.000000 0.000000 0.000000 0.070662
#
#
# Mechanical properties :
#
#
# Convention : Reuss Voigt Hill
#
# Bulk Modulus (GPa) = 51.14820 53.50150 52.32485
# Shear Modulus (GPa) = 21.38760 23.29659 22.34209
#
# Velocity S-wave (km/s) = 3.46185 3.61304 3.53825
# Velocity P-wave (km/s) = 6.68129 6.88364 6.78322
#
# Compressibility (1/GPa) = 0.01955103
#
# Stress axis : x y z
#
# Youngs Moduli (GPa) = 56.88153 58.10412 89.81064
#
# Poissons Ratio (x) = 0.32066 0.32734
# Poissons Ratio (y) = 0.31391 0.36138
# Poissons Ratio (z) = 0.20732 0.23380
#
# Static dielectric constant tensor:
#      x y z
#    x 3.280240 0.000000 0.000000 
#    y 0.000000 3.975930 0.000000 
#    z 0.000000 0.000000 3.249180 
# 
# 
# High freq. dielectric constant tensor:
#      x y z
#    x 1.691710 0.000000 0.000000 
#    y 0.000000 1.689320 0.000000 
#    z 0.000000 0.000000 1.673860 
# 
# From -- ./inp_files/34487.got.cif
#   From: 2010.03.12/outbox.cif.g09.slc.cpg/sg53_18_cif.got.tgz:34487.got - 2010.04.16 14:36:59.
