data_PCOD8217112
_publ_section_title
;
Structure prediction by ZEFSAII (Michael W. Deem and Ramdas Pophale) SiO2 
 PCOD8217112
Probable space group: P N N A
;
_chemical_formula_sum "Si O2"
_cell_formula_units_Z 32
_cell_length_a 16.439866
_cell_length_b 4.820856
_cell_length_c 18.591349
_cell_angle_alpha 90.000000
_cell_angle_beta 90.000000
_cell_angle_gamma 90.000000
_cell_volume 1473.442987
_symmetry_space_group_name_H-M "P N N A"
_symmetry_group_IT_number 52
_symmetry_cell_setting 'orthorhombic'
loop_
_space_group_symop_operation_xyz
x,y,z
1/2-x,-y,z
x,1/2-y,1/2-z
1/2-x,1/2+y,1/2-z
-x,-y,-z
1/2+x,y,-z
-x,1/2+y,1/2+z
1/2+x,1/2-y,1/2+z
loop_
_atom_site_type_symbol
_atom_site_label
_atom_site_fract_x
_atom_site_fract_y
_atom_site_fract_z
Si Si1 0.335701 0.397910 0.868546
Si Si2 0.440554 0.583393 0.435344
Si Si3 0.566311 0.397339 0.325323
Si Si4 0.163863 0.895948 0.465996
O O1 0.250000 0.500000 0.835451
O O2 0.399112 0.651261 0.874285
O O3 0.366009 0.141231 0.819238
O O4 0.325609 0.307756 0.950892
O O5 0.500000 0.500000 0.500000
O O6 0.488470 0.548490 0.360203
O O7 0.409406 0.893840 0.447977
O O8 0.361168 0.390440 0.428694
O O9 0.545121 0.250000 0.250000
O O10 0.250000 0.000000 0.434869
#
# Coordination Sequence:
#
# PCOD8217112 Si02
#       4
#     8   8   8   8
#     4  11  22  39  60  88 126 166 209 255 308 386
#     4  12  21  39  64  90 126 163 208 265 316 373
#     4  12  25  39  59  90 125 170 211 251 312 380
#     4  11  22  38  64  95 122 158 211 268 324 372
#
# _framework density 21.717842000000001
#
# number of rings (size 3 to 8) (size 9 to 14) (size 15 to 20)
#    0.000    0.500    5.000    4.500    0.000    6.000 
#    0.000    0.000    0.000    3.000    0.000    0.000 
#    0.000    0.000    0.000    0.000    0.000    0.000 
#
# Total GULP energy -396732.373893 kJ/mol
# GULP energy per Si atom -12397.886684 kJ/mol
# Density = 2.166841 g / cm^3
# Si number density = 21.717842 Si / 1000 Ang^3
#
#
#
# Elastic Constant Matrix: (Units=GPa)
#
#
# Indices 1 2 3 4 5 6 
#
# 1 87.4182 9.5060 37.1971 0.0000 0.0000 0.0000
# 2 9.5060 92.0671 17.6450 0.0000 0.0000 0.0000
# 3 37.1971 17.6450 86.0545 0.0000 0.0000 0.0000
# 4 0.0000 0.0000 0.0000 34.4327 0.0000 0.0000
# 5 0.0000 0.0000 0.0000 0.0000 17.4627 0.0000
# 6 0.0000 0.0000 0.0000 0.0000 0.0000 52.2168
#
#
#
# Elastic Compliance Matrix: (Units=1/GPa)
#
#
# Indices 1 2 3 4 5 6 
#
# 1 0.014025 -0.000298 -0.006001 0.000000 0.000000 0.000000
# 2 -0.000298 0.011312 -0.002191 0.000000 0.000000 0.000000
# 3 -0.006001 -0.002191 0.014664 0.000000 0.000000 0.000000
# 4 0.000000 0.000000 0.000000 0.029042 0.000000 0.000000
# 5 0.000000 0.000000 0.000000 0.000000 0.057265 0.000000
# 6 0.000000 0.000000 0.000000 0.000000 0.000000 0.019151
#
#
# Mechanical properties :
#
#
# Convention : Reuss Voigt Hill
#
# Bulk Modulus (GPa) = 43.43797 43.80401 43.62099
# Shear Modulus (GPa) = 29.39217 34.23521 31.81369
#
# Velocity S-wave (km/s) = 3.68280 3.97465 3.83151
# Velocity P-wave (km/s) = 6.17483 6.42473 6.30102
#
# Compressibility (1/GPa) = 0.02302133
#
# Stress axis : x y z
#
# Youngs Moduli (GPa) = 71.29982 88.39957 68.19504
#
# Poissons Ratio (x) = 0.02634 0.40926
# Poissons Ratio (y) = 0.02124 0.14940
# Poissons Ratio (z) = 0.42789 0.19366
#
# Static dielectric constant tensor:
#      x y z
#    x 4.155100 0.000000 0.000000 
#    y 0.000000 4.192510 0.000000 
#    z 0.000000 0.000000 3.510700 
# 
# 
# High freq. dielectric constant tensor:
#      x y z
#    x 1.852210 0.000000 0.000000 
#    y 0.000000 1.877180 0.000000 
#    z 0.000000 0.000000 1.810010 
# 
# From -- ./inp_files/32585.got.cif
#   From: 2010.06.25/outbox.cif.g09.slc.cpg/sg52_17_cif.got.tgz:32585.got - 2010.06.26 19:32:48.
