data_PCOD8217187
_publ_section_title
;
Structure prediction by ZEFSAII (Michael W. Deem and Ramdas Pophale) SiO2 
 PCOD8217187
Probable space group: P N N A
;
_chemical_formula_sum "Si O2"
_cell_formula_units_Z 40
_cell_length_a 25.332680
_cell_length_b 7.812896
_cell_length_c 8.730288
_cell_angle_alpha 90.000000
_cell_angle_beta 90.000000
_cell_angle_gamma 90.000000
_cell_volume 1727.912519
_symmetry_space_group_name_H-M "P N N A"
_symmetry_group_IT_number 52
_symmetry_cell_setting 'orthorhombic'
loop_
_space_group_symop_operation_xyz
x,y,z
1/2-x,-y,z
x,1/2-y,1/2-z
1/2-x,1/2+y,1/2-z
-x,-y,-z
1/2+x,y,-z
-x,1/2+y,1/2+z
1/2+x,1/2-y,1/2+z
loop_
_atom_site_type_symbol
_atom_site_label
_atom_site_fract_x
_atom_site_fract_y
_atom_site_fract_z
Si Si1 0.167748 0.780102 0.426329
Si Si2 0.395538 0.516051 0.587382
Si Si3 0.574434 0.934706 0.428649
Si Si4 0.750000 0.000000 0.407441
Si Si5 0.475401 0.762357 0.072545
Si Si6 0.173940 0.250000 0.750000
O O1 0.178250 0.750000 0.250000
O O2 0.145123 0.607968 0.501383
O O3 0.123672 0.924722 0.455968
O O4 0.223179 0.847960 0.494100
O O5 0.407932 0.440716 0.753471
O O6 0.450125 0.563443 0.496696
O O7 0.363247 0.693882 0.607813
O O8 0.539440 0.756878 0.443722
O O9 0.542821 0.102127 0.472137
O O10 0.707228 0.085794 0.298270
O O11 0.458402 0.750000 0.250000
#
# Coordination Sequence:
#
# PCOD8217187 Si02
#       6
#     8   8   8   4   8   4
#     4  12  27  45  71 103 145 180 235 302 362 421
#     4  12  23  45  71 101 140 191 237 293 349 432
#     4  11  24  44  66 102 145 188 242 286 345 434
#     4  12  26  46  72 104 132 184 242 296 374 416
#     4  11  23  40  68 103 146 191 238 289 353 417
#     4  12  24  44  74 100 134 182 242 304 340 438
#
# _framework density 23.149322000000002
#
# number of rings (size 3 to 8) (size 9 to 14) (size 15 to 20)
#    0.000    0.400    4.000    4.200    0.000    8.000 
#    0.000    1.000    0.000    0.000    0.000    0.000 
#    0.000    0.000    0.000    0.000    0.000    0.000 
#
# Total GULP energy -495900.885086 kJ/mol
# GULP energy per Si atom -12397.522127 kJ/mol
# Density = 2.309663 g / cm^3
# Si number density = 23.149322 Si / 1000 Ang^3
#
#
#
# Elastic Constant Matrix: (Units=GPa)
#
#
# Indices 1 2 3 4 5 6 
#
# 1 111.9143 22.1037 31.4943 0.0000 0.0000 0.0000
# 2 22.1037 70.7974 19.0840 0.0000 0.0000 0.0000
# 3 31.4943 19.0840 117.1817 0.0000 0.0000 0.0000
# 4 0.0000 0.0000 0.0000 42.0478 0.0000 0.0000
# 5 0.0000 0.0000 0.0000 0.0000 12.9196 0.0000
# 6 0.0000 0.0000 0.0000 0.0000 0.0000 36.0110
#
#
#
# Elastic Compliance Matrix: (Units=1/GPa)
#
#
# Indices 1 2 3 4 5 6 
#
# 1 0.010081 -0.002528 -0.002298 0.000000 0.000000 0.000000
# 2 -0.002528 0.015407 -0.001830 0.000000 0.000000 0.000000
# 3 -0.002298 -0.001830 0.009449 0.000000 0.000000 0.000000
# 4 0.000000 0.000000 0.000000 0.023782 0.000000 0.000000
# 5 0.000000 0.000000 0.000000 0.000000 0.077402 0.000000
# 6 0.000000 0.000000 0.000000 0.000000 0.000000 0.027769
#
#
# Mechanical properties :
#
#
# Convention : Reuss Voigt Hill
#
# Bulk Modulus (GPa) = 46.23912 49.47303 47.85607
# Shear Modulus (GPa) = 27.11321 33.34309 30.22815
#
# Velocity S-wave (km/s) = 3.42604 3.79931 3.61749
# Velocity P-wave (km/s) = 5.97227 6.37683 6.17786
#
# Compressibility (1/GPa) = 0.02162671
#
# Stress axis : x y z
#
# Youngs Moduli (GPa) = 99.19299 64.90411 105.82781
#
# Poissons Ratio (x) = 0.16409 0.24317
# Poissons Ratio (y) = 0.25077 0.19364
# Poissons Ratio (z) = 0.22792 0.11876
#
# Static dielectric constant tensor:
#      x y z
#    x 4.637610 0.000000 0.000000 
#    y 0.000000 4.342270 0.000000 
#    z 0.000000 0.000000 4.122980 
# 
# 
# High freq. dielectric constant tensor:
#      x y z
#    x 1.931480 0.000000 0.000000 
#    y 0.000000 1.936670 0.000000 
#    z 0.000000 0.000000 1.903100 
# 
# From -- ./inp_files/14020.got.cif
#   From: 2010.06.25/outbox.cif.g09.slc.cpg/sg52_8_cif.got.tgz:14020.got - 2010.06.26 19:32:48.
