data_PCOD8217138
_publ_section_title
;
Structure prediction by ZEFSAII (Michael W. Deem and Ramdas Pophale) SiO2 
 PCOD8217138
Probable space group: P N N A
;
_chemical_formula_sum "Si O2"
_cell_formula_units_Z 64
_cell_length_a 9.724138
_cell_length_b 28.846103
_cell_length_c 11.469240
_cell_angle_alpha 90.000000
_cell_angle_beta 90.000000
_cell_angle_gamma 90.000000
_cell_volume 3217.161806
_symmetry_space_group_name_H-M "P N N A"
_symmetry_group_IT_number 52
_symmetry_cell_setting 'orthorhombic'
loop_
_space_group_symop_operation_xyz
x,y,z
1/2-x,-y,z
x,1/2-y,1/2-z
1/2-x,1/2+y,1/2-z
-x,-y,-z
1/2+x,y,-z
-x,1/2+y,1/2+z
1/2+x,1/2-y,1/2+z
loop_
_atom_site_type_symbol
_atom_site_label
_atom_site_fract_x
_atom_site_fract_y
_atom_site_fract_z
Si Si1 0.899497 0.708111 0.827399
Si Si2 0.794507 0.324219 0.472875
Si Si3 0.456373 0.761255 0.950519
Si Si4 0.479215 0.094343 0.536113
Si Si5 0.545077 0.168941 0.349211
Si Si6 0.245981 0.553143 0.124701
Si Si7 0.149618 0.650549 0.772521
Si Si8 0.796038 0.364541 0.720300
O O1 0.843579 0.750000 0.750000
O O2 0.801429 0.664046 0.808446
O O3 0.055898 0.695864 0.793101
O O4 0.888124 0.725729 0.957986
O O5 0.656951 0.300087 0.421678
O O6 0.846532 0.357334 0.367909
O O7 0.758278 0.355657 0.585281
O O8 0.904946 0.285030 0.505214
O O9 0.486294 0.724484 0.847292
O O10 0.501740 0.143442 0.469842
O O11 0.381450 0.061437 0.461277
O O12 0.618861 0.066502 0.552971
O O13 0.415183 0.105842 0.663330
O O14 0.702801 0.159085 0.326707
O O15 0.454472 0.149526 0.241704
O O16 0.250000 0.500000 0.163052
O O17 0.228464 0.582047 0.244988
#
# Coordination Sequence:
#
# PCOD8217138 Si02
#       8
#     8   8   8   8   8   8   8   8
#     4  12  21  38  59  84 124 170 210 247 297 356
#     4  12  25  37  54  84 122 173 210 245 283 357
#     4  12  23  34  56  86 120 168 216 249 288 342
#     4  11  22  41  65  96 123 152 190 258 317 367
#     4  11  24  37  59  87 124 160 205 255 297 346
#     4  11  23  43  72  97 118 150 198 255 321 377
#     4  12  23  39  58  85 125 166 203 246 306 357
#     4  11  24  41  60  87 125 162 204 255 302 355
#
# _framework density 19.893312000000002
#
# number of rings (size 3 to 8) (size 9 to 14) (size 15 to 20)
#    0.000    0.500    6.250    2.625    1.750    1.000 
#    0.000    0.000    0.000    1.500    0.000    0.000 
#    0.000    0.000    0.000    0.000    0.000    0.000 
#
# Total GULP energy -793687.879825 kJ/mol
# GULP energy per Si atom -12401.373122 kJ/mol
# Density = 1.984803 g / cm^3
# Si number density = 19.893312 Si / 1000 Ang^3
#
#
#
# Elastic Constant Matrix: (Units=GPa)
#
#
# Indices 1 2 3 4 5 6 
#
# 1 106.2766 25.2140 7.4397 0.0000 0.0000 0.0000
# 2 25.2140 108.5137 36.1843 0.0000 0.0000 0.0000
# 3 7.4397 36.1843 75.7991 0.0000 0.0000 0.0000
# 4 0.0000 0.0000 0.0000 10.9037 0.0000 0.0000
# 5 0.0000 0.0000 0.0000 0.0000 61.7224 0.0000
# 6 0.0000 0.0000 0.0000 0.0000 0.0000 12.6683
#
#
#
# Elastic Compliance Matrix: (Units=1/GPa)
#
#
# Indices 1 2 3 4 5 6 
#
# 1 0.009960 -0.002365 0.000151 0.000000 0.000000 0.000000
# 2 -0.002365 0.011521 -0.005268 0.000000 0.000000 0.000000
# 3 0.000151 -0.005268 0.015693 0.000000 0.000000 0.000000
# 4 0.000000 0.000000 0.000000 0.091712 0.000000 0.000000
# 5 0.000000 0.000000 0.000000 0.000000 0.016202 0.000000
# 6 0.000000 0.000000 0.000000 0.000000 0.000000 0.078937
#
#
# Mechanical properties :
#
#
# Convention : Reuss Voigt Hill
#
# Bulk Modulus (GPa) = 45.02210 47.58505 46.30358
# Shear Modulus (GPa) = 20.29292 31.84229 26.06761
#
# Velocity S-wave (km/s) = 3.19735 4.00516 3.62383
# Velocity P-wave (km/s) = 6.02591 6.73502 6.39031
#
# Compressibility (1/GPa) = 0.02221131
#
# Stress axis : x y z
#
# Youngs Moduli (GPa) = 100.40319 86.79432 63.72396
#
# Poissons Ratio (x) = 0.20524 -0.00964
# Poissons Ratio (y) = 0.23742 0.33569
# Poissons Ratio (z) = -0.01519 0.45723
#
# Static dielectric constant tensor:
#      x y z
#    x 3.791820 0.000000 0.000000 
#    y 0.000000 3.617130 0.000000 
#    z 0.000000 0.000000 3.946200 
# 
# 
# High freq. dielectric constant tensor:
#      x y z
#    x 1.797690 0.000000 0.000000 
#    y 0.000000 1.735130 0.000000 
#    z 0.000000 0.000000 1.775970 
# 
# From -- ./inp_files/17228.got.cif
#   From: 2010.06.25/outbox.cif.g09.slc.cpg/sg52_9_cif.got.tgz:17228.got - 2010.06.26 19:32:48.
