data_PCOD8217414
_publ_section_title
;
Structure prediction by ZEFSAII (Michael W. Deem and Ramdas Pophale) SiO2 
 PCOD8217414
Probable space group: P N N A
;
_chemical_formula_sum "Si O2"
_cell_formula_units_Z 24
_cell_length_a 14.419548
_cell_length_b 13.735747
_cell_length_c 4.607219
_cell_angle_alpha 90.000000
_cell_angle_beta 90.000000
_cell_angle_gamma 90.000000
_cell_volume 912.520829
_symmetry_space_group_name_H-M "P N N A"
_symmetry_group_IT_number 52
_symmetry_cell_setting 'orthorhombic'
loop_
_space_group_symop_operation_xyz
x,y,z
1/2-x,-y,z
x,1/2-y,1/2-z
1/2-x,1/2+y,1/2-z
-x,-y,-z
1/2+x,y,-z
-x,1/2+y,1/2+z
1/2+x,1/2-y,1/2+z
loop_
_atom_site_type_symbol
_atom_site_label
_atom_site_fract_x
_atom_site_fract_y
_atom_site_fract_z
Si Si1 0.058963 0.917171 0.858560
Si Si2 0.073633 0.250000 0.250000
Si Si3 0.708130 0.250000 0.250000
Si Si4 0.184993 0.913561 0.378192
O O1 0.130305 0.869621 0.098423
O O2 0.115405 0.967374 0.598249
O O3 0.995141 0.839197 0.690640
O O4 0.000000 0.000000 0.000000
O O5 0.138203 0.292257 0.508102
O O6 0.767633 0.170406 0.425729
O O7 0.250000 0.000000 0.259795
#
# Coordination Sequence:
#
# PCOD8217414 Si02
#       4
#     8   4   4   8
#     4  12  25  45  71 104 142 188 241 300 365 439
#     4  12  25  44  69 102 142 188 234 294 363 436
#     4  12  25  44  69 102 142 188 238 296 363 432
#     4  12  25  45  71 104 143 190 242 302 364 435
#
# _framework density 26.300771000000001
#
# number of rings (size 3 to 8) (size 9 to 14) (size 15 to 20)
#    0.000    0.000    0.000   11.000    0.000    2.667 
#    0.000    0.000    0.000    0.000    0.000    0.000 
#    0.000    0.000    0.000    0.000    0.000    0.000 
#
# Total GULP energy -297326.864425 kJ/mol
# GULP energy per Si atom -12388.619351 kJ/mol
# Density = 2.624091 g / cm^3
# Si number density = 26.300771 Si / 1000 Ang^3
#
#
#
# Elastic Constant Matrix: (Units=GPa)
#
#
# Indices 1 2 3 4 5 6 
#
# 1 92.8106 14.5096 22.2886 0.0000 0.0000 0.0000
# 2 14.5096 80.8948 -15.2594 0.0000 0.0000 0.0000
# 3 22.2886 -15.2594 115.3048 0.0000 0.0000 0.0000
# 4 0.0000 0.0000 0.0000 41.3808 0.0000 0.0000
# 5 0.0000 0.0000 0.0000 0.0000 283.7983 0.0000
# 6 0.0000 0.0000 0.0000 0.0000 0.0000 -144.3233
#
#
#
# Elastic Compliance Matrix: (Units=1/GPa)
#
#
# Indices 1 2 3 4 5 6 
#
# 1 0.011815 -0.002615 -0.002630 0.000000 0.000000 0.000000
# 2 -0.002615 0.013257 0.002260 0.000000 0.000000 0.000000
# 3 -0.002630 0.002260 0.009480 0.000000 0.000000 0.000000
# 4 0.000000 0.000000 0.000000 0.024166 0.000000 0.000000
# 5 0.000000 0.000000 0.000000 0.000000 0.003524 0.000000
# 6 0.000000 0.000000 0.000000 0.000000 0.000000 -0.006929
#
#
# Mechanical properties :
#
#
# Convention : Reuss Voigt Hill
#
# Bulk Modulus (GPa) = 34.98734 36.89864 35.94299
# Shear Modulus (GPa) = 70.61074 54.00257 62.30666
#
# Velocity S-wave (km/s) = 5.18707 4.53622 4.87252
# Velocity P-wave (km/s) = 7.01469 6.44176 6.73432
#
# Compressibility (1/GPa) = 0.02858177
#
# Stress axis : x y z
#
# Youngs Moduli (GPa) = 84.63751 75.43108 105.48373
#
# Poissons Ratio (x) = 0.19727 0.27742
# Poissons Ratio (y) = 0.22135 -0.23839
# Poissons Ratio (z) = 0.22260 -0.17047
#
# Static dielectric constant tensor:
#      x y z
#    x 5.720860 0.000000 0.000000 
#    y 0.000000 2.866010 0.000000 
#    z 0.000000 0.000000 4.821610 
# 
# 
# High freq. dielectric constant tensor:
#      x y z
#    x 2.089750 0.000000 0.000000 
#    y 0.000000 2.029560 0.000000 
#    z 0.000000 0.000000 2.075770 
# 
# From -- ./inp_files/1793.got.cif
#   From: 2010.06.25/outbox.cif.g09.slc.cpg/sg52_1_cif.got.tgz:1793.got - 2010.06.26 19:32:48.
