data_PCOD8217227
_publ_section_title
;
Structure prediction by ZEFSAII (Michael W. Deem and Ramdas Pophale) SiO2 
 PCOD8217227
Probable space group: P N N A
;
_chemical_formula_sum "Si O2"
_cell_formula_units_Z 40
_cell_length_a 9.776685
_cell_length_b 13.534190
_cell_length_c 11.792187
_cell_angle_alpha 90.000000
_cell_angle_beta 90.000000
_cell_angle_gamma 90.000000
_cell_volume 1560.336433
_symmetry_space_group_name_H-M "P N N A"
_symmetry_group_IT_number 52
_symmetry_cell_setting 'orthorhombic'
loop_
_space_group_symop_operation_xyz
x,y,z
1/2-x,-y,z
x,1/2-y,1/2-z
1/2-x,1/2+y,1/2-z
-x,-y,-z
1/2+x,y,-z
-x,1/2+y,1/2+z
1/2+x,1/2-y,1/2+z
loop_
_atom_site_type_symbol
_atom_site_label
_atom_site_fract_x
_atom_site_fract_y
_atom_site_fract_z
Si Si1 0.334135 0.633809 0.230793
Si Si2 0.054405 0.523740 0.622746
Si Si3 0.950193 0.810717 0.509314
Si Si4 0.468052 0.135092 0.276740
Si Si5 0.787228 0.291122 0.378066
O O1 0.326423 0.750000 0.250000
O O2 0.439615 0.589720 0.317676
O O3 0.182035 0.589362 0.248625
O O4 0.381745 0.616916 0.101251
O O5 0.075136 0.423009 0.696289
O O6 0.000000 0.500000 0.500000
O O7 0.193433 0.589133 0.620817
O O8 0.841163 0.732316 0.458370
O O9 0.998469 0.882494 0.408225
O O10 0.077439 0.753996 0.564578
O O11 0.478169 0.250000 0.250000
O O12 0.765942 0.250000 0.250000
#
# Coordination Sequence:
#
# PCOD8217227 Si02
#       5
#     8   8   8   8   8
#     4  11  23  45  79 107 157 214 261 328 415 479
#     4  12  26  45  77 118 158 202 272 335 403 491
#     4  12  23  48  80 107 158 205 265 325 407 490
#     4  11  26  46  73 113 155 213 265 331 409 487
#     4  12  26  50  79 116 158 210 266 339 413 486
#
# _framework density 25.635497999999998
#
# number of rings (size 3 to 8) (size 9 to 14) (size 15 to 20)
#    0.000    0.400    6.000    2.400    2.800    2.400 
#    0.000    8.000    0.000    0.000    0.000    0.000 
#    0.000    0.000    0.000    0.000    0.000    0.000 
#
# Total GULP energy -496127.484845 kJ/mol
# GULP energy per Si atom -12403.187121 kJ/mol
# Density = 2.557715 g / cm^3
# Si number density = 25.635498 Si / 1000 Ang^3
#
#
#
# Elastic Constant Matrix: (Units=GPa)
#
#
# Indices 1 2 3 4 5 6 
#
# 1 99.4648 -2.2978 24.1209 0.0000 0.0000 0.0000
# 2 -2.2978 60.4580 22.0912 0.0000 0.0000 0.0000
# 3 24.1209 22.0912 189.8278 0.0000 0.0000 0.0000
# 4 0.0000 0.0000 0.0000 53.6304 0.0000 0.0000
# 5 0.0000 0.0000 0.0000 0.0000 43.8954 0.0000
# 6 0.0000 0.0000 0.0000 0.0000 0.0000 14.2523
#
#
#
# Elastic Compliance Matrix: (Units=1/GPa)
#
#
# Indices 1 2 3 4 5 6 
#
# 1 0.010422 0.000919 -0.001431 0.000000 0.000000 0.000000
# 2 0.000919 0.017356 -0.002137 0.000000 0.000000 0.000000
# 3 -0.001431 -0.002137 0.005698 0.000000 0.000000 0.000000
# 4 0.000000 0.000000 0.000000 0.018646 0.000000 0.000000
# 5 0.000000 0.000000 0.000000 0.000000 0.022781 0.000000
# 6 0.000000 0.000000 0.000000 0.000000 0.000000 0.070164
#
#
# Mechanical properties :
#
#
# Convention : Reuss Voigt Hill
#
# Bulk Modulus (GPa) = 35.48729 48.61988 42.05359
# Shear Modulus (GPa) = 31.29717 42.74472 37.02094
#
# Velocity S-wave (km/s) = 3.49786 4.08782 3.80429
# Velocity P-wave (km/s) = 5.49422 6.42552 5.97803
#
# Compressibility (1/GPa) = 0.02817910
#
# Stress axis : x y z
#
# Youngs Moduli (GPa) = 95.94968 57.61678 175.48648
#
# Poissons Ratio (x) = -0.05296 0.25117
# Poissons Ratio (y) = -0.08819 0.37494
# Poissons Ratio (z) = 0.13733 0.12310
#
# Static dielectric constant tensor:
#      x y z
#    x 5.192260 0.000000 0.000000 
#    y 0.000000 6.875580 0.000000 
#    z 0.000000 0.000000 5.334510 
# 
# 
# High freq. dielectric constant tensor:
#      x y z
#    x 2.052180 0.000000 0.000000 
#    y 0.000000 2.022250 0.000000 
#    z 0.000000 0.000000 2.041890 
# 
# From -- ./inp_files/17985.got.cif
#   From: 2010.06.25/outbox.cif.g09.slc.cpg/sg52_9_cif.got.tgz:17985.got - 2010.06.26 19:32:48.
