data_PCOD8217133
_publ_section_title
;
Structure prediction by ZEFSAII (Michael W. Deem and Ramdas Pophale) SiO2 
 PCOD8217133
Probable space group: P N N A
;
_chemical_formula_sum "Si O2"
_cell_formula_units_Z 48
_cell_length_a 14.794536
_cell_length_b 16.789259
_cell_length_c 9.232346
_cell_angle_alpha 90.000000
_cell_angle_beta 90.000000
_cell_angle_gamma 90.000000
_cell_volume 2293.215930
_symmetry_space_group_name_H-M "P N N A"
_symmetry_group_IT_number 52
_symmetry_cell_setting 'orthorhombic'
loop_
_space_group_symop_operation_xyz
x,y,z
1/2-x,-y,z
x,1/2-y,1/2-z
1/2-x,1/2+y,1/2-z
-x,-y,-z
1/2+x,y,-z
-x,1/2+y,1/2+z
1/2+x,1/2-y,1/2+z
loop_
_atom_site_type_symbol
_atom_site_label
_atom_site_fract_x
_atom_site_fract_y
_atom_site_fract_z
Si Si1 0.906318 0.179664 0.973435
Si Si2 0.728113 0.231496 0.588402
Si Si3 0.549816 0.604202 0.227283
Si Si4 0.473343 0.064096 0.267191
Si Si5 0.545935 0.314196 0.027056
Si Si6 0.182346 0.929066 0.486328
O O1 0.800792 0.203085 0.964290
O O2 0.927003 0.105089 0.870687
O O3 0.932644 0.160184 0.136782
O O4 0.965513 0.255287 0.925339
O O5 0.695647 0.250000 0.750000
O O6 0.640962 0.232789 0.482293
O O7 0.769118 0.143634 0.591942
O O8 0.520023 0.517280 0.283492
O O9 0.472919 0.644341 0.127700
O O10 0.643561 0.599141 0.140216
O O11 0.548628 0.120123 0.344665
O O12 0.398679 0.040523 0.385781
O O13 0.250000 0.000000 0.515554
#
# Coordination Sequence:
#
# PCOD8217133 Si02
#       6
#     8   8   8   8   8   8
#     4  12  23  44  64 100 134 172 214 280 336 387
#     4  12  22  41  68  97 130 172 221 276 324 392
#     4  11  23  41  66  94 138 170 218 278 331 390
#     4  11  22  44  66  96 135 174 218 275 331 393
#     4  11  23  42  71  94 126 177 227 260 326 401
#     4  11  22  40  67  95 127 173 228 263 320 396
#
# _framework density 20.931304000000001
#
# number of rings (size 3 to 8) (size 9 to 14) (size 15 to 20)
#    0.000    0.667    5.000    6.500    0.000    0.000 
#    9.000    0.833    0.000    0.000    0.000    0.000 
#    0.000    0.000    0.000    0.000    0.000    0.000 
#
# Total GULP energy -595441.731832 kJ/mol
# GULP energy per Si atom -12405.036080 kJ/mol
# Density = 2.088366 g / cm^3
# Si number density = 20.931304 Si / 1000 Ang^3
#
#
#
# Elastic Constant Matrix: (Units=GPa)
#
#
# Indices 1 2 3 4 5 6 
#
# 1 109.3043 21.7377 12.4553 0.0000 0.0000 0.0000
# 2 21.7377 80.2200 11.7918 0.0000 0.0000 0.0000
# 3 12.4553 11.7918 63.6671 0.0000 0.0000 0.0000
# 4 0.0000 0.0000 0.0000 32.3643 0.0000 0.0000
# 5 0.0000 0.0000 0.0000 0.0000 20.3556 0.0000
# 6 0.0000 0.0000 0.0000 0.0000 0.0000 38.3312
#
#
#
# Elastic Compliance Matrix: (Units=1/GPa)
#
#
# Indices 1 2 3 4 5 6 
#
# 1 0.009801 -0.002440 -0.001465 0.000000 0.000000 0.000000
# 2 -0.002440 0.013422 -0.002009 0.000000 0.000000 0.000000
# 3 -0.001465 -0.002009 0.016365 0.000000 0.000000 0.000000
# 4 0.000000 0.000000 0.000000 0.030898 0.000000 0.000000
# 5 0.000000 0.000000 0.000000 0.000000 0.049127 0.000000
# 6 0.000000 0.000000 0.000000 0.000000 0.000000 0.026088
#
#
# Mechanical properties :
#
#
# Convention : Reuss Voigt Hill
#
# Bulk Modulus (GPa) = 36.02305 38.35120 37.18712
# Shear Modulus (GPa) = 29.97891 32.02401 31.00146
#
# Velocity S-wave (km/s) = 3.78862 3.91571 3.85269
# Velocity P-wave (km/s) = 6.03205 6.22944 6.13154
#
# Compressibility (1/GPa) = 0.02776000
#
# Stress axis : x y z
#
# Youngs Moduli (GPa) = 102.02942 74.50309 61.10462
#
# Poissons Ratio (x) = 0.18182 0.08954
# Poissons Ratio (y) = 0.24900 0.12273
# Poissons Ratio (z) = 0.14951 0.14964
#
# Static dielectric constant tensor:
#      x y z
#    x 3.845900 0.000000 0.000000 
#    y 0.000000 3.844670 0.000000 
#    z 0.000000 0.000000 3.643200 
# 
# 
# High freq. dielectric constant tensor:
#      x y z
#    x 1.816120 0.000000 0.000000 
#    y 0.000000 1.829390 0.000000 
#    z 0.000000 0.000000 1.812900 
# 
# From -- ./inp_files/10424.got.cif
#   From: 2010.06.25/outbox.cif.g09.slc.cpg/sg52_6_cif.got.tgz:10424.got - 2010.06.26 19:32:48.
