data_PCOD8217947
_publ_section_title
;
Structure prediction by ZEFSAII (Michael W. Deem and Ramdas Pophale) SiO2 
 PCOD8217947
Probable space group: P M N A
;
_chemical_formula_sum "Si O2"
_cell_formula_units_Z 64
_cell_length_a 9.260957
_cell_length_b 24.487869
_cell_length_c 14.569173
_cell_angle_alpha 90.000000
_cell_angle_beta 90.000000
_cell_angle_gamma 90.000000
_cell_volume 3304.013106
_symmetry_space_group_name_H-M "P M N A"
_symmetry_group_IT_number 53
_symmetry_cell_setting 'orthorhombic'
loop_
_space_group_symop_operation_xyz
x,y,z
1/2-x,-y,1/2+z
x,-y,-z
1/2-x,y,1/2-z
-x,-y,-z
1/2+x,y,1/2-z
-x,y,z
1/2+x,-y,1/2+z
loop_
_atom_site_type_symbol
_atom_site_label
_atom_site_fract_x
_atom_site_fract_y
_atom_site_fract_z
Si Si1 0.836761 0.906710 0.833807
Si Si2 0.666376 0.978596 0.406262
Si Si3 0.171916 0.137682 0.841120
Si Si4 0.173672 0.718233 0.848701
Si Si5 0.669104 0.404915 0.839749
Si Si6 0.830681 0.181646 0.029152
Si Si7 0.833236 0.627843 0.539184
Si Si8 0.665095 0.471373 0.163584
O O1 0.750000 0.881187 0.750000
O O2 0.785769 0.876827 0.926878
O O3 0.000000 0.890423 0.814437
O O4 0.816063 0.971872 0.835181
O O5 0.500000 0.965072 0.429598
O O6 0.732850 0.923294 0.364412
O O7 0.742203 0.000000 0.500000
O O8 0.250000 0.159105 0.750000
O O9 0.000000 0.137396 0.826140
O O10 0.220737 0.178743 0.923116
O O11 0.250000 0.721718 0.750000
O O12 0.232210 0.768589 0.911198
O O13 0.224743 0.664833 0.902777
O O14 0.000000 0.717466 0.836325
O O15 0.750000 0.380679 0.750000
O O16 0.500000 0.401225 0.820319
O O17 0.719170 0.467303 0.857631
O O18 0.708669 0.370486 0.931221
O O19 0.000000 0.188990 0.028581
O O20 0.812414 0.565790 0.573973
O O21 0.000000 0.646336 0.553597
O O22 0.750000 0.446008 0.250000
O O23 0.500000 0.472386 0.193963
#
# Coordination Sequence:
#
# PCOD8217947 Si02
#       8
#     8   8   8   8   8   8   8   8
#     4  10  18  30  50  75 100 130 166 203 248 301
#     4   9  15  27  50  75 100 135 171 201 241 306
#     4  10  19  34  55  78 104 135 173 213 256 306
#     4  11  23  39  58  80 105 135 173 218 266 314
#     4   9  18  33  53  78 109 144 180 218 261 310
#     4   9  19  36  56  74  98 135 175 210 251 309
#     4  10  20  35  55  79 108 143 180 219 265 315
#     4   9  17  30  50  77 109 143 177 214 260 315
#
# _framework density 19.370384000000001
#
# number of rings (size 3 to 8) (size 9 to 14) (size 15 to 20)
#    0.000    2.375    1.250    1.875    0.000    3.500 
#    0.000    3.125    0.000    7.500    0.000    0.000 
#    0.000    0.000    0.000    0.000    0.000    0.000 
#
# Total GULP energy -793186.596536 kJ/mol
# GULP energy per Si atom -12393.540571 kJ/mol
# Density = 1.932630 g / cm^3
# Si number density = 19.370384 Si / 1000 Ang^3
#
#
#
# Elastic Constant Matrix: (Units=GPa)
#
#
# Indices 1 2 3 4 5 6 
#
# 1 50.4479 25.5434 53.3985 0.0000 0.0000 0.0000
# 2 25.5434 68.8622 44.4409 0.0000 0.0000 0.0000
# 3 53.3985 44.4409 169.8688 0.0000 0.0000 0.0000
# 4 0.0000 0.0000 0.0000 28.2381 0.0000 0.0000
# 5 0.0000 0.0000 0.0000 0.0000 32.4979 0.0000
# 6 0.0000 0.0000 0.0000 0.0000 0.0000 15.8948
#
#
#
# Elastic Compliance Matrix: (Units=1/GPa)
#
#
# Indices 1 2 3 4 5 6 
#
# 1 0.031927 -0.006456 -0.008347 0.000000 0.000000 0.000000
# 2 -0.006456 0.018777 -0.002883 0.000000 0.000000 0.000000
# 3 -0.008347 -0.002883 0.009265 0.000000 0.000000 0.000000
# 4 0.000000 0.000000 0.000000 0.035413 0.000000 0.000000
# 5 0.000000 0.000000 0.000000 0.000000 0.030771 0.000000
# 6 0.000000 0.000000 0.000000 0.000000 0.000000 0.062913
#
#
# Mechanical properties :
#
#
# Convention : Reuss Voigt Hill
#
# Bulk Modulus (GPa) = 40.65582 59.54938 50.10260
# Shear Modulus (GPa) = 21.49267 26.37925 23.93596
#
# Velocity S-wave (km/s) = 3.33462 3.69431 3.51906
# Velocity P-wave (km/s) = 5.98836 7.00046 6.51410
#
# Compressibility (1/GPa) = 0.02459673
#
# Stress axis : x y z
#
# Youngs Moduli (GPa) = 31.32186 53.25657 107.93166
#
# Poissons Ratio (x) = 0.34381 0.90093
# Poissons Ratio (y) = 0.20220 0.31117
# Poissons Ratio (z) = 0.26145 0.15354
#
# Static dielectric constant tensor:
#      x y z
#    x 3.240300 0.000000 0.000000 
#    y 0.000000 3.486450 0.000000 
#    z 0.000000 0.000000 3.709960 
# 
# 
# High freq. dielectric constant tensor:
#      x y z
#    x 1.717360 0.000000 0.000000 
#    y 0.000000 1.738690 0.000000 
#    z 0.000000 0.000000 1.766580 
# 
# From -- ./inp_files/20979.got.cif
#   From: 2010.03.12/outbox.cif.g09.slc.cpg/sg53_11_cif.got.tgz:20979.got - 2010.04.16 14:36:59.
