data_PCOD8217599
_publ_section_title
;
Structure prediction by ZEFSAII (Michael W. Deem and Ramdas Pophale) SiO2 
 PCOD8217599
Probable space group: P M N A
;
_chemical_formula_sum "Si O2"
_cell_formula_units_Z 48
_cell_length_a 9.043660
_cell_length_b 10.394889
_cell_length_c 29.802920
_cell_angle_alpha 90.000000
_cell_angle_beta 90.000000
_cell_angle_gamma 90.000000
_cell_volume 2801.708190
_symmetry_space_group_name_H-M "P M N A"
_symmetry_group_IT_number 53
_symmetry_cell_setting 'orthorhombic'
loop_
_space_group_symop_operation_xyz
x,y,z
1/2-x,-y,1/2+z
x,-y,-z
1/2-x,y,1/2-z
-x,-y,-z
1/2+x,y,1/2-z
-x,y,z
1/2+x,-y,1/2+z
loop_
_atom_site_type_symbol
_atom_site_label
_atom_site_fract_x
_atom_site_fract_y
_atom_site_fract_z
Si Si1 0.671900 0.876877 0.469437
Si Si2 0.666657 0.287232 0.206386
Si Si3 0.325805 0.371205 0.478204
Si Si4 0.162128 0.981028 0.291573
Si Si5 0.323659 0.995766 0.110782
Si Si6 0.674958 0.267235 0.384024
O O1 0.500000 0.863029 0.456416
O O2 0.735451 0.752919 0.495372
O O3 0.698805 0.000000 0.500000
O O4 0.769225 0.890901 0.424699
O O5 0.750000 0.345375 0.250000
O O6 0.500000 0.342865 0.204439
O O7 0.662141 0.134588 0.210491
O O8 0.753136 0.326227 0.160976
O O9 0.255457 0.500000 0.500000
O O10 0.500000 0.371942 0.484873
O O11 0.288316 0.363336 0.425245
O O12 0.250000 0.920390 0.250000
O O13 0.224832 0.941073 0.340277
O O14 0.000000 0.924150 0.285762
O O15 0.500000 0.017941 0.108797
O O16 0.242437 0.130373 0.102092
O O17 0.500000 0.250332 0.376714
#
# Coordination Sequence:
#
# PCOD8217599 Si02
#       6
#     8   8   8   8   8   8
#     4  10  18  31  49  71  92 119 162 200 231 279
#     4   9  16  26  40  63  93 124 157 193 238 287
#     4   9  18  32  49  69  95 126 160 199 242 288
#     4   8  15  25  37  57  87 119 149 181 223 277
#     4  10  19  29  43  67  96 125 157 195 242 287
#     4  10  17  28  46  67  93 125 160 198 240 282
#
# _framework density 17.132406
#
# number of rings (size 3 to 8) (size 9 to 14) (size 15 to 20)
#    0.000    2.667    1.667    2.500    0.000    5.000 
#    0.000    0.000    0.000    4.500    0.000    1.167 
#    0.000    2.667    0.000    0.000    0.000    0.000 
#
# Total GULP energy -594932.050463 kJ/mol
# GULP energy per Si atom -12394.417718 kJ/mol
# Density = 1.709341 g / cm^3
# Si number density = 17.132406 Si / 1000 Ang^3
#
#
#
# Elastic Constant Matrix: (Units=GPa)
#
#
# Indices 1 2 3 4 5 6 
#
# 1 81.8020 23.1464 63.4866 0.0000 0.0000 0.0000
# 2 23.1464 63.2950 48.8127 0.0000 0.0000 0.0000
# 3 63.4866 48.8127 169.2502 0.0000 0.0000 0.0000
# 4 0.0000 0.0000 0.0000 15.2500 0.0000 0.0000
# 5 0.0000 0.0000 0.0000 0.0000 33.7532 0.0000
# 6 0.0000 0.0000 0.0000 0.0000 0.0000 4.7497
#
#
#
# Elastic Compliance Matrix: (Units=1/GPa)
#
#
# Indices 1 2 3 4 5 6 
#
# 1 0.017388 -0.001709 -0.006029 0.000000 0.000000 0.000000
# 2 -0.001709 0.020486 -0.005267 0.000000 0.000000 0.000000
# 3 -0.006029 -0.005267 0.009689 0.000000 0.000000 0.000000
# 4 0.000000 0.000000 0.000000 0.065574 0.000000 0.000000
# 5 0.000000 0.000000 0.000000 0.000000 0.029627 0.000000
# 6 0.000000 0.000000 0.000000 0.000000 0.000000 0.210541
#
#
# Mechanical properties :
#
#
# Convention : Reuss Voigt Hill
#
# Bulk Modulus (GPa) = 46.39944 65.02652 55.71298
# Shear Modulus (GPa) = 12.93665 22.67734 17.80700
#
# Velocity S-wave (km/s) = 2.75089 3.64215 3.22743
# Velocity P-wave (km/s) = 6.10176 7.46490 6.81748
#
# Compressibility (1/GPa) = 0.02155199
#
# Stress axis : x y z
#
# Youngs Moduli (GPa) = 57.51249 48.81372 103.20770
#
# Poissons Ratio (x) = 0.08341 0.62228
# Poissons Ratio (y) = 0.09827 0.54363
# Poissons Ratio (z) = 0.34676 0.25712
#
# Static dielectric constant tensor:
#      x y z
#    x 3.188090 0.000000 0.000000 
#    y 0.000000 2.814300 0.000000 
#    z 0.000000 0.000000 3.553320 
# 
# 
# High freq. dielectric constant tensor:
#      x y z
#    x 1.654340 0.000000 0.000000 
#    y 0.000000 1.592260 0.000000 
#    z 0.000000 0.000000 1.683660 
# 
# From -- ./inp_files/37901.got.cif
#   From: 2010.03.12/outbox.cif.g09.slc.cpg/sg53_19_cif.got.tgz:37901.got - 2010.04.16 14:36:59.
