data_PCOD8217929
_publ_section_title
;
Structure prediction by ZEFSAII (Michael W. Deem and Ramdas Pophale) SiO2 
 PCOD8217929
Probable space group: P M N A
;
_chemical_formula_sum "Si O2"
_cell_formula_units_Z 48
_cell_length_a 8.951385
_cell_length_b 9.953076
_cell_length_c 30.826809
_cell_angle_alpha 90.000000
_cell_angle_beta 90.000000
_cell_angle_gamma 90.000000
_cell_volume 2746.478025
_symmetry_space_group_name_H-M "P M N A"
_symmetry_group_IT_number 53
_symmetry_cell_setting 'orthorhombic'
loop_
_space_group_symop_operation_xyz
x,y,z
1/2-x,-y,1/2+z
x,-y,-z
1/2-x,y,1/2-z
-x,-y,-z
1/2+x,y,1/2-z
-x,y,z
1/2+x,-y,1/2+z
loop_
_atom_site_type_symbol
_atom_site_label
_atom_site_fract_x
_atom_site_fract_y
_atom_site_fract_z
Si Si1 0.323861 0.645342 0.951144
Si Si2 0.178318 0.140877 0.885432
Si Si3 0.823091 0.342938 0.548865
Si Si4 0.678393 0.856646 0.880835
Si Si5 0.832773 0.156704 0.208048
Si Si6 0.163383 0.161674 0.790794
O O1 0.500000 0.644491 0.950027
O O2 0.271170 0.494430 0.939907
O O3 0.261295 0.749911 0.916103
O O4 0.274952 0.689071 0.999440
O O5 0.228047 0.245255 0.921307
O O6 0.233363 0.195173 0.838073
O O7 0.000000 0.120509 0.885096
O O8 0.255113 0.998977 0.895241
O O9 0.000000 0.321510 0.556234
O O10 0.500000 0.866258 0.879218
O O11 0.738382 0.806417 0.834526
O O12 0.750000 0.219513 0.250000
O O13 0.000000 0.217193 0.204431
O O14 0.843231 0.997859 0.213637
O O15 0.250000 0.225686 0.750000
O O16 0.000000 0.225690 0.787987
#
# Coordination Sequence:
#
# PCOD8217929 Si02
#       6
#     8   8   8   8   8   8
#     4   8  17  33  53  73  93 120 162 205 241 287
#     4  10  20  32  45  71 104 128 155 198 243 287
#     4   9  17  34  55  71  90 124 164 201 240 290
#     4  10  18  30  49  73  98 127 160 199 243 285
#     4   9  16  27  43  67  97 128 159 195 235 281
#     4   8  15  26  41  61  90 121 151 186 226 270
#
# _framework density 17.476928999999998
#
# number of rings (size 3 to 8) (size 9 to 14) (size 15 to 20)
#    0.000    3.000    0.000    3.500    0.000    5.333 
#    0.000    8.333    0.000    1.000    0.000    2.333 
#    0.000    0.000    0.000    0.000    0.000    0.000 
#
# Total GULP energy -594892.215254 kJ/mol
# GULP energy per Si atom -12393.587818 kJ/mol
# Density = 1.743715 g / cm^3
# Si number density = 17.476929 Si / 1000 Ang^3
#
#
#
# Elastic Constant Matrix: (Units=GPa)
#
#
# Indices 1 2 3 4 5 6 
#
# 1 76.9005 34.1900 51.9800 0.0000 0.0000 0.0000
# 2 34.1900 72.9422 78.1118 0.0000 0.0000 0.0000
# 3 51.9800 78.1118 160.1612 0.0000 0.0000 0.0000
# 4 0.0000 0.0000 0.0000 -1.6001 0.0000 0.0000
# 5 0.0000 0.0000 0.0000 0.0000 30.0386 0.0000
# 6 0.0000 0.0000 0.0000 0.0000 0.0000 4.6866
#
#
#
# Elastic Compliance Matrix: (Units=1/GPa)
#
#
# Indices 1 2 3 4 5 6 
#
# 1 0.017304 -0.004389 -0.003475 0.000000 0.000000 0.000000
# 2 -0.004389 0.029811 -0.013114 0.000000 0.000000 0.000000
# 3 -0.003475 -0.013114 0.013768 0.000000 0.000000 0.000000
# 4 0.000000 0.000000 0.000000 -0.624972 0.000000 0.000000
# 5 0.000000 0.000000 0.000000 0.000000 0.033291 0.000000
# 6 0.000000 0.000000 0.000000 0.000000 0.000000 0.213372
#
#
# Mechanical properties :
#
#
# Convention : Reuss Voigt Hill
#
# Bulk Modulus (GPa) = 52.84138 70.95195 61.89667
# Shear Modulus (GPa) = -18.57629 16.33984 -1.11822
#
# Velocity S-wave (km/s) = -3.26376 3.06099 -0.80076
# Velocity P-wave (km/s) = 4.01220 7.29236 5.88542
#
# Compressibility (1/GPa) = 0.01892456
#
# Stress axis : x y z
#
# Youngs Moduli (GPa) = 57.78850 33.54509 72.63436
#
# Poissons Ratio (x) = 0.14724 0.25244
# Poissons Ratio (y) = 0.25365 0.95255
# Poissons Ratio (z) = 0.20084 0.43992
#
# Static dielectric constant tensor:
#      x y z
#    x 3.215630 0.000000 0.000000 
#    y 0.000000 3.078290 0.000000 
#    z 0.000000 0.000000 3.705960 
# 
# 
# High freq. dielectric constant tensor:
#      x y z
#    x 1.667780 0.000000 0.000000 
#    y 0.000000 1.632220 0.000000 
#    z 0.000000 0.000000 1.691550 
# 
# From -- ./inp_files/36167.got.cif
#   From: 2010.03.12/outbox.cif.g09.slc.cpg/sg53_19_cif.got.tgz:36167.got - 2010.04.16 14:36:59.
