data_PCOD8217492
_publ_section_title
;
Structure prediction by ZEFSAII (Michael W. Deem and Ramdas Pophale) SiO2 
 PCOD8217492
Probable space group: P M N A
;
_chemical_formula_sum "Si O2"
_cell_formula_units_Z 32
_cell_length_a 14.099866
_cell_length_b 10.436811
_cell_length_c 10.141338
_cell_angle_alpha 90.000000
_cell_angle_beta 90.000000
_cell_angle_gamma 90.000000
_cell_volume 1492.375332
_symmetry_space_group_name_H-M "P M N A"
_symmetry_group_IT_number 53
_symmetry_cell_setting 'orthorhombic'
loop_
_space_group_symop_operation_xyz
x,y,z
1/2-x,-y,1/2+z
x,-y,-z
1/2-x,y,1/2-z
-x,-y,-z
1/2+x,y,1/2-z
-x,y,z
1/2+x,-y,1/2+z
loop_
_atom_site_type_symbol
_atom_site_label
_atom_site_fract_x
_atom_site_fract_y
_atom_site_fract_z
Si Si1 0.683289 0.749159 0.636438
Si Si2 0.000000 0.601276 0.385214
Si Si3 0.000000 0.575480 0.867676
Si Si4 0.843504 0.199140 0.546918
Si Si5 0.392561 0.036887 0.200094
O O1 0.750000 0.689051 0.750000
O O2 0.590744 0.665047 0.632147
O O3 0.738624 0.751354 0.496075
O O4 0.657354 0.896890 0.674018
O O5 0.000000 0.500000 0.500000
O O6 0.000000 0.525967 0.248939
O O7 0.904897 0.685134 0.395117
O O8 0.000000 0.500000 0.000000
O O9 0.894900 0.140493 0.418385
O O10 0.834776 0.090290 0.659326
O O11 0.500000 0.997558 0.234661
#
# Coordination Sequence:
#
# PCOD8217492 Si02
#       5
#     8   4   4   8   8
#     4  10  22  40  68  97 134 177 220 285 351 400
#     4  12  22  40  71  99 121 183 247 281 315 399
#     4  12  28  47  63  95 145 186 222 283 351 391
#     4  10  20  36  67 101 124 165 237 280 321 416
#     4  10  16  36  68  98 135 167 212 282 353 404
#
# _framework density 21.442326999999999
#
# number of rings (size 3 to 8) (size 9 to 14) (size 15 to 20)
#    0.000    1.500    3.750    3.750    0.000    3.000 
#    0.000   15.000    0.000   15.000    0.000    0.000 
#    0.000    0.000    0.000    0.000    0.000    0.000 
#
# Total GULP energy -396774.898118 kJ/mol
# GULP energy per Si atom -12399.215566 kJ/mol
# Density = 2.139352 g / cm^3
# Si number density = 21.442327 Si / 1000 Ang^3
#
#
#
# Elastic Constant Matrix: (Units=GPa)
#
#
# Indices 1 2 3 4 5 6 
#
# 1 179.8590 85.6238 64.2410 0.0000 0.0000 0.0000
# 2 85.6238 156.2283 74.7149 0.0000 0.0000 0.0000
# 3 64.2410 74.7149 103.8715 0.0000 0.0000 0.0000
# 4 0.0000 0.0000 0.0000 35.8161 0.0000 0.0000
# 5 0.0000 0.0000 0.0000 0.0000 19.8931 0.0000
# 6 0.0000 0.0000 0.0000 0.0000 0.0000 -80.0589
#
#
#
# Elastic Compliance Matrix: (Units=1/GPa)
#
#
# Indices 1 2 3 4 5 6 
#
# 1 0.008002 -0.003077 -0.002735 0.000000 0.000000 0.000000
# 2 -0.003077 0.010941 -0.005967 0.000000 0.000000 0.000000
# 3 -0.002735 -0.005967 0.015611 0.000000 0.000000 0.000000
# 4 0.000000 0.000000 0.000000 0.027920 0.000000 0.000000
# 5 0.000000 0.000000 0.000000 0.000000 0.050269 0.000000
# 6 0.000000 0.000000 0.000000 0.000000 0.000000 -0.012491
#
#
# Mechanical properties :
#
#
# Convention : Reuss Voigt Hill
#
# Bulk Modulus (GPa) = 90.95045 98.79092 94.87068
# Shear Modulus (GPa) = 39.22318 9.48868 24.35593
#
# Velocity S-wave (km/s) = 4.28160 2.10590 3.37394
# Velocity P-wave (km/s) = 8.18237 7.21706 7.71483
#
# Compressibility (1/GPa) = 0.01099500
#
# Stress axis : x y z
#
# Youngs Moduli (GPa) = 124.96936 91.39914 64.05850
#
# Poissons Ratio (x) = 0.28128 0.17522
# Poissons Ratio (y) = 0.38459 0.38221
# Poissons Ratio (z) = 0.34183 0.54534
#
# Static dielectric constant tensor:
#      x y z
#    x 3.706110 0.000000 0.000000 
#    y 0.000000 3.870080 0.000000 
#    z 0.000000 0.000000 3.793140 
# 
# 
# High freq. dielectric constant tensor:
#      x y z
#    x 1.855380 0.000000 0.000000 
#    y 0.000000 1.836660 0.000000 
#    z 0.000000 0.000000 1.816720 
# 
# From -- ./inp_files/15544.got.cif
#   From: 2010.03.12/outbox.cif.g09.slc.cpg/sg53_8_cif.got.tgz:15544.got - 2010.04.16 14:36:59.
