data_PCOD8217819
_publ_section_title
;
Structure prediction by ZEFSAII (Michael W. Deem and Ramdas Pophale) SiO2 
 PCOD8217819
Probable space group: P M N A
;
_chemical_formula_sum "Si O2"
_cell_formula_units_Z 56
_cell_length_a 8.968280
_cell_length_b 19.178359
_cell_length_c 18.018231
_cell_angle_alpha 90.000000
_cell_angle_beta 90.000000
_cell_angle_gamma 90.000000
_cell_volume 3099.079758
_symmetry_space_group_name_H-M "P M N A"
_symmetry_group_IT_number 53
_symmetry_cell_setting 'orthorhombic'
loop_
_space_group_symop_operation_xyz
x,y,z
1/2-x,-y,1/2+z
x,-y,-z
1/2-x,y,1/2-z
-x,-y,-z
1/2+x,y,1/2-z
-x,y,z
1/2+x,-y,1/2+z
loop_
_atom_site_type_symbol
_atom_site_label
_atom_site_fract_x
_atom_site_fract_y
_atom_site_fract_z
Si Si1 0.175703 0.095527 0.169461
Si Si2 0.673235 0.577828 0.521393
Si Si3 0.324967 0.355357 0.324370
Si Si4 0.326796 0.774597 0.893577
Si Si5 0.171738 0.704296 0.451380
Si Si6 0.828901 0.944594 0.173031
Si Si7 0.324485 0.793753 0.330031
O O1 0.250000 0.102071 0.250000
O O2 0.252100 0.150077 0.114546
O O3 0.000000 0.110927 0.176572
O O4 0.204987 0.018405 0.131928
O O5 0.719786 0.500000 0.500000
O O6 0.500000 0.592254 0.505731
O O7 0.710583 0.592069 0.607888
O O8 0.768549 0.627415 0.468521
O O9 0.250000 0.386652 0.250000
O O10 0.500000 0.346500 0.311817
O O11 0.254821 0.279716 0.339659
O O12 0.500000 0.776803 0.871670
O O13 0.302413 0.753869 0.978486
O O14 0.261342 0.734389 0.382505
O O15 0.000000 0.698784 0.429322
O O16 0.750000 0.949161 0.250000
O O17 0.785849 0.870852 0.133926
O O18 0.000000 0.941145 0.193661
O O19 0.250000 0.786462 0.250000
O O20 0.500000 0.782375 0.321627
#
# Coordination Sequence:
#
# PCOD8217819 Si02
#       7
#     8   8   8   8   8   8   8
#     4  10  18  29  46  69  98 131 170 212 255 301
#     4   9  19  37  59  80 104 137 172 206 250 303
#     4  10  19  32  52  77 104 134 169 207 248 295
#     4  10  20  33  48  69 100 135 171 209 249 296
#     4  10  21  36  54  77 103 132 167 206 251 303
#     4   8  16  29  46  69  95 127 166 209 255 301
#     4  10  19  34  56  78 101 130 168 213 258 303
#
# _framework density 18.069880000000001
#
# number of rings (size 3 to 8) (size 9 to 14) (size 15 to 20)
#    0.000    2.429    0.000    2.571    0.000    3.714 
#    0.000    1.429    0.000    6.000    0.000    0.000 
#    0.000    0.000    0.000    0.000    0.000    0.000 
#
# Total GULP energy -694066.294774 kJ/mol
# GULP energy per Si atom -12394.040978 kJ/mol
# Density = 1.802875 g / cm^3
# Si number density = 18.069880 Si / 1000 Ang^3
#
#
#
# Elastic Constant Matrix: (Units=GPa)
#
#
# Indices 1 2 3 4 5 6 
#
# 1 104.3222 67.8314 51.8197 0.0000 0.0000 0.0000
# 2 67.8314 138.7639 66.4809 0.0000 0.0000 0.0000
# 3 51.8197 66.4809 79.6988 0.0000 0.0000 0.0000
# 4 0.0000 0.0000 0.0000 19.3298 0.0000 0.0000
# 5 0.0000 0.0000 0.0000 0.0000 28.2565 0.0000
# 6 0.0000 0.0000 0.0000 0.0000 0.0000 25.5983
#
#
#
# Elastic Compliance Matrix: (Units=1/GPa)
#
#
# Indices 1 2 3 4 5 6 
#
# 1 0.015782 -0.004661 -0.006373 0.000000 0.000000 0.000000
# 2 -0.004661 0.013380 -0.008130 0.000000 0.000000 0.000000
# 3 -0.006373 -0.008130 0.023473 0.000000 0.000000 0.000000
# 4 0.000000 0.000000 0.000000 0.051734 0.000000 0.000000
# 5 0.000000 0.000000 0.000000 0.000000 0.035390 0.000000
# 6 0.000000 0.000000 0.000000 0.000000 0.000000 0.039065
#
#
# Mechanical properties :
#
#
# Convention : Reuss Voigt Hill
#
# Bulk Modulus (GPa) = 69.90263 77.22763 73.56513
# Shear Modulus (GPa) = 22.53031 23.74712 23.13872
#
# Velocity S-wave (km/s) = 3.53490 3.62910 3.58231
# Velocity P-wave (km/s) = 7.44508 7.77120 7.60989
#
# Compressibility (1/GPa) = 0.01430561
#
# Stress axis : x y z
#
# Youngs Moduli (GPa) = 63.36184 74.73646 42.60198
#
# Poissons Ratio (x) = 0.34838 0.27151
# Poissons Ratio (y) = 0.29536 0.34637
# Poissons Ratio (z) = 0.40382 0.60764
#
# Static dielectric constant tensor:
#      x y z
#    x 3.410650 0.000000 0.000000 
#    y 0.000000 3.591710 0.000000 
#    z 0.000000 0.000000 3.079460 
# 
# 
# High freq. dielectric constant tensor:
#      x y z
#    x 1.714810 0.000000 0.000000 
#    y 0.000000 1.703000 0.000000 
#    z 0.000000 0.000000 1.672670 
# 
# From -- ./inp_files/20623.got.cif
#   From: 2010.03.12/outbox.cif.g09.slc.cpg/sg53_11_cif.got.tgz:20623.got - 2010.04.16 14:36:59.
