data_PCOD8217680
_publ_section_title
;
Structure prediction by ZEFSAII (Michael W. Deem and Ramdas Pophale) SiO2 
 PCOD8217680
Probable space group: P M N A
;
_chemical_formula_sum "Si O2"
_cell_formula_units_Z 64
_cell_length_a 9.161944
_cell_length_b 18.196765
_cell_length_c 26.349769
_cell_angle_alpha 90.000000
_cell_angle_beta 90.000000
_cell_angle_gamma 90.000000
_cell_volume 4392.973988
_symmetry_space_group_name_H-M "P M N A"
_symmetry_group_IT_number 53
_symmetry_cell_setting 'orthorhombic'
loop_
_space_group_symop_operation_xyz
x,y,z
1/2-x,-y,1/2+z
x,-y,-z
1/2-x,y,1/2-z
-x,-y,-z
1/2+x,y,1/2-z
-x,y,z
1/2+x,-y,1/2+z
loop_
_atom_site_type_symbol
_atom_site_label
_atom_site_fract_x
_atom_site_fract_y
_atom_site_fract_z
Si Si1 0.332225 0.908337 0.108592
Si Si2 0.832469 0.181037 0.504627
Si Si3 0.170452 0.577473 0.101086
Si Si4 0.829192 0.335847 0.800211
Si Si5 0.335014 0.453834 0.051266
Si Si6 0.171864 0.959494 0.547490
Si Si7 0.328326 0.832850 0.300976
Si Si8 0.670626 0.331926 0.501431
O O1 0.500000 0.902498 0.126879
O O2 0.309819 0.861125 0.057609
O O3 0.225921 0.880333 0.151991
O O4 0.286286 0.994347 0.098170
O O5 0.788906 0.127205 0.456932
O O6 0.724835 0.249016 0.501385
O O7 0.000000 0.207740 0.499770
O O8 0.224106 0.615150 0.152809
O O9 0.256741 0.501050 0.095121
O O10 0.000000 0.558858 0.101871
O O11 0.207725 0.633663 0.056000
O O12 0.750000 0.365327 0.750000
O O13 0.786055 0.251733 0.811553
O O14 0.000000 0.343688 0.791346
O O15 0.500000 0.436865 0.068072
O O16 0.250849 0.377305 0.043028
O O17 0.328991 0.500000 0.000000
O O18 0.000000 0.967141 0.540753
O O19 0.248359 0.000000 0.500000
O O20 0.250000 0.860872 0.250000
O O21 0.500000 0.843631 0.294500
O O22 0.500000 0.333876 0.489859
#
# Coordination Sequence:
#
# PCOD8217680 Si02
#       8
#     8   8   8   8   8   8   8   8
#     4   9  16  27  43  60  79 107 140 170 203 240
#     4   9  16  26  41  60  82 108 138 169 198 235
#     4   9  17  29  42  56  78 108 136 163 201 242
#     4   9  18  30  42  57  79 106 136 169 202 236
#     4   9  17  28  41  58  78 101 133 169 200 235
#     4   7  12  24  40  57  78 105 135 165 198 237
#     4  10  19  30  42  58  81 108 139 173 206 238
#     4  10  18  27  40  58  82 110 137 166 202 241
#
# _framework density 14.568716999999999
#
# number of rings (size 3 to 8) (size 9 to 14) (size 15 to 20)
#    0.000    3.000    0.000    3.375    0.000    4.500 
#    0.000    0.625    0.000    2.250    0.000    0.000 
#    0.000    1.000    0.000    7.250    0.000    3.500 
#
# Total GULP energy -793160.628599 kJ/mol
# GULP energy per Si atom -12393.134822 kJ/mol
# Density = 1.453556 g / cm^3
# Si number density = 14.568717 Si / 1000 Ang^3
#
#
#
# Elastic Constant Matrix: (Units=GPa)
#
#
# Indices 1 2 3 4 5 6 
#
# 1 63.2913 42.9023 38.4968 0.0000 0.0000 0.0000
# 2 42.9023 79.5643 50.3611 0.0000 0.0000 0.0000
# 3 38.4968 50.3611 75.5894 0.0000 0.0000 0.0000
# 4 0.0000 0.0000 0.0000 23.6605 0.0000 0.0000
# 5 0.0000 0.0000 0.0000 0.0000 21.6247 0.0000
# 6 0.0000 0.0000 0.0000 0.0000 0.0000 23.2461
#
#
#
# Elastic Compliance Matrix: (Units=1/GPa)
#
#
# Indices 1 2 3 4 5 6 
#
# 1 0.026871 -0.010076 -0.006972 0.000000 0.000000 0.000000
# 2 -0.010076 0.025512 -0.011866 0.000000 0.000000 0.000000
# 3 -0.006972 -0.011866 0.024685 0.000000 0.000000 0.000000
# 4 0.000000 0.000000 0.000000 0.042265 0.000000 0.000000
# 5 0.000000 0.000000 0.000000 0.000000 0.046243 0.000000
# 6 0.000000 0.000000 0.000000 0.000000 0.000000 0.043018
#
#
# Mechanical properties :
#
#
# Convention : Reuss Voigt Hill
#
# Bulk Modulus (GPa) = 51.97208 53.55170 52.76189
# Shear Modulus (GPa) = 18.32607 19.48524 18.90566
#
# Velocity S-wave (km/s) = 3.55054 3.66111 3.60625
# Velocity P-wave (km/s) = 7.24981 7.39659 7.32356
#
# Compressibility (1/GPa) = 0.01924110
#
# Stress axis : x y z
#
# Youngs Moduli (GPa) = 37.21520 39.19689 40.50978
#
# Poissons Ratio (x) = 0.39496 0.28242
# Poissons Ratio (y) = 0.37499 0.48067
# Poissons Ratio (z) = 0.25945 0.46510
#
# Static dielectric constant tensor:
#      x y z
#    x 2.770820 0.000000 0.000000 
#    y 0.000000 2.915940 0.000000 
#    z 0.000000 0.000000 2.713540 
# 
# 
# High freq. dielectric constant tensor:
#      x y z
#    x 1.555230 0.000000 0.000000 
#    y 0.000000 1.546950 0.000000 
#    z 0.000000 0.000000 1.524660 
# 
# From -- ./inp_files/34464.got.cif
#   From: 2010.03.12/outbox.cif.g09.slc.cpg/sg53_18_cif.got.tgz:34464.got - 2010.04.16 14:36:59.
