data_PCOD8217908
_publ_section_title
;
Structure prediction by ZEFSAII (Michael W. Deem and Ramdas Pophale) SiO2 
 PCOD8217908
Probable space group: P M N A
;
_chemical_formula_sum "Si O2"
_cell_formula_units_Z 56
_cell_length_a 8.982034
_cell_length_b 17.680918
_cell_length_c 20.142364
_cell_angle_alpha 90.000000
_cell_angle_beta 90.000000
_cell_angle_gamma 90.000000
_cell_volume 3198.821046
_symmetry_space_group_name_H-M "P M N A"
_symmetry_group_IT_number 53
_symmetry_cell_setting 'orthorhombic'
loop_
_space_group_symop_operation_xyz
x,y,z
1/2-x,-y,1/2+z
x,-y,-z
1/2-x,y,1/2-z
-x,-y,-z
1/2+x,y,1/2-z
-x,y,z
1/2+x,-y,1/2+z
loop_
_atom_site_type_symbol
_atom_site_label
_atom_site_fract_x
_atom_site_fract_y
_atom_site_fract_z
Si Si1 0.167878 0.512981 0.421596
Si Si2 0.331604 0.659914 0.440446
Si Si3 0.825044 0.065940 0.319566
Si Si4 0.833013 0.366609 0.096813
Si Si5 0.828397 0.218804 0.390148
Si Si6 0.824558 0.189743 0.540908
Si Si7 0.175499 0.963557 0.070334
O O1 0.170549 0.500000 0.500000
O O2 0.259154 0.588431 0.402913
O O3 0.241092 0.441575 0.384132
O O4 0.000000 0.522285 0.395735
O O5 0.500000 0.671108 0.414867
O O6 0.329519 0.644703 0.518392
O O7 0.234554 0.734006 0.424165
O O8 0.750000 0.047418 0.250000
O O9 0.792487 0.152946 0.338123
O O10 0.000000 0.049794 0.316126
O O11 0.753348 0.012120 0.373567
O O12 0.763443 0.292729 0.131705
O O13 0.000000 0.376834 0.123284
O O14 0.782526 0.189957 0.463155
O O15 0.000000 0.242514 0.390464
O O16 0.740155 0.120533 0.574968
O O17 0.000000 0.182203 0.552676
O O18 0.000000 0.961700 0.082592
O O19 0.217064 0.000000 0.000000
#
# Coordination Sequence:
#
# PCOD8217908 Si02
#       7
#     8   8   8   8   8   8   8
#     4   9  15  23  35  53  82 121 160 195 238 291
#     4   9  16  25  37  58  89 122 158 200 246 292
#     4  11  23  39  56  76 103 136 172 214 264 315
#     4   9  16  24  38  59  85 119 159 200 240 286
#     4   9  18  31  47  67  94 127 164 204 249 301
#     4  10  18  30  48  70  96 128 167 208 254 306
#     4  11  22  35  54  78 103 132 171 216 262 313
#
# _framework density 17.506449
#
# number of rings (size 3 to 8) (size 9 to 14) (size 15 to 20)
#    0.000    2.286    1.429    2.571    0.000    7.429 
#    0.000    0.000    0.000    0.000    0.000    0.000 
#    0.000    1.143    0.000    9.714    0.000   10.000 
#
# Total GULP energy -694460.515497 kJ/mol
# GULP energy per Si atom -12401.080634 kJ/mol
# Density = 1.746660 g / cm^3
# Si number density = 17.506449 Si / 1000 Ang^3
#
#
#
# Elastic Constant Matrix: (Units=GPa)
#
#
# Indices 1 2 3 4 5 6 
#
# 1 124.4859 74.0790 41.0749 0.0000 0.0000 0.0000
# 2 74.0790 135.2318 39.8133 0.0000 0.0000 0.0000
# 3 41.0749 39.8133 55.4299 0.0000 0.0000 0.0000
# 4 0.0000 0.0000 0.0000 12.6581 0.0000 0.0000
# 5 0.0000 0.0000 0.0000 0.0000 14.9211 0.0000
# 6 0.0000 0.0000 0.0000 0.0000 0.0000 39.4493
#
#
#
# Elastic Compliance Matrix: (Units=1/GPa)
#
#
# Indices 1 2 3 4 5 6 
#
# 1 0.013260 -0.005543 -0.005845 0.000000 0.000000 0.000000
# 2 -0.005543 0.011695 -0.004292 0.000000 0.000000 0.000000
# 3 -0.005845 -0.004292 0.025455 0.000000 0.000000 0.000000
# 4 0.000000 0.000000 0.000000 0.079001 0.000000 0.000000
# 5 0.000000 0.000000 0.000000 0.000000 0.067019 0.000000
# 6 0.000000 0.000000 0.000000 0.000000 0.000000 0.025349
#
#
# Mechanical properties :
#
#
# Convention : Reuss Voigt Hill
#
# Bulk Modulus (GPa) = 52.49470 69.45356 60.97413
# Shear Modulus (GPa) = 19.26865 24.08442 21.67653
#
# Velocity S-wave (km/s) = 3.32122 3.71313 3.52263
# Velocity P-wave (km/s) = 6.69017 7.62511 7.17289
#
# Compressibility (1/GPa) = 0.01904954
#
# Stress axis : x y z
#
# Youngs Moduli (GPa) = 75.41431 85.50745 39.28508
#
# Poissons Ratio (x) = 0.47397 0.22961
# Poissons Ratio (y) = 0.41803 0.16863
# Poissons Ratio (z) = 0.44077 0.36704
#
# Static dielectric constant tensor:
#      x y z
#    x 3.427910 0.000000 0.000000 
#    y 0.000000 2.954380 0.000000 
#    z 0.000000 0.000000 2.748670 
# 
# 
# High freq. dielectric constant tensor:
#      x y z
#    x 1.695390 0.000000 0.000000 
#    y 0.000000 1.693310 0.000000 
#    z 0.000000 0.000000 1.599960 
# 
# From -- ./inp_files/30870.got.cif
#   From: 2010.03.12/outbox.cif.g09.slc.cpg/sg53_16_cif.got.tgz:30870.got - 2010.04.16 14:36:59.
