data_PCOD8217990
_publ_section_title
;
Structure prediction by ZEFSAII (Michael W. Deem and Ramdas Pophale) SiO2 
 PCOD8217990
Probable space group: P M N A
;
_chemical_formula_sum "Si O2"
_cell_formula_units_Z 64
_cell_length_a 8.887491
_cell_length_b 15.636506
_cell_length_c 28.692955
_cell_angle_alpha 90.000000
_cell_angle_beta 90.000000
_cell_angle_gamma 90.000000
_cell_volume 3987.440053
_symmetry_space_group_name_H-M "P M N A"
_symmetry_group_IT_number 53
_symmetry_cell_setting 'orthorhombic'
loop_
_space_group_symop_operation_xyz
x,y,z
1/2-x,-y,1/2+z
x,-y,-z
1/2-x,y,1/2-z
-x,-y,-z
1/2+x,y,1/2-z
-x,y,z
1/2+x,-y,1/2+z
loop_
_atom_site_type_symbol
_atom_site_label
_atom_site_fract_x
_atom_site_fract_y
_atom_site_fract_z
Si Si1 0.678338 0.658805 0.648948
Si Si2 0.176775 0.986631 0.199688
Si Si3 0.677889 0.590558 0.552174
Si Si4 0.323118 0.658670 0.139376
Si Si5 0.178654 0.819890 0.300895
Si Si6 0.822092 0.397641 0.950120
Si Si7 0.821404 0.502084 0.700442
Si Si8 0.674943 0.173740 0.299649
O O1 0.500000 0.644234 0.653258
O O2 0.734274 0.647612 0.595527
O O3 0.760327 0.592060 0.682296
O O4 0.728262 0.753778 0.664201
O O5 0.250000 0.990942 0.250000
O O6 0.258559 0.906894 0.174068
O O7 0.000000 0.967704 0.202979
O O8 0.209492 0.080282 0.177246
O O9 0.500000 0.585275 0.551092
O O10 0.730485 0.630030 0.502450
O O11 0.737835 0.494048 0.558522
O O12 0.500000 0.660204 0.133923
O O13 0.266869 0.740733 0.167993
O O14 0.252485 0.663949 0.087905
O O15 0.269388 0.572912 0.165560
O O16 0.250000 0.808754 0.250000
O O17 0.000000 0.824226 0.296389
O O18 0.000000 0.391222 0.944541
O O19 0.750000 0.480596 0.750000
O O20 0.000000 0.506414 0.705481
O O21 0.750000 0.188220 0.250000
O O22 0.500000 0.182399 0.289484
#
# Coordination Sequence:
#
# PCOD8217990 Si02
#       8
#     8   8   8   8   8   8   8   8
#     4  10  18  31  48  66  90 121 151 182 220 262
#     4   9  16  28  44  64  87 112 145 183 221 261
#     4   8  15  28  47  69  89 112 148 189 224 262
#     4  10  21  33  44  64  92 118 148 185 224 263
#     4  10  19  31  46  65  89 118 150 184 222 265
#     4   9  16  29  49  68  86 114 151 187 223 266
#     4  11  22  33  43  60  89 123 155 183 213 254
#     4   9  18  29  44  65  90 119 148 180 219 259
#
# _framework density 16.050397
#
# number of rings (size 3 to 8) (size 9 to 14) (size 15 to 20)
#    0.000    2.500    1.250    3.375    0.000    3.500 
#    0.000    1.875    0.000    0.000    0.000    0.875 
#    0.000    7.000    0.000    0.000    0.000    0.000 
#
# Total GULP energy -793179.803481 kJ/mol
# GULP energy per Si atom -12393.434429 kJ/mol
# Density = 1.601387 g / cm^3
# Si number density = 16.050397 Si / 1000 Ang^3
#
#
#
# Elastic Constant Matrix: (Units=GPa)
#
#
# Indices 1 2 3 4 5 6 
#
# 1 39.3543 30.3398 23.8866 0.0000 0.0000 0.0000
# 2 30.3398 117.1117 47.7735 0.0000 0.0000 0.0000
# 3 23.8866 47.7735 101.3406 0.0000 0.0000 0.0000
# 4 0.0000 0.0000 0.0000 13.6109 0.0000 0.0000
# 5 0.0000 0.0000 0.0000 0.0000 20.2303 0.0000
# 6 0.0000 0.0000 0.0000 0.0000 0.0000 7.2056
#
#
#
# Elastic Compliance Matrix: (Units=1/GPa)
#
#
# Indices 1 2 3 4 5 6 
#
# 1 0.033472 -0.006751 -0.004707 0.000000 0.000000 0.000000
# 2 -0.006751 0.011934 -0.004034 0.000000 0.000000 0.000000
# 3 -0.004707 -0.004034 0.012879 0.000000 0.000000 0.000000
# 4 0.000000 0.000000 0.000000 0.073471 0.000000 0.000000
# 5 0.000000 0.000000 0.000000 0.000000 0.049431 0.000000
# 6 0.000000 0.000000 0.000000 0.000000 0.000000 0.138781
#
#
# Mechanical properties :
#
#
# Convention : Reuss Voigt Hill
#
# Bulk Modulus (GPa) = 36.63082 51.31181 43.97131
# Shear Modulus (GPa) = 13.88689 18.59647 16.24168
#
# Velocity S-wave (km/s) = 2.94463 3.40756 3.18452
# Velocity P-wave (km/s) = 5.86797 6.89351 6.40131
#
# Compressibility (1/GPa) = 0.02729942
#
# Stress axis : x y z
#
# Youngs Moduli (GPa) = 29.87577 83.79646 77.64581
#
# Poissons Ratio (x) = 0.56575 0.36546
# Poissons Ratio (y) = 0.20170 0.31325
# Poissons Ratio (z) = 0.14062 0.33807
#
# Static dielectric constant tensor:
#      x y z
#    x 2.949640 0.000000 0.000000 
#    y 0.000000 3.556330 0.000000 
#    z 0.000000 0.000000 3.181800 
# 
# 
# High freq. dielectric constant tensor:
#      x y z
#    x 1.611460 0.000000 0.000000 
#    y 0.000000 1.611630 0.000000 
#    z 0.000000 0.000000 1.596480 
# 
# From -- ./inp_files/38400.got.cif
#   From: 2010.03.12/outbox.cif.g09.slc.cpg/sg53_20_cif.got.tgz:38400.got - 2010.04.16 14:36:59.
