data_PCOD8217254
_publ_section_title
;
Structure prediction by ZEFSAII (Michael W. Deem and Ramdas Pophale) SiO2 
 PCOD8217254
Probable space group: P N N A
;
_chemical_formula_sum "Si O2"
_cell_formula_units_Z 48
_cell_length_a 9.887961
_cell_length_b 8.496732
_cell_length_c 27.167512
_cell_angle_alpha 90.000000
_cell_angle_beta 90.000000
_cell_angle_gamma 90.000000
_cell_volume 2282.488155
_symmetry_space_group_name_H-M "P N N A"
_symmetry_group_IT_number 52
_symmetry_cell_setting 'orthorhombic'
loop_
_space_group_symop_operation_xyz
x,y,z
1/2-x,-y,z
x,1/2-y,1/2-z
1/2-x,1/2+y,1/2-z
-x,-y,-z
1/2+x,y,-z
-x,1/2+y,1/2+z
1/2+x,1/2-y,1/2+z
loop_
_atom_site_type_symbol
_atom_site_label
_atom_site_fract_x
_atom_site_fract_y
_atom_site_fract_z
Si Si1 0.910788 0.021181 0.628312
Si Si2 0.332896 0.158089 0.627341
Si Si3 0.235263 0.315693 0.530165
Si Si4 0.896967 0.070312 0.740193
Si Si5 0.129474 0.610055 0.713713
Si Si6 0.033684 0.662723 0.027966
O O1 0.952740 0.059926 0.684377
O O2 0.954930 0.147546 0.587322
O O3 0.750000 0.000000 0.623357
O O4 0.006997 0.871108 0.617155
O O5 0.261514 0.213022 0.578213
O O6 0.329383 0.311267 0.662288
O O7 0.250000 0.000000 0.645708
O O8 0.250000 0.500000 0.539076
O O9 0.327650 0.244326 0.487578
O O10 0.081979 0.286113 0.514020
O O11 0.883758 0.250000 0.750000
O O12 0.750000 0.000000 0.745730
O O13 0.992033 0.991783 0.782042
O O14 0.250000 0.500000 0.732068
O O15 0.103413 0.750000 0.750000
O O16 0.000000 0.500000 0.000000
#
# Coordination Sequence:
#
# PCOD8217254 Si02
#       6
#     8   8   8   8   8   8
#     4  11  24  42  71  98 132 175 241 278 342 413
#     4  12  24  45  69  99 139 184 231 284 351 414
#     4  12  26  44  68 104 144 180 228 295 348 413
#     4  11  26  46  69  98 137 184 234 286 350 415
#     4  12  25  40  67  99 135 176 229 288 347 412
#     4  12  23  45  73 101 133 187 232 280 343 418
#
# _framework density 21.029682000000001
#
# number of rings (size 3 to 8) (size 9 to 14) (size 15 to 20)
#    0.000    0.333    5.000    4.000    4.667    1.333 
#    0.000    0.833    0.000    0.000    0.000    0.000 
#    0.000    0.000    0.000    0.000    0.000    0.000 
#
# Total GULP energy -594814.326742 kJ/mol
# GULP energy per Si atom -12391.965140 kJ/mol
# Density = 2.098182 g / cm^3
# Si number density = 21.029682 Si / 1000 Ang^3
#
#
#
# Elastic Constant Matrix: (Units=GPa)
#
#
# Indices 1 2 3 4 5 6 
#
# 1 121.6668 44.4723 13.9134 0.0000 0.0000 0.0000
# 2 44.4723 132.2264 18.8978 0.0000 0.0000 0.0000
# 3 13.9134 18.8978 72.9749 0.0000 0.0000 0.0000
# 4 0.0000 0.0000 0.0000 26.3521 0.0000 0.0000
# 5 0.0000 0.0000 0.0000 0.0000 1604.6817 0.0000
# 6 0.0000 0.0000 0.0000 0.0000 0.0000 102.9579
#
#
#
# Elastic Compliance Matrix: (Units=1/GPa)
#
#
# Indices 1 2 3 4 5 6 
#
# 1 0.009443 -0.003031 -0.001016 0.000000 0.000000 0.000000
# 2 -0.003031 0.008826 -0.001708 0.000000 0.000000 0.000000
# 3 -0.001016 -0.001708 0.014339 0.000000 0.000000 0.000000
# 4 0.000000 0.000000 0.000000 0.037948 0.000000 0.000000
# 5 0.000000 0.000000 0.000000 0.000000 0.000623 0.000000
# 6 0.000000 0.000000 0.000000 0.000000 0.000000 0.009713
#
#
# Mechanical properties :
#
#
# Convention : Reuss Voigt Hill
#
# Bulk Modulus (GPa) = 47.39306 53.49281 50.44293
# Shear Modulus (GPa) = 50.28451 363.43730 206.86091
#
# Velocity S-wave (km/s) = 4.89521 13.16041 9.92873
# Velocity P-wave (km/s) = 7.38485 16.01313 12.46909
#
# Compressibility (1/GPa) = 0.02110014
#
# Stress axis : x y z
#
# Youngs Moduli (GPa) = 105.89649 113.29813 69.73878
#
# Poissons Ratio (x) = 0.34340 0.07082
# Poissons Ratio (y) = 0.32096 0.11910
# Poissons Ratio (z) = 0.10754 0.19349
#
# Static dielectric constant tensor:
#      x y z
#    x 4.059580 0.000000 0.000000 
#    y 0.000000 3.081350 0.000000 
#    z 0.000000 0.000000 4.152800 
# 
# 
# High freq. dielectric constant tensor:
#      x y z
#    x 1.846690 0.000000 0.000000 
#    y 0.000000 1.819720 0.000000 
#    z 0.000000 0.000000 1.826760 
# 
# From -- ./inp_files/44380.got.cif
#   From: 2010.06.25/outbox.cif.g09.slc.cpg/sg52_23_cif.got.tgz:44380.got - 2010.06.26 19:32:48.
