data_PCOD8217686
_publ_section_title
;
Structure prediction by ZEFSAII (Michael W. Deem and Ramdas Pophale) SiO2 
 PCOD8217686
Probable space group: P M N A
;
_chemical_formula_sum "Si O2"
_cell_formula_units_Z 56
_cell_length_a 9.329417
_cell_length_b 14.497270
_cell_length_c 26.523774
_cell_angle_alpha 90.000000
_cell_angle_beta 90.000000
_cell_angle_gamma 90.000000
_cell_volume 3587.369005
_symmetry_space_group_name_H-M "P M N A"
_symmetry_group_IT_number 53
_symmetry_cell_setting 'orthorhombic'
loop_
_space_group_symop_operation_xyz
x,y,z
1/2-x,-y,1/2+z
x,-y,-z
1/2-x,y,1/2-z
-x,-y,-z
1/2+x,y,1/2-z
-x,y,z
1/2+x,-y,1/2+z
loop_
_atom_site_type_symbol
_atom_site_label
_atom_site_fract_x
_atom_site_fract_y
_atom_site_fract_z
Si Si1 0.831543 0.430052 0.934064
Si Si2 0.835896 0.015801 0.377728
Si Si3 0.670493 0.108959 0.697388
Si Si4 0.169601 0.371629 0.043411
Si Si5 0.165408 0.807731 0.565259
Si Si6 0.167302 0.743388 0.119102
Si Si7 0.838186 0.137696 0.544739
O O1 0.778274 0.535248 0.926925
O O2 0.790723 0.365725 0.885472
O O3 0.000000 0.435979 0.941499
O O4 0.774397 0.383204 0.985858
O O5 0.798142 0.122824 0.388581
O O6 0.000000 0.005517 0.358300
O O7 0.727437 0.976207 0.335992
O O8 0.817043 0.962928 0.430893
O O9 0.750000 0.107346 0.750000
O O10 0.500000 0.099239 0.704578
O O11 0.714861 0.206606 0.670910
O O12 0.242385 0.284734 0.070425
O O13 0.000000 0.356767 0.046749
O O14 0.200648 0.863658 0.514095
O O15 0.000000 0.778731 0.567111
O O16 0.234810 0.790384 0.070873
O O17 0.000000 0.757104 0.112748
O O18 0.000000 0.172278 0.553391
#
# Coordination Sequence:
#
# PCOD8217686 Si02
#       7
#     8   8   8   8   8   8   8
#     4   8  14  26  42  61  85 117 153 184 217 254
#     4   9  18  31  45  61  87 120 150 181 219 264
#     4  10  20  33  50  70  89 110 140 182 228 272
#     4   9  16  26  42  60  85 122 156 185 214 250
#     4  10  18  27  40  62  91 122 152 184 219 254
#     4   9  16  28  46  65  86 114 149 184 218 261
#     4   9  16  26  40  60  87 120 152 179 213 258
#
# _framework density 15.610325
#
# number of rings (size 3 to 8) (size 9 to 14) (size 15 to 20)
#    0.000    2.857    1.429    1.714    0.000    2.857 
#    0.000    2.143    0.000    4.286    0.000    1.000 
#    0.000    4.571    0.000    0.000    0.000    0.000 
#
# Total GULP energy -693800.701834 kJ/mol
# GULP energy per Si atom -12389.298247 kJ/mol
# Density = 1.557480 g / cm^3
# Si number density = 15.610325 Si / 1000 Ang^3
#
#
#
# Elastic Constant Matrix: (Units=GPa)
#
#
# Indices 1 2 3 4 5 6 
#
# 1 42.7005 43.8201 36.5002 0.0000 0.0000 0.0000
# 2 43.8201 127.7258 52.3103 0.0000 0.0000 0.0000
# 3 36.5002 52.3103 75.6575 0.0000 0.0000 0.0000
# 4 0.0000 0.0000 0.0000 13.6704 0.0000 0.0000
# 5 0.0000 0.0000 0.0000 0.0000 15.5521 0.0000
# 6 0.0000 0.0000 0.0000 0.0000 0.0000 15.8035
#
#
#
# Elastic Compliance Matrix: (Units=1/GPa)
#
#
# Indices 1 2 3 4 5 6 
#
# 1 0.046905 -0.009520 -0.016047 0.000000 0.000000 0.000000
# 2 -0.009520 0.012854 -0.004295 0.000000 0.000000 0.000000
# 3 -0.016047 -0.004295 0.023928 0.000000 0.000000 0.000000
# 4 0.000000 0.000000 0.000000 0.073151 0.000000 0.000000
# 5 0.000000 0.000000 0.000000 0.000000 0.064300 0.000000
# 6 0.000000 0.000000 0.000000 0.000000 0.000000 0.063277
#
#
# Mechanical properties :
#
#
# Convention : Reuss Voigt Hill
#
# Bulk Modulus (GPa) = 41.72759 56.81611 49.27185
# Shear Modulus (GPa) = 14.19939 16.56874 15.38406
#
# Velocity S-wave (km/s) = 3.01925 3.26144 3.14268
# Velocity P-wave (km/s) = 6.24046 7.11746 6.69334
#
# Compressibility (1/GPa) = 0.02396496
#
# Stress axis : x y z
#
# Youngs Moduli (GPa) = 21.31948 77.79437 41.79147
#
# Poissons Ratio (x) = 0.74063 0.67061
# Poissons Ratio (y) = 0.20297 0.17948
# Poissons Ratio (z) = 0.34210 0.33410
#
# Static dielectric constant tensor:
#      x y z
#    x 2.880560 0.000000 0.000000 
#    y 0.000000 3.365100 0.000000 
#    z 0.000000 0.000000 2.727670 
# 
# 
# High freq. dielectric constant tensor:
#      x y z
#    x 1.589450 0.000000 0.000000 
#    y 0.000000 1.602210 0.000000 
#    z 0.000000 0.000000 1.556770 
# 
# From -- ./inp_files/38323.got.cif
#   From: 2010.03.12/outbox.cif.g09.slc.cpg/sg53_20_cif.got.tgz:38323.got - 2010.04.16 14:36:59.
