data_PCOD8217645
_publ_section_title
;
Structure prediction by ZEFSAII (Michael W. Deem and Ramdas Pophale) SiO2 
 PCOD8217645
Probable space group: P M N A
;
_chemical_formula_sum "Si O2"
_cell_formula_units_Z 48
_cell_length_a 17.897138
_cell_length_b 14.996330
_cell_length_c 8.756575
_cell_angle_alpha 90.000000
_cell_angle_beta 90.000000
_cell_angle_gamma 90.000000
_cell_volume 2350.189314
_symmetry_space_group_name_H-M "P M N A"
_symmetry_group_IT_number 53
_symmetry_cell_setting 'orthorhombic'
loop_
_space_group_symop_operation_xyz
x,y,z
1/2-x,-y,1/2+z
x,-y,-z
1/2-x,y,1/2-z
-x,-y,-z
1/2+x,y,1/2-z
-x,y,z
1/2+x,-y,1/2+z
loop_
_atom_site_type_symbol
_atom_site_label
_atom_site_fract_x
_atom_site_fract_y
_atom_site_fract_z
Si Si1 0.582841 0.717509 0.622471
Si Si2 0.853972 0.133621 0.956018
Si Si3 0.217217 0.409016 0.088274
Si Si4 0.661446 0.978739 0.741119
Si Si5 0.587375 0.834140 0.922177
Si Si6 0.280855 0.753233 0.080043
O O1 0.500000 0.678661 0.630397
O O2 0.590139 0.782098 0.472619
O O3 0.635801 0.633345 0.606996
O O4 0.602528 0.774059 0.773352
O O5 0.770930 0.170714 0.994478
O O6 0.857925 0.084680 0.788508
O O7 0.872236 0.065350 0.090035
O O8 0.250000 0.434914 0.250000
O O9 0.207544 0.500000 0.000000
O O10 0.273531 0.341192 0.004845
O O11 0.750000 0.967583 0.750000
O O12 0.619627 0.934437 0.886850
O O13 0.500000 0.839805 0.966188
O O14 0.633772 0.788385 0.061217
O O15 0.250000 0.739585 0.250000
#
# Coordination Sequence:
#
# PCOD8217645 Si02
#       6
#     8   8   8   8   8   8
#     4   9  19  36  60  89 124 164 199 245 310 370
#     4   9  19  30  54  85 119 164 210 254 293 358
#     4  11  22  39  65  94 123 155 202 253 302 374
#     4  10  17  31  55  86 123 163 215 258 299 352
#     4  10  20  36  61  89 123 167 207 253 311 365
#     4  11  21  38  60  88 122 162 211 255 306 365
#
# _framework density 20.423884999999999
#
# number of rings (size 3 to 8) (size 9 to 14) (size 15 to 20)
#    0.000    2.000    3.333    1.000    0.000    1.000 
#    0.000    6.667    0.000   11.000    0.000    0.000 
#    0.000    0.000    0.000    0.000    0.000    0.000 
#
# Total GULP energy -594710.977072 kJ/mol
# GULP energy per Si atom -12389.812022 kJ/mol
# Density = 2.037740 g / cm^3
# Si number density = 20.423885 Si / 1000 Ang^3
#
#
#
# Elastic Constant Matrix: (Units=GPa)
#
#
# Indices 1 2 3 4 5 6 
#
# 1 126.8237 54.2456 45.6239 0.0000 0.0000 0.0000
# 2 54.2456 121.8339 44.9746 0.0000 0.0000 0.0000
# 3 45.6239 44.9746 82.4284 0.0000 0.0000 0.0000
# 4 0.0000 0.0000 0.0000 22.6399 0.0000 0.0000
# 5 0.0000 0.0000 0.0000 0.0000 17.1052 0.0000
# 6 0.0000 0.0000 0.0000 0.0000 0.0000 7.5136
#
#
#
# Elastic Compliance Matrix: (Units=1/GPa)
#
#
# Indices 1 2 3 4 5 6 
#
# 1 0.010786 -0.003254 -0.004194 0.000000 0.000000 0.000000
# 2 -0.003254 0.011260 -0.004343 0.000000 0.000000 0.000000
# 3 -0.004194 -0.004343 0.016823 0.000000 0.000000 0.000000
# 4 0.000000 0.000000 0.000000 0.044170 0.000000 0.000000
# 5 0.000000 0.000000 0.000000 0.000000 0.058462 0.000000
# 6 0.000000 0.000000 0.000000 0.000000 0.000000 0.133093
#
#
# Mechanical properties :
#
#
# Convention : Reuss Voigt Hill
#
# Bulk Modulus (GPa) = 65.41761 68.97492 67.19626
# Shear Modulus (GPa) = 16.48699 21.86785 19.17742
#
# Velocity S-wave (km/s) = 2.84428 3.27570 3.06759
# Velocity P-wave (km/s) = 6.54874 6.93916 6.74678
#
# Compressibility (1/GPa) = 0.01528640
#
# Stress axis : x y z
#
# Youngs Moduli (GPa) = 92.71585 88.81247 59.44336
#
# Poissons Ratio (x) = 0.28898 0.24933
# Poissons Ratio (y) = 0.30168 0.25813
# Poissons Ratio (z) = 0.38889 0.38567
#
# Static dielectric constant tensor:
#      x y z
#    x 3.611530 0.000000 0.000000 
#    y 0.000000 3.733150 0.000000 
#    z 0.000000 0.000000 3.636790 
# 
# 
# High freq. dielectric constant tensor:
#      x y z
#    x 1.780190 0.000000 0.000000 
#    y 0.000000 1.790620 0.000000 
#    z 0.000000 0.000000 1.791570 
# 
# From -- ./inp_files/9985.got.cif
#   From: 2010.03.12/outbox.cif.g09.slc.cpg/sg53_5_cif.got.tgz:9985.got - 2010.04.16 14:36:59.
