data_PCOD8217034
_publ_section_title
;
Structure prediction by ZEFSAII (Michael W. Deem and Ramdas Pophale) SiO2 
 PCOD8217034
Probable space group: P N N A
;
_chemical_formula_sum "Si O2"
_cell_formula_units_Z 44
_cell_length_a 18.214616
_cell_length_b 11.944331
_cell_length_c 9.465793
_cell_angle_alpha 90.000000
_cell_angle_beta 90.000000
_cell_angle_gamma 90.000000
_cell_volume 2059.391201
_symmetry_space_group_name_H-M "P N N A"
_symmetry_group_IT_number 52
_symmetry_cell_setting 'orthorhombic'
loop_
_space_group_symop_operation_xyz
x,y,z
1/2-x,-y,z
x,1/2-y,1/2-z
1/2-x,1/2+y,1/2-z
-x,-y,-z
1/2+x,y,-z
-x,1/2+y,1/2+z
1/2+x,1/2-y,1/2+z
loop_
_atom_site_type_symbol
_atom_site_label
_atom_site_fract_x
_atom_site_fract_y
_atom_site_fract_z
Si Si1 0.334431 0.028503 0.702038
Si Si2 0.162524 0.633148 0.317184
Si Si3 0.309016 0.700627 0.456280
Si Si4 0.271532 0.250000 0.750000
Si Si5 0.829381 0.547131 0.911126
Si Si6 0.914281 0.990445 0.021858
O O1 0.329974 0.161497 0.690673
O O2 0.392915 0.985884 0.815187
O O3 0.250000 0.000000 0.744575
O O4 0.369538 0.975056 0.560274
O O5 0.135479 0.750000 0.250000
O O6 0.248784 0.639169 0.356261
O O7 0.140406 0.528692 0.215903
O O8 0.119477 0.605846 0.460157
O O9 0.280380 0.714897 0.617625
O O10 0.328759 0.680362 0.117457
O O11 0.380580 0.621845 0.450631
O O12 0.750000 0.500000 0.948371
O O13 0.000000 0.000000 0.000000
#
# Coordination Sequence:
#
# PCOD8217034 Si02
#       6
#     8   8   8   4   8   8
#     4  11  20  39  66 100 126 166 231 288 331 397
#     4  12  24  42  70 100 133 173 224 292 339 395
#     4  12  22  39  73  98 134 169 228 287 341 396
#     4  12  18  36  70 104 122 164 230 298 328 376
#     4  11  21  37  67 106 129 161 225 294 347 383
#     4  12  27  45  63  97 142 188 221 265 344 423
#
# _framework density 21.365535999999999
#
# number of rings (size 3 to 8) (size 9 to 14) (size 15 to 20)
#    0.000    0.364    9.091    1.636    0.000    0.000 
#    4.909    2.727    0.000    0.000    0.000    0.000 
#    0.000    0.000    0.000    0.000    0.000    0.000 
#
# Total GULP energy -545227.572159 kJ/mol
# GULP energy per Si atom -12391.535731 kJ/mol
# Density = 2.131691 g / cm^3
# Si number density = 21.365536 Si / 1000 Ang^3
#
#
#
# Elastic Constant Matrix: (Units=GPa)
#
#
# Indices 1 2 3 4 5 6 
#
# 1 87.5647 46.6186 22.3812 0.0000 0.0000 0.0000
# 2 46.6186 156.9719 34.3924 0.0000 0.0000 0.0000
# 3 22.3812 34.3924 97.9703 0.0000 0.0000 0.0000
# 4 0.0000 0.0000 0.0000 42.9610 0.0000 0.0000
# 5 0.0000 0.0000 0.0000 0.0000 10.9498 0.0000
# 6 0.0000 0.0000 0.0000 0.0000 0.0000 15.2882
#
#
#
# Elastic Compliance Matrix: (Units=1/GPa)
#
#
# Indices 1 2 3 4 5 6 
#
# 1 0.013873 -0.003711 -0.001866 0.000000 0.000000 0.000000
# 2 -0.003711 0.007894 -0.001923 0.000000 0.000000 0.000000
# 3 -0.001866 -0.001923 0.011309 0.000000 0.000000 0.000000
# 4 0.000000 0.000000 0.000000 0.023277 0.000000 0.000000
# 5 0.000000 0.000000 0.000000 0.000000 0.091325 0.000000
# 6 0.000000 0.000000 0.000000 0.000000 0.000000 0.065410
#
#
# Mechanical properties :
#
#
# Convention : Reuss Voigt Hill
#
# Bulk Modulus (GPa) = 55.32866 61.03237 58.18052
# Shear Modulus (GPa) = 21.35702 29.78079 25.56890
#
# Velocity S-wave (km/s) = 3.16508 3.73751 3.46314
# Velocity P-wave (km/s) = 6.26972 6.87409 6.57885
#
# Compressibility (1/GPa) = 0.01807382
#
# Stress axis : x y z
#
# Youngs Moduli (GPa) = 72.08259 126.67600 88.42686
#
# Poissons Ratio (x) = 0.47011 0.16505
# Poissons Ratio (y) = 0.26751 0.17008
# Poissons Ratio (z) = 0.13454 0.24365
#
# Static dielectric constant tensor:
#      x y z
#    x 3.163970 0.000000 0.000000 
#    y 0.000000 4.496290 0.000000 
#    z 0.000000 0.000000 4.285670 
# 
# 
# High freq. dielectric constant tensor:
#      x y z
#    x 1.756050 0.000000 0.000000 
#    y 0.000000 1.860390 0.000000 
#    z 0.000000 0.000000 1.871020 
# 
# From -- ./inp_files/11955.got.cif
#   From: 2010.06.25/outbox.cif.g09.slc.cpg/sg52_6_cif.got.tgz:11955.got - 2010.06.26 19:32:48.
