data_PCOD8217181
_publ_section_title
;
Structure prediction by ZEFSAII (Michael W. Deem and Ramdas Pophale) SiO2 
 PCOD8217181
Probable space group: P N N A
;
_chemical_formula_sum "Si O2"
_cell_formula_units_Z 56
_cell_length_a 20.420564
_cell_length_b 11.464971
_cell_length_c 11.736746
_cell_angle_alpha 90.000000
_cell_angle_beta 90.000000
_cell_angle_gamma 90.000000
_cell_volume 2747.820753
_symmetry_space_group_name_H-M "P N N A"
_symmetry_group_IT_number 52
_symmetry_cell_setting 'orthorhombic'
loop_
_space_group_symop_operation_xyz
x,y,z
1/2-x,-y,z
x,1/2-y,1/2-z
1/2-x,1/2+y,1/2-z
-x,-y,-z
1/2+x,y,-z
-x,1/2+y,1/2+z
1/2+x,1/2-y,1/2+z
loop_
_atom_site_type_symbol
_atom_site_label
_atom_site_fract_x
_atom_site_fract_y
_atom_site_fract_z
Si Si1 0.562930 0.024930 0.805705
Si Si2 0.609381 0.141737 0.017608
Si Si3 0.202704 0.317736 0.865537
Si Si4 0.085618 0.915614 0.852217
Si Si5 0.562001 0.951377 0.566577
Si Si6 0.539327 0.801185 0.933669
Si Si7 0.161373 0.919843 0.630465
O O1 0.582791 0.034532 0.672327
O O2 0.573871 0.894583 0.852389
O O3 0.486173 0.047921 0.813355
O O4 0.606792 0.113449 0.881456
O O5 0.662589 0.244702 0.038272
O O6 0.537771 0.180883 0.054277
O O7 0.624566 0.023709 0.088780
O O8 0.191800 0.250000 0.750000
O O9 0.178442 0.447215 0.841407
O O10 0.279161 0.331128 0.897683
O O11 0.123964 0.869982 0.741309
O O12 0.076361 0.810200 0.943010
O O13 0.545239 0.826039 0.620625
O O14 0.621763 0.930388 0.484589
O O15 0.500000 0.000000 0.500000
#
# Coordination Sequence:
#
# PCOD8217181 Si02
#       7
#     8   8   8   8   8   8   8
#     4   9  19  37  60  88 123 163 206 252 309 382
#     4   9  18  37  63  88 115 164 216 247 304 382
#     4  11  23  40  62  85 117 170 211 262 316 379
#     4   9  17  36  57  91 123 150 201 265 311 379
#     4  12  22  35  56  92 133 162 192 260 328 379
#     4   9  20  33  60  88 123 160 199 254 322 377
#     4  11  24  37  57  95 128 151 208 264 324 383
#
# _framework density 20.379787
#
# number of rings (size 3 to 8) (size 9 to 14) (size 15 to 20)
#    0.000    2.000    2.857    3.000    2.000    0.000 
#    0.000    2.143    0.000    6.857    0.000    0.000 
#    0.000    0.000    0.000    0.000    0.000    0.000 
#
# Total GULP energy -693951.766654 kJ/mol
# GULP energy per Si atom -12391.995833 kJ/mol
# Density = 2.033340 g / cm^3
# Si number density = 20.379787 Si / 1000 Ang^3
#
#
#
# Elastic Constant Matrix: (Units=GPa)
#
#
# Indices 1 2 3 4 5 6 
#
# 1 87.9969 29.0402 52.3528 0.0000 0.0000 0.0000
# 2 29.0402 72.4406 23.0233 0.0000 0.0000 0.0000
# 3 52.3528 23.0233 145.2180 0.0000 0.0000 0.0000
# 4 0.0000 0.0000 0.0000 24.8802 0.0000 0.0000
# 5 0.0000 0.0000 0.0000 0.0000 22.3770 0.0000
# 6 0.0000 0.0000 0.0000 0.0000 0.0000 33.1719
#
#
#
# Elastic Compliance Matrix: (Units=1/GPa)
#
#
# Indices 1 2 3 4 5 6 
#
# 1 0.015906 -0.004796 -0.004974 0.000000 0.000000 0.000000
# 2 -0.004796 0.015983 -0.000805 0.000000 0.000000 0.000000
# 3 -0.004974 -0.000805 0.008807 0.000000 0.000000 0.000000
# 4 0.000000 0.000000 0.000000 0.040193 0.000000 0.000000
# 5 0.000000 0.000000 0.000000 0.000000 0.044689 0.000000
# 6 0.000000 0.000000 0.000000 0.000000 0.000000 0.030146
#
#
# Mechanical properties :
#
#
# Convention : Reuss Voigt Hill
#
# Bulk Modulus (GPa) = 51.16030 57.16535 54.16283
# Shear Modulus (GPa) = 27.26468 29.50177 28.38322
#
# Velocity S-wave (km/s) = 3.66160 3.80886 3.73596
# Velocity P-wave (km/s) = 6.56006 6.88870 6.72639
#
# Compressibility (1/GPa) = 0.01954641
#
# Stress axis : x y z
#
# Youngs Moduli (GPa) = 62.87008 62.56755 113.54589
#
# Poissons Ratio (x) = 0.30004 0.56477
# Poissons Ratio (y) = 0.30149 0.09142
# Poissons Ratio (z) = 0.31271 0.05037
#
# Static dielectric constant tensor:
#      x y z
#    x 3.551530 0.000000 0.000000 
#    y 0.000000 2.920380 0.000000 
#    z 0.000000 0.000000 3.741580 
# 
# 
# High freq. dielectric constant tensor:
#      x y z
#    x 1.761580 0.000000 0.000000 
#    y 0.000000 1.808180 0.000000 
#    z 0.000000 0.000000 1.795950 
# 
# From -- ./inp_files/21701.got.cif
#   From: 2010.06.25/outbox.cif.g09.slc.cpg/sg52_11_cif.got.tgz:21701.got - 2010.06.26 19:32:48.
