data_PCOD8217862
_publ_section_title
;
Structure prediction by ZEFSAII (Michael W. Deem and Ramdas Pophale) SiO2 
 PCOD8217862
Probable space group: P M N A
;
_chemical_formula_sum "Si O2"
_cell_formula_units_Z 56
_cell_length_a 8.920199
_cell_length_b 16.872134
_cell_length_c 21.560740
_cell_angle_alpha 90.000000
_cell_angle_beta 90.000000
_cell_angle_gamma 90.000000
_cell_volume 3244.951586
_symmetry_space_group_name_H-M "P M N A"
_symmetry_group_IT_number 53
_symmetry_cell_setting 'orthorhombic'
loop_
_space_group_symop_operation_xyz
x,y,z
1/2-x,-y,1/2+z
x,-y,-z
1/2-x,y,1/2-z
-x,-y,-z
1/2+x,y,1/2-z
-x,y,z
1/2+x,-y,1/2+z
loop_
_atom_site_type_symbol
_atom_site_label
_atom_site_fract_x
_atom_site_fract_y
_atom_site_fract_z
Si Si1 0.328354 0.472480 0.081260
Si Si2 0.823574 0.205264 0.127978
Si Si3 0.821665 0.385765 0.968864
Si Si4 0.821810 0.046376 0.939126
Si Si5 0.823318 0.960736 0.815317
Si Si6 0.669903 0.354973 0.187714
Si Si7 0.822591 0.789945 0.011339
O O1 0.500000 0.475790 0.058052
O O2 0.258345 0.561148 0.084044
O O3 0.317536 0.434891 0.148449
O O4 0.230540 0.418783 0.035135
O O5 0.780681 0.129982 0.169895
O O6 0.747190 0.281630 0.155474
O O7 0.000000 0.219339 0.127568
O O8 0.762272 0.193609 0.058115
O O9 0.766174 0.294637 0.962325
O O10 0.000000 0.392839 0.963336
O O11 0.769321 0.138215 0.944348
O O12 0.000000 0.037140 0.938956
O O13 0.760512 0.012630 0.873500
O O14 0.759421 0.000000 0.000000
O O15 0.750000 0.986886 0.750000
O O16 0.000000 0.972470 0.808582
O O17 0.750000 0.378392 0.250000
O O18 0.500000 0.330165 0.200626
O O19 0.000000 0.788807 0.008102
#
# Coordination Sequence:
#
# PCOD8217862 Si02
#       7
#     8   8   8   8   8   8   8
#     4  10  20  33  48  69  98 129 161 197 241 296
#     4  10  18  31  50  74 103 133 164 203 248 299
#     4  10  18  29  50  75  97 125 158 202 246 287
#     4   9  15  28  50  75  99 129 170 211 250 290
#     4  10  20  32  51  74 101 137 171 209 252 300
#     4  11  23  35  49  70  99 136 169 201 243 295
#     4   9  16  27  48  77 103 125 163 211 248 287
#
# _framework density 17.257577000000001
#
# number of rings (size 3 to 8) (size 9 to 14) (size 15 to 20)
#    0.000    2.143    2.857    2.571    0.000    3.429 
#    0.000    0.000    0.000    3.857    0.000    4.000 
#    0.000    0.000    0.000    0.000    0.000    0.000 
#
# Total GULP energy -694118.389136 kJ/mol
# GULP energy per Si atom -12394.971235 kJ/mol
# Density = 1.721830 g / cm^3
# Si number density = 17.257577 Si / 1000 Ang^3
#
#
#
# Elastic Constant Matrix: (Units=GPa)
#
#
# Indices 1 2 3 4 5 6 
#
# 1 35.7435 35.0482 30.3868 0.0000 0.0000 0.0000
# 2 35.0482 130.3302 63.5723 0.0000 0.0000 0.0000
# 3 30.3868 63.5723 121.5831 0.0000 0.0000 0.0000
# 4 0.0000 0.0000 0.0000 23.2020 0.0000 0.0000
# 5 0.0000 0.0000 0.0000 0.0000 66.2626 0.0000
# 6 0.0000 0.0000 0.0000 0.0000 0.0000 1658.4053
#
#
#
# Elastic Compliance Matrix: (Units=1/GPa)
#
#
# Indices 1 2 3 4 5 6 
#
# 1 0.041037 -0.008098 -0.006022 0.000000 0.000000 0.000000
# 2 -0.008098 0.011898 -0.004197 0.000000 0.000000 0.000000
# 3 -0.006022 -0.004197 0.011924 0.000000 0.000000 0.000000
# 4 0.000000 0.000000 0.000000 0.043100 0.000000 0.000000
# 5 0.000000 0.000000 0.000000 0.000000 0.015091 0.000000
# 6 0.000000 0.000000 0.000000 0.000000 0.000000 0.000603
#
#
# Mechanical properties :
#
#
# Convention : Reuss Voigt Hill
#
# Bulk Modulus (GPa) = 35.42962 60.63015 48.02989
# Shear Modulus (GPa) = 29.46430 360.15061 194.80746
#
# Velocity S-wave (km/s) = 4.13646 14.46182 10.63613
# Velocity P-wave (km/s) = 6.58697 17.72196 13.36892
#
# Compressibility (1/GPa) = 0.02822497
#
# Stress axis : x y z
#
# Youngs Moduli (GPa) = 24.36802 84.04877 83.86185
#
# Poissons Ratio (x) = 0.68066 0.50501
# Poissons Ratio (y) = 0.19734 0.35197
# Poissons Ratio (z) = 0.14674 0.35276
#
# Static dielectric constant tensor:
#      x y z
#    x 3.031080 0.000000 0.000000 
#    y 0.000000 3.533200 0.000000 
#    z 0.000000 0.000000 3.302780 
# 
# 
# High freq. dielectric constant tensor:
#      x y z
#    x 1.644060 0.000000 0.000000 
#    y 0.000000 1.670690 0.000000 
#    z 0.000000 0.000000 1.651320 
# 
# From -- ./inp_files/31026.got.cif
#   From: 2010.03.12/outbox.cif.g09.slc.cpg/sg53_16_cif.got.tgz:31026.got - 2010.04.16 14:36:59.
