data_PCOD8217726
_publ_section_title
;
Structure prediction by ZEFSAII (Michael W. Deem and Ramdas Pophale) SiO2 
 PCOD8217726
Probable space group: P M N A
;
_chemical_formula_sum "Si O2"
_cell_formula_units_Z 64
_cell_length_a 8.923789
_cell_length_b 18.120923
_cell_length_c 26.378464
_cell_angle_alpha 90.000000
_cell_angle_beta 90.000000
_cell_angle_gamma 90.000000
_cell_volume 4265.590016
_symmetry_space_group_name_H-M "P M N A"
_symmetry_group_IT_number 53
_symmetry_cell_setting 'orthorhombic'
loop_
_space_group_symop_operation_xyz
x,y,z
1/2-x,-y,1/2+z
x,-y,-z
1/2-x,y,1/2-z
-x,-y,-z
1/2+x,y,1/2-z
-x,y,z
1/2+x,-y,1/2+z
loop_
_atom_site_type_symbol
_atom_site_label
_atom_site_fract_x
_atom_site_fract_y
_atom_site_fract_z
Si Si1 0.176341 0.169845 0.698586
Si Si2 0.324007 0.416261 0.603703
Si Si3 0.168779 0.544269 0.551925
Si Si4 0.331218 0.046405 0.448872
Si Si5 0.674775 0.827192 0.001307
Si Si6 0.177250 0.338572 0.697846
Si Si7 0.824211 0.329996 0.997943
Si Si8 0.674751 0.081065 0.898635
O O1 0.250000 0.139686 0.750000
O O2 0.225344 0.253942 0.687924
O O3 0.233867 0.119837 0.652319
O O4 0.000000 0.164134 0.704597
O O5 0.500000 0.419240 0.613977
O O6 0.264890 0.498771 0.592881
O O7 0.239535 0.387642 0.652803
O O8 0.283573 0.362427 0.557150
O O9 0.168155 0.500000 0.500000
O O10 0.245335 0.623273 0.542442
O O11 0.000000 0.555884 0.572232
O O12 0.500000 0.068983 0.434104
O O13 0.231789 0.119642 0.456225
O O14 0.327812 0.000000 0.500000
O O15 0.261738 0.996171 0.404425
O O16 0.500000 0.811078 0.993755
O O17 0.766598 0.752534 0.998589
O O18 0.709043 0.863689 0.055401
O O19 0.250000 0.366939 0.750000
O O20 0.000000 0.347640 0.701065
O O21 0.000000 0.332771 0.007765
O O22 0.500000 0.062568 0.896169
#
# Coordination Sequence:
#
# PCOD8217726 Si02
#       8
#     8   8   8   8   8   8   8   8
#     4   9  18  30  43  60  83 110 142 179 214 248
#     4  10  19  30  44  62  85 114 145 177 215 254
#     4   9  17  29  44  61  82 110 143 176 210 251
#     4   9  17  28  41  59  82 107 137 173 211 250
#     4  10  18  28  43  61  83 112 144 175 209 251
#     4  10  19  31  45  62  85 113 146 182 217 252
#     4  10  19  29  42  62  88 114 142 177 213 251
#     4   9  17  29  43  59  81 111 144 175 209 250
#
# _framework density 15.003786
#
# number of rings (size 3 to 8) (size 9 to 14) (size 15 to 20)
#    0.000    2.500    0.000    3.000    0.000    7.000 
#    0.000    0.000    0.000    0.000    0.000    0.000 
#    0.000    1.000    0.000    8.500    0.000    5.750 
#
# Total GULP energy -793664.876382 kJ/mol
# GULP energy per Si atom -12401.013693 kJ/mol
# Density = 1.496964 g / cm^3
# Si number density = 15.003786 Si / 1000 Ang^3
#
#
#
# Elastic Constant Matrix: (Units=GPa)
#
#
# Indices 1 2 3 4 5 6 
#
# 1 62.1840 31.3705 33.5121 0.0000 0.0000 0.0000
# 2 31.3705 69.7448 43.3387 0.0000 0.0000 0.0000
# 3 33.5121 43.3387 80.4605 0.0000 0.0000 0.0000
# 4 0.0000 0.0000 0.0000 20.8199 0.0000 0.0000
# 5 0.0000 0.0000 0.0000 0.0000 24.2271 0.0000
# 6 0.0000 0.0000 0.0000 0.0000 0.0000 29.3624
#
#
#
# Elastic Compliance Matrix: (Units=1/GPa)
#
#
# Indices 1 2 3 4 5 6 
#
# 1 0.022521 -0.006465 -0.005898 0.000000 0.000000 0.000000
# 2 -0.006465 0.023407 -0.009915 0.000000 0.000000 0.000000
# 3 -0.005898 -0.009915 0.020226 0.000000 0.000000 0.000000
# 4 0.000000 0.000000 0.000000 0.048031 0.000000 0.000000
# 5 0.000000 0.000000 0.000000 0.000000 0.041276 0.000000
# 6 0.000000 0.000000 0.000000 0.000000 0.000000 0.034057
#
#
# Mechanical properties :
#
#
# Convention : Reuss Voigt Hill
#
# Bulk Modulus (GPa) = 46.30090 47.64798 46.97444
# Shear Modulus (GPa) = 20.72340 21.82642 21.27491
#
# Velocity S-wave (km/s) = 3.72050 3.81823 3.76968
# Velocity P-wave (km/s) = 7.02728 7.15994 7.09392
#
# Compressibility (1/GPa) = 0.02159785
#
# Stress axis : x y z
#
# Youngs Moduli (GPa) = 44.40253 42.72232 49.44237
#
# Poissons Ratio (x) = 0.27620 0.29161
# Poissons Ratio (y) = 0.28706 0.49023
# Poissons Ratio (z) = 0.26188 0.42360
#
# Static dielectric constant tensor:
#      x y z
#    x 3.028310 0.000000 0.000000 
#    y 0.000000 2.879420 0.000000 
#    z 0.000000 0.000000 2.765140 
# 
# 
# High freq. dielectric constant tensor:
#      x y z
#    x 1.591110 0.000000 0.000000 
#    y 0.000000 1.562380 0.000000 
#    z 0.000000 0.000000 1.541040 
# 
# From -- ./inp_files/34416.got.cif
#   From: 2010.03.12/outbox.cif.g09.slc.cpg/sg53_18_cif.got.tgz:34416.got - 2010.04.16 14:36:59.
