data_PCOD8217269
_publ_section_title
;
Structure prediction by ZEFSAII (Michael W. Deem and Ramdas Pophale) SiO2 
 PCOD8217269
Probable space group: P N N A
;
_chemical_formula_sum "Si O2"
_cell_formula_units_Z 28
_cell_length_a 19.749962
_cell_length_b 4.930404
_cell_length_c 11.798096
_cell_angle_alpha 90.000000
_cell_angle_beta 90.000000
_cell_angle_gamma 90.000000
_cell_volume 1148.843039
_symmetry_space_group_name_H-M "P N N A"
_symmetry_group_IT_number 52
_symmetry_cell_setting 'orthorhombic'
loop_
_space_group_symop_operation_xyz
x,y,z
1/2-x,-y,z
x,1/2-y,1/2-z
1/2-x,1/2+y,1/2-z
-x,-y,-z
1/2+x,y,-z
-x,1/2+y,1/2+z
1/2+x,1/2-y,1/2+z
loop_
_atom_site_type_symbol
_atom_site_label
_atom_site_fract_x
_atom_site_fract_y
_atom_site_fract_z
Si Si1 0.793389 0.250000 0.750000
Si Si2 0.593983 0.966601 0.589161
Si Si3 0.391959 0.525808 0.560263
Si Si4 0.984908 0.750000 0.250000
Si Si5 0.250000 0.500000 0.670783
O O1 0.750000 0.500000 0.698928
O O2 0.836624 0.117738 0.649585
O O3 0.586361 0.772617 0.480327
O O4 0.531521 0.948234 0.675292
O O5 0.594433 0.273536 0.545085
O O6 0.437520 0.572943 0.669713
O O7 0.313623 0.560035 0.591306
O O8 0.231100 0.750000 0.750000
#
# Coordination Sequence:
#
# PCOD8217269 Si02
#       5
#     4   8   8   4   4
#     4  11  24  44  68 100 143 186 234 296 347 424
#     4  11  27  45  72 106 137 191 238 289 360 419
#     4  12  26  46  75 103 144 186 236 296 352 428
#     4  11  26  50  72 104 149 182 244 292 355 426
#     4  12  26  48  72 106 144 192 236 296 364 416
#
# _framework density 24.372347999999999
#
# number of rings (size 3 to 8) (size 9 to 14) (size 15 to 20)
#    0.000    0.571    1.429    5.143    6.000    5.714 
#    0.000    0.000    0.000    0.000    0.000    0.000 
#    0.000    0.000    0.000    0.000    0.000    0.000 
#
# Total GULP energy -347452.060302 kJ/mol
# GULP energy per Si atom -12409.002154 kJ/mol
# Density = 2.431688 g / cm^3
# Si number density = 24.372348 Si / 1000 Ang^3
#
#
#
# Elastic Constant Matrix: (Units=GPa)
#
#
# Indices 1 2 3 4 5 6 
#
# 1 162.7275 12.9191 53.8707 0.0000 0.0000 0.0000
# 2 12.9191 72.5874 2.9195 0.0000 0.0000 0.0000
# 3 53.8707 2.9195 106.3820 0.0000 0.0000 0.0000
# 4 0.0000 0.0000 0.0000 22.7373 0.0000 0.0000
# 5 0.0000 0.0000 0.0000 0.0000 111.4153 0.0000
# 6 0.0000 0.0000 0.0000 0.0000 0.0000 23.5185
#
#
#
# Elastic Compliance Matrix: (Units=1/GPa)
#
#
# Indices 1 2 3 4 5 6 
#
# 1 0.007483 -0.001181 -0.003757 0.000000 0.000000 0.000000
# 2 -0.001181 0.013978 0.000214 0.000000 0.000000 0.000000
# 3 -0.003757 0.000214 0.011297 0.000000 0.000000 0.000000
# 4 0.000000 0.000000 0.000000 0.043981 0.000000 0.000000
# 5 0.000000 0.000000 0.000000 0.000000 0.008975 0.000000
# 6 0.000000 0.000000 0.000000 0.000000 0.000000 0.042520
#
#
# Mechanical properties :
#
#
# Convention : Reuss Voigt Hill
#
# Bulk Modulus (GPa) = 42.89823 53.45727 48.17775
# Shear Modulus (GPa) = 34.37620 49.66673 42.02147
#
# Velocity S-wave (km/s) = 3.75968 4.51913 4.15679
# Velocity P-wave (km/s) = 6.04039 7.01507 6.54590
#
# Compressibility (1/GPa) = 0.02331099
#
# Stress axis : x y z
#
# Youngs Moduli (GPa) = 133.64281 71.54097 88.52243
#
# Poissons Ratio (x) = 0.08447 0.33255
# Poissons Ratio (y) = 0.15779 -0.01897
# Poissons Ratio (z) = 0.50206 -0.01533
#
# Static dielectric constant tensor:
#      x y z
#    x 4.634050 0.000000 0.000000 
#    y 0.000000 4.497930 0.000000 
#    z 0.000000 0.000000 4.436680 
# 
# 
# High freq. dielectric constant tensor:
#      x y z
#    x 1.989420 0.000000 0.000000 
#    y 0.000000 1.971330 0.000000 
#    z 0.000000 0.000000 1.980070 
# 
# From -- ./inp_files/21157.got.cif
#   From: 2010.06.25/outbox.cif.g09.slc.cpg/sg52_11_cif.got.tgz:21157.got - 2010.06.26 19:32:48.
