data_PCOD8217820
_publ_section_title
;
Structure prediction by ZEFSAII (Michael W. Deem and Ramdas Pophale) SiO2 
 PCOD8217820
Probable space group: P M N A
;
_chemical_formula_sum "Si O2"
_cell_formula_units_Z 52
_cell_length_a 19.792803
_cell_length_b 26.233237
_cell_length_c 5.232889
_cell_angle_alpha 90.000000
_cell_angle_beta 90.000000
_cell_angle_gamma 90.000000
_cell_volume 2717.069251
_symmetry_space_group_name_H-M "P M N A"
_symmetry_group_IT_number 53
_symmetry_cell_setting 'orthorhombic'
loop_
_space_group_symop_operation_xyz
x,y,z
1/2-x,-y,1/2+z
x,-y,-z
1/2-x,y,1/2-z
-x,-y,-z
1/2+x,y,1/2-z
-x,y,z
1/2+x,-y,1/2+z
loop_
_atom_site_type_symbol
_atom_site_label
_atom_site_fract_x
_atom_site_fract_y
_atom_site_fract_z
Si Si1 0.669667 0.796047 0.251819
Si Si2 0.923822 0.368734 0.294520
Si Si3 0.680812 0.552047 0.887578
Si Si4 0.250000 0.628203 0.250000
Si Si5 0.124147 0.684130 0.184226
Si Si6 0.830631 0.029021 0.250595
Si Si7 0.829861 0.856597 0.749711
O O1 0.750000 0.785659 0.250000
O O2 0.627635 0.744140 0.270541
O O3 0.646153 0.829576 0.491761
O O4 0.645752 0.824794 0.995943
O O5 0.877115 0.418674 0.225410
O O6 0.901249 0.340506 0.552361
O O7 0.000000 0.388565 0.330938
O O8 0.923225 0.329856 0.055070
O O9 0.750000 0.535872 0.750000
O O10 0.649152 0.500000 0.000000
O O11 0.699956 0.593262 0.094436
O O12 0.198901 0.664530 0.094708
O O13 0.750000 0.029825 0.250000
O O14 0.860090 0.086382 0.256612
O O15 0.858051 0.000000 0.500000
O O16 0.857879 0.000000 0.000000
O O17 0.750000 0.860488 0.750000
#
# Coordination Sequence:
#
# PCOD8217820 Si02
#       7
#     8   8   8   4   8   8   8
#     4  10  18  29  46  72 100 129 171 230 289 322
#     4  11  25  41  59  84 116 151 185 226 275 339
#     4  11  21  37  62  87 116 144 186 230 282 328
#     4  10  20  34  56  86 110 140 178 234 270 326
#     4  11  21  37  59  80 110 144 187 226 282 332
#     4   9  15  23  35  51  79 129 184 222 258 315
#     4   9  17  26  38  62  97 129 172 233 280 320
#
# _framework density 19.138268
#
# number of rings (size 3 to 8) (size 9 to 14) (size 15 to 20)
#    0.000    1.846    3.077    2.308    0.000    4.000 
#    0.000    0.000    0.000    3.231    0.000    0.000 
#    0.000    0.000    0.000    0.000    0.000  193.846 
#
# Total GULP energy -644460.039414 kJ/mol
# GULP energy per Si atom -12393.462296 kJ/mol
# Density = 1.909471 g / cm^3
# Si number density = 19.138268 Si / 1000 Ang^3
#
#
#
# Elastic Constant Matrix: (Units=GPa)
#
#
# Indices 1 2 3 4 5 6 
#
# 1 55.7439 37.6112 18.0642 0.0000 0.0000 0.0000
# 2 37.6112 154.1752 64.9310 0.0000 0.0000 0.0000
# 3 18.0642 64.9310 146.9265 0.0000 0.0000 0.0000
# 4 0.0000 0.0000 0.0000 33.8902 0.0000 0.0000
# 5 0.0000 0.0000 0.0000 0.0000 7.8020 0.0000
# 6 0.0000 0.0000 0.0000 0.0000 0.0000 14.0094
#
#
#
# Elastic Compliance Matrix: (Units=1/GPa)
#
#
# Indices 1 2 3 4 5 6 
#
# 1 0.021493 -0.005075 -0.000400 0.000000 0.000000 0.000000
# 2 -0.005075 0.009168 -0.003428 0.000000 0.000000 0.000000
# 3 -0.000400 -0.003428 0.008370 0.000000 0.000000 0.000000
# 4 0.000000 0.000000 0.000000 0.029507 0.000000 0.000000
# 5 0.000000 0.000000 0.000000 0.000000 0.128172 0.000000
# 6 0.000000 0.000000 0.000000 0.000000 0.000000 0.071381
#
#
# Mechanical properties :
#
#
# Convention : Reuss Voigt Hill
#
# Bulk Modulus (GPa) = 47.11159 66.45096 56.78127
# Shear Modulus (GPa) = 17.06660 26.88959 21.97810
#
# Velocity S-wave (km/s) = 2.98946 3.75242 3.39246
# Velocity P-wave (km/s) = 6.04861 7.31923 6.71405
#
# Compressibility (1/GPa) = 0.02122620
#
# Stress axis : x y z
#
# Youngs Moduli (GPa) = 46.52726 109.07947 119.47455
#
# Poissons Ratio (x) = 0.55356 0.04776
# Poissons Ratio (y) = 0.23612 0.40950
# Poissons Ratio (z) = 0.01860 0.37387
#
# Static dielectric constant tensor:
#      x y z
#    x 3.125730 0.000000 0.000000 
#    y 0.000000 3.663650 0.000000 
#    z 0.000000 0.000000 3.528930 
# 
# 
# High freq. dielectric constant tensor:
#      x y z
#    x 1.683920 0.000000 0.000000 
#    y 0.000000 1.756510 0.000000 
#    z 0.000000 0.000000 1.751980 
# 
# From -- ./inp_files/3002.got.cif
#   From: 2010.03.12/outbox.cif.g09.slc.cpg/sg53_2_cif.got.tgz:3002.got - 2010.04.16 14:36:59.
