data_PCOD8217281
_publ_section_title
;
Structure prediction by ZEFSAII (Michael W. Deem and Ramdas Pophale) SiO2 
 PCOD8217281
Probable space group: P N N A
;
_chemical_formula_sum "Si O2"
_cell_formula_units_Z 36
_cell_length_a 11.854478
_cell_length_b 6.825508
_cell_length_c 20.734997
_cell_angle_alpha 90.000000
_cell_angle_beta 90.000000
_cell_angle_gamma 90.000000
_cell_volume 1677.727379
_symmetry_space_group_name_H-M "P N N A"
_symmetry_group_IT_number 52
_symmetry_cell_setting 'orthorhombic'
loop_
_space_group_symop_operation_xyz
x,y,z
1/2-x,-y,z
x,1/2-y,1/2-z
1/2-x,1/2+y,1/2-z
-x,-y,-z
1/2+x,y,-z
-x,1/2+y,1/2+z
1/2+x,1/2-y,1/2+z
loop_
_atom_site_type_symbol
_atom_site_label
_atom_site_fract_x
_atom_site_fract_y
_atom_site_fract_z
Si Si1 0.851640 0.637907 0.449798
Si Si2 0.376189 0.250000 0.250000
Si Si3 0.040707 0.351488 0.417922
Si Si4 0.250000 0.500000 0.346916
Si Si5 0.750000 0.000000 0.367332
Si Si6 0.023488 0.594056 0.805736
O O1 0.750000 0.500000 0.474243
O O2 0.931215 0.712753 0.508646
O O3 0.800884 0.823815 0.411274
O O4 0.933276 0.496381 0.407856
O O5 0.287729 0.321342 0.302740
O O6 0.458988 0.402282 0.216322
O O7 0.147593 0.463597 0.393247
O O8 0.024140 0.158382 0.375299
O O9 0.655791 0.933047 0.316929
O O10 0.001685 0.750000 0.750000
#
# Coordination Sequence:
#
# PCOD8217281 Si02
#       6
#     8   4   8   4   4   8
#     4  11  24  48  71 104 143 188 240 303 362 423
#     4  12  26  44  68 102 144 184 236 290 360 436
#     4  11  24  46  74 101 142 185 240 296 359 426
#     4  12  22  42  69  99 134 184 224 290 348 418
#     4  12  28  42  75 103 144 190 240 298 364 436
#     4  12  27  46  69 107 141 191 238 296 362 436
#
# _framework density 21.457598000000001
#
# number of rings (size 3 to 8) (size 9 to 14) (size 15 to 20)
#    0.000    0.444    5.556    2.667    1.556    2.667 
#    0.000    0.000    0.000    0.000    0.000    0.000 
#    0.000    0.000    0.000    0.000    0.000    0.000 
#
# Total GULP energy -446204.606544 kJ/mol
# GULP energy per Si atom -12394.572404 kJ/mol
# Density = 2.140876 g / cm^3
# Si number density = 21.457598 Si / 1000 Ang^3
#
#
#
# Elastic Constant Matrix: (Units=GPa)
#
#
# Indices 1 2 3 4 5 6 
#
# 1 121.7377 48.0697 35.9302 0.0000 0.0000 0.0000
# 2 48.0697 121.1531 50.3645 0.0000 0.0000 0.0000
# 3 35.9302 50.3645 90.0239 0.0000 0.0000 0.0000
# 4 0.0000 0.0000 0.0000 -332.0986 0.0000 0.0000
# 5 0.0000 0.0000 0.0000 0.0000 82.9662 0.0000
# 6 0.0000 0.0000 0.0000 0.0000 0.0000 154.7751
#
#
#
# Elastic Compliance Matrix: (Units=1/GPa)
#
#
# Indices 1 2 3 4 5 6 
#
# 1 0.010103 -0.003039 -0.002332 0.000000 0.000000 0.000000
# 2 -0.003039 0.011670 -0.005316 0.000000 0.000000 0.000000
# 3 -0.002332 -0.005316 0.015013 0.000000 0.000000 0.000000
# 4 0.000000 0.000000 0.000000 -0.003011 0.000000 0.000000
# 5 0.000000 0.000000 0.000000 0.000000 0.012053 0.000000
# 6 0.000000 0.000000 0.000000 0.000000 0.000000 0.006461
#
#
# Mechanical properties :
#
#
# Convention : Reuss Voigt Hill
#
# Bulk Modulus (GPa) = 64.88579 66.84927 65.86753
# Shear Modulus (GPa) = 63.45296 -5.63477 28.90909
#
# Velocity S-wave (km/s) = 5.44385 -1.62225 3.67449
# Velocity P-wave (km/s) = 8.35576 5.26430 6.98325
#
# Compressibility (1/GPa) = 0.01541169
#
# Stress axis : x y z
#
# Youngs Moduli (GPa) = 98.98412 85.69287 66.60974
#
# Poissons Ratio (x) = 0.26042 0.15533
# Poissons Ratio (y) = 0.30081 0.35408
# Poissons Ratio (z) = 0.23083 0.45552
#
# Static dielectric constant tensor:
#      x y z
#    x 4.728010 0.000000 0.000000 
#    y 0.000000 3.659050 0.000000 
#    z 0.000000 0.000000 -6.676630 
# 
# 
# High freq. dielectric constant tensor:
#      x y z
#    x 1.872740 0.000000 0.000000 
#    y 0.000000 1.834850 0.000000 
#    z 0.000000 0.000000 1.851260 
# 
# From -- ./inp_files/39960.got.cif
#   From: 2010.06.25/outbox.cif.g09.slc.cpg/sg52_20_cif.got.tgz:39960.got - 2010.06.26 19:32:48.
