data_PCOD8217152
_publ_section_title
;
Structure prediction by ZEFSAII (Michael W. Deem and Ramdas Pophale) SiO2 
 PCOD8217152
Probable space group: P N N A
;
_chemical_formula_sum "Si O2"
_cell_formula_units_Z 64
_cell_length_a 8.864758
_cell_length_b 30.398028
_cell_length_c 10.633851
_cell_angle_alpha 90.000000
_cell_angle_beta 90.000000
_cell_angle_gamma 90.000000
_cell_volume 2865.516184
_symmetry_space_group_name_H-M "P N N A"
_symmetry_group_IT_number 52
_symmetry_cell_setting 'orthorhombic'
loop_
_space_group_symop_operation_xyz
x,y,z
1/2-x,-y,z
x,1/2-y,1/2-z
1/2-x,1/2+y,1/2-z
-x,-y,-z
1/2+x,y,-z
-x,1/2+y,1/2+z
1/2+x,1/2-y,1/2+z
loop_
_atom_site_type_symbol
_atom_site_label
_atom_site_fract_x
_atom_site_fract_y
_atom_site_fract_z
Si Si1 0.832463 0.456022 0.734687
Si Si2 0.308647 0.622600 0.406732
Si Si3 0.829206 0.955936 0.299938
Si Si4 0.211191 0.096592 0.456204
Si Si5 0.931756 0.348542 0.102214
Si Si6 0.848844 0.388356 0.346807
Si Si7 0.307653 0.719635 0.368036
Si Si8 0.371241 0.250247 0.889420
O O1 0.750000 0.500000 0.686220
O O2 0.801618 0.415456 0.642108
O O3 0.010395 0.465468 0.736243
O O4 0.767411 0.443609 0.871307
O O5 0.481185 0.606980 0.397676
O O6 0.266676 0.630938 0.551774
O O7 0.268200 0.668843 0.337707
O O8 0.858213 0.923756 0.417433
O O9 0.712426 0.935606 0.199375
O O10 0.750000 0.000000 0.349755
O O11 0.347507 0.129525 0.484991
O O12 0.090000 0.125978 0.380771
O O13 0.838913 0.354369 0.230922
O O14 0.948476 0.297063 0.076750
O O15 0.256846 0.750000 0.250000
O O16 0.240982 0.736840 0.499845
O O17 0.488407 0.717038 0.383237
O O18 0.291819 0.250000 0.750000
#
# Coordination Sequence:
#
# PCOD8217152 Si02
#       8
#     8   8   8   8   8   8   8   8
#     4  12  26  42  69 101 136 183 231 283 349 416
#     4  12  24  45  69  94 139 183 235 286 352 404
#     4  11  25  43  65 102 138 172 230 285 351 421
#     4  11  23  39  70  97 137 181 222 283 346 412
#     4  11  22  42  67 101 137 182 227 286 349 412
#     4  11  24  43  69  95 132 183 228 285 345 416
#     4  11  25  42  68 102 139 185 232 293 348 422
#     4  11  24  42  67 101 142 183 237 288 349 418
#
# _framework density 22.334546
#
# number of rings (size 3 to 8) (size 9 to 14) (size 15 to 20)
#    0.000    0.750    2.500    5.625    3.500    2.000 
#    0.000    5.000    0.000    0.000    0.000    0.000 
#    0.000    0.000    0.000    0.000    0.000    0.000 
#
# Total GULP energy -793703.792900 kJ/mol
# GULP energy per Si atom -12401.621764 kJ/mol
# Density = 2.228371 g / cm^3
# Si number density = 22.334546 Si / 1000 Ang^3
#
#
#
# Elastic Constant Matrix: (Units=GPa)
#
#
# Indices 1 2 3 4 5 6 
#
# 1 101.7107 36.7288 40.3807 0.0000 0.0000 0.0000
# 2 36.7288 129.2524 37.0823 0.0000 0.0000 0.0000
# 3 40.3807 37.0823 120.0569 0.0000 0.0000 0.0000
# 4 0.0000 0.0000 0.0000 27.4274 0.0000 0.0000
# 5 0.0000 0.0000 0.0000 0.0000 37.2430 0.0000
# 6 0.0000 0.0000 0.0000 0.0000 0.0000 27.3497
#
#
#
# Elastic Compliance Matrix: (Units=1/GPa)
#
#
# Indices 1 2 3 4 5 6 
#
# 1 0.012029 -0.002477 -0.003281 0.000000 0.000000 0.000000
# 2 -0.002477 0.008999 -0.001946 0.000000 0.000000 0.000000
# 3 -0.003281 -0.001946 0.010034 0.000000 0.000000 0.000000
# 4 0.000000 0.000000 0.000000 0.036460 0.000000 0.000000
# 5 0.000000 0.000000 0.000000 0.000000 0.026851 0.000000
# 6 0.000000 0.000000 0.000000 0.000000 0.000000 0.036563
#
#
# Mechanical properties :
#
#
# Convention : Reuss Voigt Hill
#
# Bulk Modulus (GPa) = 63.88298 64.37817 64.13057
# Shear Modulus (GPa) = 32.98978 34.19258 33.59118
#
# Velocity S-wave (km/s) = 3.84744 3.91695 3.88235
# Velocity P-wave (km/s) = 6.95715 7.02451 6.99091
#
# Compressibility (1/GPa) = 0.01565362
#
# Stress axis : x y z
#
# Youngs Moduli (GPa) = 83.13414 111.12242 99.66043
#
# Poissons Ratio (x) = 0.27524 0.32696
# Poissons Ratio (y) = 0.20591 0.19399
# Poissons Ratio (z) = 0.27274 0.21630
#
# Static dielectric constant tensor:
#      x y z
#    x 3.880560 0.000000 0.000000 
#    y 0.000000 4.040810 0.000000 
#    z 0.000000 0.000000 4.063920 
# 
# 
# High freq. dielectric constant tensor:
#      x y z
#    x 1.870180 0.000000 0.000000 
#    y 0.000000 1.890920 0.000000 
#    z 0.000000 0.000000 1.883610 
# 
# From -- ./inp_files/17245.got.cif
#   From: 2010.06.25/outbox.cif.g09.slc.cpg/sg52_9_cif.got.tgz:17245.got - 2010.06.26 19:32:48.
