data_PCOD8217539
_publ_section_title
;
Structure prediction by ZEFSAII (Michael W. Deem and Ramdas Pophale) SiO2 
 PCOD8217539
Probable space group: P M N A
;
_chemical_formula_sum "Si O2"
_cell_formula_units_Z 48
_cell_length_a 8.845973
_cell_length_b 10.347920
_cell_length_c 29.908013
_cell_angle_alpha 90.000000
_cell_angle_beta 90.000000
_cell_angle_gamma 90.000000
_cell_volume 2737.702375
_symmetry_space_group_name_H-M "P M N A"
_symmetry_group_IT_number 53
_symmetry_cell_setting 'orthorhombic'
loop_
_space_group_symop_operation_xyz
x,y,z
1/2-x,-y,1/2+z
x,-y,-z
1/2-x,y,1/2-z
-x,-y,-z
1/2+x,y,1/2-z
-x,y,z
1/2+x,-y,1/2+z
loop_
_atom_site_type_symbol
_atom_site_label
_atom_site_fract_x
_atom_site_fract_y
_atom_site_fract_z
Si Si1 0.823078 0.378244 0.469634
Si Si2 0.823341 0.234496 0.792290
Si Si3 0.321866 0.521810 0.616176
Si Si4 0.825876 0.774396 0.109121
Si Si5 0.321412 0.128475 0.976476
Si Si6 0.678880 0.485441 0.205945
O O1 0.782985 0.500000 0.500000
O O2 0.729198 0.386984 0.424144
O O3 0.765484 0.251229 0.495207
O O4 0.000000 0.372297 0.458228
O O5 0.750000 0.155016 0.750000
O O6 0.801140 0.166718 0.840705
O O7 0.731693 0.366930 0.794251
O O8 0.000000 0.261983 0.783758
O O9 0.500000 0.527708 0.623310
O O10 0.268799 0.374165 0.607045
O O11 0.242516 0.578874 0.660635
O O12 0.735244 0.862506 0.074431
O O13 0.000000 0.779841 0.095403
O O14 0.500000 0.123897 0.974582
O O15 0.256075 0.000000 0.000000
O O16 0.750000 0.416331 0.250000
O O17 0.500000 0.473384 0.207347
#
# Coordination Sequence:
#
# PCOD8217539 Si02
#       6
#     8   8   8   8   8   8
#     4  10  19  32  50  72  95 125 164 201 241 292
#     4   9  16  26  40  64  94 125 159 197 240 288
#     4  10  19  30  46  70  97 126 163 203 246 289
#     4   9  18  30  45  67  96 127 160 198 240 289
#     4  10  21  35  50  70  97 128 164 204 246 292
#     4  10  17  26  41  63  95 130 161 196 242 292
#
# _framework density 17.53295
#
# number of rings (size 3 to 8) (size 9 to 14) (size 15 to 20)
#    0.000    2.333    1.667    4.500    0.000    4.667 
#    0.000    0.000    0.000    0.000    0.000    1.167 
#    0.000    2.667    0.000    0.000    0.000    0.000 
#
# Total GULP energy -594959.406815 kJ/mol
# GULP energy per Si atom -12394.987642 kJ/mol
# Density = 1.749304 g / cm^3
# Si number density = 17.532950 Si / 1000 Ang^3
#
#
#
# Elastic Constant Matrix: (Units=GPa)
#
#
# Indices 1 2 3 4 5 6 
#
# 1 82.0667 20.3131 60.0128 0.0000 0.0000 0.0000
# 2 20.3131 64.5194 43.7005 0.0000 0.0000 0.0000
# 3 60.0128 43.7005 170.0196 0.0000 0.0000 0.0000
# 4 0.0000 0.0000 0.0000 14.2936 0.0000 0.0000
# 5 0.0000 0.0000 0.0000 0.0000 38.3554 0.0000
# 6 0.0000 0.0000 0.0000 0.0000 0.0000 9.4525
#
#
#
# Elastic Compliance Matrix: (Units=1/GPa)
#
#
# Indices 1 2 3 4 5 6 
#
# 1 0.016547 -0.001518 -0.005450 0.000000 0.000000 0.000000
# 2 -0.001518 0.018906 -0.004324 0.000000 0.000000 0.000000
# 3 -0.005450 -0.004324 0.008917 0.000000 0.000000 0.000000
# 4 0.000000 0.000000 0.000000 0.069961 0.000000 0.000000
# 5 0.000000 0.000000 0.000000 0.000000 0.026072 0.000000
# 6 0.000000 0.000000 0.000000 0.000000 0.000000 0.105792
#
#
# Mechanical properties :
#
#
# Convention : Reuss Voigt Hill
#
# Bulk Modulus (GPa) = 45.90233 62.73983 54.32108
# Shear Modulus (GPa) = 18.11331 25.25892 21.68611
#
# Velocity S-wave (km/s) = 3.21768 3.79971 3.52074
# Velocity P-wave (km/s) = 6.32788 7.42375 6.89761
#
# Compressibility (1/GPa) = 0.02178539
#
# Stress axis : x y z
#
# Youngs Moduli (GPa) = 60.43529 52.89459 112.14722
#
# Poissons Ratio (x) = 0.08028 0.61125
# Poissons Ratio (y) = 0.09173 0.48488
# Poissons Ratio (z) = 0.32940 0.22869
#
# Static dielectric constant tensor:
#      x y z
#    x 3.214000 0.000000 0.000000 
#    y 0.000000 2.812100 0.000000 
#    z 0.000000 0.000000 4.033630 
# 
# 
# High freq. dielectric constant tensor:
#      x y z
#    x 1.682350 0.000000 0.000000 
#    y 0.000000 1.600670 0.000000 
#    z 0.000000 0.000000 1.706300 
# 
# From -- ./inp_files/37924.got.cif
#   From: 2010.03.12/outbox.cif.g09.slc.cpg/sg53_19_cif.got.tgz:37924.got - 2010.04.16 14:36:59.
