data_PCOD8217900
_publ_section_title
;
Structure prediction by ZEFSAII (Michael W. Deem and Ramdas Pophale) SiO2 
 PCOD8217900
Probable space group: P M N A
;
_chemical_formula_sum "Si O2"
_cell_formula_units_Z 48
_cell_length_a 9.103526
_cell_length_b 12.073908
_cell_length_c 26.168011
_cell_angle_alpha 90.000000
_cell_angle_beta 90.000000
_cell_angle_gamma 90.000000
_cell_volume 2876.260472
_symmetry_space_group_name_H-M "P M N A"
_symmetry_group_IT_number 53
_symmetry_cell_setting 'orthorhombic'
loop_
_space_group_symop_operation_xyz
x,y,z
1/2-x,-y,1/2+z
x,-y,-z
1/2-x,y,1/2-z
-x,-y,-z
1/2+x,y,1/2-z
-x,y,z
1/2+x,-y,1/2+z
loop_
_atom_site_type_symbol
_atom_site_label
_atom_site_fract_x
_atom_site_fract_y
_atom_site_fract_z
Si Si1 0.170309 0.289194 0.938312
Si Si2 0.672055 0.956624 0.445949
Si Si3 0.825770 0.343239 0.461583
Si Si4 0.828979 0.172854 0.106409
Si Si5 0.669069 0.498160 0.385969
Si Si6 0.669694 0.671609 0.696958
O O1 0.232932 0.164644 0.929452
O O2 0.188410 0.367668 0.887616
O O3 0.000000 0.285325 0.954823
O O4 0.263522 0.350233 0.981564
O O5 0.500000 0.945300 0.454020
O O6 0.740323 0.000000 0.500000
O O7 0.706759 0.041980 0.399455
O O8 0.767817 0.230322 0.436771
O O9 0.769414 0.448223 0.430228
O O10 0.000000 0.344516 0.462905
O O11 0.787644 0.221710 0.162009
O O12 0.000000 0.196879 0.094777
O O13 0.500000 0.464271 0.396812
O O14 0.714958 0.443181 0.331741
O O15 0.750000 0.681750 0.750000
O O16 0.500000 0.672311 0.710209
#
# Coordination Sequence:
#
# PCOD8217900 Si02
#       6
#     8   8   8   8   8   8
#     4  10  18  30  48  67  92 128 162 191 226 271
#     4   9  15  26  49  73  92 121 161 195 221 261
#     4  11  20  28  42  67  99 130 158 190 229 273
#     4   9  17  32  50  70  95 123 160 197 229 273
#     4   9  19  33  48  67  91 121 159 196 231 277
#     4   9  18  32  51  71  90 115 151 198 244 284
#
# _framework density 16.688337000000001
#
# number of rings (size 3 to 8) (size 9 to 14) (size 15 to 20)
#    0.000    2.500    1.667    3.000    0.000    5.333 
#    0.000    1.667    0.000    1.000    0.000    0.000 
#    0.000    0.000    0.000    0.000    0.000    0.667 
#
# Total GULP energy -594730.041436 kJ/mol
# GULP energy per Si atom -12390.209197 kJ/mol
# Density = 1.665035 g / cm^3
# Si number density = 16.688337 Si / 1000 Ang^3
#
#
#
# Elastic Constant Matrix: (Units=GPa)
#
#
# Indices 1 2 3 4 5 6 
#
# 1 53.3108 21.4739 28.5431 0.0000 0.0000 0.0000
# 2 21.4739 128.2111 60.1866 0.0000 0.0000 0.0000
# 3 28.5431 60.1866 103.2964 0.0000 0.0000 0.0000
# 4 0.0000 0.0000 0.0000 15.4311 0.0000 0.0000
# 5 0.0000 0.0000 0.0000 0.0000 22.1253 0.0000
# 6 0.0000 0.0000 0.0000 0.0000 0.0000 5.8900
#
#
#
# Elastic Compliance Matrix: (Units=1/GPa)
#
#
# Indices 1 2 3 4 5 6 
#
# 1 0.022138 -0.001151 -0.005446 0.000000 0.000000 0.000000
# 2 -0.001151 0.010796 -0.005972 0.000000 0.000000 0.000000
# 3 -0.005446 -0.005972 0.014666 0.000000 0.000000 0.000000
# 4 0.000000 0.000000 0.000000 0.064804 0.000000 0.000000
# 5 0.000000 0.000000 0.000000 0.000000 0.045197 0.000000
# 6 0.000000 0.000000 0.000000 0.000000 0.000000 0.169778
#
#
# Mechanical properties :
#
#
# Convention : Reuss Voigt Hill
#
# Bulk Modulus (GPa) = 44.52422 56.13616 50.33019
# Shear Modulus (GPa) = 13.88868 20.33027 17.10948
#
# Velocity S-wave (km/s) = 2.88798 3.49410 3.20540
# Velocity P-wave (km/s) = 6.15292 7.07031 6.62751
#
# Compressibility (1/GPa) = 0.02245969
#
# Stress axis : x y z
#
# Youngs Moduli (GPa) = 45.17182 92.62646 68.18627
#
# Poissons Ratio (x) = 0.10662 0.37137
# Poissons Ratio (y) = 0.05200 0.40723
# Poissons Ratio (z) = 0.24603 0.55320
#
# Static dielectric constant tensor:
#      x y z
#    x 2.895530 0.000000 0.000000 
#    y 0.000000 3.491100 0.000000 
#    z 0.000000 0.000000 2.877030 
# 
# 
# High freq. dielectric constant tensor:
#      x y z
#    x 1.619580 0.000000 0.000000 
#    y 0.000000 1.652840 0.000000 
#    z 0.000000 0.000000 1.605190 
# 
# From -- ./inp_files/36158.got.cif
#   From: 2010.03.12/outbox.cif.g09.slc.cpg/sg53_19_cif.got.tgz:36158.got - 2010.04.16 14:36:59.
