data_PCOD8217048
_publ_section_title
;
Structure prediction by ZEFSAII (Michael W. Deem and Ramdas Pophale) SiO2 
 PCOD8217048
Probable space group: P N N A
;
_chemical_formula_sum "Si O2"
_cell_formula_units_Z 40
_cell_length_a 12.016864
_cell_length_b 8.825346
_cell_length_c 20.691726
_cell_angle_alpha 90.000000
_cell_angle_beta 90.000000
_cell_angle_gamma 90.000000
_cell_volume 2194.419258
_symmetry_space_group_name_H-M "P N N A"
_symmetry_group_IT_number 52
_symmetry_cell_setting 'orthorhombic'
loop_
_space_group_symop_operation_xyz
x,y,z
1/2-x,-y,z
x,1/2-y,1/2-z
1/2-x,1/2+y,1/2-z
-x,-y,-z
1/2+x,y,-z
-x,1/2+y,1/2+z
1/2+x,1/2-y,1/2+z
loop_
_atom_site_type_symbol
_atom_site_label
_atom_site_fract_x
_atom_site_fract_y
_atom_site_fract_z
Si Si1 0.728564 0.329663 0.550587
Si Si2 0.198088 0.837885 0.815580
Si Si3 0.317949 0.845670 0.579309
Si Si4 0.964669 0.281723 0.554130
Si Si5 0.507640 0.880144 0.085826
O O1 0.750000 0.500000 0.526104
O O2 0.706695 0.233399 0.487672
O O3 0.840644 0.263981 0.585153
O O4 0.621687 0.330812 0.598199
O O5 0.175802 0.750000 0.750000
O O6 0.287820 0.752252 0.858816
O O7 0.079676 0.840377 0.851830
O O8 0.250000 0.000000 0.799006
O O9 0.454613 0.855212 0.578772
O O10 0.250000 0.000000 0.583098
O O11 0.947948 0.285332 0.476103
O O12 0.021040 0.440729 0.573812
#
# Coordination Sequence:
#
# PCOD8217048 Si02
#       5
#     8   8   8   8   8
#     4   9  17  32  56  83 109 143 184 233 294 343
#     4  12  23  39  57  78 110 151 194 237 277 354
#     4  11  21  32  50  84 119 148 183 230 291 343
#     4   9  16  31  57  84 112 142 181 238 288 343
#     4   9  17  31  57  84 106 141 190 234 283 347
#
# _framework density 18.228057
#
# number of rings (size 3 to 8) (size 9 to 14) (size 15 to 20)
#    0.000    2.000    4.000    2.400    0.000    0.800 
#    0.000    0.000    0.000    1.200    5.200    0.000 
#    0.000    0.000    0.000    0.000    0.000    0.000 
#
# Total GULP energy -495586.229697 kJ/mol
# GULP energy per Si atom -12389.655742 kJ/mol
# Density = 1.818657 g / cm^3
# Si number density = 18.228057 Si / 1000 Ang^3
#
#
#
# Elastic Constant Matrix: (Units=GPa)
#
#
# Indices 1 2 3 4 5 6 
#
# 1 162.6003 48.8050 34.3646 0.0000 0.0000 0.0000
# 2 48.8050 76.7461 38.7102 0.0000 0.0000 0.0000
# 3 34.3646 38.7102 79.8210 0.0000 0.0000 0.0000
# 4 0.0000 0.0000 0.0000 22.6802 0.0000 0.0000
# 5 0.0000 0.0000 0.0000 0.0000 34.5083 0.0000
# 6 0.0000 0.0000 0.0000 0.0000 0.0000 233.4923
#
#
#
# Elastic Compliance Matrix: (Units=1/GPa)
#
#
# Indices 1 2 3 4 5 6 
#
# 1 0.007693 -0.004265 -0.001244 0.000000 0.000000 0.000000
# 2 -0.004265 0.019614 -0.007676 0.000000 0.000000 0.000000
# 3 -0.001244 -0.007676 0.016786 0.000000 0.000000 0.000000
# 4 0.000000 0.000000 0.000000 0.044091 0.000000 0.000000
# 5 0.000000 0.000000 0.000000 0.000000 0.028979 0.000000
# 6 0.000000 0.000000 0.000000 0.000000 0.000000 0.004283
#
#
# Mechanical properties :
#
#
# Convention : Reuss Voigt Hill
#
# Bulk Modulus (GPa) = 56.42090 62.54745 59.48417
# Shear Modulus (GPa) = 32.52621 71.28867 51.90744
#
# Velocity S-wave (km/s) = 4.22880 6.26053 5.34214
# Velocity P-wave (km/s) = 7.40700 9.30845 8.41163
#
# Compressibility (1/GPa) = 0.01772393
#
# Stress axis : x y z
#
# Youngs Moduli (GPa) = 129.98802 50.98461 59.57369
#
# Poissons Ratio (x) = 0.21744 0.07409
# Poissons Ratio (y) = 0.55439 0.45728
# Poissons Ratio (z) = 0.16166 0.39135
#
# Static dielectric constant tensor:
#      x y z
#    x 4.118290 0.000000 0.000000 
#    y 0.000000 3.352370 0.000000 
#    z 0.000000 0.000000 3.059490 
# 
# 
# High freq. dielectric constant tensor:
#      x y z
#    x 1.735000 0.000000 0.000000 
#    y 0.000000 1.690170 0.000000 
#    z 0.000000 0.000000 1.649850 
# 
# From -- ./inp_files/36623.got.cif
#   From: 2010.06.25/outbox.cif.g09.slc.cpg/sg52_19_cif.got.tgz:36623.got - 2010.06.26 19:32:48.
