data_PCOD8217624
_publ_section_title
;
Structure prediction by ZEFSAII (Michael W. Deem and Ramdas Pophale) SiO2 
 PCOD8217624
Probable space group: P M N A
;
_chemical_formula_sum "Si O2"
_cell_formula_units_Z 64
_cell_length_a 16.601014
_cell_length_b 10.288637
_cell_length_c 25.468659
_cell_angle_alpha 90.000000
_cell_angle_beta 90.000000
_cell_angle_gamma 90.000000
_cell_volume 4350.092976
_symmetry_space_group_name_H-M "P M N A"
_symmetry_group_IT_number 53
_symmetry_cell_setting 'orthorhombic'
loop_
_space_group_symop_operation_xyz
x,y,z
1/2-x,-y,1/2+z
x,-y,-z
1/2-x,y,1/2-z
-x,-y,-z
1/2+x,y,1/2-z
-x,y,z
1/2+x,-y,1/2+z
loop_
_atom_site_type_symbol
_atom_site_label
_atom_site_fract_x
_atom_site_fract_y
_atom_site_fract_z
Si Si1 0.679940 0.685064 0.788677
Si Si2 0.593970 0.851992 0.866787
Si Si3 0.239287 0.477185 0.852701
Si Si4 0.405598 0.856850 0.128854
Si Si5 0.842363 0.620942 0.437392
Si Si6 0.406360 0.519091 0.284470
Si Si7 0.591744 0.358386 0.047888
Si Si8 0.675363 0.730419 0.221063
O O1 0.750000 0.733508 0.750000
O O2 0.635505 0.811199 0.812053
O O3 0.717827 0.613485 0.839556
O O4 0.618360 0.593894 0.756362
O O5 0.500000 0.846299 0.855245
O O6 0.618183 0.754530 0.913135
O O7 0.619661 0.996053 0.885530
O O8 0.256274 0.428176 0.912741
O O9 0.144313 0.489728 0.839188
O O10 0.281454 0.377859 0.813534
O O11 0.500000 0.836225 0.126901
O O12 0.367014 0.756328 0.088462
O O13 0.374266 0.833600 0.187587
O O14 0.843680 0.644491 0.499965
O O15 0.903640 0.500953 0.424628
O O16 0.500000 0.506222 0.298501
O O17 0.388093 0.659959 0.259487
O O18 0.500000 0.336731 0.027788
O O19 0.750000 0.803217 0.250000
#
# Coordination Sequence:
#
# PCOD8217624 Si02
#       8
#     8   8   8   8   8   8   8   8
#     4   9  16  28  42  58  83 112 143 169 200 243
#     4  10  20  30  39  60  89 112 140 175 206 241
#     4   8  15  26  41  61  83 105 137 176 209 245
#     4  10  19  28  40  58  85 117 141 169 212 246
#     4  10  17  30  45  60  81 107 141 177 204 246
#     4   9  15  24  42  65  85 108 137 172 211 247
#     4  10  19  29  45  64  81 108 148 178 205 246
#     4   8  15  26  39  58  82 110 142 173 201 245
#
# _framework density 14.712329
#
# number of rings (size 3 to 8) (size 9 to 14) (size 15 to 20)
#    0.000    2.750    1.250    3.750    0.000    1.000 
#    0.000    1.875    0.000    0.000    0.000    1.750 
#    0.000    0.000    0.000   11.375    0.000    2.000 
#
# Total GULP energy -792869.920487 kJ/mol
# GULP energy per Si atom -12388.592508 kJ/mol
# Density = 1.467884 g / cm^3
# Si number density = 14.712329 Si / 1000 Ang^3
#
#
#
# Elastic Constant Matrix: (Units=GPa)
#
#
# Indices 1 2 3 4 5 6 
#
# 1 78.7861 28.4892 36.0574 0.0000 0.0000 0.0000
# 2 28.4892 96.7229 39.7334 0.0000 0.0000 0.0000
# 3 36.0574 39.7334 68.3905 0.0000 0.0000 0.0000
# 4 0.0000 0.0000 0.0000 9173.7513 0.0000 0.0000
# 5 0.0000 0.0000 0.0000 0.0000 21.9374 0.0000
# 6 0.0000 0.0000 0.0000 0.0000 0.0000 16.5586
#
#
#
# Elastic Compliance Matrix: (Units=1/GPa)
#
#
# Indices 1 2 3 4 5 6 
#
# 1 0.016948 -0.001735 -0.007927 0.000000 0.000000 0.000000
# 2 -0.001735 0.013758 -0.007078 0.000000 0.000000 0.000000
# 3 -0.007927 -0.007078 0.022913 0.000000 0.000000 0.000000
# 4 0.000000 0.000000 0.000000 0.000109 0.000000 0.000000
# 5 0.000000 0.000000 0.000000 0.000000 0.045584 0.000000
# 6 0.000000 0.000000 0.000000 0.000000 0.000000 0.060391
#
#
# Mechanical properties :
#
#
# Convention : Reuss Voigt Hill
#
# Bulk Modulus (GPa) = 49.65744 50.27330 49.96537
# Shear Modulus (GPa) = 25.01277 1851.75741 938.38509
#
# Velocity S-wave (km/s) = 4.12773 35.51585 25.28254
# Velocity P-wave (km/s) = 7.51951 41.42559 29.77098
#
# Compressibility (1/GPa) = 0.02013797
#
# Stress axis : x y z
#
# Youngs Moduli (GPa) = 59.00342 72.68741 43.64242
#
# Poissons Ratio (x) = 0.12615 0.34597
# Poissons Ratio (y) = 0.10240 0.30889
# Poissons Ratio (z) = 0.46774 0.51447
#
# Static dielectric constant tensor:
#      x y z
#    x 2.795110 0.000000 0.000000 
#    y 0.000000 2.867670 0.000000 
#    z 0.000000 0.000000 2.987710 
# 
# 
# High freq. dielectric constant tensor:
#      x y z
#    x 1.538260 0.000000 0.000000 
#    y 0.000000 1.556060 0.000000 
#    z 0.000000 0.000000 1.547640 
# 
# From -- ./inp_files/38939.got.cif
#   From: 2010.03.12/outbox.cif.g09.slc.cpg/sg53_20_cif.got.tgz:38939.got - 2010.04.16 14:36:59.
