data_PCOD8217717
_publ_section_title
;
Structure prediction by ZEFSAII (Michael W. Deem and Ramdas Pophale) SiO2 
 PCOD8217717
Probable space group: P M N A
;
_chemical_formula_sum "Si O2"
_cell_formula_units_Z 64
_cell_length_a 9.144085
_cell_length_b 13.755528
_cell_length_c 32.334319
_cell_angle_alpha 90.000000
_cell_angle_beta 90.000000
_cell_angle_gamma 90.000000
_cell_volume 4067.066170
_symmetry_space_group_name_H-M "P M N A"
_symmetry_group_IT_number 53
_symmetry_cell_setting 'orthorhombic'
loop_
_space_group_symop_operation_xyz
x,y,z
1/2-x,-y,1/2+z
x,-y,-z
1/2-x,y,1/2-z
-x,-y,-z
1/2+x,y,1/2-z
-x,y,z
1/2+x,-y,1/2+z
loop_
_atom_site_type_symbol
_atom_site_label
_atom_site_fract_x
_atom_site_fract_y
_atom_site_fract_z
Si Si1 0.834514 0.498187 0.790783
Si Si2 0.669556 0.778606 0.019007
Si Si3 0.835219 0.496427 0.371601
Si Si4 0.664811 0.270054 0.289588
Si Si5 0.828014 0.439986 0.539452
Si Si6 0.828227 0.840920 0.938313
Si Si7 0.164280 0.266343 0.368298
Si Si8 0.339900 0.022110 0.951490
O O1 0.750000 0.459061 0.750000
O O2 0.758217 0.460590 0.833193
O O3 0.835070 0.614027 0.790240
O O4 0.000000 0.457924 0.789637
O O5 0.500000 0.780255 0.003401
O O6 0.711446 0.673489 0.036393
O O7 0.692679 0.862234 0.054215
O O8 0.781600 0.804157 0.983046
O O9 0.764220 0.524433 0.416242
O O10 0.839198 0.381549 0.368320
O O11 0.000000 0.538626 0.367974
O O12 0.750000 0.229913 0.250000
O O13 0.500000 0.229663 0.289301
O O14 0.749723 0.226433 0.328653
O O15 0.761703 0.500000 0.500000
O O16 0.000000 0.459368 0.539955
O O17 0.750718 0.767165 0.908007
O O18 0.000000 0.834536 0.932774
O O19 0.778373 0.952563 0.929512
O O20 0.000000 0.224324 0.368121
O O21 0.500000 0.997416 0.933026
O O22 0.339244 0.000000 0.000000
#
# Coordination Sequence:
#
# PCOD8217717 Si02
#       8
#     8   8   8   8   8   8   8   8
#     4   9  16  26  41  59  81 108 139 176 216 255
#     4   9  17  30  46  61  80 109 142 174 209 249
#     4   9  17  28  43  62  84 112 146 179 210 247
#     4   9  16  26  39  57  81 109 140 170 203 245
#     4   9  16  27  44  64  85 113 149 181 206 241
#     4  11  20  28  41  61  83 106 136 175 215 252
#     4  10  18  28  42  59  82 112 142 173 208 245
#     4   8  15  28  44  60  78 102 133 169 208 249
#
# _framework density 15.736159000000001
#
# number of rings (size 3 to 8) (size 9 to 14) (size 15 to 20)
#    0.000    2.750    0.000    3.750    0.000    7.750 
#    0.000    0.625    0.000    1.500    0.000    0.000 
#    0.000    1.000    0.000    5.000    0.000    3.750 
#
# Total GULP energy -793155.120147 kJ/mol
# GULP energy per Si atom -12393.048752 kJ/mol
# Density = 1.570034 g / cm^3
# Si number density = 15.736159 Si / 1000 Ang^3
#
#
#
# Elastic Constant Matrix: (Units=GPa)
#
#
# Indices 1 2 3 4 5 6 
#
# 1 111.3884 15.8041 42.4383 0.0000 0.0000 0.0000
# 2 15.8041 36.4672 11.5374 0.0000 0.0000 0.0000
# 3 42.4383 11.5374 92.3839 0.0000 0.0000 0.0000
# 4 0.0000 0.0000 0.0000 7.6506 0.0000 0.0000
# 5 0.0000 0.0000 0.0000 0.0000 26.3838 0.0000
# 6 0.0000 0.0000 0.0000 0.0000 0.0000 13.5714
#
#
#
# Elastic Compliance Matrix: (Units=1/GPa)
#
#
# Indices 1 2 3 4 5 6 
#
# 1 0.011268 -0.003379 -0.004754 0.000000 0.000000 0.000000
# 2 -0.003379 0.029563 -0.002140 0.000000 0.000000 0.000000
# 3 -0.004754 -0.002140 0.013276 0.000000 0.000000 0.000000
# 4 0.000000 0.000000 0.000000 0.130709 0.000000 0.000000
# 5 0.000000 0.000000 0.000000 0.000000 0.037902 0.000000
# 6 0.000000 0.000000 0.000000 0.000000 0.000000 0.073684
#
#
# Mechanical properties :
#
#
# Convention : Reuss Voigt Hill
#
# Bulk Modulus (GPa) = 29.79674 42.19988 35.99831
# Shear Modulus (GPa) = 15.23757 20.88515 18.06136
#
# Velocity S-wave (km/s) = 3.11515 3.64704 3.39154
# Velocity P-wave (km/s) = 5.64936 6.67906 6.18567
#
# Compressibility (1/GPa) = 0.03356072
#
# Stress axis : x y z
#
# Youngs Moduli (GPa) = 88.74350 33.82570 75.32619
#
# Poissons Ratio (x) = 0.11431 0.35813
# Poissons Ratio (y) = 0.29989 0.16117
# Poissons Ratio (z) = 0.42192 0.07238
#
# Static dielectric constant tensor:
#      x y z
#    x 3.078260 0.000000 0.000000 
#    y 0.000000 2.888620 0.000000 
#    z 0.000000 0.000000 3.077250 
# 
# 
# High freq. dielectric constant tensor:
#      x y z
#    x 1.600890 0.000000 0.000000 
#    y 0.000000 1.562510 0.000000 
#    z 0.000000 0.000000 1.589920 
# 
# From -- ./inp_files/38522.got.cif
#   From: 2010.03.12/outbox.cif.g09.slc.cpg/sg53_20_cif.got.tgz:38522.got - 2010.04.16 14:36:59.
