data_PCOD8217125
_publ_section_title
;
Structure prediction by ZEFSAII (Michael W. Deem and Ramdas Pophale) SiO2 
 PCOD8217125
Probable space group: P N N A
;
_chemical_formula_sum "Si O2"
_cell_formula_units_Z 60
_cell_length_a 25.626299
_cell_length_b 5.583723
_cell_length_c 18.945839
_cell_angle_alpha 90.000000
_cell_angle_beta 90.000000
_cell_angle_gamma 90.000000
_cell_volume 2710.963042
_symmetry_space_group_name_H-M "P N N A"
_symmetry_group_IT_number 52
_symmetry_cell_setting 'orthorhombic'
loop_
_space_group_symop_operation_xyz
x,y,z
1/2-x,-y,z
x,1/2-y,1/2-z
1/2-x,1/2+y,1/2-z
-x,-y,-z
1/2+x,y,-z
-x,1/2+y,1/2+z
1/2+x,1/2-y,1/2+z
loop_
_atom_site_type_symbol
_atom_site_label
_atom_site_fract_x
_atom_site_fract_y
_atom_site_fract_z
Si Si1 0.694904 0.558981 0.633850
Si Si2 0.041103 0.995980 0.347916
Si Si3 0.954763 0.333061 0.527066
Si Si4 0.380932 0.721270 0.441899
Si Si5 0.219682 0.749374 0.987206
Si Si6 0.617532 0.750000 0.750000
Si Si7 0.570679 0.991299 0.290377
Si Si8 0.381735 0.432582 0.935724
O O1 0.750000 0.500000 0.671546
O O2 0.671616 0.307513 0.603975
O O3 0.703827 0.746809 0.570209
O O4 0.653557 0.653737 0.688678
O O5 0.027944 0.767611 0.397007
O O6 0.080154 0.950659 0.282846
O O7 0.069092 0.181563 0.399632
O O8 0.987320 0.083300 0.314622
O O9 0.898791 0.457085 0.536551
O O10 0.939368 0.146530 0.465212
O O11 0.000000 0.500000 0.500000
O O12 0.364065 0.855685 0.512255
O O13 0.250000 0.500000 0.970858
O O14 0.166912 0.752502 0.938979
O O15 0.250000 0.000000 0.969514
O O16 0.590395 0.750000 0.250000
O O17 0.609480 0.024626 0.356486
O O18 0.571254 0.250000 0.250000
#
# Coordination Sequence:
#
# PCOD8217125 Si02
#       8
#     8   8   8   8   8   4   8   8
#     4  11  24  41  64  99 140 186 249 305 349 422
#     4  11  25  42  62  95 138 195 248 289 355 431
#     4  11  22  39  69 100 132 177 243 305 356 411
#     4  11  22  42  69  96 130 188 244 316 353 407
#     4  11  24  45  76 108 139 178 237 309 369 422
#     4  12  24  40  58  88 144 198 246 282 360 416
#     4  12  30  46  71 107 148 194 228 291 361 462
#     4  11  24  44  72 105 141 181 237 302 372 428
#
# _framework density 22.132355
#
# number of rings (size 3 to 8) (size 9 to 14) (size 15 to 20)
#    0.000    0.800    3.333    4.000    7.467    3.733 
#    0.000    0.000    0.000    1.600    0.000    0.000 
#    0.000    0.000    0.000    0.000    0.000    0.000 
#
# Total GULP energy -743453.560677 kJ/mol
# GULP energy per Si atom -12390.892678 kJ/mol
# Density = 2.208198 g / cm^3
# Si number density = 22.132355 Si / 1000 Ang^3
#
#
#
# Elastic Constant Matrix: (Units=GPa)
#
#
# Indices 1 2 3 4 5 6 
#
# 1 102.6260 23.0368 49.2615 0.0000 0.0000 0.0000
# 2 23.0368 91.5895 28.8661 0.0000 0.0000 0.0000
# 3 49.2615 28.8661 97.6034 0.0000 0.0000 0.0000
# 4 0.0000 0.0000 0.0000 20.2483 0.0000 0.0000
# 5 0.0000 0.0000 0.0000 0.0000 16.1719 0.0000
# 6 0.0000 0.0000 0.0000 0.0000 0.0000 32.7748
#
#
#
# Elastic Compliance Matrix: (Units=1/GPa)
#
#
# Indices 1 2 3 4 5 6 
#
# 1 0.013004 -0.001326 -0.006171 0.000000 0.000000 0.000000
# 2 -0.001326 0.012176 -0.002932 0.000000 0.000000 0.000000
# 3 -0.006171 -0.002932 0.014227 0.000000 0.000000 0.000000
# 4 0.000000 0.000000 0.000000 0.049387 0.000000 0.000000
# 5 0.000000 0.000000 0.000000 0.000000 0.061836 0.000000
# 6 0.000000 0.000000 0.000000 0.000000 0.000000 0.030511
#
#
# Mechanical properties :
#
#
# Convention : Reuss Voigt Hill
#
# Bulk Modulus (GPa) = 53.90998 54.90530 54.40764
# Shear Modulus (GPa) = 24.01749 26.54929 25.28339
#
# Velocity S-wave (km/s) = 3.29777 3.46724 3.38357
# Velocity P-wave (km/s) = 6.23789 6.39457 6.31672
#
# Compressibility (1/GPa) = 0.01854944
#
# Stress axis : x y z
#
# Youngs Moduli (GPa) = 76.89979 82.13032 70.28756
#
# Poissons Ratio (x) = 0.10889 0.43375
# Poissons Ratio (y) = 0.10196 0.20607
# Poissons Ratio (z) = 0.47456 0.24079
#
# Static dielectric constant tensor:
#      x y z
#    x 4.149050 0.000000 0.000000 
#    y 0.000000 4.116900 0.000000 
#    z 0.000000 0.000000 4.017850 
# 
# 
# High freq. dielectric constant tensor:
#      x y z
#    x 1.883380 0.000000 0.000000 
#    y 0.000000 1.869170 0.000000 
#    z 0.000000 0.000000 1.853750 
# 
# From -- ./inp_files/34484.got.cif
#   From: 2010.06.25/outbox.cif.g09.slc.cpg/sg52_18_cif.got.tgz:34484.got - 2010.06.26 19:32:48.
