data_PCOD8217679
_publ_section_title
;
Structure prediction by ZEFSAII (Michael W. Deem and Ramdas Pophale) SiO2 
 PCOD8217679
Probable space group: P M N A
;
_chemical_formula_sum "Si O2"
_cell_formula_units_Z 64
_cell_length_a 9.038272
_cell_length_b 26.614460
_cell_length_c 18.075286
_cell_angle_alpha 90.000000
_cell_angle_beta 90.000000
_cell_angle_gamma 90.000000
_cell_volume 4347.987067
_symmetry_space_group_name_H-M "P M N A"
_symmetry_group_IT_number 53
_symmetry_cell_setting 'orthorhombic'
loop_
_space_group_symop_operation_xyz
x,y,z
1/2-x,-y,1/2+z
x,-y,-z
1/2-x,y,1/2-z
-x,-y,-z
1/2+x,y,1/2-z
-x,y,z
1/2+x,-y,1/2+z
loop_
_atom_site_type_symbol
_atom_site_label
_atom_site_fract_x
_atom_site_fract_y
_atom_site_fract_z
Si Si1 0.175326 0.009804 0.828340
Si Si2 0.672814 0.494234 0.828461
Si Si3 0.671763 0.397869 0.926579
Si Si4 0.672205 0.195303 0.824784
Si Si5 0.673475 0.099547 0.912322
Si Si6 0.166805 0.549433 0.950591
Si Si7 0.173854 0.308024 0.674162
Si Si8 0.163343 0.047401 0.446507
O O1 0.250000 0.000304 0.750000
O O2 0.231777 0.062165 0.861730
O O3 0.000000 0.011533 0.819977
O O4 0.220463 0.962786 0.880999
O O5 0.750000 0.493245 0.750000
O O6 0.500000 0.503864 0.818193
O O7 0.706281 0.441401 0.867676
O O8 0.739473 0.540021 0.876413
O O9 0.500000 0.397741 0.947784
O O10 0.723872 0.345134 0.891328
O O11 0.762181 0.405239 0.002344
O O12 0.750000 0.177320 0.750000
O O13 0.500000 0.194594 0.807452
O O14 0.713213 0.156612 0.890110
O O15 0.722636 0.251419 0.848122
O O16 0.500000 0.087299 0.899137
O O17 0.712954 0.093476 0.999762
O O18 0.000000 0.564012 0.928718
O O19 0.171719 0.500000 0.000000
O O20 0.250000 0.324915 0.750000
O O21 0.000000 0.312619 0.687270
O O22 0.000000 0.057457 0.412369
O O23 0.155776 0.000000 0.500000
#
# Coordination Sequence:
#
# PCOD8217679 Si02
#       8
#     8   8   8   8   8   8   8   8
#     4  11  20  28  40  58  80 105 134 165 197 235
#     4  10  18  27  40  58  81 107 135 165 198 236
#     4   9  17  28  41  57  79 108 137 166 200 235
#     4   9  17  28  41  58  80 107 137 168 199 230
#     4   9  17  29  43  58  79 107 136 165 199 236
#     4   9  17  28  41  57  77 102 133 167 200 236
#     4   9  17  28  41  58  81 107 137 170 200 231
#     4   8  15  28  42  56  77 103 130 162 198 234
#
# _framework density 14.719455
#
# number of rings (size 3 to 8) (size 9 to 14) (size 15 to 20)
#    0.000    2.750    0.000    3.375    0.000    6.250 
#    0.000    0.000    0.000    0.000    0.000    0.000 
#    0.000    1.000    0.000    5.500    0.000    2.875 
#
# Total GULP energy -793381.179119 kJ/mol
# GULP energy per Si atom -12396.580924 kJ/mol
# Density = 1.468595 g / cm^3
# Si number density = 14.719455 Si / 1000 Ang^3
#
#
#
# Elastic Constant Matrix: (Units=GPa)
#
#
# Indices 1 2 3 4 5 6 
#
# 1 80.7571 33.0633 52.4436 0.0000 0.0000 0.0000
# 2 33.0633 75.3950 45.2371 0.0000 0.0000 0.0000
# 3 52.4436 45.2371 83.5700 0.0000 0.0000 0.0000
# 4 0.0000 0.0000 0.0000 25.2242 0.0000 0.0000
# 5 0.0000 0.0000 0.0000 0.0000 27.7323 0.0000
# 6 0.0000 0.0000 0.0000 0.0000 0.0000 13.4501
#
#
#
# Elastic Compliance Matrix: (Units=1/GPa)
#
#
# Indices 1 2 3 4 5 6 
#
# 1 0.021089 -0.001937 -0.012186 0.000000 0.000000 0.000000
# 2 -0.001937 0.019821 -0.009514 0.000000 0.000000 0.000000
# 3 -0.012186 -0.009514 0.024763 0.000000 0.000000 0.000000
# 4 0.000000 0.000000 0.000000 0.039644 0.000000 0.000000
# 5 0.000000 0.000000 0.000000 0.000000 0.036059 0.000000
# 6 0.000000 0.000000 0.000000 0.000000 0.000000 0.074349
#
#
# Mechanical properties :
#
#
# Convention : Reuss Voigt Hill
#
# Bulk Modulus (GPa) = 54.34708 55.68998 55.01853
# Shear Modulus (GPa) = 18.57815 20.54653 19.56234
#
# Velocity S-wave (km/s) = 3.55653 3.74020 3.64952
# Velocity P-wave (km/s) = 7.33943 7.52120 7.43087
#
# Compressibility (1/GPa) = 0.01840025
#
# Stress axis : x y z
#
# Youngs Moduli (GPa) = 47.41723 50.45095 40.38236
#
# Poissons Ratio (x) = 0.09771 0.49210
# Poissons Ratio (y) = 0.09184 0.38420
# Poissons Ratio (z) = 0.57783 0.47999
#
# Static dielectric constant tensor:
#      x y z
#    x 2.915470 0.000000 0.000000 
#    y 0.000000 2.911060 0.000000 
#    z 0.000000 0.000000 2.939500 
# 
# 
# High freq. dielectric constant tensor:
#      x y z
#    x 1.569520 0.000000 0.000000 
#    y 0.000000 1.532100 0.000000 
#    z 0.000000 0.000000 1.549720 
# 
# From -- ./inp_files/21063.got.cif
#   From: 2010.03.12/outbox.cif.g09.slc.cpg/sg53_11_cif.got.tgz:21063.got - 2010.04.16 14:36:59.
