data_PCOD8217255
_publ_section_title
;
Structure prediction by ZEFSAII (Michael W. Deem and Ramdas Pophale) SiO2 
 PCOD8217255
Probable space group: P N N A
;
_chemical_formula_sum "Si O2"
_cell_formula_units_Z 40
_cell_length_a 18.793647
_cell_length_b 9.085192
_cell_length_c 8.954346
_cell_angle_alpha 90.000000
_cell_angle_beta 90.000000
_cell_angle_gamma 90.000000
_cell_volume 1528.899881
_symmetry_space_group_name_H-M "P N N A"
_symmetry_group_IT_number 52
_symmetry_cell_setting 'orthorhombic'
loop_
_space_group_symop_operation_xyz
x,y,z
1/2-x,-y,z
x,1/2-y,1/2-z
1/2-x,1/2+y,1/2-z
-x,-y,-z
1/2+x,y,-z
-x,1/2+y,1/2+z
1/2+x,1/2-y,1/2+z
loop_
_atom_site_type_symbol
_atom_site_label
_atom_site_fract_x
_atom_site_fract_y
_atom_site_fract_z
Si Si1 0.914148 0.580760 0.606360
Si Si2 0.263701 0.826982 0.105753
Si Si3 0.701560 0.368519 0.132592
Si Si4 0.420437 0.477722 0.059444
Si Si5 0.567515 0.692646 0.412843
O O1 0.849082 0.692845 0.607288
O O2 0.917435 0.497490 0.763583
O O3 0.903658 0.467045 0.466178
O O4 0.981737 0.685311 0.584159
O O5 0.228854 0.750000 0.250000
O O6 0.250000 0.000000 0.096378
O O7 0.240929 0.727165 0.965536
O O8 0.750000 0.500000 0.202959
O O9 0.670432 0.250000 0.250000
O O10 0.636196 0.427801 0.034782
O O11 0.500000 0.500000 0.000000
O O12 0.403363 0.305893 0.034558
O O13 0.593532 0.750000 0.250000
#
# Coordination Sequence:
#
# PCOD8217255 Si02
#       5
#     8   8   8   8   8
#     4  11  25  46  69 111 154 193 259 326 402 471
#     4  12  26  47  78 107 148 198 257 323 394 473
#     4  12  30  53  79 114 162 213 274 335 413 489
#     4  12  25  46  76 110 155 202 265 328 407 475
#     4  11  24  42  72 107 150 200 250 322 399 482
#
# _framework density 26.162604000000002
#
# number of rings (size 3 to 8) (size 9 to 14) (size 15 to 20)
#    0.000    0.400    4.000    3.600    5.600    2.400 
#    0.000    0.000    0.000    0.000    0.000    0.000 
#    0.000    0.000    0.000    0.000    0.000    0.000 
#
# Total GULP energy -495706.626305 kJ/mol
# GULP energy per Si atom -12392.665658 kJ/mol
# Density = 2.610306 g / cm^3
# Si number density = 26.162604 Si / 1000 Ang^3
#
#
#
# Elastic Constant Matrix: (Units=GPa)
#
#
# Indices 1 2 3 4 5 6 
#
# 1 63.6300 24.3662 13.2718 0.0000 0.0000 0.0000
# 2 24.3662 161.7341 57.7935 0.0000 0.0000 0.0000
# 3 13.2718 57.7935 137.1170 0.0000 0.0000 0.0000
# 4 0.0000 0.0000 0.0000 60.0891 0.0000 0.0000
# 5 0.0000 0.0000 0.0000 0.0000 24.4457 0.0000
# 6 0.0000 0.0000 0.0000 0.0000 0.0000 26.5997
#
#
#
# Elastic Compliance Matrix: (Units=1/GPa)
#
#
# Indices 1 2 3 4 5 6 
#
# 1 0.016728 -0.002286 -0.000656 0.000000 0.000000 0.000000
# 2 -0.002286 0.007592 -0.002979 0.000000 0.000000 0.000000
# 3 -0.000656 -0.002979 0.008612 0.000000 0.000000 0.000000
# 4 0.000000 0.000000 0.000000 0.016642 0.000000 0.000000
# 5 0.000000 0.000000 0.000000 0.000000 0.040907 0.000000
# 6 0.000000 0.000000 0.000000 0.000000 0.000000 0.037594
#
#
# Mechanical properties :
#
#
# Convention : Reuss Voigt Hill
#
# Bulk Modulus (GPa) = 47.41267 61.48267 54.44767
# Shear Modulus (GPa) = 34.02615 40.03020 37.02818
#
# Velocity S-wave (km/s) = 3.61025 3.91583 3.76614
# Velocity P-wave (km/s) = 5.96156 6.63297 6.30620
#
# Compressibility (1/GPa) = 0.02109141
#
# Stress axis : x y z
#
# Youngs Moduli (GPa) = 59.78011 131.72227 116.11774
#
# Poissons Ratio (x) = 0.30110 0.07613
# Poissons Ratio (y) = 0.13665 0.34587
# Poissons Ratio (z) = 0.03919 0.39235
#
# Static dielectric constant tensor:
#      x y z
#    x 5.064070 0.000000 0.000000 
#    y 0.000000 5.854580 0.000000 
#    z 0.000000 0.000000 4.952010 
# 
# 
# High freq. dielectric constant tensor:
#      x y z
#    x 2.047500 0.000000 0.000000 
#    y 0.000000 2.075850 0.000000 
#    z 0.000000 0.000000 2.046950 
# 
# From -- ./inp_files/14004.got.cif
#   From: 2010.06.25/outbox.cif.g09.slc.cpg/sg52_8_cif.got.tgz:14004.got - 2010.06.26 19:32:48.
