data_PCOD8217477
_publ_section_title
;
Structure prediction by ZEFSAII (Michael W. Deem and Ramdas Pophale) SiO2 
 PCOD8217477
Probable space group: P M N A
;
_chemical_formula_sum "Si O2"
_cell_formula_units_Z 28
_cell_length_a 18.237649
_cell_length_b 15.590153
_cell_length_c 5.052743
_cell_angle_alpha 90.000000
_cell_angle_beta 90.000000
_cell_angle_gamma 90.000000
_cell_volume 1436.634989
_symmetry_space_group_name_H-M "P M N A"
_symmetry_group_IT_number 53
_symmetry_cell_setting 'orthorhombic'
loop_
_space_group_symop_operation_xyz
x,y,z
1/2-x,-y,1/2+z
x,-y,-z
1/2-x,y,1/2-z
-x,-y,-z
1/2+x,y,1/2-z
-x,y,z
1/2+x,-y,1/2+z
loop_
_atom_site_type_symbol
_atom_site_label
_atom_site_fract_x
_atom_site_fract_y
_atom_site_fract_z
Si Si1 0.700976 0.500000 0.000000
Si Si2 0.163629 0.671391 0.271433
Si Si3 0.837433 0.768596 0.764904
Si Si4 0.417551 0.943625 0.758249
O O1 0.750000 0.463621 0.250000
O O2 0.649211 0.573620 0.129170
O O3 0.250000 0.681347 0.250000
O O4 0.129936 0.735082 0.488632
O O5 0.132128 0.701894 0.988756
O O6 0.750000 0.771684 0.750000
O O7 0.866631 0.863473 0.809758
O O8 0.500000 0.912859 0.830498
O O9 0.418088 0.000000 0.500000
O O10 0.384989 0.000000 0.000000
#
# Coordination Sequence:
#
# PCOD8217477 Si02
#       4
#     4   8   8   8
#     4  10  16  26  44  68 101 136 163 192 238 288
#     4   9  17  28  44  70 100 128 157 194 237 282
#     4  10  19  31  48  72  99 124 156 199 243 284
#     4  10  21  36  52  70  93 124 163 201 239 291
#
# _framework density 19.489986999999999
#
# number of rings (size 3 to 8) (size 9 to 14) (size 15 to 20)
#    0.000    2.286    0.000    6.000    0.000    1.143 
#    0.000    0.000    0.000    0.000    0.000    6.000 
#    0.000    0.000    0.000   17.571    0.000    0.000 
#
# Total GULP energy -346886.600401 kJ/mol
# GULP energy per Si atom -12388.807157 kJ/mol
# Density = 1.944563 g / cm^3
# Si number density = 19.489987 Si / 1000 Ang^3
#
#
#
# Elastic Constant Matrix: (Units=GPa)
#
#
# Indices 1 2 3 4 5 6 
#
# 1 19.9719 28.0050 21.6273 0.0000 0.0000 0.0000
# 2 28.0050 135.7936 48.2239 0.0000 0.0000 0.0000
# 3 21.6273 48.2239 125.3555 0.0000 0.0000 0.0000
# 4 0.0000 0.0000 0.0000 45.5722 0.0000 0.0000
# 5 0.0000 0.0000 0.0000 0.0000 19.4902 0.0000
# 6 0.0000 0.0000 0.0000 0.0000 0.0000 -0.0311
#
#
#
# Elastic Compliance Matrix: (Units=1/GPa)
#
#
# Indices 1 2 3 4 5 6 
#
# 1 0.077307 -0.012980 -0.008344 0.000000 0.000000 0.000000
# 2 -0.012980 0.010709 -0.001880 0.000000 0.000000 0.000000
# 3 -0.008344 -0.001880 0.010140 0.000000 0.000000 0.000000
# 4 0.000000 0.000000 0.000000 0.021943 0.000000 0.000000
# 5 0.000000 0.000000 0.000000 0.000000 0.051308 0.000000
# 6 0.000000 0.000000 0.000000 0.000000 0.000000-32.176030
#
#
# Mechanical properties :
#
#
# Convention : Reuss Voigt Hill
#
# Bulk Modulus (GPa) = 19.32471 52.98149 36.15310
# Shear Modulus (GPa) = -0.15654 25.22391 12.53368
#
# Velocity S-wave (km/s) = -0.28371 3.60140 2.53866
# Velocity P-wave (km/s) = 3.13519 6.67356 5.21372
#
# Compressibility (1/GPa) = 0.05174721
#
# Stress axis : x y z
#
# Youngs Moduli (GPa) = 12.93543 93.38199 98.61687
#
# Poissons Ratio (x) = 1.21209 0.82289
# Poissons Ratio (y) = 0.16790 0.18542
# Poissons Ratio (z) = 0.10794 0.17558
#
# Static dielectric constant tensor:
#      x y z
#    x 3.013640 0.000000 0.000000 
#    y 0.000000 3.663360 0.000000 
#    z 0.000000 0.000000 4.222730 
# 
# 
# High freq. dielectric constant tensor:
#      x y z
#    x 1.677610 0.000000 0.000000 
#    y 0.000000 1.768180 0.000000 
#    z 0.000000 0.000000 1.792330 
# 
# From -- ./inp_files/3372.got.cif
#   From: 2010.03.12/outbox.cif.g09.slc.cpg/sg53_2_cif.got.tgz:3372.got - 2010.04.16 14:36:59.
