data_PCOD8217240
_publ_section_title
;
Structure prediction by ZEFSAII (Michael W. Deem and Ramdas Pophale) SiO2 
 PCOD8217240
Probable space group: P N N A
;
_chemical_formula_sum "Si O2"
_cell_formula_units_Z 48
_cell_length_a 10.098181
_cell_length_b 8.266438
_cell_length_c 26.525816
_cell_angle_alpha 90.000000
_cell_angle_beta 90.000000
_cell_angle_gamma 90.000000
_cell_volume 2214.268676
_symmetry_space_group_name_H-M "P N N A"
_symmetry_group_IT_number 52
_symmetry_cell_setting 'orthorhombic'
loop_
_space_group_symop_operation_xyz
x,y,z
1/2-x,-y,z
x,1/2-y,1/2-z
1/2-x,1/2+y,1/2-z
-x,-y,-z
1/2+x,y,-z
-x,1/2+y,1/2+z
1/2+x,1/2-y,1/2+z
loop_
_atom_site_type_symbol
_atom_site_label
_atom_site_fract_x
_atom_site_fract_y
_atom_site_fract_z
Si Si1 0.612885 0.566930 0.357988
Si Si2 0.611838 0.559774 0.244523
Si Si3 0.630193 0.611125 0.506855
Si Si4 0.739197 0.813136 0.412261
Si Si5 0.965869 0.206204 0.893396
Si Si6 0.631738 0.625577 0.795626
O O1 0.750000 0.500000 0.383437
O O2 0.602952 0.497229 0.301694
O O3 0.633691 0.762084 0.366784
O O4 0.484774 0.489654 0.385483
O O5 0.750000 0.500000 0.220291
O O6 0.595984 0.750000 0.250000
O O7 0.499806 0.478699 0.211472
O O8 0.750000 0.500000 0.523940
O O9 0.500000 0.500000 0.500000
O O10 0.676315 0.717041 0.459411
O O11 0.605379 0.735247 0.553244
O O12 0.886622 0.774258 0.394585
O O13 0.750000 0.000000 0.424979
O O14 0.878344 0.281431 0.848662
O O15 0.750000 0.500000 0.798196
O O16 0.655971 0.750000 0.750000
#
# Coordination Sequence:
#
# PCOD8217240 Si02
#       6
#     8   8   8   8   8   8
#     4   9  19  39  66  99 135 184 230 280 345 421
#     4  11  24  40  71 105 140 184 240 290 352 420
#     4  12  23  48  75 100 137 189 239 290 365 442
#     4  11  24  41  72 109 146 176 239 309 352 417
#     4  11  24  46  72  99 140 193 238 284 361 441
#     4  12  27  49  69 101 149 189 237 299 364 440
#
# _framework density 21.677585000000001
#
# number of rings (size 3 to 8) (size 9 to 14) (size 15 to 20)
#    0.000    1.000    5.000    1.500    7.000    2.000 
#    6.000    0.000    0.000    0.000    0.000    0.000 
#    0.000    0.000    0.000    0.000    0.000    0.000 
#
# Total GULP energy -594627.208757 kJ/mol
# GULP energy per Si atom -12388.066849 kJ/mol
# Density = 2.162825 g / cm^3
# Si number density = 21.677585 Si / 1000 Ang^3
#
#
#
# Elastic Constant Matrix: (Units=GPa)
#
#
# Indices 1 2 3 4 5 6 
#
# 1 118.4551 45.2283 45.1305 0.0000 0.0000 0.0000
# 2 45.2283 117.8930 25.1465 0.0000 0.0000 0.0000
# 3 45.1305 25.1465 87.6928 0.0000 0.0000 0.0000
# 4 0.0000 0.0000 0.0000 28.7177 0.0000 0.0000
# 5 0.0000 0.0000 0.0000 0.0000 47.2771 0.0000
# 6 0.0000 0.0000 0.0000 0.0000 0.0000 33.9201
#
#
#
# Elastic Compliance Matrix: (Units=1/GPa)
#
#
# Indices 1 2 3 4 5 6 
#
# 1 0.011654 -0.003399 -0.005023 0.000000 0.000000 0.000000
# 2 -0.003399 0.010027 -0.001126 0.000000 0.000000 0.000000
# 3 -0.005023 -0.001126 0.014311 0.000000 0.000000 0.000000
# 4 0.000000 0.000000 0.000000 0.034822 0.000000 0.000000
# 5 0.000000 0.000000 0.000000 0.000000 0.021152 0.000000
# 6 0.000000 0.000000 0.000000 0.000000 0.000000 0.029481
#
#
# Mechanical properties :
#
#
# Convention : Reuss Voigt Hill
#
# Bulk Modulus (GPa) = 59.18656 61.67240 60.42948
# Shear Modulus (GPa) = 34.20598 35.88535 35.04566
#
# Velocity S-wave (km/s) = 3.97664 4.07309 4.02515
# Velocity P-wave (km/s) = 6.96041 7.11560 7.03843
#
# Compressibility (1/GPa) = 0.01689573
#
# Stress axis : x y z
#
# Youngs Moduli (GPa) = 85.81068 99.73545 69.87589
#
# Poissons Ratio (x) = 0.33904 0.35096
# Poissons Ratio (y) = 0.29171 0.07866
# Poissons Ratio (z) = 0.43099 0.11227
#
# Static dielectric constant tensor:
#      x y z
#    x 3.890850 0.000000 0.000000 
#    y 0.000000 4.237550 0.000000 
#    z 0.000000 0.000000 4.258920 
# 
# 
# High freq. dielectric constant tensor:
#      x y z
#    x 1.841720 0.000000 0.000000 
#    y 0.000000 1.847660 0.000000 
#    z 0.000000 0.000000 1.867230 
# 
# From -- ./inp_files/44342.got.cif
#   From: 2010.06.25/outbox.cif.g09.slc.cpg/sg52_23_cif.got.tgz:44342.got - 2010.06.26 19:32:48.
