data_PCOD8217329
_publ_section_title
;
Structure prediction by ZEFSAII (Michael W. Deem and Ramdas Pophale) SiO2 
 PCOD8217329
Probable space group: P N N A
;
_chemical_formula_sum "Si O2"
_cell_formula_units_Z 32
_cell_length_a 31.126934
_cell_length_b 8.669656
_cell_length_c 5.090534
_cell_angle_alpha 90.000000
_cell_angle_beta 90.000000
_cell_angle_gamma 90.000000
_cell_volume 1373.730539
_symmetry_space_group_name_H-M "P N N A"
_symmetry_group_IT_number 52
_symmetry_cell_setting 'orthorhombic'
loop_
_space_group_symop_operation_xyz
x,y,z
1/2-x,-y,z
x,1/2-y,1/2-z
1/2-x,1/2+y,1/2-z
-x,-y,-z
1/2+x,y,-z
-x,1/2+y,1/2+z
1/2+x,1/2-y,1/2+z
loop_
_atom_site_type_symbol
_atom_site_label
_atom_site_fract_x
_atom_site_fract_y
_atom_site_fract_z
Si Si1 0.876364 0.080442 0.349553
Si Si2 0.161452 0.351035 0.505163
Si Si3 0.292200 0.072058 0.317091
Si Si4 0.468580 0.356269 0.002317
O O1 0.867318 0.250000 0.250000
O O2 0.835648 0.036898 0.525852
O O3 0.920321 0.075334 0.513846
O O4 0.878708 0.957032 0.108802
O O5 0.177595 0.250000 0.750000
O O6 0.200911 0.467891 0.444276
O O7 0.147381 0.250000 0.250000
O O8 0.285144 0.250000 0.250000
O O9 0.250000 0.000000 0.458898
O O10 0.475411 0.250000 0.750000
O O11 0.478098 0.250000 0.250000
O O12 0.500000 0.500000 0.000000
#
# Coordination Sequence:
#
# PCOD8217329 Si02
#       4
#     8   8   8   8
#     4  11  25  49  81 104 152 204 249 301 381 455
#     4  12  26  47  72 110 144 188 252 313 365 432
#     4  12  26  48  75 109 149 201 254 311 367 443
#     4  11  26  50  80 115 154 196 250 307 382 454
#
# _framework density 23.294236000000001
#
# number of rings (size 3 to 8) (size 9 to 14) (size 15 to 20)
#    0.000    0.500    5.000    2.250    3.500    2.000 
#    9.000    0.000    0.000    0.000    0.000    0.000 
#    0.000    0.000    0.000    0.000    0.000    0.000 
#
# Total GULP energy -396599.631552 kJ/mol
# GULP energy per Si atom -12393.738486 kJ/mol
# Density = 2.324122 g / cm^3
# Si number density = 23.294236 Si / 1000 Ang^3
#
#
#
# Elastic Constant Matrix: (Units=GPa)
#
#
# Indices 1 2 3 4 5 6 
#
# 1 176.2018 83.5660 63.6306 0.0000 0.0000 0.0000
# 2 83.5660 205.2270 85.8941 0.0000 0.0000 0.0000
# 3 63.6306 85.8941 149.9340 0.0000 0.0000 0.0000
# 4 0.0000 0.0000 0.0000 49.3585 0.0000 0.0000
# 5 0.0000 0.0000 0.0000 0.0000 26.3350 0.0000
# 6 0.0000 0.0000 0.0000 0.0000 0.0000 35.9089
#
#
#
# Elastic Compliance Matrix: (Units=1/GPa)
#
#
# Indices 1 2 3 4 5 6 
#
# 1 0.007409 -0.002237 -0.001863 0.000000 0.000000 0.000000
# 2 -0.002237 0.007085 -0.003109 0.000000 0.000000 0.000000
# 3 -0.001863 -0.003109 0.009241 0.000000 0.000000 0.000000
# 4 0.000000 0.000000 0.000000 0.020260 0.000000 0.000000
# 5 0.000000 0.000000 0.000000 0.000000 0.037972 0.000000
# 6 0.000000 0.000000 0.000000 0.000000 0.000000 0.027848
#
#
# Mechanical properties :
#
#
# Convention : Reuss Voigt Hill
#
# Bulk Modulus (GPa) = 107.33257 110.83824 109.08540
# Shear Modulus (GPa) = 39.26494 42.20530 40.73512
#
# Velocity S-wave (km/s) = 4.11007 4.26118 4.18631
# Velocity P-wave (km/s) = 8.28857 8.47911 8.38439
#
# Compressibility (1/GPa) = 0.00931684
#
# Stress axis : x y z
#
# Youngs Moduli (GPa) = 134.97081 141.14273 108.20906
#
# Poissons Ratio (x) = 0.31578 0.20155
# Poissons Ratio (y) = 0.30197 0.33646
# Poissons Ratio (z) = 0.25140 0.43887
#
# Static dielectric constant tensor:
#      x y z
#    x 4.168050 0.000000 0.000000 
#    y 0.000000 5.136800 0.000000 
#    z 0.000000 0.000000 4.556100 
# 
# 
# High freq. dielectric constant tensor:
#      x y z
#    x 1.899620 0.000000 0.000000 
#    y 0.000000 1.959350 0.000000 
#    z 0.000000 0.000000 1.924420 
# 
# From -- ./inp_files/6230.got.cif
#   From: 2010.06.25/outbox.cif.g09.slc.cpg/sg52_4_cif.got.tgz:6230.got - 2010.06.26 19:32:48.
