data_PCOD8217720
_publ_section_title
;
Structure prediction by ZEFSAII (Michael W. Deem and Ramdas Pophale) SiO2 
 PCOD8217720
Probable space group: P M N A
;
_chemical_formula_sum "Si O2"
_cell_formula_units_Z 64
_cell_length_a 8.817786
_cell_length_b 26.110841
_cell_length_c 18.278729
_cell_angle_alpha 90.000000
_cell_angle_beta 90.000000
_cell_angle_gamma 90.000000
_cell_volume 4208.491059
_symmetry_space_group_name_H-M "P M N A"
_symmetry_group_IT_number 53
_symmetry_cell_setting 'orthorhombic'
loop_
_space_group_symop_operation_xyz
x,y,z
1/2-x,-y,1/2+z
x,-y,-z
1/2-x,y,1/2-z
-x,-y,-z
1/2+x,y,1/2-z
-x,y,z
1/2+x,-y,1/2+z
loop_
_atom_site_type_symbol
_atom_site_label
_atom_site_fract_x
_atom_site_fract_y
_atom_site_fract_z
Si Si1 0.823175 0.101413 0.580700
Si Si2 0.323142 0.498019 0.828990
Si Si3 0.321612 0.003533 0.828665
Si Si4 0.676444 0.605049 0.083198
Si Si5 0.320056 0.306559 0.672191
Si Si6 0.170715 0.051376 0.046602
Si Si7 0.321038 0.800712 0.173410
Si Si8 0.829165 0.447707 0.044361
O O1 0.767650 0.057710 0.637246
O O2 0.739813 0.096901 0.502636
O O3 0.783160 0.156628 0.613345
O O4 0.000000 0.094405 0.565954
O O5 0.250000 0.498850 0.750000
O O6 0.500000 0.509366 0.822978
O O7 0.290941 0.442978 0.864508
O O8 0.248715 0.543012 0.877312
O O9 0.250000 0.996924 0.750000
O O10 0.500000 0.000870 0.820827
O O11 0.266316 0.956560 0.879456
O O12 0.500000 0.619379 0.081779
O O13 0.773650 0.652439 0.111774
O O14 0.731860 0.593681 0.000813
O O15 0.250000 0.322807 0.750000
O O16 0.500000 0.303923 0.679689
O O17 0.255229 0.251842 0.646880
O O18 0.000000 0.065926 0.068169
O O19 0.179212 0.000000 0.000000
O O20 0.250000 0.818751 0.250000
O O21 0.500000 0.792748 0.183766
O O22 0.000000 0.427322 0.055983
O O23 0.830077 0.500000 0.000000
#
# Coordination Sequence:
#
# PCOD8217720 Si02
#       8
#     8   8   8   8   8   8   8   8
#     4   9  18  30  44  61  83 113 144 176 214 254
#     4  10  19  29  43  63  87 115 146 179 214 254
#     4  10  18  28  42  61  86 113 143 176 211 252
#     4  10  19  31  46  63  85 114 147 180 216 256
#     4  11  21  32  45  62  85 113 146 182 219 254
#     4   9  17  28  42  60  82 109 141 175 210 250
#     4  10  19  31  45  62  85 112 144 180 217 253
#     4   9  17  29  44  62  85 112 142 176 213 254
#
# _framework density 15.20735
#
# number of rings (size 3 to 8) (size 9 to 14) (size 15 to 20)
#    0.000    2.250    0.000    4.875    0.000    7.000 
#    0.000    0.000    0.000    0.000    0.000    0.000 
#    0.000    1.000    0.000    5.500    0.000    5.875 
#
# Total GULP energy -793671.977822 kJ/mol
# GULP energy per Si atom -12401.124653 kJ/mol
# Density = 1.517274 g / cm^3
# Si number density = 15.207350 Si / 1000 Ang^3
#
#
#
# Elastic Constant Matrix: (Units=GPa)
#
#
# Indices 1 2 3 4 5 6 
#
# 1 102.2441 42.1118 55.2550 0.0000 0.0000 0.0000
# 2 42.1118 64.8167 42.3734 0.0000 0.0000 0.0000
# 3 55.2550 42.3734 99.7025 0.0000 0.0000 0.0000
# 4 0.0000 0.0000 0.0000 23.5910 0.0000 0.0000
# 5 0.0000 0.0000 0.0000 0.0000 30.9803 0.0000
# 6 0.0000 0.0000 0.0000 0.0000 0.0000 20.5636
#
#
#
# Elastic Compliance Matrix: (Units=1/GPa)
#
#
# Indices 1 2 3 4 5 6 
#
# 1 0.015574 -0.006198 -0.005997 0.000000 0.000000 0.000000
# 2 -0.006198 0.023831 -0.006693 0.000000 0.000000 0.000000
# 3 -0.005997 -0.006693 0.016198 0.000000 0.000000 0.000000
# 4 0.000000 0.000000 0.000000 0.042389 0.000000 0.000000
# 5 0.000000 0.000000 0.000000 0.000000 0.032279 0.000000
# 6 0.000000 0.000000 0.000000 0.000000 0.000000 0.048630
#
#
# Mechanical properties :
#
#
# Convention : Reuss Voigt Hill
#
# Bulk Modulus (GPa) = 56.09644 60.69372 58.39508
# Shear Modulus (GPa) = 22.45996 23.49520 22.97758
#
# Velocity S-wave (km/s) = 3.84723 3.93490 3.89131
# Velocity P-wave (km/s) = 7.53012 7.78730 7.65979
#
# Compressibility (1/GPa) = 0.01782644
#
# Stress axis : x y z
#
# Youngs Moduli (GPa) = 64.20817 41.96292 61.73659
#
# Poissons Ratio (x) = 0.26010 0.37024
# Poissons Ratio (y) = 0.39798 0.41320
# Poissons Ratio (z) = 0.38506 0.28085
#
# Static dielectric constant tensor:
#      x y z
#    x 3.097270 0.000000 0.000000 
#    y 0.000000 2.737500 0.000000 
#    z 0.000000 0.000000 2.855900 
# 
# 
# High freq. dielectric constant tensor:
#      x y z
#    x 1.603520 0.000000 0.000000 
#    y 0.000000 1.547170 0.000000 
#    z 0.000000 0.000000 1.571810 
# 
# From -- ./inp_files/27029.got.cif
#   From: 2010.03.12/outbox.cif.g09.slc.cpg/sg53_14_cif.got.tgz:27029.got - 2010.04.16 14:36:59.
