data_PCOD8217335
_publ_section_title
;
Structure prediction by ZEFSAII (Michael W. Deem and Ramdas Pophale) SiO2 
 PCOD8217335
Probable space group: P N N A
;
_chemical_formula_sum "Si O2"
_cell_formula_units_Z 28
_cell_length_a 30.876668
_cell_length_b 7.491299
_cell_length_c 5.195315
_cell_angle_alpha 90.000000
_cell_angle_beta 90.000000
_cell_angle_gamma 90.000000
_cell_volume 1201.709361
_symmetry_space_group_name_H-M "P N N A"
_symmetry_group_IT_number 52
_symmetry_cell_setting 'orthorhombic'
loop_
_space_group_symop_operation_xyz
x,y,z
1/2-x,-y,z
x,1/2-y,1/2-z
1/2-x,1/2+y,1/2-z
-x,-y,-z
1/2+x,y,-z
-x,1/2+y,1/2+z
1/2+x,1/2-y,1/2+z
loop_
_atom_site_type_symbol
_atom_site_label
_atom_site_fract_x
_atom_site_fract_y
_atom_site_fract_z
Si Si1 0.300750 0.750000 0.250000
Si Si2 0.254195 0.250000 0.750000
Si Si3 0.324658 0.109186 0.057228
Si Si4 0.401221 0.250000 0.750000
Si Si5 0.527680 0.043990 0.253593
O O1 0.273384 0.805166 0.501079
O O2 0.332048 0.584055 0.317210
O O3 0.288528 0.411333 0.671988
O O4 0.302221 0.250000 0.250000
O O5 0.370527 0.198263 0.987270
O O6 0.429861 0.424891 0.792359
O O7 0.541951 0.250000 0.250000
O O8 0.500000 0.000000 0.500000
O O9 0.500000 0.000000 0.000000
#
# Coordination Sequence:
#
# PCOD8217335 Si02
#       5
#     4   4   8   4   8
#     4  12  28  46  77 106 145 200 263 302 373 452
#     4  11  26  46  76 106 143 198 257 312 358 452
#     4  11  28  47  73 111 152 198 245 315 388 429
#     4  11  28  48  75 112 164 188 250 314 379 450
#     4  12  25  49  81 114 147 198 251 303 372 454
#
# _framework density 23.300142999999998
#
# number of rings (size 3 to 8) (size 9 to 14) (size 15 to 20)
#    0.000    0.571    4.286    0.857   16.000    2.286 
#    0.000    0.000    0.000    0.000    0.000    0.000 
#    0.000    0.000    0.000    0.000    0.000    0.000 
#
# Total GULP energy -347005.209101 kJ/mol
# GULP energy per Si atom -12393.043182 kJ/mol
# Density = 2.324711 g / cm^3
# Si number density = 23.300143 Si / 1000 Ang^3
#
#
#
# Elastic Constant Matrix: (Units=GPa)
#
#
# Indices 1 2 3 4 5 6 
#
# 1 140.6607 71.3437 66.7524 0.0000 0.0000 0.0000
# 2 71.3437 227.5927 64.9223 0.0000 0.0000 0.0000
# 3 66.7524 64.9223 164.5724 0.0000 0.0000 0.0000
# 4 0.0000 0.0000 0.0000 43.2588 0.0000 0.0000
# 5 0.0000 0.0000 0.0000 0.0000 20.8408 0.0000
# 6 0.0000 0.0000 0.0000 0.0000 0.0000 35.5417
#
#
#
# Elastic Compliance Matrix: (Units=1/GPa)
#
#
# Indices 1 2 3 4 5 6 
#
# 1 0.009657 -0.002152 -0.003068 0.000000 0.000000 0.000000
# 2 -0.002152 0.005431 -0.001269 0.000000 0.000000 0.000000
# 3 -0.003068 -0.001269 0.007822 0.000000 0.000000 0.000000
# 4 0.000000 0.000000 0.000000 0.023117 0.000000 0.000000
# 5 0.000000 0.000000 0.000000 0.000000 0.047983 0.000000
# 6 0.000000 0.000000 0.000000 0.000000 0.000000 0.028136
#
#
# Mechanical properties :
#
#
# Convention : Reuss Voigt Hill
#
# Bulk Modulus (GPa) = 100.70399 104.31807 102.51103
# Shear Modulus (GPa) = 36.11855 41.91539 39.01697
#
# Velocity S-wave (km/s) = 3.94146 4.24598 4.09655
# Velocity P-wave (km/s) = 8.00172 8.30099 8.15273
#
# Compressibility (1/GPa) = 0.00993009
#
# Stress axis : x y z
#
# Youngs Moduli (GPa) = 103.55480 184.14507 127.85223
#
# Poissons Ratio (x) = 0.39627 0.39224
# Poissons Ratio (y) = 0.22284 0.16230
# Poissons Ratio (z) = 0.31770 0.23376
#
# Static dielectric constant tensor:
#      x y z
#    x 5.435270 0.000000 0.000000 
#    y 0.000000 4.354060 0.000000 
#    z 0.000000 0.000000 4.645560 
# 
# 
# High freq. dielectric constant tensor:
#      x y z
#    x 1.908410 0.000000 0.000000 
#    y 0.000000 1.936890 0.000000 
#    z 0.000000 0.000000 1.941100 
# 
# From -- ./inp_files/5497.got.cif
#   From: 2010.06.25/outbox.cif.g09.slc.cpg/sg52_3_cif.got.tgz:5497.got - 2010.06.26 19:32:48.
