data_PCOD8217356
_publ_section_title
;
Structure prediction by ZEFSAII (Michael W. Deem and Ramdas Pophale) SiO2 
 PCOD8217356
Probable space group: P N N A
;
_chemical_formula_sum "Si O2"
_cell_formula_units_Z 40
_cell_length_a 18.218725
_cell_length_b 8.399294
_cell_length_c 12.068877
_cell_angle_alpha 90.000000
_cell_angle_beta 90.000000
_cell_angle_gamma 90.000000
_cell_volume 1846.832994
_symmetry_space_group_name_H-M "P N N A"
_symmetry_group_IT_number 52
_symmetry_cell_setting 'orthorhombic'
loop_
_space_group_symop_operation_xyz
x,y,z
1/2-x,-y,z
x,1/2-y,1/2-z
1/2-x,1/2+y,1/2-z
-x,-y,-z
1/2+x,y,-z
-x,1/2+y,1/2+z
1/2+x,1/2-y,1/2+z
loop_
_atom_site_type_symbol
_atom_site_label
_atom_site_fract_x
_atom_site_fract_y
_atom_site_fract_z
Si Si1 0.956918 0.750000 0.750000
Si Si2 0.750000 0.500000 0.991899
Si Si3 0.362239 0.283466 0.133425
Si Si4 0.417172 0.959662 0.041254
Si Si5 0.008058 0.037701 0.626796
Si Si6 0.846798 0.773735 0.371525
O O1 0.912193 0.842744 0.849403
O O2 0.010267 0.625402 0.806567
O O3 0.684211 0.578091 0.923348
O O4 0.782647 0.642374 0.062077
O O5 0.321799 0.250000 0.250000
O O6 0.441527 0.352989 0.166197
O O7 0.372982 0.122809 0.063062
O O8 0.373565 0.880575 0.939402
O O9 0.500000 0.000000 0.000000
O O10 0.084205 0.116475 0.652689
O O11 0.000000 0.000000 0.500000
O O12 0.812343 0.750000 0.250000
#
# Coordination Sequence:
#
# PCOD8217356 Si02
#       6
#     4   4   8   8   8   8
#     4  12  22  38  74 112 140 176 232 312 362 406
#     4  12  30  48  66 104 152 198 234 292 372 454
#     4  12  25  47  76 107 145 187 247 305 367 430
#     4  12  24  43  76 113 136 183 245 303 365 422
#     4  12  21  44  75 108 141 184 241 307 354 422
#     4  12  27  49  73 104 148 193 243 296 364 437
#
# _framework density 21.6587
#
# number of rings (size 3 to 8) (size 9 to 14) (size 15 to 20)
#    0.000    0.000    8.000    1.800    0.000    4.000 
#    3.600    0.000    0.000    0.000    0.000    0.000 
#    0.000    0.000    0.000    0.000    0.000    0.000 
#
# Total GULP energy -495844.423891 kJ/mol
# GULP energy per Si atom -12396.110597 kJ/mol
# Density = 2.160940 g / cm^3
# Si number density = 21.658700 Si / 1000 Ang^3
#
#
#
# Elastic Constant Matrix: (Units=GPa)
#
#
# Indices 1 2 3 4 5 6 
#
# 1 51.1558 8.3641 3.0521 0.0000 0.0000 0.0000
# 2 8.3641 123.6460 37.8514 0.0000 0.0000 0.0000
# 3 3.0521 37.8514 136.0803 0.0000 0.0000 0.0000
# 4 0.0000 0.0000 0.0000 55.1366 0.0000 0.0000
# 5 0.0000 0.0000 0.0000 0.0000 -153.9576 0.0000
# 6 0.0000 0.0000 0.0000 0.0000 0.0000 34.2720
#
#
#
# Elastic Compliance Matrix: (Units=1/GPa)
#
#
# Indices 1 2 3 4 5 6 
#
# 1 0.019768 -0.001313 -0.000078 0.000000 0.000000 0.000000
# 2 -0.001313 0.008928 -0.002454 0.000000 0.000000 0.000000
# 3 -0.000078 -0.002454 0.008033 0.000000 0.000000 0.000000
# 4 0.000000 0.000000 0.000000 0.018137 0.000000 0.000000
# 5 0.000000 0.000000 0.000000 0.000000 -0.006495 0.000000
# 6 0.000000 0.000000 0.000000 0.000000 0.000000 0.029178
#
#
# Mechanical properties :
#
#
# Convention : Reuss Voigt Hill
#
# Bulk Modulus (GPa) = 34.43798 45.49081 39.96439
# Shear Modulus (GPa) = 52.67737 4.53115 28.60426
#
# Velocity S-wave (km/s) = 4.93704 1.44797 3.63806
# Velocity P-wave (km/s) = 6.95945 4.88309 6.01159
#
# Compressibility (1/GPa) = 0.02903771
#
# Stress axis : x y z
#
# Youngs Moduli (GPa) = 50.58806 112.01192 124.48823
#
# Poissons Ratio (x) = 0.14710 0.00972
# Poissons Ratio (y) = 0.06644 0.30547
# Poissons Ratio (z) = 0.00395 0.27486
#
# Static dielectric constant tensor:
#      x y z
#    x 4.664500 0.000000 0.000000 
#    y 0.000000 4.092430 0.000000 
#    z 0.000000 0.000000 4.289150 
# 
# 
# High freq. dielectric constant tensor:
#      x y z
#    x 1.825130 0.000000 0.000000 
#    y 0.000000 1.871700 0.000000 
#    z 0.000000 0.000000 1.875460 
# 
# From -- ./inp_files/20362.got.cif
#   From: 2010.06.25/outbox.cif.g09.slc.cpg/sg52_11_cif.got.tgz:20362.got - 2010.06.26 19:32:48.
