data_PCOD8217616
_publ_section_title
;
Structure prediction by ZEFSAII (Michael W. Deem and Ramdas Pophale) SiO2 
 PCOD8217616
Probable space group: P M N A
;
_chemical_formula_sum "Si O2"
_cell_formula_units_Z 64
_cell_length_a 9.030703
_cell_length_b 19.112261
_cell_length_c 21.779198
_cell_angle_alpha 90.000000
_cell_angle_beta 90.000000
_cell_angle_gamma 90.000000
_cell_volume 3759.027564
_symmetry_space_group_name_H-M "P M N A"
_symmetry_group_IT_number 53
_symmetry_cell_setting 'orthorhombic'
loop_
_space_group_symop_operation_xyz
x,y,z
1/2-x,-y,1/2+z
x,-y,-z
1/2-x,y,1/2-z
-x,-y,-z
1/2+x,y,1/2-z
-x,y,z
1/2+x,-y,1/2+z
loop_
_atom_site_type_symbol
_atom_site_label
_atom_site_fract_x
_atom_site_fract_y
_atom_site_fract_z
Si Si1 0.826889 0.541254 0.059847
Si Si2 0.174424 0.311706 0.988676
Si Si3 0.673037 0.092344 0.109906
Si Si4 0.333304 0.036544 0.565564
Si Si5 0.325982 0.165546 0.981674
Si Si6 0.330969 0.803095 0.690576
Si Si7 0.668549 0.663166 0.621641
Si Si8 0.824161 0.471462 0.185858
O O1 0.767416 0.516000 0.126538
O O2 0.000000 0.525761 0.058275
O O3 0.758474 0.500000 0.000000
O O4 0.793744 0.624540 0.057765
O O5 0.261398 0.242322 0.968445
O O6 0.238877 0.339472 0.053879
O O7 0.000000 0.293152 0.992953
O O8 0.500000 0.085602 0.120543
O O9 0.709572 0.139424 0.050396
O O10 0.748191 0.128003 0.168105
O O11 0.739953 0.014697 0.108819
O O12 0.500000 0.046369 0.590636
O O13 0.252926 0.111585 0.564654
O O14 0.335847 0.000000 0.500000
O O15 0.500000 0.165666 0.968445
O O16 0.250000 0.773914 0.750000
O O17 0.500000 0.821725 0.704783
O O18 0.314775 0.742636 0.641196
O O19 0.500000 0.639108 0.614468
O O20 0.734597 0.607560 0.670238
O O21 0.750000 0.496083 0.250000
O O22 0.000000 0.477510 0.195374
#
# Coordination Sequence:
#
# PCOD8217616 Si02
#       8
#     8   8   8   8   8   8   8   8
#     4   9  16  29  52  75  96 126 171 218 255 299
#     4  10  17  29  50  73  95 127 168 210 252 299
#     4  10  19  31  46  66  94 127 161 199 243 289
#     4   9  17  29  47  69  92 122 158 193 231 281
#     4  10  19  30  45  69 100 128 155 194 245 299
#     4  11  21  32  45  65  94 131 171 210 246 291
#     4   9  17  29  48  69  94 127 168 209 247 293
#     4  10  19  33  51  74  99 130 169 212 260 307
#
# _framework density 17.025680000000001
#
# number of rings (size 3 to 8) (size 9 to 14) (size 15 to 20)
#    0.000    2.250    2.500    1.875    0.000    2.500 
#    0.000    1.875    0.000    0.750    0.000    0.875 
#    0.000    2.000    0.000    0.000    0.000    0.000 
#
# Total GULP energy -793184.806502 kJ/mol
# GULP energy per Si atom -12393.512602 kJ/mol
# Density = 1.698693 g / cm^3
# Si number density = 17.025680 Si / 1000 Ang^3
#
#
#
# Elastic Constant Matrix: (Units=GPa)
#
#
# Indices 1 2 3 4 5 6 
#
# 1 77.6076 46.5128 30.7941 0.0000 0.0000 0.0000
# 2 46.5128 112.9529 42.4542 0.0000 0.0000 0.0000
# 3 30.7941 42.4542 75.5587 0.0000 0.0000 0.0000
# 4 0.0000 0.0000 0.0000 20.3209 0.0000 0.0000
# 5 0.0000 0.0000 0.0000 0.0000 22.1094 0.0000
# 6 0.0000 0.0000 0.0000 0.0000 0.0000 19.2975
#
#
#
# Elastic Compliance Matrix: (Units=1/GPa)
#
#
# Indices 1 2 3 4 5 6 
#
# 1 0.018024 -0.005909 -0.004026 0.000000 0.000000 0.000000
# 2 -0.005909 0.013161 -0.004986 0.000000 0.000000 0.000000
# 3 -0.004026 -0.004986 0.017677 0.000000 0.000000 0.000000
# 4 0.000000 0.000000 0.000000 0.049210 0.000000 0.000000
# 5 0.000000 0.000000 0.000000 0.000000 0.045230 0.000000
# 6 0.000000 0.000000 0.000000 0.000000 0.000000 0.051820
#
#
# Mechanical properties :
#
#
# Convention : Reuss Voigt Hill
#
# Bulk Modulus (GPa) = 52.57678 56.18237 54.37958
# Shear Modulus (GPa) = 21.61655 22.10278 21.85966
#
# Velocity S-wave (km/s) = 3.56707 3.60697 3.58707
# Velocity P-wave (km/s) = 6.92194 7.10051 7.01179
#
# Compressibility (1/GPa) = 0.01901980
#
# Stress axis : x y z
#
# Youngs Moduli (GPa) = 55.48093 75.98382 56.57047
#
# Poissons Ratio (x) = 0.44900 0.22773
# Poissons Ratio (y) = 0.32784 0.28208
# Poissons Ratio (z) = 0.22335 0.37888
#
# Static dielectric constant tensor:
#      x y z
#    x 3.030790 0.000000 0.000000 
#    y 0.000000 3.224510 0.000000 
#    z 0.000000 0.000000 2.981250 
# 
# 
# High freq. dielectric constant tensor:
#      x y z
#    x 1.639280 0.000000 0.000000 
#    y 0.000000 1.658980 0.000000 
#    z 0.000000 0.000000 1.623740 
# 
# From -- ./inp_files/34482.got.cif
#   From: 2010.03.12/outbox.cif.g09.slc.cpg/sg53_18_cif.got.tgz:34482.got - 2010.04.16 14:36:59.
