data_PCOD8217762
_publ_section_title
;
Structure prediction by ZEFSAII (Michael W. Deem and Ramdas Pophale) SiO2 
 PCOD8217762
Probable space group: P M N A
;
_chemical_formula_sum "Si O2"
_cell_formula_units_Z 64
_cell_length_a 9.081670
_cell_length_b 16.822489
_cell_length_c 23.822240
_cell_angle_alpha 90.000000
_cell_angle_beta 90.000000
_cell_angle_gamma 90.000000
_cell_volume 3639.473534
_symmetry_space_group_name_H-M "P M N A"
_symmetry_group_IT_number 53
_symmetry_cell_setting 'orthorhombic'
loop_
_space_group_symop_operation_xyz
x,y,z
1/2-x,-y,1/2+z
x,-y,-z
1/2-x,y,1/2-z
-x,-y,-z
1/2+x,y,1/2-z
-x,y,z
1/2+x,-y,1/2+z
loop_
_atom_site_type_symbol
_atom_site_label
_atom_site_fract_x
_atom_site_fract_y
_atom_site_fract_z
Si Si1 0.831597 0.876988 0.803988
Si Si2 0.172505 0.831498 0.525115
Si Si3 0.326262 0.152441 0.585002
Si Si4 0.171318 0.749211 0.190850
Si Si5 0.669424 0.742257 0.864040
Si Si6 0.330950 0.029990 0.415378
Si Si7 0.827151 0.577667 0.690043
Si Si8 0.172240 0.427484 0.809510
O O1 0.750000 0.912156 0.750000
O O2 0.765755 0.791985 0.820554
O O3 0.808696 0.941492 0.852102
O O4 0.000000 0.862947 0.788876
O O5 0.248332 0.803693 0.467261
O O6 0.212599 0.765561 0.572142
O O7 0.233557 0.918106 0.542487
O O8 0.000000 0.839024 0.515570
O O9 0.500000 0.164576 0.579528
O O10 0.269887 0.190310 0.643508
O O11 0.278788 0.060657 0.583260
O O12 0.250000 0.764975 0.250000
O O13 0.199402 0.660431 0.165472
O O14 0.000000 0.762167 0.203002
O O15 0.500000 0.764374 0.852965
O O16 0.700875 0.649890 0.852952
O O17 0.500000 0.039127 0.434779
O O18 0.750000 0.595016 0.750000
O O19 0.754019 0.500492 0.658674
O O20 0.000000 0.563747 0.700165
O O21 0.250000 0.428184 0.750000
O O22 0.000000 0.446518 0.804544
#
# Coordination Sequence:
#
# PCOD8217762 Si02
#       8
#     8   8   8   8   8   8   8   8
#     4  10  19  30  45  66  94 128 161 192 233 282
#     4  10  20  34  51  72  96 122 158 202 241 276
#     4  10  20  35  53  72  95 124 158 195 236 283
#     4   9  19  34  52  74 100 127 155 191 235 283
#     4   9  19  33  47  66  95 127 159 197 235 275
#     4   9  19  34  50  68  93 127 162 196 237 283
#     4  10  18  28  45  70  97 125 156 190 230 276
#     4   9  16  28  46  69  96 124 154 189 230 275
#
# _framework density 17.584961
#
# number of rings (size 3 to 8) (size 9 to 14) (size 15 to 20)
#    0.000    2.500    0.000    3.000    0.000    6.500 
#    0.000    0.000    0.000    0.750    0.000    5.250 
#    0.000    0.000    0.000    0.000    0.000    0.000 
#
# Total GULP energy -793375.547284 kJ/mol
# GULP energy per Si atom -12396.492926 kJ/mol
# Density = 1.754494 g / cm^3
# Si number density = 17.584961 Si / 1000 Ang^3
#
#
#
# Elastic Constant Matrix: (Units=GPa)
#
#
# Indices 1 2 3 4 5 6 
#
# 1 80.3463 40.1865 48.4022 0.0000 0.0000 0.0000
# 2 40.1865 96.6638 53.2162 0.0000 0.0000 0.0000
# 3 48.4022 53.2162 111.0480 0.0000 0.0000 0.0000
# 4 0.0000 0.0000 0.0000 17.3894 0.0000 0.0000
# 5 0.0000 0.0000 0.0000 0.0000 28.6107 0.0000
# 6 0.0000 0.0000 0.0000 0.0000 0.0000 17.6046
#
#
#
# Elastic Compliance Matrix: (Units=1/GPa)
#
#
# Indices 1 2 3 4 5 6 
#
# 1 0.018118 -0.004326 -0.005824 0.000000 0.000000 0.000000
# 2 -0.004326 0.015085 -0.005344 0.000000 0.000000 0.000000
# 3 -0.005824 -0.005344 0.014104 0.000000 0.000000 0.000000
# 4 0.000000 0.000000 0.000000 0.057506 0.000000 0.000000
# 5 0.000000 0.000000 0.000000 0.000000 0.034952 0.000000
# 6 0.000000 0.000000 0.000000 0.000000 0.000000 0.056803
#
#
# Mechanical properties :
#
#
# Convention : Reuss Voigt Hill
#
# Bulk Modulus (GPa) = 61.27204 63.51868 62.39536
# Shear Modulus (GPa) = 21.45943 22.47115 21.96529
#
# Velocity S-wave (km/s) = 3.49711 3.57860 3.53809
# Velocity P-wave (km/s) = 7.15720 7.29894 7.22842
#
# Compressibility (1/GPa) = 0.01632066
#
# Stress axis : x y z
#
# Youngs Moduli (GPa) = 55.19232 66.28894 70.89993
#
# Poissons Ratio (x) = 0.28678 0.41293
# Poissons Ratio (y) = 0.23877 0.37886
# Poissons Ratio (z) = 0.32144 0.35422
#
# Static dielectric constant tensor:
#      x y z
#    x 3.333430 0.000000 0.000000 
#    y 0.000000 3.718630 0.000000 
#    z 0.000000 0.000000 3.174980 
# 
# 
# High freq. dielectric constant tensor:
#      x y z
#    x 1.686420 0.000000 0.000000 
#    y 0.000000 1.676860 0.000000 
#    z 0.000000 0.000000 1.660230 
# 
# From -- ./inp_files/34488.got.cif
#   From: 2010.03.12/outbox.cif.g09.slc.cpg/sg53_18_cif.got.tgz:34488.got - 2010.04.16 14:36:59.
