data_PCOD8217291
_publ_section_title
;
Structure prediction by ZEFSAII (Michael W. Deem and Ramdas Pophale) SiO2 
 PCOD8217291
Probable space group: P N N A
;
_chemical_formula_sum "Si O2"
_cell_formula_units_Z 56
_cell_length_a 19.435654
_cell_length_b 11.879980
_cell_length_c 11.038208
_cell_angle_alpha 90.000000
_cell_angle_beta 90.000000
_cell_angle_gamma 90.000000
_cell_volume 2548.669032
_symmetry_space_group_name_H-M "P N N A"
_symmetry_group_IT_number 52
_symmetry_cell_setting 'orthorhombic'
loop_
_space_group_symop_operation_xyz
x,y,z
1/2-x,-y,z
x,1/2-y,1/2-z
1/2-x,1/2+y,1/2-z
-x,-y,-z
1/2+x,y,-z
-x,1/2+y,1/2+z
1/2+x,1/2-y,1/2+z
loop_
_atom_site_type_symbol
_atom_site_label
_atom_site_fract_x
_atom_site_fract_y
_atom_site_fract_z
Si Si1 0.566731 0.758889 0.067280
Si Si2 0.750000 0.000000 0.640918
Si Si3 0.250000 0.000000 0.759793
Si Si4 0.508722 0.909825 0.263124
Si Si5 0.284045 0.328740 0.938569
Si Si6 0.647698 0.130362 0.793843
Si Si7 0.515860 0.341734 0.341340
Si Si8 0.833785 0.649860 0.428177
O O1 0.561605 0.844605 0.177904
O O2 0.529966 0.636874 0.100956
O O3 0.647260 0.742894 0.042632
O O4 0.533751 0.829962 0.956794
O O5 0.773187 0.104670 0.561666
O O6 0.684915 0.030381 0.723127
O O7 0.290071 0.089878 0.676901
O O8 0.190189 0.048034 0.844205
O O9 0.432076 0.870294 0.237031
O O10 0.514148 0.041701 0.233984
O O11 0.218310 0.252197 0.913832
O O12 0.678383 0.250000 0.750000
O O13 0.661093 0.108164 0.934520
O O14 0.487442 0.250000 0.250000
O O15 0.592143 0.309390 0.383651
#
# Coordination Sequence:
#
# PCOD8217291 Si02
#       8
#     8   4   4   8   8   8   8   8
#     4  11  25  46  73 103 137 193 232 298 354 431
#     4  11  27  46  74 106 141 183 234 298 354 431
#     4  11  25  42  70 106 139 189 228 294 350 429
#     4  11  25  48  75 100 145 185 246 292 358 435
#     4  11  26  46  70 104 148 180 238 290 359 424
#     4  12  23  49  73 104 139 190 237 292 362 426
#     4  12  27  45  70 109 143 186 240 297 358 431
#     4  12  25  45  71  99 142 184 234 288 355 422
#
# _framework density 21.972252000000001
#
# number of rings (size 3 to 8) (size 9 to 14) (size 15 to 20)
#    0.000    0.571    4.286    3.000    8.000    2.857 
#    0.000    0.000    0.000    0.000    0.000    0.000 
#    0.000    0.000    0.000    0.000    0.000    0.000 
#
# Total GULP energy -694406.009643 kJ/mol
# GULP energy per Si atom -12400.107315 kJ/mol
# Density = 2.192224 g / cm^3
# Si number density = 21.972252 Si / 1000 Ang^3
#
#
#
# Elastic Constant Matrix: (Units=GPa)
#
#
# Indices 1 2 3 4 5 6 
#
# 1 91.8520 19.8403 -1.4048 0.0000 0.0000 0.0000
# 2 19.8403 106.0809 10.1390 0.0000 0.0000 0.0000
# 3 -1.4048 10.1390 71.2677 0.0000 0.0000 0.0000
# 4 0.0000 0.0000 0.0000 42.2681 0.0000 0.0000
# 5 0.0000 0.0000 0.0000 0.0000 30.5629 0.0000
# 6 0.0000 0.0000 0.0000 0.0000 0.0000 21.9457
#
#
#
# Elastic Compliance Matrix: (Units=1/GPa)
#
#
# Indices 1 2 3 4 5 6 
#
# 1 0.011365 -0.002177 0.000534 0.000000 0.000000 0.000000
# 2 -0.002177 0.009974 -0.001462 0.000000 0.000000 0.000000
# 3 0.000534 -0.001462 0.014250 0.000000 0.000000 0.000000
# 4 0.000000 0.000000 0.000000 0.023658 0.000000 0.000000
# 5 0.000000 0.000000 0.000000 0.000000 0.032719 0.000000
# 6 0.000000 0.000000 0.000000 0.000000 0.000000 0.045567
#
#
# Mechanical properties :
#
#
# Convention : Reuss Voigt Hill
#
# Bulk Modulus (GPa) = 34.03733 36.26106 35.14920
# Shear Modulus (GPa) = 32.56548 34.99708 33.78128
#
# Velocity S-wave (km/s) = 3.85401 3.99530 3.92529
# Velocity P-wave (km/s) = 5.94383 6.14997 6.04778
#
# Compressibility (1/GPa) = 0.02937951
#
# Stress axis : x y z
#
# Youngs Moduli (GPa) = 87.98626 100.26476 70.17498
#
# Poissons Ratio (x) = 0.21825 -0.03745
# Poissons Ratio (y) = 0.19152 0.10258
# Poissons Ratio (z) = -0.04696 0.14657
#
# Static dielectric constant tensor:
#      x y z
#    x 3.897380 0.000000 0.000000 
#    y 0.000000 3.883170 0.000000 
#    z 0.000000 0.000000 4.278100 
# 
# 
# High freq. dielectric constant tensor:
#      x y z
#    x 1.870740 0.000000 0.000000 
#    y 0.000000 1.867970 0.000000 
#    z 0.000000 0.000000 1.874090 
# 
# From -- ./inp_files/21719.got.cif
#   From: 2010.06.25/outbox.cif.g09.slc.cpg/sg52_11_cif.got.tgz:21719.got - 2010.06.26 19:32:48.
