data_PCOD8217035
_publ_section_title
;
Structure prediction by ZEFSAII (Michael W. Deem and Ramdas Pophale) SiO2 
 PCOD8217035
Probable space group: P N N A
;
_chemical_formula_sum "Si O2"
_cell_formula_units_Z 56
_cell_length_a 14.367753
_cell_length_b 14.272302
_cell_length_c 12.274063
_cell_angle_alpha 90.000000
_cell_angle_beta 90.000000
_cell_angle_gamma 90.000000
_cell_volume 2516.930527
_symmetry_space_group_name_H-M "P N N A"
_symmetry_group_IT_number 52
_symmetry_cell_setting 'orthorhombic'
loop_
_space_group_symop_operation_xyz
x,y,z
1/2-x,-y,z
x,1/2-y,1/2-z
1/2-x,1/2+y,1/2-z
-x,-y,-z
1/2+x,y,-z
-x,1/2+y,1/2+z
1/2+x,1/2-y,1/2+z
loop_
_atom_site_type_symbol
_atom_site_label
_atom_site_fract_x
_atom_site_fract_y
_atom_site_fract_z
Si Si1 0.358038 0.098252 0.576769
Si Si2 0.642359 0.395743 0.791626
Si Si3 0.555747 0.595860 0.522527
Si Si4 0.846105 0.103876 0.760844
Si Si5 0.847344 0.612846 0.032816
Si Si6 0.976036 0.295616 0.903340
Si Si7 0.945225 0.147988 0.213780
O O1 0.254262 0.141833 0.576589
O O2 0.426165 0.167060 0.512118
O O3 0.396465 0.080042 0.698713
O O4 0.357346 0.998058 0.521064
O O5 0.739810 0.360284 0.741253
O O6 0.641634 0.508101 0.805864
O O7 0.557544 0.362366 0.715010
O O8 0.633826 0.348645 0.910839
O O9 0.500000 0.500000 0.500000
O O10 0.635384 0.578962 0.612184
O O11 0.502056 0.684969 0.577168
O O12 0.595950 0.625738 0.405179
O O13 0.912496 0.181644 0.703021
O O14 0.924097 0.655779 0.113872
O O15 0.912955 0.250000 0.250000
#
# Coordination Sequence:
#
# PCOD8217035 Si02
#       7
#     8   8   8   8   8   8   8
#     4  11  21  39  69 103 132 169 219 282 348 401
#     4  11  20  39  70 106 132 170 232 286 345 410
#     4  12  27  46  64  94 143 190 233 273 347 419
#     4  11  23  42  68 102 138 173 225 292 348 410
#     4  11  21  39  71 108 135 163 231 288 343 412
#     4  12  22  42  71 100 134 181 223 291 340 401
#     4  12  24  43  68  94 134 187 228 273 339 421
#
# _framework density 22.249323
#
# number of rings (size 3 to 8) (size 9 to 14) (size 15 to 20)
#    0.000    0.571    7.143    2.571    0.000    1.143 
#    2.571    5.714    0.000    0.000    0.000    0.000 
#    0.000    0.000    0.000    0.000    0.000    0.000 
#
# Total GULP energy -694089.111011 kJ/mol
# GULP energy per Si atom -12394.448411 kJ/mol
# Density = 2.219868 g / cm^3
# Si number density = 22.249323 Si / 1000 Ang^3
#
#
#
# Elastic Constant Matrix: (Units=GPa)
#
#
# Indices 1 2 3 4 5 6 
#
# 1 143.4818 28.8493 45.0937 0.0000 0.0000 0.0000
# 2 28.8493 98.8250 17.4977 0.0000 0.0000 0.0000
# 3 45.0937 17.4977 163.6417 0.0000 0.0000 0.0000
# 4 0.0000 0.0000 0.0000 27.3307 0.0000 0.0000
# 5 0.0000 0.0000 0.0000 0.0000 22.9268 0.0000
# 6 0.0000 0.0000 0.0000 0.0000 0.0000 9.5736
#
#
#
# Elastic Compliance Matrix: (Units=1/GPa)
#
#
# Indices 1 2 3 4 5 6 
#
# 1 0.007994 -0.001981 -0.001991 0.000000 0.000000 0.000000
# 2 -0.001981 0.010805 -0.000609 0.000000 0.000000 0.000000
# 3 -0.001991 -0.000609 0.006725 0.000000 0.000000 0.000000
# 4 0.000000 0.000000 0.000000 0.036589 0.000000 0.000000
# 5 0.000000 0.000000 0.000000 0.000000 0.043617 0.000000
# 6 0.000000 0.000000 0.000000 0.000000 0.000000 0.104454
#
#
# Mechanical properties :
#
#
# Convention : Reuss Voigt Hill
#
# Bulk Modulus (GPa) = 61.12242 65.42555 63.27399
# Shear Modulus (GPa) = 22.24208 32.93343 27.58776
#
# Velocity S-wave (km/s) = 3.16519 3.85151 3.52509
# Velocity P-wave (km/s) = 6.39446 7.01771 6.71333
#
# Compressibility (1/GPa) = 0.01636061
#
# Stress axis : x y z
#
# Youngs Moduli (GPa) = 125.10101 92.54888 148.70552
#
# Poissons Ratio (x) = 0.18334 0.29606
# Poissons Ratio (y) = 0.24782 0.09063
# Poissons Ratio (z) = 0.24906 0.05641
#
# Static dielectric constant tensor:
#      x y z
#    x 3.943710 0.000000 0.000000 
#    y 0.000000 4.006290 0.000000 
#    z 0.000000 0.000000 4.140590 
# 
# 
# High freq. dielectric constant tensor:
#      x y z
#    x 1.858100 0.000000 0.000000 
#    y 0.000000 1.875490 0.000000 
#    z 0.000000 0.000000 1.880530 
# 
# From -- ./inp_files/19622.got.cif
#   From: 2010.06.25/outbox.cif.g09.slc.cpg/sg52_10_cif.got.tgz:19622.got - 2010.06.26 19:32:48.
