data_PCOD8217637
_publ_section_title
;
Structure prediction by ZEFSAII (Michael W. Deem and Ramdas Pophale) SiO2 
 PCOD8217637
Probable space group: P M N A
;
_chemical_formula_sum "Si O2"
_cell_formula_units_Z 48
_cell_length_a 20.807183
_cell_length_b 9.248477
_cell_length_c 14.741468
_cell_angle_alpha 90.000000
_cell_angle_beta 90.000000
_cell_angle_gamma 90.000000
_cell_volume 2836.770759
_symmetry_space_group_name_H-M "P M N A"
_symmetry_group_IT_number 53
_symmetry_cell_setting 'orthorhombic'
loop_
_space_group_symop_operation_xyz
x,y,z
1/2-x,-y,1/2+z
x,-y,-z
1/2-x,y,1/2-z
-x,-y,-z
1/2+x,y,1/2-z
-x,y,z
1/2+x,-y,1/2+z
loop_
_atom_site_type_symbol
_atom_site_label
_atom_site_fract_x
_atom_site_fract_y
_atom_site_fract_z
Si Si1 0.115446 0.161822 0.481954
Si Si2 0.380407 0.579378 0.093414
Si Si3 0.428550 0.325452 0.193975
Si Si4 0.233295 0.836424 0.987809
Si Si5 0.740077 0.632785 0.348880
Si Si6 0.190674 0.330107 0.183732
O O1 0.099484 0.253823 0.574159
O O2 0.080485 0.224474 0.394042
O O3 0.191508 0.170285 0.464908
O O4 0.091195 0.000000 0.500000
O O5 0.422861 0.496334 0.167986
O O6 0.306608 0.560477 0.120958
O O7 0.390829 0.500000 0.000000
O O8 0.500000 0.299196 0.232973
O O9 0.376362 0.285749 0.269704
O O10 0.194284 0.765656 0.906177
O O11 0.216027 0.752439 0.080663
O O12 0.209655 0.000000 0.000000
O O13 0.750000 0.706982 0.250000
O O14 0.689810 0.500253 0.342369
O O15 0.250000 0.294597 0.250000
#
# Coordination Sequence:
#
# PCOD8217637 Si02
#       6
#     8   8   8   8   8   8
#     4   9  18  32  50  77 111 142 170 206 261 326
#     4   9  16  30  50  74 103 132 171 209 257 311
#     4  11  21  33  51  77 105 140 179 217 257 307
#     4  10  20  33  52  82 110 133 171 217 263 313
#     4  10  17  30  55  79 100 133 169 216 265 306
#     4  11  18  34  56  76 103 140 174 215 259 305
#
# _framework density 16.920648
#
# number of rings (size 3 to 8) (size 9 to 14) (size 15 to 20)
#    0.000    2.000    5.000    2.500    0.000    4.000 
#    3.000    0.000    0.000    2.500    0.000    0.000 
#    0.000    0.000    0.000    0.000    0.000    0.000 
#
# Total GULP energy -594992.035864 kJ/mol
# GULP energy per Si atom -12395.667414 kJ/mol
# Density = 1.688214 g / cm^3
# Si number density = 16.920648 Si / 1000 Ang^3
#
#
#
# Elastic Constant Matrix: (Units=GPa)
#
#
# Indices 1 2 3 4 5 6 
#
# 1 80.7937 28.1838 35.0062 0.0000 0.0000 0.0000
# 2 28.1838 115.0993 56.7825 0.0000 0.0000 0.0000
# 3 35.0062 56.7825 105.1423 0.0000 0.0000 0.0000
# 4 0.0000 0.0000 0.0000 20.2749 0.0000 0.0000
# 5 0.0000 0.0000 0.0000 0.0000 18.4188 0.0000
# 6 0.0000 0.0000 0.0000 0.0000 0.0000 9.2409
#
#
#
# Elastic Compliance Matrix: (Units=1/GPa)
#
#
# Indices 1 2 3 4 5 6 
#
# 1 0.014680 -0.001613 -0.004016 0.000000 0.000000 0.000000
# 2 -0.001613 0.012021 -0.005955 0.000000 0.000000 0.000000
# 3 -0.004016 -0.005955 0.014064 0.000000 0.000000 0.000000
# 4 0.000000 0.000000 0.000000 0.049322 0.000000 0.000000
# 5 0.000000 0.000000 0.000000 0.000000 0.054292 0.000000
# 6 0.000000 0.000000 0.000000 0.000000 0.000000 0.108214
#
#
# Mechanical properties :
#
#
# Convention : Reuss Voigt Hill
#
# Bulk Modulus (GPa) = 56.83034 60.10892 58.46963
# Shear Modulus (GPa) = 17.75391 21.65778 19.70584
#
# Velocity S-wave (km/s) = 3.24272 3.58154 3.41633
# Velocity P-wave (km/s) = 6.90504 7.25977 7.08463
#
# Compressibility (1/GPa) = 0.01759624
#
# Stress axis : x y z
#
# Youngs Moduli (GPa) = 68.11906 83.18846 71.10326
#
# Poissons Ratio (x) = 0.13420 0.28558
# Poissons Ratio (y) = 0.10989 0.42341
# Poissons Ratio (z) = 0.27359 0.49537
#
# Static dielectric constant tensor:
#      x y z
#    x 2.849150 0.000000 0.000000 
#    y 0.000000 3.464460 0.000000 
#    z 0.000000 0.000000 3.240220 
# 
# 
# High freq. dielectric constant tensor:
#      x y z
#    x 1.613710 0.000000 0.000000 
#    y 0.000000 1.651930 0.000000 
#    z 0.000000 0.000000 1.644790 
# 
# From -- ./inp_files/23678.got.cif
#   From: 2010.03.12/outbox.cif.g09.slc.cpg/sg53_12_cif.got.tgz:23678.got - 2010.04.16 14:36:59.
