data_PCOD8217783
_publ_section_title
;
Structure prediction by ZEFSAII (Michael W. Deem and Ramdas Pophale) SiO2 
 PCOD8217783
Probable space group: P M N A
;
_chemical_formula_sum "Si O2"
_cell_formula_units_Z 48
_cell_length_a 30.861672
_cell_length_b 8.669860
_cell_length_c 9.026075
_cell_angle_alpha 90.000000
_cell_angle_beta 90.000000
_cell_angle_gamma 90.000000
_cell_volume 2415.074174
_symmetry_space_group_name_H-M "P M N A"
_symmetry_group_IT_number 53
_symmetry_cell_setting 'orthorhombic'
loop_
_space_group_symop_operation_xyz
x,y,z
1/2-x,-y,1/2+z
x,-y,-z
1/2-x,y,1/2-z
-x,-y,-z
1/2+x,y,1/2-z
-x,y,z
1/2+x,-y,1/2+z
loop_
_atom_site_type_symbol
_atom_site_label
_atom_site_fract_x
_atom_site_fract_y
_atom_site_fract_z
Si Si1 0.373242 0.259888 0.199247
Si Si2 0.453487 0.340072 0.585317
Si Si3 0.176963 0.500000 0.500000
Si Si4 0.139928 0.315229 0.982895
Si Si5 0.201970 0.758856 0.292503
Si Si6 0.844642 0.000000 0.500000
Si Si7 0.951563 0.451241 0.342888
O O1 0.347759 0.242396 0.356533
O O2 0.374537 0.099766 0.110266
O O3 0.422196 0.317822 0.232358
O O4 0.351779 0.390494 0.100318
O O5 0.455759 0.500000 0.500000
O O6 0.500000 0.250752 0.556147
O O7 0.408901 0.250002 0.550300
O O8 0.450496 0.387198 0.756775
O O9 0.205747 0.600989 0.387055
O O10 0.172520 0.260807 0.854774
O O11 0.140131 0.500000 0.000000
O O12 0.250000 0.808759 0.250000
O O13 0.184731 0.893154 0.397411
O O14 0.932179 0.500000 0.500000
O O15 0.000000 0.382446 0.354034
#
# Coordination Sequence:
#
# PCOD8217783 Si02
#       7
#     8   8   4   8   8   4   8
#     4  11  20  38  60  86 126 159 209 246 306 364
#     4   9  16  28  50  90 126 146 187 249 314 356
#     4  10  20  36  63  90 118 148 193 260 300 354
#     4  11  20  35  63  97 119 153 201 265 312 349
#     4  11  25  43  65  91 123 156 207 250 316 370
#     4  10  28  44  59  84 120 180 193 248 300 386
#     4  10  18  28  53  90 123 159 201 259 311 355
#
# _framework density 19.875167999999999
#
# number of rings (size 3 to 8) (size 9 to 14) (size 15 to 20)
#    0.000    1.667    5.833    0.000    3.500    2.000 
#    0.000    3.750    0.000    1.000    0.000    2.333 
#    0.000    0.000    0.000    0.000    0.000    0.000 
#
# Total GULP energy -594692.516299 kJ/mol
# GULP energy per Si atom -12389.427423 kJ/mol
# Density = 1.982993 g / cm^3
# Si number density = 19.875168 Si / 1000 Ang^3
#
#
#
# Elastic Constant Matrix: (Units=GPa)
#
#
# Indices 1 2 3 4 5 6 
#
# 1 110.6216 19.4100 32.2836 0.0000 0.0000 0.0000
# 2 19.4100 68.8325 29.8341 0.0000 0.0000 0.0000
# 3 32.2836 29.8341 145.2549 0.0000 0.0000 0.0000
# 4 0.0000 0.0000 0.0000 27.3409 0.0000 0.0000
# 5 0.0000 0.0000 0.0000 0.0000 26.2953 0.0000
# 6 0.0000 0.0000 0.0000 0.0000 0.0000 12.6215
#
#
#
# Elastic Compliance Matrix: (Units=1/GPa)
#
#
# Indices 1 2 3 4 5 6 
#
# 1 0.009917 -0.002021 -0.001789 0.000000 0.000000 0.000000
# 2 -0.002021 0.016360 -0.002911 0.000000 0.000000 0.000000
# 3 -0.001789 -0.002911 0.007880 0.000000 0.000000 0.000000
# 4 0.000000 0.000000 0.000000 0.036575 0.000000 0.000000
# 5 0.000000 0.000000 0.000000 0.000000 0.038030 0.000000
# 6 0.000000 0.000000 0.000000 0.000000 0.000000 0.079230
#
#
# Mechanical properties :
#
#
# Convention : Reuss Voigt Hill
#
# Bulk Modulus (GPa) = 48.27561 54.19603 51.23582
# Shear Modulus (GPa) = 23.99953 29.46363 26.73158
#
# Velocity S-wave (km/s) = 3.47870 3.85442 3.67137
# Velocity P-wave (km/s) = 6.36217 6.86557 6.61866
#
# Compressibility (1/GPa) = 0.02071439
#
# Stress axis : x y z
#
# Youngs Moduli (GPa) = 100.84203 61.12612 126.90476
#
# Poissons Ratio (x) = 0.12353 0.22702
# Poissons Ratio (y) = 0.20380 0.36941
# Poissons Ratio (z) = 0.18040 0.17794
#
# Static dielectric constant tensor:
#      x y z
#    x 3.693990 0.000000 0.000000 
#    y 0.000000 3.341770 0.000000 
#    z 0.000000 0.000000 4.297850 
# 
# 
# High freq. dielectric constant tensor:
#      x y z
#    x 1.770740 0.000000 0.000000 
#    y 0.000000 1.718570 0.000000 
#    z 0.000000 0.000000 1.808690 
# 
# From -- ./inp_files/13071.got.cif
#   From: 2010.03.12/outbox.cif.g09.slc.cpg/sg53_7_cif.got.tgz:13071.got - 2010.04.16 14:36:59.
