data_PCOD8217209
_publ_section_title
;
Structure prediction by ZEFSAII (Michael W. Deem and Ramdas Pophale) SiO2 
 PCOD8217209
Probable space group: P N N A
;
_chemical_formula_sum "Si O2"
_cell_formula_units_Z 36
_cell_length_a 12.367951
_cell_length_b 6.803125
_cell_length_c 21.090990
_cell_angle_alpha 90.000000
_cell_angle_beta 90.000000
_cell_angle_gamma 90.000000
_cell_volume 1774.611013
_symmetry_space_group_name_H-M "P N N A"
_symmetry_group_IT_number 52
_symmetry_cell_setting 'orthorhombic'
loop_
_space_group_symop_operation_xyz
x,y,z
1/2-x,-y,z
x,1/2-y,1/2-z
1/2-x,1/2+y,1/2-z
-x,-y,-z
1/2+x,y,-z
-x,1/2+y,1/2+z
1/2+x,1/2-y,1/2+z
loop_
_atom_site_type_symbol
_atom_site_label
_atom_site_fract_x
_atom_site_fract_y
_atom_site_fract_z
Si Si1 0.496736 0.226064 0.917924
Si Si2 0.138885 0.578995 0.134088
Si Si3 0.354474 0.114116 0.030622
Si Si4 0.140453 0.908554 0.801633
Si Si5 0.994280 0.250000 0.750000
O O1 0.566323 0.420703 0.904147
O O2 0.425982 0.194422 0.856191
O O3 0.569174 0.038890 0.933426
O O4 0.414527 0.243804 0.977032
O O5 0.250000 0.500000 0.164825
O O6 0.183234 0.734135 0.083422
O O7 0.076228 0.685120 0.190246
O O8 0.250000 0.000000 0.002188
O O9 0.176256 0.750000 0.750000
O O10 0.250000 0.000000 0.830472
O O11 0.067240 0.068640 0.768334
#
# Coordination Sequence:
#
# PCOD8217209 Si02
#       5
#     8   8   8   8   4
#     4  11  24  42  68  96 133 174 216 276 332 392
#     4  12  25  43  68  98 135 175 223 274 326 396
#     4  11  23  43  67  97 133 173 220 271 334 394
#     4  12  24  43  68  96 132 172 218 273 334 397
#     4  12  26  42  66 100 132 176 224 270 332 394
#
# _framework density 20.286135999999999
#
# number of rings (size 3 to 8) (size 9 to 14) (size 15 to 20)
#    0.000    0.444    7.778    1.333    0.000    2.667 
#    0.000    1.111    0.000    0.000    0.000    0.000 
#    0.000    0.000    0.000    0.000    0.000    0.000 
#
# Total GULP energy -446358.639697 kJ/mol
# GULP energy per Si atom -12398.851103 kJ/mol
# Density = 2.023996 g / cm^3
# Si number density = 20.286136 Si / 1000 Ang^3
#
#
#
# Elastic Constant Matrix: (Units=GPa)
#
#
# Indices 1 2 3 4 5 6 
#
# 1 116.7093 30.5265 29.5500 0.0000 0.0000 0.0000
# 2 30.5265 82.7841 33.7769 0.0000 0.0000 0.0000
# 3 29.5500 33.7769 85.1174 0.0000 0.0000 0.0000
# 4 0.0000 0.0000 0.0000 55.1288 0.0000 0.0000
# 5 0.0000 0.0000 0.0000 0.0000 24.5020 0.0000
# 6 0.0000 0.0000 0.0000 0.0000 0.0000 37.0367
#
#
#
# Elastic Compliance Matrix: (Units=1/GPa)
#
#
# Indices 1 2 3 4 5 6 
#
# 1 0.009866 -0.002673 -0.002364 0.000000 0.000000 0.000000
# 2 -0.002673 0.015138 -0.005079 0.000000 0.000000 0.000000
# 3 -0.002364 -0.005079 0.014585 0.000000 0.000000 0.000000
# 4 0.000000 0.000000 0.000000 0.018139 0.000000 0.000000
# 5 0.000000 0.000000 0.000000 0.000000 0.040813 0.000000
# 6 0.000000 0.000000 0.000000 0.000000 0.000000 0.027000
#
#
# Mechanical properties :
#
#
# Convention : Reuss Voigt Hill
#
# Bulk Modulus (GPa) = 51.66557 52.47973 52.07265
# Shear Modulus (GPa) = 32.84580 36.05065 34.44822
#
# Velocity S-wave (km/s) = 4.02820 4.22015 4.12529
# Velocity P-wave (km/s) = 6.86723 7.04784 6.95813
#
# Compressibility (1/GPa) = 0.01935525
#
# Stress axis : x y z
#
# Youngs Moduli (GPa) = 101.35613 66.06016 68.56478
#
# Poissons Ratio (x) = 0.17661 0.16211
# Poissons Ratio (y) = 0.27097 0.34824
# Poissons Ratio (z) = 0.23964 0.33551
#
# Static dielectric constant tensor:
#      x y z
#    x 3.831790 0.000000 0.000000 
#    y 0.000000 3.803320 0.000000 
#    z 0.000000 0.000000 4.158310 
# 
# 
# High freq. dielectric constant tensor:
#      x y z
#    x 1.810180 0.000000 0.000000 
#    y 0.000000 1.802450 0.000000 
#    z 0.000000 0.000000 1.795560 
# 
# From -- ./inp_files/39909.got.cif
#   From: 2010.06.25/outbox.cif.g09.slc.cpg/sg52_20_cif.got.tgz:39909.got - 2010.06.26 19:32:48.
