data_PCOD8217249
_publ_section_title
;
Structure prediction by ZEFSAII (Michael W. Deem and Ramdas Pophale) SiO2 
 PCOD8217249
Probable space group: P N N A
;
_chemical_formula_sum "Si O2"
_cell_formula_units_Z 64
_cell_length_a 14.826226
_cell_length_b 18.482015
_cell_length_c 11.504044
_cell_angle_alpha 90.000000
_cell_angle_beta 90.000000
_cell_angle_gamma 90.000000
_cell_volume 3152.321241
_symmetry_space_group_name_H-M "P N N A"
_symmetry_group_IT_number 52
_symmetry_cell_setting 'orthorhombic'
loop_
_space_group_symop_operation_xyz
x,y,z
1/2-x,-y,z
x,1/2-y,1/2-z
1/2-x,1/2+y,1/2-z
-x,-y,-z
1/2+x,y,-z
-x,1/2+y,1/2+z
1/2+x,1/2-y,1/2+z
loop_
_atom_site_type_symbol
_atom_site_label
_atom_site_fract_x
_atom_site_fract_y
_atom_site_fract_z
Si Si1 0.351947 0.082523 0.725573
Si Si2 0.254485 0.085453 0.091683
Si Si3 0.353519 0.580482 0.775636
Si Si4 0.249923 0.325437 0.183028
Si Si5 0.593384 0.841393 0.051261
Si Si6 0.606434 0.322009 0.014328
Si Si7 0.393579 0.320766 0.987566
Si Si8 0.601362 0.160886 0.056050
O O1 0.249116 0.080634 0.768767
O O2 0.408844 0.126687 0.819470
O O3 0.356963 0.120368 0.601508
O O4 0.390822 0.001231 0.716132
O O5 0.248053 0.109569 0.225250
O O6 0.250000 0.000000 0.085824
O O7 0.348391 0.111070 0.036863
O O8 0.172898 0.117456 0.018565
O O9 0.358742 0.615340 0.902073
O O10 0.411380 0.626209 0.683280
O O11 0.251937 0.250000 0.250000
O O12 0.158623 0.330371 0.107411
O O13 0.341308 0.333456 0.108259
O O14 0.630608 0.759600 0.056941
O O15 0.491978 0.842637 0.009632
O O16 0.631385 0.244269 0.069528
O O17 0.499945 0.331443 0.000100
#
# Coordination Sequence:
#
# PCOD8217249 Si02
#       8
#     8   8   8   8   8   8   8   8
#     4  11  24  42  66  98 135 172 218 272 332 396
#     4  12  26  43  67  97 131 174 218 274 339 399
#     4  11  24  42  66  98 135 172 218 272 332 396
#     4  12  24  45  67  94 137 178 216 274 327 392
#     4  11  24  43  69  99 131 171 224 277 330 395
#     4  11  25  43  71  98 129 176 227 271 328 398
#     4  11  25  43  71  98 129 176 227 271 328 398
#     4  11  24  43  69  99 131 171 224 277 330 395
#
# _framework density 20.302499000000001
#
# number of rings (size 3 to 8) (size 9 to 14) (size 15 to 20)
#    0.000    0.750    5.000    1.500    3.500    4.500 
#    0.000    0.000    0.000    0.000    0.000    0.000 
#    0.000    0.000    0.000    0.000    0.000    0.000 
#
# Total GULP energy -793977.964716 kJ/mol
# GULP energy per Si atom -12405.905699 kJ/mol
# Density = 2.025629 g / cm^3
# Si number density = 20.302499 Si / 1000 Ang^3
#
#
#
# Elastic Constant Matrix: (Units=GPa)
#
#
# Indices 1 2 3 4 5 6 
#
# 1 79.9186 7.7478 19.5768 0.0000 0.0000 0.0000
# 2 7.7478 117.2670 33.3843 0.0000 0.0000 0.0000
# 3 19.5768 33.3843 118.2634 0.0000 0.0000 0.0000
# 4 0.0000 0.0000 0.0000 42.6087 0.0000 0.0000
# 5 0.0000 0.0000 0.0000 0.0000 25.4146 0.0000
# 6 0.0000 0.0000 0.0000 0.0000 0.0000 21.1887
#
#
#
# Elastic Compliance Matrix: (Units=1/GPa)
#
#
# Indices 1 2 3 4 5 6 
#
# 1 0.013049 -0.000269 -0.002084 0.000000 0.000000 0.000000
# 2 -0.000269 0.009278 -0.002575 0.000000 0.000000 0.000000
# 3 -0.002084 -0.002575 0.009528 0.000000 0.000000 0.000000
# 4 0.000000 0.000000 0.000000 0.023469 0.000000 0.000000
# 5 0.000000 0.000000 0.000000 0.000000 0.039348 0.000000
# 6 0.000000 0.000000 0.000000 0.000000 0.000000 0.047195
#
#
# Mechanical properties :
#
#
# Convention : Reuss Voigt Hill
#
# Bulk Modulus (GPa) = 45.45514 48.54077 46.99795
# Shear Modulus (GPa) = 31.43552 34.82505 33.13029
#
# Velocity S-wave (km/s) = 3.93919 4.14612 4.04398
# Velocity P-wave (km/s) = 6.56712 6.84698 6.70851
#
# Compressibility (1/GPa) = 0.02199971
#
# Stress axis : x y z
#
# Youngs Moduli (GPa) = 76.63223 107.77865 104.95921
#
# Poissons Ratio (x) = 0.02897 0.21876
# Poissons Ratio (y) = 0.02060 0.27023
# Poissons Ratio (z) = 0.15972 0.27749
#
# Static dielectric constant tensor:
#      x y z
#    x 3.796750 0.000000 0.000000 
#    y 0.000000 3.954620 0.000000 
#    z 0.000000 0.000000 3.719890 
# 
# 
# High freq. dielectric constant tensor:
#      x y z
#    x 1.796870 0.000000 0.000000 
#    y 0.000000 1.803220 0.000000 
#    z 0.000000 0.000000 1.801520 
# 
# From -- ./inp_files/19880.got.cif
#   From: 2010.06.25/outbox.cif.g09.slc.cpg/sg52_10_cif.got.tgz:19880.got - 2010.06.26 19:32:48.
