data_PCOD8217676
_publ_section_title
;
Structure prediction by ZEFSAII (Michael W. Deem and Ramdas Pophale) SiO2 
 PCOD8217676
Probable space group: P M N A
;
_chemical_formula_sum "Si O2"
_cell_formula_units_Z 64
_cell_length_a 9.531417
_cell_length_b 14.342473
_cell_length_c 29.867986
_cell_angle_alpha 90.000000
_cell_angle_beta 90.000000
_cell_angle_gamma 90.000000
_cell_volume 4083.075875
_symmetry_space_group_name_H-M "P M N A"
_symmetry_group_IT_number 53
_symmetry_cell_setting 'orthorhombic'
loop_
_space_group_symop_operation_xyz
x,y,z
1/2-x,-y,1/2+z
x,-y,-z
1/2-x,y,1/2-z
-x,-y,-z
1/2+x,y,1/2-z
-x,y,z
1/2+x,-y,1/2+z
loop_
_atom_site_type_symbol
_atom_site_label
_atom_site_fract_x
_atom_site_fract_y
_atom_site_fract_z
Si Si1 0.153915 0.267979 0.573682
Si Si2 0.661560 0.357395 0.707045
Si Si3 0.840844 0.749466 0.528440
Si Si4 0.660725 0.578289 0.387473
Si Si5 0.166614 0.953266 0.545034
Si Si6 0.335600 0.860190 0.294003
Si Si7 0.838053 0.567669 0.960115
Si Si8 0.337889 0.919194 0.125767
O O1 0.168280 0.228750 0.523984
O O2 0.265590 0.347880 0.580779
O O3 0.177783 0.184186 0.607218
O O4 0.000000 0.312036 0.581201
O O5 0.750000 0.389487 0.750000
O O6 0.500000 0.377643 0.718463
O O7 0.714512 0.417934 0.664045
O O8 0.685873 0.249112 0.695370
O O9 0.786720 0.845367 0.551025
O O10 0.745436 0.663397 0.542550
O O11 0.000000 0.725917 0.542978
O O12 0.500000 0.609059 0.386897
O O13 0.682034 0.478408 0.410984
O O14 0.000000 0.959585 0.541386
O O15 0.231514 0.000000 0.500000
O O16 0.218099 0.007568 0.589102
O O17 0.250000 0.887098 0.250000
O O18 0.500000 0.884418 0.288566
O O19 0.266750 0.924510 0.332266
O O20 0.000000 0.590528 0.969833
O O21 0.781524 0.500000 0.000000
O O22 0.500000 0.939250 0.139482
#
# Coordination Sequence:
#
# PCOD8217676 Si02
#       8
#     8   8   8   8   8   8   8   8
#     4  10  18  26  43  69  94 122 157 196 228 264
#     4   9  18  30  45  65  90 119 150 186 226 273
#     4  10  19  31  47  68  94 124 161 201 231 263
#     4  10  19  32  46  64  91 127 160 186 227 279
#     4   9  16  29  48  69  94 126 161 195 234 279
#     4  10  19  31  47  68  96 125 156 193 235 282
#     4  10  20  32  47  65  91 127 160 190 232 283
#     4  10  18  29  47  70  95 126 162 193 232 281
#
# _framework density 15.674457
#
# number of rings (size 3 to 8) (size 9 to 14) (size 15 to 20)
#    0.000    2.250    3.750    0.375    0.000    1.750 
#    0.000    0.625    0.000    0.750    0.000    0.875 
#    0.000    4.000    0.000    0.000    0.000    0.000 
#
# Total GULP energy -793399.371275 kJ/mol
# GULP energy per Si atom -12396.865176 kJ/mol
# Density = 1.563878 g / cm^3
# Si number density = 15.674457 Si / 1000 Ang^3
#
#
#
# Elastic Constant Matrix: (Units=GPa)
#
#
# Indices 1 2 3 4 5 6 
#
# 1 62.6722 38.3042 46.5868 0.0000 0.0000 0.0000
# 2 38.3042 68.3873 46.3982 0.0000 0.0000 0.0000
# 3 46.5868 46.3982 105.2647 0.0000 0.0000 0.0000
# 4 0.0000 0.0000 0.0000 24.1689 0.0000 0.0000
# 5 0.0000 0.0000 0.0000 0.0000 24.6688 0.0000
# 6 0.0000 0.0000 0.0000 0.0000 0.0000 9.5399
#
#
#
# Elastic Compliance Matrix: (Units=1/GPa)
#
#
# Indices 1 2 3 4 5 6 
#
# 1 0.028195 -0.010452 -0.007871 0.000000 0.000000 0.000000
# 2 -0.010452 0.024736 -0.006277 0.000000 0.000000 0.000000
# 3 -0.007871 -0.006277 0.015750 0.000000 0.000000 0.000000
# 4 0.000000 0.000000 0.000000 0.041375 0.000000 0.000000
# 5 0.000000 0.000000 0.000000 0.000000 0.040537 0.000000
# 6 0.000000 0.000000 0.000000 0.000000 0.000000 0.104823
#
#
# Mechanical properties :
#
#
# Convention : Reuss Voigt Hill
#
# Bulk Modulus (GPa) = 51.33411 55.43362 53.38387
# Shear Modulus (GPa) = 16.07144 18.67785 17.37465
#
# Velocity S-wave (km/s) = 3.20555 3.45572 3.33298
# Velocity P-wave (km/s) = 6.82070 7.16694 6.99596
#
# Compressibility (1/GPa) = 0.01948022
#
# Stress axis : x y z
#
# Youngs Moduli (GPa) = 35.46709 40.42749 63.49083
#
# Poissons Ratio (x) = 0.42254 0.49976
# Poissons Ratio (y) = 0.37070 0.39855
# Poissons Ratio (z) = 0.27917 0.25377
#
# Static dielectric constant tensor:
#      x y z
#    x 2.922880 0.000000 0.000000 
#    y 0.000000 2.817550 0.000000 
#    z 0.000000 0.000000 3.043900 
# 
# 
# High freq. dielectric constant tensor:
#      x y z
#    x 1.593290 0.000000 0.000000 
#    y 0.000000 1.572680 0.000000 
#    z 0.000000 0.000000 1.598030 
# 
# From -- ./inp_files/38421.got.cif
#   From: 2010.03.12/outbox.cif.g09.slc.cpg/sg53_20_cif.got.tgz:38421.got - 2010.04.16 14:36:59.
