data_PCOD8217466
_publ_section_title
;
Structure prediction by ZEFSAII (Michael W. Deem and Ramdas Pophale) SiO2 
 PCOD8217466
Probable space group: P M N A
;
_chemical_formula_sum "Si O2"
_cell_formula_units_Z 64
_cell_length_a 8.973983
_cell_length_b 20.392221
_cell_length_c 22.375678
_cell_angle_alpha 90.000000
_cell_angle_beta 90.000000
_cell_angle_gamma 90.000000
_cell_volume 4094.736646
_symmetry_space_group_name_H-M "P M N A"
_symmetry_group_IT_number 53
_symmetry_cell_setting 'orthorhombic'
loop_
_space_group_symop_operation_xyz
x,y,z
1/2-x,-y,1/2+z
x,-y,-z
1/2-x,y,1/2-z
-x,-y,-z
1/2+x,y,1/2-z
-x,y,z
1/2+x,-y,1/2+z
loop_
_atom_site_type_symbol
_atom_site_label
_atom_site_fract_x
_atom_site_fract_y
_atom_site_fract_z
Si Si1 0.178341 0.138776 0.186281
Si Si2 0.677290 0.247257 0.108108
Si Si3 0.323365 0.039296 0.412199
Si Si4 0.167033 0.639993 0.450683
Si Si5 0.834990 0.609054 0.590245
Si Si6 0.175992 0.765869 0.019644
Si Si7 0.675284 0.908541 0.462902
Si Si8 0.833307 0.485364 0.929933
O O1 0.250000 0.126147 0.250000
O O2 0.243734 0.205918 0.159621
O O3 0.235247 0.077612 0.145930
O O4 0.000000 0.144155 0.190460
O O5 0.500000 0.234862 0.105910
O O6 0.711917 0.323803 0.123432
O O7 0.747070 0.228925 0.044565
O O8 0.500000 0.043774 0.411007
O O9 0.259019 0.074802 0.471479
O O10 0.268772 0.962610 0.414106
O O11 0.168056 0.623667 0.520152
O O12 0.260927 0.706471 0.440343
O O13 0.238812 0.579537 0.414361
O O14 0.000000 0.650880 0.426888
O O15 0.727302 0.548556 0.606200
O O16 0.000000 0.587313 0.609623
O O17 0.214967 0.833708 0.054707
O O18 0.000000 0.756372 0.010210
O O19 0.500000 0.916794 0.468385
O O20 0.000000 0.472325 0.908156
O O21 0.826154 0.500000 0.000000
#
# Coordination Sequence:
#
# PCOD8217466 Si02
#       8
#     8   8   8   8   8   8   8   8
#     4  11  21  33  48  64  83 110 141 177 217 256
#     4  10  19  30  42  58  81 107 138 172 208 254
#     4   8  14  26  43  63  82 104 136 172 212 256
#     4   9  16  24  33  48  75 108 136 164 200 244
#     4   8  15  25  36  49  69 100 132 165 202 238
#     4  10  16  24  40  61  81 105 137 175 212 246
#     4   8  13  23  42  64  83 103 135 176 212 252
#     4   9  15  22  33  50  70  96 133 172 201 231
#
# _framework density 15.629821
#
# number of rings (size 3 to 8) (size 9 to 14) (size 15 to 20)
#    0.000    2.875    1.250    3.375    0.000    5.000 
#    0.000    0.000    0.000    3.750    0.000    0.000 
#    0.000    0.000    0.000    1.125    0.000   19.375 
#
# Total GULP energy -792980.435536 kJ/mol
# GULP energy per Si atom -12390.319305 kJ/mol
# Density = 1.559425 g / cm^3
# Si number density = 15.629821 Si / 1000 Ang^3
#
#
#
# Elastic Constant Matrix: (Units=GPa)
#
#
# Indices 1 2 3 4 5 6 
#
# 1 86.4273 58.0070 23.6335 0.0000 0.0000 0.0000
# 2 58.0070 154.0970 44.2769 0.0000 0.0000 0.0000
# 3 23.6335 44.2769 43.7808 0.0000 0.0000 0.0000
# 4 0.0000 0.0000 0.0000 12.1728 0.0000 0.0000
# 5 0.0000 0.0000 0.0000 0.0000 10.5315 0.0000
# 6 0.0000 0.0000 0.0000 0.0000 0.0000 15.1993
#
#
#
# Elastic Compliance Matrix: (Units=1/GPa)
#
#
# Indices 1 2 3 4 5 6 
#
# 1 0.015866 -0.004950 -0.003559 0.000000 0.000000 0.000000
# 2 -0.004950 0.010692 -0.008141 0.000000 0.000000 0.000000
# 3 -0.003559 -0.008141 0.032995 0.000000 0.000000 0.000000
# 4 0.000000 0.000000 0.000000 0.082150 0.000000 0.000000
# 5 0.000000 0.000000 0.000000 0.000000 0.094953 0.000000
# 6 0.000000 0.000000 0.000000 0.000000 0.000000 0.065792
#
#
# Mechanical properties :
#
#
# Convention : Reuss Voigt Hill
#
# Bulk Modulus (GPa) = 38.08951 59.57109 48.83030
# Shear Modulus (GPa) = 14.51384 18.13992 16.32688
#
# Velocity S-wave (km/s) = 3.05060 3.41045 3.23553
# Velocity P-wave (km/s) = 6.06884 7.32835 6.72813
#
# Compressibility (1/GPa) = 0.02625395
#
# Stress axis : x y z
#
# Youngs Moduli (GPa) = 63.02916 93.52898 30.30738
#
# Poissons Ratio (x) = 0.46296 0.10785
# Poissons Ratio (y) = 0.31199 0.24673
# Poissons Ratio (z) = 0.22429 0.76142
#
# Static dielectric constant tensor:
#      x y z
#    x 2.970290 0.000000 0.000000 
#    y 0.000000 3.459810 0.000000 
#    z 0.000000 0.000000 2.451980 
# 
# 
# High freq. dielectric constant tensor:
#      x y z
#    x 1.595550 0.000000 0.000000 
#    y 0.000000 1.620820 0.000000 
#    z 0.000000 0.000000 1.516510 
# 
# From -- ./inp_files/31372.got.cif
#   From: 2010.03.12/outbox.cif.g09.slc.cpg/sg53_16_cif.got.tgz:31372.got - 2010.04.16 14:36:59.
