data_PCOD8217678
_publ_section_title
;
Structure prediction by ZEFSAII (Michael W. Deem and Ramdas Pophale) SiO2 
 PCOD8217678
Probable space group: P M N A
;
_chemical_formula_sum "Si O2"
_cell_formula_units_Z 64
_cell_length_a 9.291598
_cell_length_b 16.770147
_cell_length_c 26.608559
_cell_angle_alpha 90.000000
_cell_angle_beta 90.000000
_cell_angle_gamma 90.000000
_cell_volume 4146.184627
_symmetry_space_group_name_H-M "P M N A"
_symmetry_group_IT_number 53
_symmetry_cell_setting 'orthorhombic'
loop_
_space_group_symop_operation_xyz
x,y,z
1/2-x,-y,1/2+z
x,-y,-z
1/2-x,y,1/2-z
-x,-y,-z
1/2+x,y,1/2-z
-x,y,z
1/2+x,-y,1/2+z
loop_
_atom_site_type_symbol
_atom_site_label
_atom_site_fract_x
_atom_site_fract_y
_atom_site_fract_z
Si Si1 0.331584 0.326381 0.963437
Si Si2 0.164508 0.374568 0.423468
Si Si3 0.670717 0.916288 0.802498
Si Si4 0.664830 0.787098 0.881332
Si Si5 0.166513 0.977882 0.122189
Si Si6 0.162683 0.522604 0.058047
Si Si7 0.835148 0.830710 0.060295
Si Si8 0.162598 0.887929 0.953285
O O1 0.500000 0.330257 0.951667
O O2 0.253403 0.397309 0.932950
O O3 0.270713 0.243917 0.941682
O O4 0.299114 0.334746 0.022642
O O5 0.190658 0.308545 0.379549
O O6 0.265478 0.449775 0.411234
O O7 0.000000 0.404602 0.423721
O O8 0.750000 0.912362 0.750000
O O9 0.500000 0.925508 0.795085
O O10 0.713433 0.833724 0.831023
O O11 0.730180 0.992595 0.833091
O O12 0.500000 0.806643 0.891461
O O13 0.744746 0.817347 0.930351
O O14 0.198230 0.885129 0.109328
O O15 0.000000 0.989145 0.138369
O O16 0.202267 0.027709 0.071709
O O17 0.000000 0.535035 0.077308
O O18 0.166478 0.500000 0.000000
O O19 0.000000 0.799819 0.061427
O O20 0.811086 0.889403 0.012804
O O21 0.000000 0.865383 0.940374
#
# Coordination Sequence:
#
# PCOD8217678 Si02
#       8
#     8   8   8   8   8   8   8   8
#     4  10  18  27  40  57  83 119 153 183 217 253
#     4   9  16  27  41  58  83 113 147 181 215 255
#     4  10  20  34  51  67  87 113 144 183 227 270
#     4   9  17  29  44  64  87 114 146 181 220 263
#     4   9  18  31  45  63  86 114 147 181 220 265
#     4   9  17  27  39  56  80 111 149 185 215 248
#     4  10  18  27  41  61  88 118 149 184 219 255
#     4   9  16  26  41  60  85 116 148 180 215 255
#
# _framework density 15.435879
#
# number of rings (size 3 to 8) (size 9 to 14) (size 15 to 20)
#    0.000    2.625    1.250    1.500    0.000    5.000 
#    0.000    0.000    0.000    3.750    0.000    0.000 
#    0.000    1.000    0.000    9.250    0.000    3.875 
#
# Total GULP energy -793263.596184 kJ/mol
# GULP energy per Si atom -12394.743690 kJ/mol
# Density = 1.540075 g / cm^3
# Si number density = 15.435879 Si / 1000 Ang^3
#
#
#
# Elastic Constant Matrix: (Units=GPa)
#
#
# Indices 1 2 3 4 5 6 
#
# 1 86.6689 57.0438 35.4387 0.0000 0.0000 0.0000
# 2 57.0438 100.4010 34.6364 0.0000 0.0000 0.0000
# 3 35.4387 34.6364 55.7546 0.0000 0.0000 0.0000
# 4 0.0000 0.0000 0.0000 11.8256 0.0000 0.0000
# 5 0.0000 0.0000 0.0000 0.0000 14.2889 0.0000
# 6 0.0000 0.0000 0.0000 0.0000 0.0000 29.8501
#
#
#
# Elastic Compliance Matrix: (Units=1/GPa)
#
#
# Indices 1 2 3 4 5 6 
#
# 1 0.020581 -0.009139 -0.007404 0.000000 0.000000 0.000000
# 2 -0.009139 0.016735 -0.004587 0.000000 0.000000 0.000000
# 3 -0.007404 -0.004587 0.025492 0.000000 0.000000 0.000000
# 4 0.000000 0.000000 0.000000 0.084562 0.000000 0.000000
# 5 0.000000 0.000000 0.000000 0.000000 0.069985 0.000000
# 6 0.000000 0.000000 0.000000 0.000000 0.000000 0.033501
#
#
# Mechanical properties :
#
#
# Convention : Reuss Voigt Hill
#
# Bulk Modulus (GPa) = 48.66983 55.22914 51.94948
# Shear Modulus (GPa) = 16.66863 18.90663 17.78763
#
# Velocity S-wave (km/s) = 3.28969 3.50358 3.39832
# Velocity P-wave (km/s) = 6.78441 7.22663 7.00901
#
# Compressibility (1/GPa) = 0.02054661
#
# Stress axis : x y z
#
# Youngs Moduli (GPa) = 48.58915 59.75515 39.22824
#
# Poissons Ratio (x) = 0.54609 0.29045
# Poissons Ratio (y) = 0.44405 0.17996
# Poissons Ratio (z) = 0.35976 0.27412
#
# Static dielectric constant tensor:
#      x y z
#    x 3.046050 0.000000 0.000000 
#    y 0.000000 3.087440 0.000000 
#    z 0.000000 0.000000 2.598660 
# 
# 
# High freq. dielectric constant tensor:
#      x y z
#    x 1.601250 0.000000 0.000000 
#    y 0.000000 1.592400 0.000000 
#    z 0.000000 0.000000 1.533140 
# 
# From -- ./inp_files/36478.got.cif
#   From: 2010.03.12/outbox.cif.g09.slc.cpg/sg53_19_cif.got.tgz:36478.got - 2010.04.16 14:36:59.
