data_PCOD8217135
_publ_section_title
;
Structure prediction by ZEFSAII (Michael W. Deem and Ramdas Pophale) SiO2 
 PCOD8217135
Probable space group: P N N A
;
_chemical_formula_sum "Si O2"
_cell_formula_units_Z 64
_cell_length_a 17.665704
_cell_length_b 15.150393
_cell_length_c 10.727403
_cell_angle_alpha 90.000000
_cell_angle_beta 90.000000
_cell_angle_gamma 90.000000
_cell_volume 2871.107437
_symmetry_space_group_name_H-M "P N N A"
_symmetry_group_IT_number 52
_symmetry_cell_setting 'orthorhombic'
loop_
_space_group_symop_operation_xyz
x,y,z
1/2-x,-y,z
x,1/2-y,1/2-z
1/2-x,1/2+y,1/2-z
-x,-y,-z
1/2+x,y,-z
-x,1/2+y,1/2+z
1/2+x,1/2-y,1/2+z
loop_
_atom_site_type_symbol
_atom_site_label
_atom_site_fract_x
_atom_site_fract_y
_atom_site_fract_z
Si Si1 0.502077 0.246239 0.892159
Si Si2 0.177011 0.550667 0.064612
Si Si3 0.414967 0.982277 0.221743
Si Si4 0.938821 0.430586 0.137423
Si Si5 0.665482 0.000895 0.148107
Si Si6 0.862754 0.658137 0.520576
Si Si7 0.281911 0.251597 0.110094
Si Si8 0.900497 0.121148 0.966439
O O1 0.529854 0.250000 0.750000
O O2 0.447262 0.329614 0.910098
O O3 0.575829 0.239124 0.983319
O O4 0.454930 0.157251 0.924064
O O5 0.250000 0.500000 0.013303
O O6 0.158102 0.520250 0.205282
O O7 0.201091 0.652277 0.057447
O O8 0.104384 0.524885 0.978733
O O9 0.447137 0.059177 0.130117
O O10 0.477612 0.963592 0.327706
O O11 0.387921 0.896862 0.144297
O O12 0.887359 0.450252 0.255968
O O13 0.750000 0.000000 0.202565
O O14 0.636500 0.098517 0.105513
O O15 0.665059 0.940709 0.024127
O O16 0.780533 0.702256 0.526741
O O17 0.250437 0.250000 0.250000
O O18 0.361600 0.200419 0.107500
#
# Coordination Sequence:
#
# PCOD8217135 Si02
#       8
#     8   8   8   8   8   8   8   8
#     4  12  22  40  64  99 130 175 223 274 335 406
#     4  12  27  44  67  96 135 181 222 275 349 418
#     4  11  24  43  67  97 134 178 225 284 333 407
#     4  12  25  43  66  95 135 182 225 271 340 418
#     4  11  22  41  68  98 135 175 222 282 340 403
#     4  11  24  40  69 102 129 171 229 287 332 395
#     4  12  23  41  65  99 132 167 218 282 339 398
#     4  11  22  40  68  98 131 173 223 277 340 393
#
# _framework density 22.291049999999998
#
# number of rings (size 3 to 8) (size 9 to 14) (size 15 to 20)
#    0.000    0.500    6.250    2.625    1.750    2.000 
#    0.000    0.000    0.000    0.000    0.000    0.000 
#    0.000    0.000    0.000    0.000    0.000    0.000 
#
# Total GULP energy -793136.788754 kJ/mol
# GULP energy per Si atom -12392.762324 kJ/mol
# Density = 2.224031 g / cm^3
# Si number density = 22.291050 Si / 1000 Ang^3
#
#
#
# Elastic Constant Matrix: (Units=GPa)
#
#
# Indices 1 2 3 4 5 6 
#
# 1 93.1757 36.3913 24.2752 0.0000 0.0000 0.0000
# 2 36.3913 105.7071 38.7239 0.0000 0.0000 0.0000
# 3 24.2752 38.7239 70.3574 0.0000 0.0000 0.0000
# 4 0.0000 0.0000 0.0000 32.7019 0.0000 0.0000
# 5 0.0000 0.0000 0.0000 0.0000 28.8310 0.0000
# 6 0.0000 0.0000 0.0000 0.0000 0.0000 39.5922
#
#
#
# Elastic Compliance Matrix: (Units=1/GPa)
#
#
# Indices 1 2 3 4 5 6 
#
# 1 0.012736 -0.003476 -0.002481 0.000000 0.000000 0.000000
# 2 -0.003476 0.012798 -0.005845 0.000000 0.000000 0.000000
# 3 -0.002481 -0.005845 0.018286 0.000000 0.000000 0.000000
# 4 0.000000 0.000000 0.000000 0.030579 0.000000 0.000000
# 5 0.000000 0.000000 0.000000 0.000000 0.034685 0.000000
# 6 0.000000 0.000000 0.000000 0.000000 0.000000 0.025257
#
#
# Mechanical properties :
#
#
# Convention : Reuss Voigt Hill
#
# Bulk Modulus (GPa) = 49.46352 52.00234 50.73293
# Shear Modulus (GPa) = 30.36119 31.54834 30.95477
#
# Velocity S-wave (km/s) = 3.69458 3.76612 3.73052
# Velocity P-wave (km/s) = 6.35908 6.50315 6.43152
#
# Compressibility (1/GPa) = 0.02021692
#
# Stress axis : x y z
#
# Youngs Moduli (GPa) = 78.51527 78.13915 54.68648
#
# Poissons Ratio (x) = 0.27159 0.13570
# Poissons Ratio (y) = 0.27289 0.31962
# Poissons Ratio (z) = 0.19483 0.45668
#
# Static dielectric constant tensor:
#      x y z
#    x 3.934070 0.000000 0.000000 
#    y 0.000000 4.252240 0.000000 
#    z 0.000000 0.000000 3.792190 
# 
# 
# High freq. dielectric constant tensor:
#      x y z
#    x 1.883090 0.000000 0.000000 
#    y 0.000000 1.880640 0.000000 
#    z 0.000000 0.000000 1.860680 
# 
# From -- ./inp_files/20900.got.cif
#   From: 2010.06.25/outbox.cif.g09.slc.cpg/sg52_11_cif.got.tgz:20900.got - 2010.06.26 19:32:48.
