data_PCOD8217873
_publ_section_title
;
Structure prediction by ZEFSAII (Michael W. Deem and Ramdas Pophale) SiO2 
 PCOD8217873
Probable space group: P M N A
;
_chemical_formula_sum "Si O2"
_cell_formula_units_Z 40
_cell_length_a 16.978866
_cell_length_b 14.403583
_cell_length_c 8.462612
_cell_angle_alpha 90.000000
_cell_angle_beta 90.000000
_cell_angle_gamma 90.000000
_cell_volume 2069.586820
_symmetry_space_group_name_H-M "P M N A"
_symmetry_group_IT_number 53
_symmetry_cell_setting 'orthorhombic'
loop_
_space_group_symop_operation_xyz
x,y,z
1/2-x,-y,1/2+z
x,-y,-z
1/2-x,y,1/2-z
-x,-y,-z
1/2+x,y,1/2-z
-x,y,z
1/2+x,-y,1/2+z
loop_
_atom_site_type_symbol
_atom_site_label
_atom_site_fract_x
_atom_site_fract_y
_atom_site_fract_z
Si Si1 0.835480 0.598224 0.932385
Si Si2 0.851460 0.597033 0.576598
Si Si3 0.589805 0.215533 0.945725
Si Si4 0.676754 0.763488 0.355796
Si Si5 0.272758 0.101493 0.069136
O O1 0.875160 0.605534 0.760469
O O2 0.741779 0.608944 0.931584
O O3 0.862657 0.500000 0.000000
O O4 0.864799 0.680999 0.045648
O O5 0.878311 0.500000 0.500000
O O6 0.895940 0.675969 0.479399
O O7 0.500000 0.187868 0.977017
O O8 0.611496 0.194917 0.762750
O O9 0.643788 0.153864 0.060224
O O10 0.750000 0.725170 0.250000
O O11 0.705577 0.844440 0.472201
O O12 0.250000 0.096480 0.250000
O O13 0.282500 0.000000 0.000000
#
# Coordination Sequence:
#
# PCOD8217873 Si02
#       5
#     8   8   8   8   8
#     4  10  18  29  55  85 110 146 199 249 278 324
#     4  10  19  32  54  82 115 153 193 238 287 335
#     4  11  23  38  58  86 122 156 187 233 289 342
#     4  10  19  35  56  82 113 148 192 233 280 337
#     4  11  22  41  67  90 112 146 190 238 284 340
#
# _framework density 19.327529999999999
#
# number of rings (size 3 to 8) (size 9 to 14) (size 15 to 20)
#    0.000    1.600    4.000    4.200    2.800    0.800 
#    0.000    4.000    0.000    4.800    0.000    0.000 
#    0.000    0.000    0.000    0.000    0.000    0.000 
#
# Total GULP energy -496052.409103 kJ/mol
# GULP energy per Si atom -12401.310228 kJ/mol
# Density = 1.928354 g / cm^3
# Si number density = 19.327530 Si / 1000 Ang^3
#
#
#
# Elastic Constant Matrix: (Units=GPa)
#
#
# Indices 1 2 3 4 5 6 
#
# 1 82.0119 37.4677 38.1674 0.0000 0.0000 0.0000
# 2 37.4677 121.8494 43.7871 0.0000 0.0000 0.0000
# 3 38.1674 43.7871 138.3068 0.0000 0.0000 0.0000
# 4 0.0000 0.0000 0.0000 39.8094 0.0000 0.0000
# 5 0.0000 0.0000 0.0000 0.0000 18.1744 0.0000
# 6 0.0000 0.0000 0.0000 0.0000 0.0000 5.1844
#
#
#
# Elastic Compliance Matrix: (Units=1/GPa)
#
#
# Indices 1 2 3 4 5 6 
#
# 1 0.015264 -0.003588 -0.003076 0.000000 0.000000 0.000000
# 2 -0.003588 0.010104 -0.002209 0.000000 0.000000 0.000000
# 3 -0.003076 -0.002209 0.008779 0.000000 0.000000 0.000000
# 4 0.000000 0.000000 0.000000 0.025120 0.000000 0.000000
# 5 0.000000 0.000000 0.000000 0.000000 0.055022 0.000000
# 6 0.000000 0.000000 0.000000 0.000000 0.000000 0.192886
#
#
# Mechanical properties :
#
#
# Convention : Reuss Voigt Hill
#
# Bulk Modulus (GPa) = 60.97424 64.55697 62.76560
# Shear Modulus (GPa) = 15.13374 27.48338 21.30856
#
# Velocity S-wave (km/s) = 2.80128 3.77501 3.32399
# Velocity P-wave (km/s) = 6.48685 7.24396 6.87583
#
# Compressibility (1/GPa) = 0.01640037
#
# Stress axis : x y z
#
# Youngs Moduli (GPa) = 65.51216 98.97207 113.91458
#
# Poissons Ratio (x) = 0.35513 0.35045
# Poissons Ratio (y) = 0.23507 0.25160
# Poissons Ratio (z) = 0.20154 0.21859
#
# Static dielectric constant tensor:
#      x y z
#    x 3.153850 0.000000 0.000000 
#    y 0.000000 3.583080 0.000000 
#    z 0.000000 0.000000 3.893650 
# 
# 
# High freq. dielectric constant tensor:
#      x y z
#    x 1.700880 0.000000 0.000000 
#    y 0.000000 1.754160 0.000000 
#    z 0.000000 0.000000 1.772110 
# 
# From -- ./inp_files/9781.got.cif
#   From: 2010.03.12/outbox.cif.g09.slc.cpg/sg53_5_cif.got.tgz:9781.got - 2010.04.16 14:36:59.
