data_PCOD8217248
_publ_section_title
;
Structure prediction by ZEFSAII (Michael W. Deem and Ramdas Pophale) SiO2 
 PCOD8217248
Probable space group: P N N A
;
_chemical_formula_sum "Si O2"
_cell_formula_units_Z 40
_cell_length_a 14.078866
_cell_length_b 13.950215
_cell_length_c 8.565638
_cell_angle_alpha 90.000000
_cell_angle_beta 90.000000
_cell_angle_gamma 90.000000
_cell_volume 1682.318779
_symmetry_space_group_name_H-M "P N N A"
_symmetry_group_IT_number 52
_symmetry_cell_setting 'orthorhombic'
loop_
_space_group_symop_operation_xyz
x,y,z
1/2-x,-y,z
x,1/2-y,1/2-z
1/2-x,1/2+y,1/2-z
-x,-y,-z
1/2+x,y,-z
-x,1/2+y,1/2+z
1/2+x,1/2-y,1/2+z
loop_
_atom_site_type_symbol
_atom_site_label
_atom_site_fract_x
_atom_site_fract_y
_atom_site_fract_z
Si Si1 0.625324 0.746955 0.924855
Si Si2 0.845430 0.949870 0.979776
Si Si3 0.956587 0.088800 0.139986
Si Si4 0.515216 0.389038 0.970820
Si Si5 0.316721 0.765000 0.569890
O O1 0.668772 0.750000 0.750000
O O2 0.572715 0.840276 0.998052
O O3 0.545033 0.666999 0.900885
O O4 0.706877 0.709860 0.042537
O O5 0.940466 0.964264 0.876652
O O6 0.750000 0.000000 0.909257
O O7 0.831296 0.837139 0.988195
O O8 0.873788 0.005840 0.141768
O O9 0.966785 0.141381 0.305642
O O10 0.500000 0.500000 0.000000
O O11 0.622702 0.349853 0.988246
O O12 0.341183 0.750000 0.750000
#
# Coordination Sequence:
#
# PCOD8217248 Si02
#       5
#     8   8   8   8   8
#     4  12  28  46  72 109 144 193 247 301 370 445
#     4  11  24  41  77 105 143 189 247 290 378 431
#     4  11  25  47  74 106 146 192 242 311 367 451
#     4  12  28  47  72 104 147 192 249 305 375 438
#     4  12  26  47  74 105 147 190 241 307 371 444
#
# _framework density 23.776706000000001
#
# number of rings (size 3 to 8) (size 9 to 14) (size 15 to 20)
#    0.000    0.400    4.000    3.600    8.400    0.800 
#    0.000    0.000    0.000    0.000    0.000    0.000 
#    0.000    0.000    0.000    0.000    0.000    0.000 
#
# Total GULP energy -495538.100228 kJ/mol
# GULP energy per Si atom -12388.452506 kJ/mol
# Density = 2.372259 g / cm^3
# Si number density = 23.776706 Si / 1000 Ang^3
#
#
#
# Elastic Constant Matrix: (Units=GPa)
#
#
# Indices 1 2 3 4 5 6 
#
# 1 154.3291 58.7661 12.5895 0.0000 0.0000 0.0000
# 2 58.7661 146.0603 20.0179 0.0000 0.0000 0.0000
# 3 12.5895 20.0179 95.4028 0.0000 0.0000 0.0000
# 4 0.0000 0.0000 0.0000 27.1838 0.0000 0.0000
# 5 0.0000 0.0000 0.0000 0.0000 31.6543 0.0000
# 6 0.0000 0.0000 0.0000 0.0000 0.0000 39.3216
#
#
#
# Elastic Compliance Matrix: (Units=1/GPa)
#
#
# Indices 1 2 3 4 5 6 
#
# 1 0.007665 -0.003033 -0.000375 0.000000 0.000000 0.000000
# 2 -0.003033 0.008249 -0.001331 0.000000 0.000000 0.000000
# 3 -0.000375 -0.001331 0.010811 0.000000 0.000000 0.000000
# 4 0.000000 0.000000 0.000000 0.036787 0.000000 0.000000
# 5 0.000000 0.000000 0.000000 0.000000 0.031591 0.000000
# 6 0.000000 0.000000 0.000000 0.000000 0.000000 0.025431
#
#
# Mechanical properties :
#
#
# Convention : Reuss Voigt Hill
#
# Bulk Modulus (GPa) = 57.97837 64.28212 61.13024
# Shear Modulus (GPa) = 36.82975 39.92653 38.37814
#
# Velocity S-wave (km/s) = 3.93998 4.10228 4.02195
# Velocity P-wave (km/s) = 6.71829 7.03795 6.87998
#
# Compressibility (1/GPa) = 0.01724781
#
# Stress axis : x y z
#
# Youngs Moduli (GPa) = 130.46309 121.22725 92.50193
#
# Poissons Ratio (x) = 0.36762 0.03471
# Poissons Ratio (y) = 0.39563 0.12309
# Poissons Ratio (z) = 0.04895 0.16131
#
# Static dielectric constant tensor:
#      x y z
#    x 4.745200 0.000000 0.000000 
#    y 0.000000 4.391170 0.000000 
#    z 0.000000 0.000000 4.300820 
# 
# 
# High freq. dielectric constant tensor:
#      x y z
#    x 1.961450 0.000000 0.000000 
#    y 0.000000 1.950100 0.000000 
#    z 0.000000 0.000000 1.920180 
# 
# From -- ./inp_files/10059.got.cif
#   From: 2010.06.25/outbox.cif.g09.slc.cpg/sg52_6_cif.got.tgz:10059.got - 2010.06.26 19:32:48.
