data_PCOD8217666
_publ_section_title
;
Structure prediction by ZEFSAII (Michael W. Deem and Ramdas Pophale) SiO2 
 PCOD8217666
Probable space group: P M N A
;
_chemical_formula_sum "Si O2"
_cell_formula_units_Z 56
_cell_length_a 9.117265
_cell_length_b 17.725641
_cell_length_c 21.685275
_cell_angle_alpha 90.000000
_cell_angle_beta 90.000000
_cell_angle_gamma 90.000000
_cell_volume 3504.543551
_symmetry_space_group_name_H-M "P M N A"
_symmetry_group_IT_number 53
_symmetry_cell_setting 'orthorhombic'
loop_
_space_group_symop_operation_xyz
x,y,z
1/2-x,-y,1/2+z
x,-y,-z
1/2-x,y,1/2-z
-x,-y,-z
1/2+x,y,1/2-z
-x,y,z
1/2+x,-y,1/2+z
loop_
_atom_site_type_symbol
_atom_site_label
_atom_site_fract_x
_atom_site_fract_y
_atom_site_fract_z
Si Si1 0.664354 0.902734 0.060108
Si Si2 0.830559 0.240091 0.962017
Si Si3 0.326618 0.389790 0.957578
Si Si4 0.672611 0.452728 0.086267
Si Si5 0.829463 0.209550 0.104999
Si Si6 0.334805 0.934093 0.915938
Si Si7 0.674742 0.334084 0.184512
O O1 0.500000 0.881118 0.080829
O O2 0.770559 0.832772 0.074889
O O3 0.715536 0.979012 0.095897
O O4 0.667053 0.919119 0.988125
O O5 0.751891 0.314025 0.934948
O O6 0.000000 0.246604 0.947143
O O7 0.798644 0.233396 0.034776
O O8 0.500000 0.375590 0.957326
O O9 0.281068 0.459045 0.912113
O O10 0.265319 0.410904 0.025574
O O11 0.500000 0.448622 0.079150
O O12 0.724603 0.409198 0.147370
O O13 0.777159 0.123446 0.116946
O O14 0.732712 0.261106 0.149178
O O15 0.000000 0.216447 0.122281
O O16 0.500000 0.921511 0.890580
O O17 0.750000 0.340190 0.250000
O O18 0.500000 0.328205 0.191292
#
# Coordination Sequence:
#
# PCOD8217666 Si02
#       7
#     8   8   8   8   8   8   8
#     4   8  14  24  38  56  80 113 148 176 206 248
#     4  10  18  25  37  62  92 117 143 178 220 262
#     4   9  15  28  47  64  82 111 149 183 217 267
#     4   8  16  29  47  65  81 108 148 185 220 264
#     4  10  19  29  41  60  86 116 148 179 218 264
#     4   8  14  25  40  57  78 109 148 182 209 244
#     4  11  21  34  49  65  86 114 148 188 226 264
#
# _framework density 15.979255999999999
#
# number of rings (size 3 to 8) (size 9 to 14) (size 15 to 20)
#    0.000    2.857    1.429    3.000    0.000    1.714 
#    0.000    5.714    0.000    0.000    0.000    0.000 
#    0.000    1.143    0.000    7.714    0.000    6.000 
#
# Total GULP energy -694010.588859 kJ/mol
# GULP energy per Si atom -12393.046230 kJ/mol
# Density = 1.594289 g / cm^3
# Si number density = 15.979256 Si / 1000 Ang^3
#
#
#
# Elastic Constant Matrix: (Units=GPa)
#
#
# Indices 1 2 3 4 5 6 
#
# 1 78.7595 65.1969 28.6514 0.0000 0.0000 0.0000
# 2 65.1969 159.8283 36.7170 0.0000 0.0000 0.0000
# 3 28.6514 36.7170 42.6043 0.0000 0.0000 0.0000
# 4 0.0000 0.0000 0.0000 9.7191 0.0000 0.0000
# 5 0.0000 0.0000 0.0000 0.0000 15.0472 0.0000
# 6 0.0000 0.0000 0.0000 0.0000 0.0000 16.9547
#
#
#
# Elastic Compliance Matrix: (Units=1/GPa)
#
#
# Indices 1 2 3 4 5 6 
#
# 1 0.021417 -0.006767 -0.008570 0.000000 0.000000 0.000000
# 2 -0.006767 0.009940 -0.004015 0.000000 0.000000 0.000000
# 3 -0.008570 -0.004015 0.032696 0.000000 0.000000 0.000000
# 4 0.000000 0.000000 0.000000 0.102891 0.000000 0.000000
# 5 0.000000 0.000000 0.000000 0.000000 0.066457 0.000000
# 6 0.000000 0.000000 0.000000 0.000000 0.000000 0.058981
#
#
# Mechanical properties :
#
#
# Convention : Reuss Voigt Hill
#
# Bulk Modulus (GPa) = 39.45373 60.25808 49.85590
# Shear Modulus (GPa) = 14.72600 18.38598 16.55599
#
# Velocity S-wave (km/s) = 3.03903 3.39575 3.22233
# Velocity P-wave (km/s) = 6.08757 7.29156 6.71660
#
# Compressibility (1/GPa) = 0.02534614
#
# Stress axis : x y z
#
# Youngs Moduli (GPa) = 46.69258 100.60745 30.58510
#
# Poissons Ratio (x) = 0.68085 0.26213
# Poissons Ratio (y) = 0.31599 0.12280
# Poissons Ratio (z) = 0.40018 0.40394
#
# Static dielectric constant tensor:
#      x y z
#    x 2.952690 0.000000 0.000000 
#    y 0.000000 3.476270 0.000000 
#    z 0.000000 0.000000 2.647040 
# 
# 
# High freq. dielectric constant tensor:
#      x y z
#    x 1.608000 0.000000 0.000000 
#    y 0.000000 1.632430 0.000000 
#    z 0.000000 0.000000 1.542000 
# 
# From -- ./inp_files/30979.got.cif
#   From: 2010.03.12/outbox.cif.g09.slc.cpg/sg53_16_cif.got.tgz:30979.got - 2010.04.16 14:36:59.
