data_PCOD8217285
_publ_section_title
;
Structure prediction by ZEFSAII (Michael W. Deem and Ramdas Pophale) SiO2 
 PCOD8217285
Probable space group: P N N A
;
_chemical_formula_sum "Si O2"
_cell_formula_units_Z 32
_cell_length_a 9.442183
_cell_length_b 23.073357
_cell_length_c 5.950991
_cell_angle_alpha 90.000000
_cell_angle_beta 90.000000
_cell_angle_gamma 90.000000
_cell_volume 1296.499914
_symmetry_space_group_name_H-M "P N N A"
_symmetry_group_IT_number 52
_symmetry_cell_setting 'orthorhombic'
loop_
_space_group_symop_operation_xyz
x,y,z
1/2-x,-y,z
x,1/2-y,1/2-z
1/2-x,1/2+y,1/2-z
-x,-y,-z
1/2+x,y,-z
-x,1/2+y,1/2+z
1/2+x,1/2-y,1/2+z
loop_
_atom_site_type_symbol
_atom_site_label
_atom_site_fract_x
_atom_site_fract_y
_atom_site_fract_z
Si Si1 0.995204 0.955698 0.793131
Si Si2 0.238183 0.422505 0.979386
Si Si3 0.591708 0.139002 0.097821
Si Si4 0.185742 0.685020 0.284233
O O1 0.846183 0.962548 0.659339
O O2 0.996344 0.891592 0.898060
O O3 0.129540 0.959314 0.622778
O O4 0.000000 0.000000 0.000000
O O5 0.125361 0.409298 0.784334
O O6 0.283227 0.360378 0.083878
O O7 0.737706 0.165789 0.013023
O O8 0.484048 0.187693 0.187619
O O9 0.242084 0.750000 0.250000
#
# Coordination Sequence:
#
# PCOD8217285 Si02
#       4
#     8   8   8   8
#     4  11  26  50  79 108 149 203 253 316 386 453
#     4  11  24  50  73 109 152 193 254 314 372 458
#     4  11  24  48  70 108 154 188 260 308 359 469
#     4  11  26  43  75 110 148 201 244 312 382 444
#
# _framework density 24.681837999999999
#
# number of rings (size 3 to 8) (size 9 to 14) (size 15 to 20)
#    0.000    1.000    5.000    0.000    3.500    2.000 
#    4.500    1.250    0.000    0.000    0.000    0.000 
#    0.000    0.000    0.000    0.000    0.000    0.000 
#
# Total GULP energy -396662.596031 kJ/mol
# GULP energy per Si atom -12395.706126 kJ/mol
# Density = 2.462566 g / cm^3
# Si number density = 24.681838 Si / 1000 Ang^3
#
#
#
# Elastic Constant Matrix: (Units=GPa)
#
#
# Indices 1 2 3 4 5 6 
#
# 1 158.8592 54.9803 65.6119 0.0000 0.0000 0.0000
# 2 54.9803 107.8843 65.0313 0.0000 0.0000 0.0000
# 3 65.6119 65.0313 134.5102 0.0000 0.0000 0.0000
# 4 0.0000 0.0000 0.0000 24.1782 0.0000 0.0000
# 5 0.0000 0.0000 0.0000 0.0000 51.5524 0.0000
# 6 0.0000 0.0000 0.0000 0.0000 0.0000 28.7007
#
#
#
# Elastic Compliance Matrix: (Units=1/GPa)
#
#
# Indices 1 2 3 4 5 6 
#
# 1 0.008349 -0.002540 -0.002844 0.000000 0.000000 0.000000
# 2 -0.002540 0.013854 -0.005459 0.000000 0.000000 0.000000
# 3 -0.002844 -0.005459 0.011461 0.000000 0.000000 0.000000
# 4 0.000000 0.000000 0.000000 0.041360 0.000000 0.000000
# 5 0.000000 0.000000 0.000000 0.000000 0.019398 0.000000
# 6 0.000000 0.000000 0.000000 0.000000 0.000000 0.034842
#
#
# Mechanical properties :
#
#
# Convention : Reuss Voigt Hill
#
# Bulk Modulus (GPa) = 83.49281 85.83341 84.66311
# Shear Modulus (GPa) = 32.26982 35.26159 33.76571
#
# Velocity S-wave (km/s) = 3.61977 3.78384 3.70271
# Velocity P-wave (km/s) = 7.16738 7.34448 7.25647
#
# Compressibility (1/GPa) = 0.01197708
#
# Stress axis : x y z
#
# Youngs Moduli (GPa) = 119.77791 72.17917 87.25196
#
# Poissons Ratio (x) = 0.18335 0.24817
# Poissons Ratio (y) = 0.30426 0.47632
# Poissons Ratio (z) = 0.34068 0.39403
#
# Static dielectric constant tensor:
#      x y z
#    x 4.409740 0.000000 0.000000 
#    y 0.000000 4.223990 0.000000 
#    z 0.000000 0.000000 4.687850 
# 
# 
# High freq. dielectric constant tensor:
#      x y z
#    x 1.993800 0.000000 0.000000 
#    y 0.000000 1.974160 0.000000 
#    z 0.000000 0.000000 1.993030 
# 
# From -- ./inp_files/1166.got.cif
#   From: 2010.06.25/outbox.cif.g09.slc.cpg/sg52_1_cif.got.tgz:1166.got - 2010.06.26 19:32:48.
