data_PCOD8217473
_publ_section_title
;
Structure prediction by ZEFSAII (Michael W. Deem and Ramdas Pophale) SiO2 
 PCOD8217473
Probable space group: P M N A
;
_chemical_formula_sum "Si O2"
_cell_formula_units_Z 64
_cell_length_a 14.711362
_cell_length_b 17.727231
_cell_length_c 13.922471
_cell_angle_alpha 90.000000
_cell_angle_beta 90.000000
_cell_angle_gamma 90.000000
_cell_volume 3630.865054
_symmetry_space_group_name_H-M "P M N A"
_symmetry_group_IT_number 53
_symmetry_cell_setting 'orthorhombic'
loop_
_space_group_symop_operation_xyz
x,y,z
1/2-x,-y,1/2+z
x,-y,-z
1/2-x,y,1/2-z
-x,-y,-z
1/2+x,y,1/2-z
-x,y,z
1/2+x,-y,1/2+z
loop_
_atom_site_type_symbol
_atom_site_label
_atom_site_fract_x
_atom_site_fract_y
_atom_site_fract_z
Si Si1 0.652350 0.419734 0.292632
Si Si2 0.105415 0.909404 0.811182
Si Si3 0.102727 0.838040 0.610294
Si Si4 0.399737 0.054360 0.590915
Si Si5 0.285815 0.660541 0.522482
Si Si6 0.215005 0.836330 0.980272
Si Si7 0.099469 0.445250 0.910394
Si Si8 0.401533 0.335539 0.111607
O O1 0.750000 0.431940 0.250000
O O2 0.654801 0.364651 0.385271
O O3 0.615772 0.503261 0.316811
O O4 0.591631 0.381913 0.210496
O O5 0.127128 0.888251 0.702272
O O6 0.164915 0.858409 0.882012
O O7 0.000000 0.894445 0.837128
O O8 0.128223 0.999096 0.821222
O O9 0.177357 0.856770 0.528331
O O10 0.114260 0.751207 0.641164
O O11 0.000000 0.854837 0.572739
O O12 0.500000 0.090350 0.607981
O O13 0.326155 0.120182 0.572736
O O14 0.402898 0.000000 0.500000
O O15 0.298868 0.748219 0.502286
O O16 0.322667 0.617881 0.427085
O O17 0.179652 0.638516 0.540620
O O18 0.000000 0.406574 0.901438
O O19 0.102783 0.500000 0.000000
O O20 0.500000 0.345336 0.059523
#
# Coordination Sequence:
#
# PCOD8217473 Si02
#       8
#     8   8   8   8   8   8   8   8
#     4   9  16  27  43  61  84 114 145 178 217 258
#     4   9  16  26  40  59  84 110 137 171 208 248
#     4   9  17  26  39  63  90 114 139 168 205 252
#     4   8  15  26  39  57  81 109 139 170 205 246
#     4   9  18  27  39  63  90 112 139 176 216 258
#     4  10  16  25  41  61  86 112 136 168 213 258
#     4   9  17  28  41  59  86 117 145 175 215 259
#     4   9  16  27  43  63  89 117 142 170 210 259
#
# _framework density 17.626653999999998
#
# number of rings (size 3 to 8) (size 9 to 14) (size 15 to 20)
#    0.000    3.000    0.000    2.625    0.000    3.500 
#    0.000    0.000    0.000   13.500    0.000    5.250 
#    0.000    0.000    0.000    0.000    0.000    0.000 
#
# Total GULP energy -793055.268714 kJ/mol
# GULP energy per Si atom -12391.488574 kJ/mol
# Density = 1.758654 g / cm^3
# Si number density = 17.626654 Si / 1000 Ang^3
#
#
#
# Elastic Constant Matrix: (Units=GPa)
#
#
# Indices 1 2 3 4 5 6 
#
# 1 107.2963 58.2579 26.5407 0.0000 0.0000 0.0000
# 2 58.2579 95.3486 36.0835 0.0000 0.0000 0.0000
# 3 26.5407 36.0835 30.1743 0.0000 0.0000 0.0000
# 4 0.0000 0.0000 0.0000 27.3994 0.0000 0.0000
# 5 0.0000 0.0000 0.0000 0.0000 10.7479 0.0000
# 6 0.0000 0.0000 0.0000 0.0000 0.0000 26.7285
#
#
#
# Elastic Compliance Matrix: (Units=1/GPa)
#
#
# Indices 1 2 3 4 5 6 
#
# 1 0.014189 -0.007209 -0.003860 0.000000 0.000000 0.000000
# 2 -0.007209 0.022820 -0.020948 0.000000 0.000000 0.000000
# 3 -0.003860 -0.020948 0.061586 0.000000 0.000000 0.000000
# 4 0.000000 0.000000 0.000000 0.036497 0.000000 0.000000
# 5 0.000000 0.000000 0.000000 0.000000 0.093042 0.000000
# 6 0.000000 0.000000 0.000000 0.000000 0.000000 0.037413
#
#
# Mechanical properties :
#
#
# Convention : Reuss Voigt Hill
#
# Bulk Modulus (GPa) = 28.93381 52.73147 40.83264
# Shear Modulus (GPa) = 14.65842 20.43763 17.54802
#
# Velocity S-wave (km/s) = 2.88688 3.40880 3.15864
# Velocity P-wave (km/s) = 5.25001 6.74343 6.04303
#
# Compressibility (1/GPa) = 0.03456165
#
# Stress axis : x y z
#
# Youngs Moduli (GPa) = 70.47837 43.82141 16.23738
#
# Poissons Ratio (x) = 0.31589 0.06267
# Poissons Ratio (y) = 0.50805 0.34014
# Poissons Ratio (z) = 0.27203 0.91798
#
# Static dielectric constant tensor:
#      x y z
#    x 3.564220 0.000000 0.000000 
#    y 0.000000 3.349880 0.000000 
#    z 0.000000 0.000000 3.046340 
# 
# 
# High freq. dielectric constant tensor:
#      x y z
#    x 1.696660 0.000000 0.000000 
#    y 0.000000 1.667270 0.000000 
#    z 0.000000 0.000000 1.623520 
# 
# From -- ./inp_files/23049.got.cif
#   From: 2010.03.12/outbox.cif.g09.slc.cpg/sg53_12_cif.got.tgz:23049.got - 2010.04.16 14:36:59.
