data_PCOD8217399
_publ_section_title
;
Structure prediction by ZEFSAII (Michael W. Deem and Ramdas Pophale) SiO2 
 PCOD8217399
Probable space group: P N N A
;
_chemical_formula_sum "Si O2"
_cell_formula_units_Z 20
_cell_length_a 5.257238
_cell_length_b 5.011532
_cell_length_c 33.756142
_cell_angle_alpha 90.000000
_cell_angle_beta 90.000000
_cell_angle_gamma 90.000000
_cell_volume 889.366878
_symmetry_space_group_name_H-M "P N N A"
_symmetry_group_IT_number 52
_symmetry_cell_setting 'orthorhombic'
loop_
_space_group_symop_operation_xyz
x,y,z
1/2-x,-y,z
x,1/2-y,1/2-z
1/2-x,1/2+y,1/2-z
-x,-y,-z
1/2+x,y,-z
-x,1/2+y,1/2+z
1/2+x,1/2-y,1/2+z
loop_
_atom_site_type_symbol
_atom_site_label
_atom_site_fract_x
_atom_site_fract_y
_atom_site_fract_z
Si Si1 0.106598 0.250000 0.250000
Si Si2 0.750000 0.500000 0.132882
Si Si3 0.750000 0.500000 0.526521
Si Si4 0.250000 0.000000 0.418020
Si Si5 0.750000 0.000000 0.185596
O O1 0.250000 0.500000 0.229681
O O2 0.966638 0.108697 0.214037
O O3 0.501407 0.565927 0.107322
O O4 0.662278 0.246040 0.158745
O O5 0.500000 0.500000 0.500000
O O6 0.791732 0.249301 0.554211
#
# Coordination Sequence:
#
# PCOD8217399 Si02
#       5
#     4   4   4   4   4
#     4  12  26  46  74 100 142 184 264 314 368 438
#     4  12  27  45  74  98 155 186 238 292 373 434
#     4  12  24  45  76 104 142 184 234 288 348 416
#     4  12  26  47  68 112 140 188 234 288 352 444
#     4  12  27  47  66 108 131 200 240 310 365 428
#
# _framework density 22.487909999999999
#
# number of rings (size 3 to 8) (size 9 to 14) (size 15 to 20)
#    0.000    0.000    0.000   10.800    8.400    0.000 
#    0.000    0.000    0.000    0.000    0.000    0.000 
#    0.000    0.000    0.000    0.000    0.000    0.000 
#
# Total GULP energy -247921.643415 kJ/mol
# GULP energy per Si atom -12396.082171 kJ/mol
# Density = 2.243673 g / cm^3
# Si number density = 22.487910 Si / 1000 Ang^3
#
#
#
# Elastic Constant Matrix: (Units=GPa)
#
#
# Indices 1 2 3 4 5 6 
#
# 1 163.1045 49.8029 72.9467 0.0000 0.0000 0.0000
# 2 49.8029 210.9039 81.1058 0.0000 0.0000 0.0000
# 3 72.9467 81.1058 144.9917 0.0000 0.0000 0.0000
# 4 0.0000 0.0000 0.0000 47.4157 0.0000 0.0000
# 5 0.0000 0.0000 0.0000 0.0000 21.4150 0.0000
# 6 0.0000 0.0000 0.0000 0.0000 0.0000 45.2217
#
#
#
# Elastic Compliance Matrix: (Units=1/GPa)
#
#
# Indices 1 2 3 4 5 6 
#
# 1 0.007942 -0.000432 -0.003754 0.000000 0.000000 0.000000
# 2 -0.000432 0.006064 -0.003175 0.000000 0.000000 0.000000
# 3 -0.003754 -0.003175 0.010562 0.000000 0.000000 0.000000
# 4 0.000000 0.000000 0.000000 0.021090 0.000000 0.000000
# 5 0.000000 0.000000 0.000000 0.000000 0.046696 0.000000
# 6 0.000000 0.000000 0.000000 0.000000 0.000000 0.022113
#
#
# Mechanical properties :
#
#
# Convention : Reuss Voigt Hill
#
# Bulk Modulus (GPa) = 101.56256 102.96789 102.26522
# Shear Modulus (GPa) = 37.74387 43.82012 40.78199
#
# Velocity S-wave (km/s) = 4.10128 4.41909 4.26315
# Velocity P-wave (km/s) = 8.22731 8.48088 8.35506
#
# Compressibility (1/GPa) = 0.00984615
#
# Stress axis : x y z
#
# Youngs Moduli (GPa) = 125.91525 164.89426 94.68050
#
# Poissons Ratio (x) = 0.07118 0.35544
# Poissons Ratio (y) = 0.05436 0.30063
# Poissons Ratio (z) = 0.47270 0.52357
#
# Static dielectric constant tensor:
#      x y z
#    x 4.187450 0.000000 0.000000 
#    y 0.000000 4.267150 0.000000 
#    z 0.000000 0.000000 4.336690 
# 
# 
# High freq. dielectric constant tensor:
#      x y z
#    x 1.894560 0.000000 0.000000 
#    y 0.000000 1.920660 0.000000 
#    z 0.000000 0.000000 1.905450 
# 
# From -- ./inp_files/38405.got.cif
#   From: 2010.06.25/outbox.cif.g09.slc.cpg/sg52_20_cif.got.tgz:38405.got - 2010.06.26 19:32:48.
