data_PCOD8217711
_publ_section_title
;
Structure prediction by ZEFSAII (Michael W. Deem and Ramdas Pophale) SiO2 
 PCOD8217711
Probable space group: P M N A
;
_chemical_formula_sum "Si O2"
_cell_formula_units_Z 48
_cell_length_a 14.207703
_cell_length_b 12.110294
_cell_length_c 15.104880
_cell_angle_alpha 90.000000
_cell_angle_beta 90.000000
_cell_angle_gamma 90.000000
_cell_volume 2598.937502
_symmetry_space_group_name_H-M "P M N A"
_symmetry_group_IT_number 53
_symmetry_cell_setting 'orthorhombic'
loop_
_space_group_symop_operation_xyz
x,y,z
1/2-x,-y,1/2+z
x,-y,-z
1/2-x,y,1/2-z
-x,-y,-z
1/2+x,y,1/2-z
-x,y,z
1/2+x,-y,1/2+z
loop_
_atom_site_type_symbol
_atom_site_label
_atom_site_fract_x
_atom_site_fract_y
_atom_site_fract_z
Si Si1 0.392103 0.667662 0.657273
Si Si2 0.606563 0.501515 0.808331
Si Si3 0.390804 0.173029 0.187241
Si Si4 0.891068 0.713409 0.393903
Si Si5 0.110547 0.040611 0.594694
Si Si6 0.208128 0.340968 0.433433
O O1 0.500000 0.672332 0.624000
O O2 0.371120 0.556075 0.713490
O O3 0.366077 0.776252 0.716639
O O4 0.322434 0.665735 0.573423
O O5 0.500000 0.534223 0.834126
O O6 0.618706 0.367432 0.807804
O O7 0.673878 0.550095 0.883335
O O8 0.500000 0.193999 0.168260
O O9 0.334908 0.232550 0.110100
O O10 0.364446 0.043488 0.175464
O O11 0.853268 0.837599 0.376167
O O12 0.824464 0.655592 0.466015
O O13 0.000000 0.715634 0.425809
O O14 0.000000 0.046954 0.582140
O O15 0.154079 0.000000 0.500000
#
# Coordination Sequence:
#
# PCOD8217711 Si02
#       6
#     8   8   8   8   8   8
#     4   9  19  32  46  64  87 122 163 198 225 263
#     4   9  17  28  43  67  96 118 143 181 231 286
#     4   9  15  25  42  65  92 117 142 175 223 275
#     4  10  18  27  44  74 102 121 142 180 238 292
#     4   9  15  24  39  64  98 121 132 160 217 283
#     4  11  17  26  45  66  92 121 151 191 234 273
#
# _framework density 18.469085
#
# number of rings (size 3 to 8) (size 9 to 14) (size 15 to 20)
#    0.000    2.500    1.667    5.000    0.000    1.333 
#    0.000    0.000    0.000    6.000    0.000    2.333 
#    0.000    0.000    0.000    0.000    0.000    0.000 
#
# Total GULP energy -594656.719243 kJ/mol
# GULP energy per Si atom -12388.681651 kJ/mol
# Density = 1.842705 g / cm^3
# Si number density = 18.469085 Si / 1000 Ang^3
#
#
#
# Elastic Constant Matrix: (Units=GPa)
#
#
# Indices 1 2 3 4 5 6 
#
# 1 61.5562 22.1732 28.6255 0.0000 0.0000 0.0000
# 2 22.1732 118.4102 20.2300 0.0000 0.0000 0.0000
# 3 28.6255 20.2300 30.6148 0.0000 0.0000 0.0000
# 4 0.0000 0.0000 0.0000 10.1346 0.0000 0.0000
# 5 0.0000 0.0000 0.0000 0.0000 18.6067 0.0000
# 6 0.0000 0.0000 0.0000 0.0000 0.0000 4.1093
#
#
#
# Elastic Compliance Matrix: (Units=1/GPa)
#
#
# Indices 1 2 3 4 5 6 
#
# 1 0.028827 -0.000894 -0.026363 0.000000 0.000000 0.000000
# 2 -0.000894 0.009548 -0.005473 0.000000 0.000000 0.000000
# 3 -0.026363 -0.005473 0.060931 0.000000 0.000000 0.000000
# 4 0.000000 0.000000 0.000000 0.098671 0.000000 0.000000
# 5 0.000000 0.000000 0.000000 0.000000 0.053744 0.000000
# 6 0.000000 0.000000 0.000000 0.000000 0.000000 0.243350
#
#
# Mechanical properties :
#
#
# Convention : Reuss Voigt Hill
#
# Bulk Modulus (GPa) = 29.54662 39.18206 34.36434
# Shear Modulus (GPa) = 8.74412 15.87362 12.30887
#
# Velocity S-wave (km/s) = 2.17824 2.93485 2.58439
# Velocity P-wave (km/s) = 4.72852 5.72237 5.24902
#
# Compressibility (1/GPa) = 0.03384482
#
# Stress axis : x y z
#
# Youngs Moduli (GPa) = 34.68960 104.73728 16.41207
#
# Poissons Ratio (x) = 0.09363 0.43268
# Poissons Ratio (y) = 0.03101 0.08983
# Poissons Ratio (z) = 0.91453 0.57324
#
# Static dielectric constant tensor:
#      x y z
#    x 3.233640 0.000000 0.000000 
#    y 0.000000 3.843150 0.000000 
#    z 0.000000 0.000000 2.878200 
# 
# 
# High freq. dielectric constant tensor:
#      x y z
#    x 1.694480 0.000000 0.000000 
#    y 0.000000 1.726280 0.000000 
#    z 0.000000 0.000000 1.655790 
# 
# From -- ./inp_files/22670.got.cif
#   From: 2010.03.12/outbox.cif.g09.slc.cpg/sg53_12_cif.got.tgz:22670.got - 2010.04.16 14:36:59.
