data_PCOD8217139
_publ_section_title
;
Structure prediction by ZEFSAII (Michael W. Deem and Ramdas Pophale) SiO2 
 PCOD8217139
Probable space group: P N N A
;
_chemical_formula_sum "Si O2"
_cell_formula_units_Z 48
_cell_length_a 28.278386
_cell_length_b 9.153971
_cell_length_c 8.812095
_cell_angle_alpha 90.000000
_cell_angle_beta 90.000000
_cell_angle_gamma 90.000000
_cell_volume 2281.094729
_symmetry_space_group_name_H-M "P N N A"
_symmetry_group_IT_number 52
_symmetry_cell_setting 'orthorhombic'
loop_
_space_group_symop_operation_xyz
x,y,z
1/2-x,-y,z
x,1/2-y,1/2-z
1/2-x,1/2+y,1/2-z
-x,-y,-z
1/2+x,y,-z
-x,1/2+y,1/2+z
1/2+x,1/2-y,1/2+z
loop_
_atom_site_type_symbol
_atom_site_label
_atom_site_fract_x
_atom_site_fract_y
_atom_site_fract_z
Si Si1 0.119943 0.603656 0.328795
Si Si2 0.277692 0.145789 0.130165
Si Si3 0.121065 0.600574 0.690612
Si Si4 0.545705 0.096503 0.678328
Si Si5 0.545115 0.401568 0.174212
Si Si6 0.280283 0.139588 0.641362
O O1 0.098843 0.750000 0.250000
O O2 0.175206 0.587803 0.284522
O O3 0.118018 0.603599 0.510015
O O4 0.091607 0.467696 0.261826
O O5 0.249009 0.250000 0.250000
O O6 0.250000 0.000000 0.075341
O O7 0.294173 0.256401 0.998130
O O8 0.097073 0.750000 0.750000
O O9 0.091892 0.463106 0.747555
O O10 0.173703 0.588420 0.763103
O O11 0.533379 0.250000 0.750000
O O12 0.556801 0.114814 0.502003
O O13 0.500052 0.999533 0.707470
O O14 0.532369 0.250000 0.250000
O O15 0.250086 0.250000 0.750000
O O16 0.250000 0.000000 0.589731
#
# Coordination Sequence:
#
# PCOD8217139 Si02
#       6
#     8   8   8   8   8   8
#     4  11  23  41  68  93 132 176 222 278 338 401
#     4  11  24  44  67 100 136 183 231 287 352 414
#     4  11  22  41  65  97 129 177 227 271 338 401
#     4  11  25  44  67  99 134 175 217 278 342 401
#     4  11  25  44  68  99 132 173 224 274 337 410
#     4  11  23  42  67  98 137 184 234 287 345 408
#
# _framework density 21.042528999999998
#
# number of rings (size 3 to 8) (size 9 to 14) (size 15 to 20)
#    0.000    1.000    3.333    4.000    2.333    6.667 
#    3.000    0.000    0.000    0.000    0.000    0.000 
#    0.000    0.000    0.000    0.000    0.000    0.000 
#
# Total GULP energy -594894.976844 kJ/mol
# GULP energy per Si atom -12393.645351 kJ/mol
# Density = 2.099464 g / cm^3
# Si number density = 21.042529 Si / 1000 Ang^3
#
#
#
# Elastic Constant Matrix: (Units=GPa)
#
#
# Indices 1 2 3 4 5 6 
#
# 1 86.2804 59.6578 60.4267 0.0000 0.0000 0.0000
# 2 59.6578 147.0205 78.8970 0.0000 0.0000 0.0000
# 3 60.4267 78.8970 146.4348 0.0000 0.0000 0.0000
# 4 0.0000 0.0000 0.0000 44.2327 0.0000 0.0000
# 5 0.0000 0.0000 0.0000 0.0000 20.2308 0.0000
# 6 0.0000 0.0000 0.0000 0.0000 0.0000 41.1667
#
#
#
# Elastic Compliance Matrix: (Units=1/GPa)
#
#
# Indices 1 2 3 4 5 6 
#
# 1 0.018410 -0.004774 -0.005025 0.000000 0.000000 0.000000
# 2 -0.004774 0.010806 -0.003852 0.000000 0.000000 0.000000
# 3 -0.005025 -0.003852 0.010978 0.000000 0.000000 0.000000
# 4 0.000000 0.000000 0.000000 0.022608 0.000000 0.000000
# 5 0.000000 0.000000 0.000000 0.000000 0.049430 0.000000
# 6 0.000000 0.000000 0.000000 0.000000 0.000000 0.024291
#
#
# Mechanical properties :
#
#
# Convention : Reuss Voigt Hill
#
# Bulk Modulus (GPa) = 77.56557 86.41095 81.98826
# Shear Modulus (GPa) = 29.74013 33.17630 31.45821
#
# Velocity S-wave (km/s) = 3.76351 3.97499 3.87070
# Velocity P-wave (km/s) = 7.47173 7.88806 7.68271
#
# Compressibility (1/GPa) = 0.01289232
#
# Stress axis : x y z
#
# Youngs Moduli (GPa) = 54.31768 92.53949 91.09071
#
# Poissons Ratio (x) = 0.44177 0.45772
# Poissons Ratio (y) = 0.25931 0.35091
# Poissons Ratio (z) = 0.27294 0.35649
#
# Static dielectric constant tensor:
#      x y z
#    x 3.647330 0.000000 0.000000 
#    y 0.000000 3.954830 0.000000 
#    z 0.000000 0.000000 4.020740 
# 
# 
# High freq. dielectric constant tensor:
#      x y z
#    x 1.810870 0.000000 0.000000 
#    y 0.000000 1.831450 0.000000 
#    z 0.000000 0.000000 1.845390 
# 
# From -- ./inp_files/15519.got.cif
#   From: 2010.06.25/outbox.cif.g09.slc.cpg/sg52_8_cif.got.tgz:15519.got - 2010.06.26 19:32:48.
