data_PCOD8217663
_publ_section_title
;
Structure prediction by ZEFSAII (Michael W. Deem and Ramdas Pophale) SiO2 
 PCOD8217663
Probable space group: P M N A
;
_chemical_formula_sum "Si O2"
_cell_formula_units_Z 48
_cell_length_a 17.742262
_cell_length_b 15.676036
_cell_length_c 9.015910
_cell_angle_alpha 90.000000
_cell_angle_beta 90.000000
_cell_angle_gamma 90.000000
_cell_volume 2507.580062
_symmetry_space_group_name_H-M "P M N A"
_symmetry_group_IT_number 53
_symmetry_cell_setting 'orthorhombic'
loop_
_space_group_symop_operation_xyz
x,y,z
1/2-x,-y,1/2+z
x,-y,-z
1/2-x,y,1/2-z
-x,-y,-z
1/2+x,y,1/2-z
-x,y,z
1/2+x,-y,1/2+z
loop_
_atom_site_type_symbol
_atom_site_label
_atom_site_fract_x
_atom_site_fract_y
_atom_site_fract_z
Si Si1 0.342553 0.914553 0.908778
Si Si2 0.588948 0.759204 0.373307
Si Si3 0.331148 0.677077 0.778997
Si Si4 0.586803 0.756340 0.034489
Si Si5 0.322943 0.146011 0.393294
Si Si6 0.088040 0.591951 0.963585
O O1 0.406848 0.849546 0.962325
O O2 0.260208 0.876869 0.950437
O O3 0.349651 0.926275 0.727759
O O4 0.356569 0.000000 0.000000
O O5 0.500000 0.767179 0.394797
O O6 0.624571 0.839691 0.462987
O O7 0.619928 0.668044 0.432510
O O8 0.614037 0.763224 0.203462
O O9 0.250000 0.632321 0.750000
O O10 0.357983 0.689544 0.949207
O O11 0.325071 0.768489 0.702331
O O12 0.393669 0.616356 0.705469
O O13 0.500000 0.725652 0.023209
O O14 0.000000 0.585280 0.988049
O O15 0.125306 0.500000 0.000000
#
# Coordination Sequence:
#
# PCOD8217663 Si02
#       6
#     8   8   8   8   8   8
#     4  10  20  34  53  78 104 138 177 224 271 318
#     4   9  19  34  55  79 105 140 182 221 262 318
#     4  10  17  35  56  76 106 140 181 221 261 323
#     4  10  20  35  54  80 106 138 181 223 265 320
#     4   9  18  35  52  75 105 141 182 220 262 325
#     4   9  18  34  55  78 105 142 179 216 266 319
#
# _framework density 19.141961999999999
#
# number of rings (size 3 to 8) (size 9 to 14) (size 15 to 20)
#    0.000    2.500    3.333    0.500    0.000    7.667 
#    0.000    2.500    0.000    6.500    0.000    0.000 
#    0.000    0.000    0.000    0.000    0.000    0.000 
#
# Total GULP energy -594701.024373 kJ/mol
# GULP energy per Si atom -12389.604674 kJ/mol
# Density = 1.909839 g / cm^3
# Si number density = 19.141962 Si / 1000 Ang^3
#
#
#
# Elastic Constant Matrix: (Units=GPa)
#
#
# Indices 1 2 3 4 5 6 
#
# 1 49.4204 11.3686 43.5846 0.0000 0.0000 0.0000
# 2 11.3686 63.8471 33.6227 0.0000 0.0000 0.0000
# 3 43.5846 33.6227 146.5887 0.0000 0.0000 0.0000
# 4 0.0000 0.0000 0.0000 20.0114 0.0000 0.0000
# 5 0.0000 0.0000 0.0000 0.0000 27.2967 0.0000
# 6 0.0000 0.0000 0.0000 0.0000 0.0000 18.4491
#
#
#
# Elastic Compliance Matrix: (Units=1/GPa)
#
#
# Indices 1 2 3 4 5 6 
#
# 1 0.027451 -0.000671 -0.008008 0.000000 0.000000 0.000000
# 2 -0.000671 0.017831 -0.003890 0.000000 0.000000 0.000000
# 3 -0.008008 -0.003890 0.010095 0.000000 0.000000 0.000000
# 4 0.000000 0.000000 0.000000 0.049971 0.000000 0.000000
# 5 0.000000 0.000000 0.000000 0.000000 0.036634 0.000000
# 6 0.000000 0.000000 0.000000 0.000000 0.000000 0.054203
#
#
# Mechanical properties :
#
#
# Convention : Reuss Voigt Hill
#
# Bulk Modulus (GPa) = 33.07033 48.55644 40.81338
# Shear Modulus (GPa) = 21.60722 24.57013 23.08867
#
# Velocity S-wave (km/s) = 3.36339 3.58659 3.47678
# Velocity P-wave (km/s) = 5.69184 6.52480 6.12250
#
# Compressibility (1/GPa) = 0.03023859
#
# Stress axis : x y z
#
# Youngs Moduli (GPa) = 36.42802 56.08355 99.05746
#
# Poissons Ratio (x) = 0.03762 0.79327
# Poissons Ratio (y) = 0.02444 0.38536
# Poissons Ratio (z) = 0.29172 0.21818
#
# Static dielectric constant tensor:
#      x y z
#    x 3.497770 0.000000 0.000000 
#    y 0.000000 3.494930 0.000000 
#    z 0.000000 0.000000 3.745080 
# 
# 
# High freq. dielectric constant tensor:
#      x y z
#    x 1.734470 0.000000 0.000000 
#    y 0.000000 1.714000 0.000000 
#    z 0.000000 0.000000 1.747480 
# 
# From -- ./inp_files/9939.got.cif
#   From: 2010.03.12/outbox.cif.g09.slc.cpg/sg53_5_cif.got.tgz:9939.got - 2010.04.16 14:36:59.
