data_PCOD8217926
_publ_section_title
;
Structure prediction by ZEFSAII (Michael W. Deem and Ramdas Pophale) SiO2 
 PCOD8217926
Probable space group: P M N A
;
_chemical_formula_sum "Si O2"
_cell_formula_units_Z 64
_cell_length_a 9.169278
_cell_length_b 23.798690
_cell_length_c 15.217014
_cell_angle_alpha 90.000000
_cell_angle_beta 90.000000
_cell_angle_gamma 90.000000
_cell_volume 3320.608171
_symmetry_space_group_name_H-M "P M N A"
_symmetry_group_IT_number 53
_symmetry_cell_setting 'orthorhombic'
loop_
_space_group_symop_operation_xyz
x,y,z
1/2-x,-y,1/2+z
x,-y,-z
1/2-x,y,1/2-z
-x,-y,-z
1/2+x,y,1/2-z
-x,y,z
1/2+x,-y,1/2+z
loop_
_atom_site_type_symbol
_atom_site_label
_atom_site_fract_x
_atom_site_fract_y
_atom_site_fract_z
Si Si1 0.832735 0.902575 0.834463
Si Si2 0.668319 0.980074 0.408241
Si Si3 0.174028 0.139141 0.840819
Si Si4 0.324381 0.720285 0.658357
Si Si5 0.836617 0.444612 0.939390
Si Si6 0.828374 0.182945 0.024305
Si Si7 0.837470 0.624234 0.562700
Si Si8 0.657791 0.482919 0.174225
O O1 0.750000 0.878732 0.750000
O O2 0.772722 0.872067 0.922336
O O3 0.000000 0.885795 0.820976
O O4 0.810858 0.969421 0.839634
O O5 0.500000 0.966874 0.429092
O O6 0.733428 0.923337 0.366093
O O7 0.743096 0.000000 0.500000
O O8 0.250000 0.158750 0.750000
O O9 0.000000 0.140498 0.826824
O O10 0.225534 0.179670 0.922376
O O11 0.250000 0.740095 0.750000
O O12 0.500000 0.715530 0.669848
O O13 0.279151 0.762040 0.578535
O O14 0.252761 0.661257 0.631952
O O15 0.742870 0.460876 0.854336
O O16 0.000000 0.427207 0.913259
O O17 0.840415 0.500000 0.000000
O O18 0.762222 0.387691 0.977736
O O19 0.000000 0.180858 0.019710
O O20 0.861768 0.561884 0.598191
O O21 0.000000 0.649619 0.542522
O O22 0.750000 0.452689 0.250000
O O23 0.500000 0.501708 0.209640
#
# Coordination Sequence:
#
# PCOD8217926 Si02
#       8
#     8   8   8   8   8   8   8   8
#     4  10  18  30  49  73 100 134 170 205 251 308
#     4   9  15  27  50  74  99 135 173 204 244 310
#     4  10  19  34  55  78 102 132 173 216 259 310
#     4  11  22  36  54  77 103 135 175 219 268 321
#     4   9  17  30  49  73 102 136 172 210 255 308
#     4   9  19  35  54  73  99 136 175 212 257 319
#     4  10  20  34  52  75 104 138 175 216 260 310
#     4  10  19  30  47  73 106 141 176 213 255 305
#
# _framework density 19.273575999999998
#
# number of rings (size 3 to 8) (size 9 to 14) (size 15 to 20)
#    0.000    2.250    1.250    2.625    0.000    4.000 
#    0.000    2.500    0.000    1.500    0.000    3.500 
#    0.000    0.000    0.000    0.000    0.000    0.000 
#
# Total GULP energy -792907.975339 kJ/mol
# GULP energy per Si atom -12389.187115 kJ/mol
# Density = 1.922971 g / cm^3
# Si number density = 19.273576 Si / 1000 Ang^3
#
#
#
# Elastic Constant Matrix: (Units=GPa)
#
#
# Indices 1 2 3 4 5 6 
#
# 1 110.1910 31.4963 44.1503 0.0000 0.0000 0.0000
# 2 31.4963 55.6897 39.4950 0.0000 0.0000 0.0000
# 3 44.1503 39.4950 122.6479 0.0000 0.0000 0.0000
# 4 0.0000 0.0000 0.0000 26.2595 0.0000 0.0000
# 5 0.0000 0.0000 0.0000 0.0000 31.7596 0.0000
# 6 0.0000 0.0000 0.0000 0.0000 0.0000 13.2072
#
#
#
# Elastic Compliance Matrix: (Units=1/GPa)
#
#
# Indices 1 2 3 4 5 6 
#
# 1 0.011448 -0.004603 -0.002639 0.000000 0.000000 0.000000
# 2 -0.004603 0.025122 -0.006433 0.000000 0.000000 0.000000
# 3 -0.002639 -0.006433 0.011175 0.000000 0.000000 0.000000
# 4 0.000000 0.000000 0.000000 0.038081 0.000000 0.000000
# 5 0.000000 0.000000 0.000000 0.000000 0.031487 0.000000
# 6 0.000000 0.000000 0.000000 0.000000 0.000000 0.075716
#
#
# Mechanical properties :
#
#
# Convention : Reuss Voigt Hill
#
# Bulk Modulus (GPa) = 49.03025 57.64576 53.33801
# Shear Modulus (GPa) = 22.00923 25.80441 23.90682
#
# Velocity S-wave (km/s) = 3.38292 3.66300 3.52574
# Velocity P-wave (km/s) = 6.38383 6.91840 6.65648
#
# Compressibility (1/GPa) = 0.02039557
#
# Stress axis : x y z
#
# Youngs Moduli (GPa) = 87.35003 39.80537 89.48733
#
# Poissons Ratio (x) = 0.18324 0.23613
# Poissons Ratio (y) = 0.40210 0.57565
# Poissons Ratio (z) = 0.23049 0.25606
#
# Static dielectric constant tensor:
#      x y z
#    x 3.501880 0.000000 0.000000 
#    y 0.000000 3.323760 0.000000 
#    z 0.000000 0.000000 3.611150 
# 
# 
# High freq. dielectric constant tensor:
#      x y z
#    x 1.732110 0.000000 0.000000 
#    y 0.000000 1.721640 0.000000 
#    z 0.000000 0.000000 1.745390 
# 
# From -- ./inp_files/20977.got.cif
#   From: 2010.03.12/outbox.cif.g09.slc.cpg/sg53_11_cif.got.tgz:20977.got - 2010.04.16 14:36:59.
