data_PCOD8217448
_publ_section_title
;
Structure prediction by ZEFSAII (Michael W. Deem and Ramdas Pophale) SiO2 
 PCOD8217448
Probable space group: P N N A
;
_chemical_formula_sum "Si O2"
_cell_formula_units_Z 20
_cell_length_a 5.158503
_cell_length_b 4.862134
_cell_length_c 32.728835
_cell_angle_alpha 90.000000
_cell_angle_beta 90.000000
_cell_angle_gamma 90.000000
_cell_volume 820.882804
_symmetry_space_group_name_H-M "P N N A"
_symmetry_group_IT_number 52
_symmetry_cell_setting 'orthorhombic'
loop_
_space_group_symop_operation_xyz
x,y,z
1/2-x,-y,z
x,1/2-y,1/2-z
1/2-x,1/2+y,1/2-z
-x,-y,-z
1/2+x,y,-z
-x,1/2+y,1/2+z
1/2+x,1/2-y,1/2+z
loop_
_atom_site_type_symbol
_atom_site_label
_atom_site_fract_x
_atom_site_fract_y
_atom_site_fract_z
Si Si1 0.250000 0.000000 0.586369
Si Si2 0.998231 0.310419 0.653718
Si Si3 0.250000 0.500000 0.222760
Si Si4 0.750000 0.500000 0.471947
O O1 0.485331 0.901905 0.615738
O O2 0.179276 0.752166 0.557001
O O3 0.250000 0.500000 0.656538
O O4 0.750000 0.500000 0.647393
O O5 0.977755 0.125858 0.694602
O O6 0.134031 0.250000 0.250000
O O7 0.500000 0.500000 0.500000
#
# Coordination Sequence:
#
# PCOD8217448 Si02
#       4
#     4   8   4   4
#     4  12  28  54  83 113 162 204 268 321 381 500
#     4  12  28  55  82 118 156 218 268 324 401 467
#     4  12  28  54  78 120 166 210 268 344 392 466
#     4  12  30  50  81 119 158 202 252 327 407 458
#
# _framework density 24.364018000000002
#
# number of rings (size 3 to 8) (size 9 to 14) (size 15 to 20)
#    0.000    0.000    4.000    3.600    2.800    3.200 
#   10.800    0.000    0.000    0.000    0.000    0.000 
#    0.000    0.000    0.000    0.000    0.000    0.000 
#
# Total GULP energy -247887.654230 kJ/mol
# GULP energy per Si atom -12394.382712 kJ/mol
# Density = 2.430856 g / cm^3
# Si number density = 24.364018 Si / 1000 Ang^3
#
#
#
# Elastic Constant Matrix: (Units=GPa)
#
#
# Indices 1 2 3 4 5 6 
#
# 1 179.4502 87.5142 84.6727 0.0000 0.0000 0.0000
# 2 87.5142 225.5639 122.6831 0.0000 0.0000 0.0000
# 3 84.6727 122.6831 221.5570 0.0000 0.0000 0.0000
# 4 0.0000 0.0000 0.0000 144.1818 0.0000 0.0000
# 5 0.0000 0.0000 0.0000 0.0000 31.3593 0.0000
# 6 0.0000 0.0000 0.0000 0.0000 0.0000 36.2094
#
#
#
# Elastic Compliance Matrix: (Units=1/GPa)
#
#
# Indices 1 2 3 4 5 6 
#
# 1 0.007320 -0.001887 -0.001753 0.000000 0.000000 0.000000
# 2 -0.001887 0.006830 -0.003061 0.000000 0.000000 0.000000
# 3 -0.001753 -0.003061 0.006878 0.000000 0.000000 0.000000
# 4 0.000000 0.000000 0.000000 0.006936 0.000000 0.000000
# 5 0.000000 0.000000 0.000000 0.000000 0.031888 0.000000
# 6 0.000000 0.000000 0.000000 0.000000 0.000000 0.027617
#
#
# Mechanical properties :
#
#
# Convention : Reuss Voigt Hill
#
# Bulk Modulus (GPa) = 131.10550 135.14570 133.12560
# Shear Modulus (GPa) = 48.34995 64.46351 56.40673
#
# Velocity S-wave (km/s) = 4.45958 5.14936 4.81684
# Velocity P-wave (km/s) = 8.96912 9.53648 9.25715
#
# Compressibility (1/GPa) = 0.00762745
#
# Stress axis : x y z
#
# Youngs Moduli (GPa) = 136.61903 146.40838 145.38337
#
# Poissons Ratio (x) = 0.27621 0.25481
# Poissons Ratio (y) = 0.25774 0.44503
# Poissons Ratio (z) = 0.23945 0.44817
#
# Static dielectric constant tensor:
#      x y z
#    x 4.119010 0.000000 0.000000 
#    y 0.000000 5.064130 0.000000 
#    z 0.000000 0.000000 5.066880 
# 
# 
# High freq. dielectric constant tensor:
#      x y z
#    x 1.947380 0.000000 0.000000 
#    y 0.000000 2.005340 0.000000 
#    z 0.000000 0.000000 1.994690 
# 
# From -- ./inp_files/43400.got.cif
#   From: 2010.06.25/outbox.cif.g09.slc.cpg/sg52_22_cif.got.tgz:43400.got - 2010.06.26 19:32:48.
