data_PCOD8217976
_publ_section_title
;
Structure prediction by ZEFSAII (Michael W. Deem and Ramdas Pophale) SiO2 
 PCOD8217976
Probable space group: P M N A
;
_chemical_formula_sum "Si O2"
_cell_formula_units_Z 64
_cell_length_a 8.838609
_cell_length_b 12.046394
_cell_length_c 31.690581
_cell_angle_alpha 90.000000
_cell_angle_beta 90.000000
_cell_angle_gamma 90.000000
_cell_volume 3374.202843
_symmetry_space_group_name_H-M "P M N A"
_symmetry_group_IT_number 53
_symmetry_cell_setting 'orthorhombic'
loop_
_space_group_symop_operation_xyz
x,y,z
1/2-x,-y,1/2+z
x,-y,-z
1/2-x,y,1/2-z
-x,-y,-z
1/2+x,y,1/2-z
-x,y,z
1/2+x,-y,1/2+z
loop_
_atom_site_type_symbol
_atom_site_label
_atom_site_fract_x
_atom_site_fract_y
_atom_site_fract_z
Si Si1 0.824562 0.744968 0.059052
Si Si2 0.322254 0.238394 0.707349
Si Si3 0.824184 0.111712 0.018771
Si Si4 0.179082 0.623525 0.627932
Si Si5 0.179404 0.094142 0.868764
Si Si6 0.678489 0.483015 0.952344
Si Si7 0.321101 0.493471 0.705760
Si Si8 0.319997 0.149263 0.388563
O O1 0.763081 0.843043 0.089210
O O2 0.733335 0.633041 0.066930
O O3 0.000000 0.720053 0.068175
O O4 0.796794 0.783728 0.011305
O O5 0.250000 0.193463 0.750000
O O6 0.500000 0.225094 0.710665
O O7 0.253950 0.160773 0.670839
O O8 0.276772 0.365257 0.698656
O O9 0.755988 0.143404 0.063802
O O10 0.000000 0.084946 0.025703
O O11 0.747511 0.000000 0.000000
O O12 0.230450 0.576293 0.581752
O O13 0.253463 0.556483 0.665948
O O14 0.235556 0.749325 0.633682
O O15 0.000000 0.616923 0.632836
O O16 0.000000 0.097504 0.869228
O O17 0.231458 0.966088 0.866704
O O18 0.500000 0.481011 0.955682
O O19 0.746717 0.500000 0.000000
O O20 0.250000 0.536163 0.750000
O O21 0.500000 0.512219 0.707715
O O22 0.500000 0.168099 0.386060
#
# Coordination Sequence:
#
# PCOD8217976 Si02
#       8
#     8   8   8   8   8   8   8   8
#     4  10  18  30  53  80 103 129 172 225 271 322
#     4   9  18  33  54  80 107 133 163 205 258 316
#     4   9  15  27  49  78 106 135 174 222 273 323
#     4  11  23  38  55  77 110 150 191 234 280 330
#     4   9  17  31  52  78 105 133 167 211 264 317
#     4  10  22  38  52  71 108 152 187 226 280 334
#     4  10  20  37  62  89 114 140 177 224 276 335
#     4  10  19  33  54  77 106 144 183 223 269 324
#
# _framework density 18.967444
#
# number of rings (size 3 to 8) (size 9 to 14) (size 15 to 20)
#    0.000    2.250    1.250    2.250    0.000    2.750 
#    0.000    2.500    0.000    2.250    0.000    0.000 
#    0.000    0.000    0.000    0.000    0.000    0.000 
#
# Total GULP energy -793445.260849 kJ/mol
# GULP energy per Si atom -12397.582201 kJ/mol
# Density = 1.892427 g / cm^3
# Si number density = 18.967444 Si / 1000 Ang^3
#
#
#
# Elastic Constant Matrix: (Units=GPa)
#
#
# Indices 1 2 3 4 5 6 
#
# 1 27.9997 27.3647 35.4366 0.0000 0.0000 0.0000
# 2 27.3647 123.4260 63.3990 0.0000 0.0000 0.0000
# 3 35.4366 63.3990 143.7364 0.0000 0.0000 0.0000
# 4 0.0000 0.0000 0.0000 30.2146 0.0000 0.0000
# 5 0.0000 0.0000 0.0000 0.0000 23.9527 0.0000
# 6 0.0000 0.0000 0.0000 0.0000 0.0000 12.8844
#
#
#
# Elastic Compliance Matrix: (Units=1/GPa)
#
#
# Indices 1 2 3 4 5 6 
#
# 1 0.056114 -0.006898 -0.010792 0.000000 0.000000 0.000000
# 2 -0.006898 0.011323 -0.003294 0.000000 0.000000 0.000000
# 3 -0.010792 -0.003294 0.011071 0.000000 0.000000 0.000000
# 4 0.000000 0.000000 0.000000 0.033097 0.000000 0.000000
# 5 0.000000 0.000000 0.000000 0.000000 0.041749 0.000000
# 6 0.000000 0.000000 0.000000 0.000000 0.000000 0.077613
#
#
# Mechanical properties :
#
#
# Convention : Reuss Voigt Hill
#
# Bulk Modulus (GPa) = 27.36634 60.84029 44.10331
# Shear Modulus (GPa) = 17.53680 24.67444 21.10562
#
# Velocity S-wave (km/s) = 3.04398 3.61069 3.33938
# Velocity P-wave (km/s) = 5.17820 7.03765 6.17828
#
# Compressibility (1/GPa) = 0.03654124
#
# Stress axis : x y z
#
# Youngs Moduli (GPa) = 17.82075 88.31397 90.32871
#
# Poissons Ratio (x) = 0.60916 0.97482
# Poissons Ratio (y) = 0.12292 0.29753
# Poissons Ratio (z) = 0.19232 0.29090
#
# Static dielectric constant tensor:
#      x y z
#    x 3.116100 0.000000 0.000000 
#    y 0.000000 3.568560 0.000000 
#    z 0.000000 0.000000 3.724040 
# 
# 
# High freq. dielectric constant tensor:
#      x y z
#    x 1.702750 0.000000 0.000000 
#    y 0.000000 1.741000 0.000000 
#    z 0.000000 0.000000 1.740880 
# 
# From -- ./inp_files/38278.got.cif
#   From: 2010.03.12/outbox.cif.g09.slc.cpg/sg53_20_cif.got.tgz:38278.got - 2010.04.16 14:36:59.
