data_PCOD8217502
_publ_section_title
;
Structure prediction by ZEFSAII (Michael W. Deem and Ramdas Pophale) SiO2 
 PCOD8217502
Probable space group: P M N A
;
_chemical_formula_sum "Si O2"
_cell_formula_units_Z 64
_cell_length_a 9.040091
_cell_length_b 20.326308
_cell_length_c 22.978623
_cell_angle_alpha 90.000000
_cell_angle_beta 90.000000
_cell_angle_gamma 90.000000
_cell_volume 4222.360443
_symmetry_space_group_name_H-M "P M N A"
_symmetry_group_IT_number 53
_symmetry_cell_setting 'orthorhombic'
loop_
_space_group_symop_operation_xyz
x,y,z
1/2-x,-y,1/2+z
x,-y,-z
1/2-x,y,1/2-z
-x,-y,-z
1/2+x,y,1/2-z
-x,y,z
1/2+x,-y,1/2+z
loop_
_atom_site_type_symbol
_atom_site_label
_atom_site_fract_x
_atom_site_fract_y
_atom_site_fract_z
Si Si1 0.167681 0.909881 0.052525
Si Si2 0.831245 0.357856 0.526939
Si Si3 0.674827 0.299568 0.312048
Si Si4 0.165960 0.046827 0.080603
Si Si5 0.175117 0.815644 0.896744
Si Si6 0.326312 0.600854 0.897419
Si Si7 0.333267 0.477071 0.566177
Si Si8 0.670747 0.789234 0.016207
O O1 0.000000 0.896005 0.073469
O O2 0.240381 0.973831 0.086348
O O3 0.168685 0.928223 0.985211
O O4 0.263619 0.843793 0.060748
O O5 0.788210 0.366144 0.459234
O O6 0.731500 0.403131 0.568855
O O7 0.807172 0.282186 0.545530
O O8 0.000000 0.380377 0.535514
O O9 0.750000 0.298058 0.250000
O O10 0.500000 0.309172 0.306013
O O11 0.715215 0.230433 0.342711
O O12 0.740068 0.359797 0.348141
O O13 0.233139 0.108900 0.116900
O O14 0.000000 0.034145 0.101439
O O15 0.250681 0.787037 0.954046
O O16 0.000000 0.817423 0.908956
O O17 0.500000 0.601534 0.883849
O O18 0.266933 0.525949 0.895496
O O19 0.328055 0.500000 0.500000
O O20 0.500000 0.476852 0.590629
O O21 0.500000 0.805277 0.005443
#
# Coordination Sequence:
#
# PCOD8217502 Si02
#       8
#     8   8   8   8   8   8   8   8
#     4   8  13  22  35  51  72 100 131 161 192 230
#     4   9  17  27  39  57  81 110 136 163 202 244
#     4  11  22  33  46  62  80 103 137 177 216 252
#     4   7  11  22  38  52  68  94 131 166 194 228
#     4   9  17  29  43  55  70 100 137 170 203 242
#     4  10  18  31  46  58  78 105 134 168 208 249
#     4   9  17  27  41  61  80 100 132 169 201 239
#     4  10  17  24  36  56  82 107 133 165 199 235
#
# _framework density 15.157399
#
# number of rings (size 3 to 8) (size 9 to 14) (size 15 to 20)
#    0.000    2.875    1.250    3.000    0.000    3.500 
#    0.000    5.000    0.000    0.000    0.000    0.000 
#    0.000    0.000    0.000    1.125    0.000   18.250 
#
# Total GULP energy -792889.411331 kJ/mol
# GULP energy per Si atom -12388.897052 kJ/mol
# Density = 1.512290 g / cm^3
# Si number density = 15.157399 Si / 1000 Ang^3
#
#
#
# Elastic Constant Matrix: (Units=GPa)
#
#
# Indices 1 2 3 4 5 6 
#
# 1 68.3013 51.4814 23.9024 0.0000 0.0000 0.0000
# 2 51.4814 139.1255 39.7305 0.0000 0.0000 0.0000
# 3 23.9024 39.7305 36.4388 0.0000 0.0000 0.0000
# 4 0.0000 0.0000 0.0000 11.3155 0.0000 0.0000
# 5 0.0000 0.0000 0.0000 0.0000 12.9789 0.0000
# 6 0.0000 0.0000 0.0000 0.0000 0.0000 24.1221
#
#
#
# Elastic Compliance Matrix: (Units=1/GPa)
#
#
# Indices 1 2 3 4 5 6 
#
# 1 0.021797 -0.005783 -0.007992 0.000000 0.000000 0.000000
# 2 -0.005783 0.011972 -0.009260 0.000000 0.000000 0.000000
# 3 -0.007992 -0.009260 0.042783 0.000000 0.000000 0.000000
# 4 0.000000 0.000000 0.000000 0.088374 0.000000 0.000000
# 5 0.000000 0.000000 0.000000 0.000000 0.077048 0.000000
# 6 0.000000 0.000000 0.000000 0.000000 0.000000 0.041456
#
#
# Mechanical properties :
#
#
# Convention : Reuss Voigt Hill
#
# Bulk Modulus (GPa) = 32.80794 52.67713 42.74253
# Shear Modulus (GPa) = 14.72055 18.26673 16.49364
#
# Velocity S-wave (km/s) = 3.11976 3.47527 3.30230
# Velocity P-wave (km/s) = 5.88804 7.13668 6.54222
#
# Compressibility (1/GPa) = 0.03048043
#
# Stress axis : x y z
#
# Youngs Moduli (GPa) = 45.87776 83.52669 23.37402
#
# Poissons Ratio (x) = 0.48306 0.18681
# Poissons Ratio (y) = 0.26532 0.21645
# Poissons Ratio (z) = 0.36667 0.77347
#
# Static dielectric constant tensor:
#      x y z
#    x 2.929540 0.000000 0.000000 
#    y 0.000000 3.441190 0.000000 
#    z 0.000000 0.000000 2.405970 
# 
# 
# High freq. dielectric constant tensor:
#      x y z
#    x 1.579400 0.000000 0.000000 
#    y 0.000000 1.602880 0.000000 
#    z 0.000000 0.000000 1.499160 
# 
# From -- ./inp_files/34548.got.cif
#   From: 2010.03.12/outbox.cif.g09.slc.cpg/sg53_18_cif.got.tgz:34548.got - 2010.04.16 14:36:59.
