data_PCOD8217898
_publ_section_title
;
Structure prediction by ZEFSAII (Michael W. Deem and Ramdas Pophale) SiO2 
 PCOD8217898
Probable space group: P M N A
;
_chemical_formula_sum "Si O2"
_cell_formula_units_Z 64
_cell_length_a 8.915850
_cell_length_b 15.567095
_cell_length_c 28.241123
_cell_angle_alpha 90.000000
_cell_angle_beta 90.000000
_cell_angle_gamma 90.000000
_cell_volume 3919.695148
_symmetry_space_group_name_H-M "P M N A"
_symmetry_group_IT_number 53
_symmetry_cell_setting 'orthorhombic'
loop_
_space_group_symop_operation_xyz
x,y,z
1/2-x,-y,1/2+z
x,-y,-z
1/2-x,y,1/2-z
-x,-y,-z
1/2+x,y,1/2-z
-x,y,z
1/2+x,-y,1/2+z
loop_
_atom_site_type_symbol
_atom_site_label
_atom_site_fract_x
_atom_site_fract_y
_atom_site_fract_z
Si Si1 0.824139 0.586034 0.797407
Si Si2 0.823590 0.168826 0.440465
Si Si3 0.331184 0.003750 0.556214
Si Si4 0.175812 0.403306 0.702941
Si Si5 0.672515 0.512791 0.944555
Si Si6 0.175237 0.341485 0.602952
Si Si7 0.825255 0.330060 0.104216
Si Si8 0.176995 0.175718 0.549724
O O1 0.750000 0.626105 0.750000
O O2 0.748557 0.494903 0.808735
O O3 0.792162 0.649207 0.840955
O O4 0.000000 0.571683 0.789225
O O5 0.756071 0.078250 0.423073
O O6 0.758843 0.242289 0.407119
O O7 0.779165 0.188062 0.494846
O O8 0.000000 0.164589 0.434048
O O9 0.500000 0.002669 0.575878
O O10 0.327045 0.000000 0.500000
O O11 0.251307 0.091318 0.572595
O O12 0.250000 0.362581 0.750000
O O13 0.207423 0.339303 0.659177
O O14 0.000000 0.416753 0.711159
O O15 0.500000 0.527968 0.929298
O O16 0.742586 0.428692 0.919281
O O17 0.767338 0.594910 0.929686
O O18 0.687076 0.500000 0.000000
O O19 0.244288 0.257123 0.578324
O O20 0.000000 0.342268 0.591299
O O21 0.000000 0.317763 0.094403
O O22 0.000000 0.166004 0.555986
#
# Coordination Sequence:
#
# PCOD8217898 Si02
#       8
#     8   8   8   8   8   8   8   8
#     4  10  20  33  49  68  91 121 158 200 244 286
#     4  10  19  31  50  71  94 127 164 198 230 278
#     4   9  17  30  47  69  97 125 154 193 242 284
#     4  10  18  30  48  67  90 120 156 199 244 281
#     4  10  19  32  48  65  91 130 170 198 225 272
#     4   9  17  29  46  68  92 122 158 197 234 272
#     4  11  22  33  46  69  99 127 157 198 245 287
#     4   9  17  31  49  70  94 123 163 199 230 276
#
# _framework density 16.327801000000001
#
# number of rings (size 3 to 8) (size 9 to 14) (size 15 to 20)
#    0.000    2.250    1.250    3.375    0.000    5.750 
#    0.000    1.875    0.000    0.000    0.000    0.875 
#    0.000    4.000    0.000    0.000    0.000    0.000 
#
# Total GULP energy -793594.610432 kJ/mol
# GULP energy per Si atom -12399.915788 kJ/mol
# Density = 1.629064 g / cm^3
# Si number density = 16.327801 Si / 1000 Ang^3
#
#
#
# Elastic Constant Matrix: (Units=GPa)
#
#
# Indices 1 2 3 4 5 6 
#
# 1 76.2126 37.7386 35.6498 0.0000 0.0000 0.0000
# 2 37.7386 108.6446 40.7780 0.0000 0.0000 0.0000
# 3 35.6498 40.7780 75.0219 0.0000 0.0000 0.0000
# 4 0.0000 0.0000 0.0000 14.5165 0.0000 0.0000
# 5 0.0000 0.0000 0.0000 0.0000 19.4171 0.0000
# 6 0.0000 0.0000 0.0000 0.0000 0.0000 21.6963
#
#
#
# Elastic Compliance Matrix: (Units=1/GPa)
#
#
# Indices 1 2 3 4 5 6 
#
# 1 0.018059 -0.003834 -0.006497 0.000000 0.000000 0.000000
# 2 -0.003834 0.012377 -0.004906 0.000000 0.000000 0.000000
# 3 -0.006497 -0.004906 0.019083 0.000000 0.000000 0.000000
# 4 0.000000 0.000000 0.000000 0.068887 0.000000 0.000000
# 5 0.000000 0.000000 0.000000 0.000000 0.051501 0.000000
# 6 0.000000 0.000000 0.000000 0.000000 0.000000 0.046091
#
#
# Mechanical properties :
#
#
# Convention : Reuss Voigt Hill
#
# Bulk Modulus (GPa) = 52.50673 54.24576 53.37624
# Shear Modulus (GPa) = 19.77672 20.84015 20.30844
#
# Velocity S-wave (km/s) = 3.48405 3.57649 3.53057
# Velocity P-wave (km/s) = 6.95791 7.09578 7.02718
#
# Compressibility (1/GPa) = 0.01904518
#
# Stress axis : x y z
#
# Youngs Moduli (GPa) = 55.37375 80.79187 52.40138
#
# Poissons Ratio (x) = 0.30978 0.34047
# Poissons Ratio (y) = 0.21232 0.25707
# Poissons Ratio (z) = 0.35979 0.39634
#
# Static dielectric constant tensor:
#      x y z
#    x 3.114970 0.000000 0.000000 
#    y 0.000000 3.116640 0.000000 
#    z 0.000000 0.000000 3.040440 
# 
# 
# High freq. dielectric constant tensor:
#      x y z
#    x 1.629950 0.000000 0.000000 
#    y 0.000000 1.617910 0.000000 
#    z 0.000000 0.000000 1.609260 
# 
# From -- ./inp_files/38468.got.cif
#   From: 2010.03.12/outbox.cif.g09.slc.cpg/sg53_20_cif.got.tgz:38468.got - 2010.04.16 14:36:59.
