data_PCOD8217527
_publ_section_title
;
Structure prediction by ZEFSAII (Michael W. Deem and Ramdas Pophale) SiO2 
 PCOD8217527
Probable space group: P M N A
;
_chemical_formula_sum "Si O2"
_cell_formula_units_Z 64
_cell_length_a 15.002745
_cell_length_b 11.283657
_cell_length_c 21.908318
_cell_angle_alpha 90.000000
_cell_angle_beta 90.000000
_cell_angle_gamma 90.000000
_cell_volume 3708.767767
_symmetry_space_group_name_H-M "P M N A"
_symmetry_group_IT_number 53
_symmetry_cell_setting 'orthorhombic'
loop_
_space_group_symop_operation_xyz
x,y,z
1/2-x,-y,1/2+z
x,-y,-z
1/2-x,y,1/2-z
-x,-y,-z
1/2+x,y,1/2-z
-x,y,z
1/2+x,-y,1/2+z
loop_
_atom_site_type_symbol
_atom_site_label
_atom_site_fract_x
_atom_site_fract_y
_atom_site_fract_z
Si Si1 0.598540 0.274894 0.155086
Si Si2 0.101626 0.138548 0.999908
Si Si3 0.751540 0.481430 0.933556
Si Si4 0.905871 0.554683 0.356676
Si Si5 0.600947 0.315914 0.602202
Si Si6 0.396500 0.322232 0.292578
Si Si7 0.219119 0.744605 0.897153
Si Si8 0.652060 0.587765 0.272268
O O1 0.500000 0.221460 0.138384
O O2 0.598024 0.413323 0.140655
O O3 0.617215 0.261448 0.227010
O O4 0.679008 0.210511 0.117474
O O5 0.113859 0.187656 0.930402
O O6 0.000000 0.166450 0.022290
O O7 0.176594 0.194114 0.043886
O O8 0.119680 0.000000 0.000000
O O9 0.680248 0.403154 0.894475
O O10 0.841504 0.406539 0.937804
O O11 0.776526 0.604629 0.904153
O O12 0.709430 0.500000 0.000000
O O13 0.909391 0.602689 0.287280
O O14 0.000000 0.597209 0.386293
O O15 0.500000 0.359206 0.596524
O O16 0.627372 0.318888 0.674046
O O17 0.500000 0.331659 0.310095
O O18 0.345770 0.235033 0.339372
O O19 0.354206 0.453711 0.296925
O O20 0.750000 0.616923 0.250000
#
# Coordination Sequence:
#
# PCOD8217527 Si02
#       8
#     8   8   8   8   8   8   8   8
#     4   8  16  28  43  70 105 136 164 196 239 295
#     4  10  23  40  54  70  94 129 171 213 260 311
#     4  11  20  30  45  76 108 133 167 205 249 297
#     4   9  17  29  44  67 106 146 170 191 232 299
#     4  11  21  33  51  74 103 134 166 208 256 303
#     4  10  17  25  42  74 110 138 165 193 240 302
#     4  11  18  29  51  71 100 135 167 204 246 297
#     4  11  17  28  47  72 108 140 164 198 244 306
#
# _framework density 17.256405000000001
#
# number of rings (size 3 to 8) (size 9 to 14) (size 15 to 20)
#    0.000    1.875    3.750    4.125    0.000    1.000 
#    0.000    0.000    0.000    1.875    0.000    0.000 
#    0.000    0.000    0.000    0.000    0.000    0.000 
#
# Total GULP energy -792927.982555 kJ/mol
# GULP energy per Si atom -12389.499727 kJ/mol
# Density = 1.721713 g / cm^3
# Si number density = 17.256405 Si / 1000 Ang^3
#
#
#
# Elastic Constant Matrix: (Units=GPa)
#
#
# Indices 1 2 3 4 5 6 
#
# 1 139.1910 40.1830 62.2333 0.0000 0.0000 0.0000
# 2 40.1830 39.4944 26.3729 0.0000 0.0000 0.0000
# 3 62.2333 26.3729 106.7063 0.0000 0.0000 0.0000
# 4 0.0000 0.0000 0.0000 12.1092 0.0000 0.0000
# 5 0.0000 0.0000 0.0000 0.0000 25.6714 0.0000
# 6 0.0000 0.0000 0.0000 0.0000 0.0000 6.7546
#
#
#
# Elastic Compliance Matrix: (Units=1/GPa)
#
#
# Indices 1 2 3 4 5 6 
#
# 1 0.011871 -0.008928 -0.004717 0.000000 0.000000 0.000000
# 2 -0.008928 0.037040 -0.003948 0.000000 0.000000 0.000000
# 3 -0.004717 -0.003948 0.013098 0.000000 0.000000 0.000000
# 4 0.000000 0.000000 0.000000 0.082582 0.000000 0.000000
# 5 0.000000 0.000000 0.000000 0.000000 0.038954 0.000000
# 6 0.000000 0.000000 0.000000 0.000000 0.000000 0.148048
#
#
# Mechanical properties :
#
#
# Convention : Reuss Voigt Hill
#
# Bulk Modulus (GPa) = 37.27998 60.33001 48.80499
# Shear Modulus (GPa) = 13.30789 19.34722 16.32755
#
# Velocity S-wave (km/s) = 2.78004 3.35201 3.07933
# Velocity P-wave (km/s) = 5.65290 7.07235 6.40208
#
# Compressibility (1/GPa) = 0.02682405
#
# Stress axis : x y z
#
# Youngs Moduli (GPa) = 84.24160 26.99809 76.34762
#
# Poissons Ratio (x) = 0.24104 0.36010
# Poissons Ratio (y) = 0.75211 0.30138
# Poissons Ratio (z) = 0.39733 0.10658
#
# Static dielectric constant tensor:
#      x y z
#    x 3.712720 0.000000 0.000000 
#    y 0.000000 2.609610 0.000000 
#    z 0.000000 0.000000 3.473490 
# 
# 
# High freq. dielectric constant tensor:
#      x y z
#    x 1.690920 0.000000 0.000000 
#    y 0.000000 1.580860 0.000000 
#    z 0.000000 0.000000 1.672670 
# 
# From -- ./inp_files/35334.got.cif
#   From: 2010.03.12/outbox.cif.g09.slc.cpg/sg53_18_cif.got.tgz:35334.got - 2010.04.16 14:36:59.
