data_PCOD8217160
_publ_section_title
;
Structure prediction by ZEFSAII (Michael W. Deem and Ramdas Pophale) SiO2 
 PCOD8217160
Probable space group: P N N A
;
_chemical_formula_sum "Si O2"
_cell_formula_units_Z 28
_cell_length_a 7.586770
_cell_length_b 7.894197
_cell_length_c 20.388669
_cell_angle_alpha 90.000000
_cell_angle_beta 90.000000
_cell_angle_gamma 90.000000
_cell_volume 1221.107092
_symmetry_space_group_name_H-M "P N N A"
_symmetry_group_IT_number 52
_symmetry_cell_setting 'orthorhombic'
loop_
_space_group_symop_operation_xyz
x,y,z
1/2-x,-y,z
x,1/2-y,1/2-z
1/2-x,1/2+y,1/2-z
-x,-y,-z
1/2+x,y,-z
-x,1/2+y,1/2+z
1/2+x,1/2-y,1/2+z
loop_
_atom_site_type_symbol
_atom_site_label
_atom_site_fract_x
_atom_site_fract_y
_atom_site_fract_z
Si Si1 0.824621 0.316953 0.438649
Si Si2 0.093266 0.892582 0.300406
Si Si3 0.750000 0.000000 0.360079
Si Si4 0.271656 0.814111 0.087553
O O1 0.750000 0.500000 0.415041
O O2 0.820483 0.305258 0.516761
O O3 0.022318 0.279016 0.416937
O O4 0.715156 0.167277 0.404216
O O5 0.030019 0.750000 0.250000
O O6 0.175263 0.821566 0.367640
O O7 0.924264 0.011517 0.314840
O O8 0.250000 0.000000 0.266294
O O9 0.250000 0.000000 0.118161
#
# Coordination Sequence:
#
# PCOD8217160 Si02
#       4
#     8   8   4   8
#     4  11  23  41  73 110 146 182 229 293 357 417
#     4  12  27  48  71  99 139 190 240 291 352 421
#     4  12  26  48  74 108 138 184 242 292 354 420
#     4  11  22  43  69 106 147 183 230 291 352 421
#
# _framework density 22.930011
#
# number of rings (size 3 to 8) (size 9 to 14) (size 15 to 20)
#    0.000    0.571    2.857    7.714    2.000    3.429 
#    7.714    0.000    0.000    0.000    0.000    0.000 
#    0.000    0.000    0.000    0.000    0.000    0.000 
#
# Total GULP energy -347294.298966 kJ/mol
# GULP energy per Si atom -12403.367820 kJ/mol
# Density = 2.287782 g / cm^3
# Si number density = 22.930011 Si / 1000 Ang^3
#
#
#
# Elastic Constant Matrix: (Units=GPa)
#
#
# Indices 1 2 3 4 5 6 
#
# 1 140.3421 24.8680 28.3230 0.0000 0.0000 0.0000
# 2 24.8680 121.8555 35.6010 0.0000 0.0000 0.0000
# 3 28.3230 35.6010 67.5660 0.0000 0.0000 0.0000
# 4 0.0000 0.0000 0.0000 57.1361 0.0000 0.0000
# 5 0.0000 0.0000 0.0000 0.0000 2.5391 0.0000
# 6 0.0000 0.0000 0.0000 0.0000 0.0000 40.4914
#
#
#
# Elastic Compliance Matrix: (Units=1/GPa)
#
#
# Indices 1 2 3 4 5 6 
#
# 1 0.007843 -0.000756 -0.002889 0.000000 0.000000 0.000000
# 2 -0.000756 0.009773 -0.004832 0.000000 0.000000 0.000000
# 3 -0.002889 -0.004832 0.018557 0.000000 0.000000 0.000000
# 4 0.000000 0.000000 0.000000 0.017502 0.000000 0.000000
# 5 0.000000 0.000000 0.000000 0.000000 0.393834 0.000000
# 6 0.000000 0.000000 0.000000 0.000000 0.000000 0.024697
#
#
# Mechanical properties :
#
#
# Convention : Reuss Voigt Hill
#
# Bulk Modulus (GPa) = 52.03594 56.37195 54.20395
# Shear Modulus (GPa) = 10.08947 36.09810 23.09379
#
# Velocity S-wave (km/s) = 2.09992 3.97202 3.17699
# Velocity P-wave (km/s) = 5.34997 6.75822 6.09491
#
# Compressibility (1/GPa) = 0.01921749
#
# Stress axis : x y z
#
# Youngs Moduli (GPa) = 127.51020 102.32734 53.88679
#
# Poissons Ratio (x) = 0.07741 0.15567
# Poissons Ratio (y) = 0.09646 0.26039
# Poissons Ratio (z) = 0.36837 0.49446
#
# Static dielectric constant tensor:
#      x y z
#    x 4.209130 0.000000 0.000000 
#    y 0.000000 4.257380 0.000000 
#    z 0.000000 0.000000 3.883770 
# 
# 
# High freq. dielectric constant tensor:
#      x y z
#    x 1.925100 0.000000 0.000000 
#    y 0.000000 1.911490 0.000000 
#    z 0.000000 0.000000 1.889530 
# 
# From -- ./inp_files/30674.got.cif
#   From: 2010.06.25/outbox.cif.g09.slc.cpg/sg52_16_cif.got.tgz:30674.got - 2010.06.26 19:32:48.
