data_PCOD8217518
_publ_section_title
;
Structure prediction by ZEFSAII (Michael W. Deem and Ramdas Pophale) SiO2 
 PCOD8217518
Probable space group: P M N A
;
_chemical_formula_sum "Si O2"
_cell_formula_units_Z 56
_cell_length_a 9.124277
_cell_length_b 17.527922
_cell_length_c 22.255632
_cell_angle_alpha 90.000000
_cell_angle_beta 90.000000
_cell_angle_gamma 90.000000
_cell_volume 3559.334670
_symmetry_space_group_name_H-M "P M N A"
_symmetry_group_IT_number 53
_symmetry_cell_setting 'orthorhombic'
loop_
_space_group_symop_operation_xyz
x,y,z
1/2-x,-y,1/2+z
x,-y,-z
1/2-x,y,1/2-z
-x,-y,-z
1/2+x,y,1/2-z
-x,y,z
1/2+x,-y,1/2+z
loop_
_atom_site_type_symbol
_atom_site_label
_atom_site_fract_x
_atom_site_fract_y
_atom_site_fract_z
Si Si1 0.172738 0.239935 0.313371
Si Si2 0.329315 0.369094 0.094395
Si Si3 0.337642 0.530476 0.067604
Si Si4 0.165335 0.976485 0.430982
Si Si5 0.668951 0.666280 0.473491
Si Si6 0.667161 0.837188 0.466787
Si Si7 0.827889 0.120890 0.102306
O O1 0.250000 0.247188 0.250000
O O2 0.205758 0.319233 0.347323
O O3 0.242267 0.169759 0.348799
O O4 0.000000 0.225566 0.305931
O O5 0.500000 0.365817 0.076637
O O6 0.284925 0.457857 0.107749
O O7 0.242687 0.335276 0.038366
O O8 0.500000 0.556857 0.086767
O O9 0.233092 0.603982 0.073239
O O10 0.335906 0.500000 0.000000
O O11 0.231488 0.891339 0.425873
O O12 0.000000 0.976650 0.405565
O O13 0.168739 0.000000 0.500000
O O14 0.265041 0.034959 0.393294
O O15 0.500000 0.647671 0.483204
O O16 0.692958 0.750300 0.445643
O O17 0.500000 0.863146 0.456972
O O18 0.706085 0.843667 0.537209
O O19 0.000000 0.120223 0.117039
#
# Coordination Sequence:
#
# PCOD8217518 Si02
#       7
#     8   8   8   8   8   8   8
#     4  11  22  34  48  65  85 113 152 192 226 261
#     4   9  18  31  44  57  81 115 147 180 219 261
#     4   8  15  27  40  57  81 112 145 174 211 260
#     4   9  17  27  41  62  84 111 147 180 212 258
#     4  10  17  25  40  64  89 114 145 178 213 256
#     4   9  17  27  40  61  89 118 145 175 214 260
#     4  10  18  31  46  60  84 116 146 181 223 261
#
# _framework density 15.733276999999999
#
# number of rings (size 3 to 8) (size 9 to 14) (size 15 to 20)
#    0.000    2.571    1.429    2.571    0.000    6.571 
#    0.000    0.000    0.000    0.000    0.000    0.000 
#    0.000    1.143    0.000    6.000    0.000    5.571 
#
# Total GULP energy -694196.262127 kJ/mol
# GULP energy per Si atom -12396.361824 kJ/mol
# Density = 1.569747 g / cm^3
# Si number density = 15.733277 Si / 1000 Ang^3
#
#
#
# Elastic Constant Matrix: (Units=GPa)
#
#
# Indices 1 2 3 4 5 6 
#
# 1 99.0553 67.0721 35.0048 0.0000 0.0000 0.0000
# 2 67.0721 132.2488 43.5905 0.0000 0.0000 0.0000
# 3 35.0048 43.5905 45.8734 0.0000 0.0000 0.0000
# 4 0.0000 0.0000 0.0000 13.8499 0.0000 0.0000
# 5 0.0000 0.0000 0.0000 0.0000 16.1759 0.0000
# 6 0.0000 0.0000 0.0000 0.0000 0.0000 30.9977
#
#
#
# Elastic Compliance Matrix: (Units=1/GPa)
#
#
# Indices 1 2 3 4 5 6 
#
# 1 0.016734 -0.006229 -0.006850 0.000000 0.000000 0.000000
# 2 -0.006229 0.013329 -0.007912 0.000000 0.000000 0.000000
# 3 -0.006850 -0.007912 0.034545 0.000000 0.000000 0.000000
# 4 0.000000 0.000000 0.000000 0.072203 0.000000 0.000000
# 5 0.000000 0.000000 0.000000 0.000000 0.061820 0.000000
# 6 0.000000 0.000000 0.000000 0.000000 0.000000 0.032261
#
#
# Mechanical properties :
#
#
# Convention : Reuss Voigt Hill
#
# Bulk Modulus (GPa) = 44.19974 63.16805 53.68390
# Shear Modulus (GPa) = 17.83074 20.97202 19.40138
#
# Velocity S-wave (km/s) = 3.37012 3.65495 3.51542
# Velocity P-wave (km/s) = 6.58011 7.61893 7.11849
#
# Compressibility (1/GPa) = 0.02262457
#
# Stress axis : x y z
#
# Youngs Moduli (GPa) = 59.75890 75.02708 28.94806
#
# Poissons Ratio (x) = 0.46734 0.19830
# Poissons Ratio (y) = 0.37224 0.22904
# Poissons Ratio (z) = 0.40936 0.59362
#
# Static dielectric constant tensor:
#      x y z
#    x 3.132960 0.000000 0.000000 
#    y 0.000000 3.357910 0.000000 
#    z 0.000000 0.000000 2.531920 
# 
# 
# High freq. dielectric constant tensor:
#      x y z
#    x 1.617630 0.000000 0.000000 
#    y 0.000000 1.619350 0.000000 
#    z 0.000000 0.000000 1.530530 
# 
# From -- ./inp_files/34367.got.cif
#   From: 2010.03.12/outbox.cif.g09.slc.cpg/sg53_18_cif.got.tgz:34367.got - 2010.04.16 14:36:59.
