data_PCOD8217419
_publ_section_title
;
Structure prediction by ZEFSAII (Michael W. Deem and Ramdas Pophale) SiO2 
 PCOD8217419
Probable space group: P N N A
;
_chemical_formula_sum "Si O2"
_cell_formula_units_Z 32
_cell_length_a 14.725374
_cell_length_b 11.236755
_cell_length_c 8.380096
_cell_angle_alpha 90.000000
_cell_angle_beta 90.000000
_cell_angle_gamma 90.000000
_cell_volume 1386.616104
_symmetry_space_group_name_H-M "P N N A"
_symmetry_group_IT_number 52
_symmetry_cell_setting 'orthorhombic'
loop_
_space_group_symop_operation_xyz
x,y,z
1/2-x,-y,z
x,1/2-y,1/2-z
1/2-x,1/2+y,1/2-z
-x,-y,-z
1/2+x,y,-z
-x,1/2+y,1/2+z
1/2+x,1/2-y,1/2+z
loop_
_atom_site_type_symbol
_atom_site_label
_atom_site_fract_x
_atom_site_fract_y
_atom_site_fract_z
Si Si1 0.801825 0.251783 0.433481
Si Si2 0.115769 0.223227 0.425607
Si Si3 0.091314 0.959834 0.417583
Si Si4 0.463443 0.121409 0.069795
O O1 0.773569 0.250000 0.250000
O O2 0.710898 0.285400 0.531379
O O3 0.847121 0.126722 0.478747
O O4 0.873577 0.354983 0.467459
O O5 0.078565 0.250000 0.250000
O O6 0.036377 0.269609 0.546852
O O7 0.143859 0.084578 0.415342
O O8 0.066780 0.894102 0.252278
O O9 0.000000 0.000000 0.500000
O O10 0.500000 0.000000 0.000000
#
# Coordination Sequence:
#
# PCOD8217419 Si02
#       4
#     8   8   8   8
#     4  12  28  47  70 109 150 193 251 302 365 441
#     4  12  26  49  76 109 148 191 244 308 373 439
#     4  12  25  46  78 104 145 193 245 301 371 436
#     4  12  25  48  77 106 150 194 239 306 373 441
#
# _framework density 23.077766
#
# number of rings (size 3 to 8) (size 9 to 14) (size 15 to 20)
#    0.000    0.000    5.000    5.250    3.500    1.000 
#    4.500    0.000    0.000    0.000    0.000    0.000 
#    0.000    0.000    0.000    0.000    0.000    0.000 
#
# Total GULP energy -396666.671245 kJ/mol
# GULP energy per Si atom -12395.833476 kJ/mol
# Density = 2.302524 g / cm^3
# Si number density = 23.077766 Si / 1000 Ang^3
#
#
#
# Elastic Constant Matrix: (Units=GPa)
#
#
# Indices 1 2 3 4 5 6 
#
# 1 131.3026 9.5785 31.0454 0.0000 0.0000 0.0000
# 2 9.5785 112.5530 36.3943 0.0000 0.0000 0.0000
# 3 31.0454 36.3943 115.6490 0.0000 0.0000 0.0000
# 4 0.0000 0.0000 0.0000 42.8357 0.0000 0.0000
# 5 0.0000 0.0000 0.0000 0.0000 30.3963 0.0000
# 6 0.0000 0.0000 0.0000 0.0000 0.0000 32.2603
#
#
#
# Elastic Compliance Matrix: (Units=1/GPa)
#
#
# Indices 1 2 3 4 5 6 
#
# 1 0.008132 0.000015 -0.002188 0.000000 0.000000 0.000000
# 2 0.000015 0.009891 -0.003117 0.000000 0.000000 0.000000
# 3 -0.002188 -0.003117 0.010215 0.000000 0.000000 0.000000
# 4 0.000000 0.000000 0.000000 0.023345 0.000000 0.000000
# 5 0.000000 0.000000 0.000000 0.000000 0.032899 0.000000
# 6 0.000000 0.000000 0.000000 0.000000 0.000000 0.030998
#
#
# Mechanical properties :
#
#
# Convention : Reuss Voigt Hill
#
# Bulk Modulus (GPa) = 56.62597 57.06012 56.84304
# Shear Modulus (GPa) = 37.89446 39.93089 38.91268
#
# Velocity S-wave (km/s) = 4.05660 4.16417 4.11074
# Velocity P-wave (km/s) = 6.82141 6.92093 6.87135
#
# Compressibility (1/GPa) = 0.01765974
#
# Stress axis : x y z
#
# Youngs Moduli (GPa) = 122.96830 101.09953 97.89482
#
# Poissons Ratio (x) = -0.00156 0.21418
# Poissons Ratio (y) = -0.00189 0.30513
# Poissons Ratio (z) = 0.26904 0.31511
#
# Static dielectric constant tensor:
#      x y z
#    x 4.196820 0.000000 0.000000 
#    y 0.000000 1.951200 0.000000 
#    z 0.000000 0.000000 4.601440 
# 
# 
# High freq. dielectric constant tensor:
#      x y z
#    x 1.925000 0.000000 0.000000 
#    y 0.000000 1.927460 0.000000 
#    z 0.000000 0.000000 1.915630 
# 
# From -- ./inp_files/9556.got.cif
#   From: 2010.06.25/outbox.cif.g09.slc.cpg/sg52_5_cif.got.tgz:9556.got - 2010.06.26 19:32:48.
