data_PCOD8217013
_publ_section_title
;
Structure prediction by ZEFSAII (Michael W. Deem and Ramdas Pophale) SiO2 
 PCOD8217013
Probable space group: P N N A
;
_chemical_formula_sum "Si O2"
_cell_formula_units_Z 48
_cell_length_a 14.664138
_cell_length_b 11.236022
_cell_length_c 13.343562
_cell_angle_alpha 90.000000
_cell_angle_beta 90.000000
_cell_angle_gamma 90.000000
_cell_volume 2198.573038
_symmetry_space_group_name_H-M "P N N A"
_symmetry_group_IT_number 52
_symmetry_cell_setting 'orthorhombic'
loop_
_space_group_symop_operation_xyz
x,y,z
1/2-x,-y,z
x,1/2-y,1/2-z
1/2-x,1/2+y,1/2-z
-x,-y,-z
1/2+x,y,-z
-x,1/2+y,1/2+z
1/2+x,1/2-y,1/2+z
loop_
_atom_site_type_symbol
_atom_site_label
_atom_site_fract_x
_atom_site_fract_y
_atom_site_fract_z
Si Si1 0.113004 0.690761 0.957832
Si Si2 0.744831 0.130237 0.057659
Si Si3 0.083443 0.205603 0.508676
Si Si4 0.853660 0.501680 0.880139
Si Si5 0.021159 0.114653 0.710631
Si Si6 0.167189 0.565480 0.766268
O O1 0.186929 0.783060 0.000452
O O2 0.123145 0.663139 0.839323
O O3 0.129954 0.571578 0.018876
O O4 0.015602 0.753058 0.975060
O O5 0.643493 0.183318 0.046352
O O6 0.781793 0.125745 0.171854
O O7 0.750000 0.000000 0.007975
O O8 0.067306 0.115435 0.601011
O O9 0.125114 0.137228 0.412769
O O10 0.750000 0.500000 0.839411
O O11 0.921823 0.449604 0.794754
O O12 0.011373 0.250000 0.750000
O O13 0.090118 0.029390 0.773520
O O14 0.250000 0.500000 0.826008
#
# Coordination Sequence:
#
# PCOD8217013 Si02
#       6
#     8   8   8   8   8   8
#     4  11  20  37  62  89 127 168 218 263 324 402
#     4  11  24  36  55  92 130 171 212 273 343 384
#     4  11  21  40  64  92 124 169 214 271 327 410
#     4  11  20  39  69  91 119 172 222 266 316 394
#     4  11  21  36  62  97 130 159 210 272 337 392
#     4  11  20  34  58  94 133 162 204 271 339 386
#
# _framework density 21.832343000000002
#
# number of rings (size 3 to 8) (size 9 to 14) (size 15 to 20)
#    0.000    1.000    5.000    5.000    0.000    2.000 
#    0.000    0.000    3.667    4.000    0.000    0.000 
#    0.000    0.000    0.000    0.000    0.000    0.000 
#
# Total GULP energy -594813.689096 kJ/mol
# GULP energy per Si atom -12391.951856 kJ/mol
# Density = 2.178265 g / cm^3
# Si number density = 21.832343 Si / 1000 Ang^3
#
#
#
# Elastic Constant Matrix: (Units=GPa)
#
#
# Indices 1 2 3 4 5 6 
#
# 1 194.7771 58.9500 29.5813 0.0000 0.0000 0.0000
# 2 58.9500 103.9094 18.7970 0.0000 0.0000 0.0000
# 3 29.5813 18.7970 38.8107 0.0000 0.0000 0.0000
# 4 0.0000 0.0000 0.0000 24.7175 0.0000 0.0000
# 5 0.0000 0.0000 0.0000 0.0000 24.3813 0.0000
# 6 0.0000 0.0000 0.0000 0.0000 0.0000 45.1410
#
#
#
# Elastic Compliance Matrix: (Units=1/GPa)
#
#
# Indices 1 2 3 4 5 6 
#
# 1 0.006613 -0.003112 -0.003533 0.000000 0.000000 0.000000
# 2 -0.003112 0.012013 -0.003446 0.000000 0.000000 0.000000
# 3 -0.003533 -0.003446 0.030128 0.000000 0.000000 0.000000
# 4 0.000000 0.000000 0.000000 0.040457 0.000000 0.000000
# 5 0.000000 0.000000 0.000000 0.000000 0.041015 0.000000
# 6 0.000000 0.000000 0.000000 0.000000 0.000000 0.022153
#
#
# Mechanical properties :
#
#
# Convention : Reuss Voigt Hill
#
# Bulk Modulus (GPa) = 35.00036 61.35042 48.17539
# Shear Modulus (GPa) = 27.45993 34.19256 30.82624
#
# Velocity S-wave (km/s) = 3.55034 3.96175 3.76167
# Velocity P-wave (km/s) = 5.73348 7.00635 6.40163
#
# Compressibility (1/GPa) = 0.02857113
#
# Stress axis : x y z
#
# Youngs Moduli (GPa) = 151.22731 83.24425 33.19223
#
# Poissons Ratio (x) = 0.25909 0.11726
# Poissons Ratio (y) = 0.47068 0.11438
# Poissons Ratio (z) = 0.53423 0.28685
#
# Static dielectric constant tensor:
#      x y z
#    x 4.417330 0.000000 0.000000 
#    y 0.000000 4.051790 0.000000 
#    z 0.000000 0.000000 3.424460 
# 
# 
# High freq. dielectric constant tensor:
#      x y z
#    x 1.878050 0.000000 0.000000 
#    y 0.000000 1.857470 0.000000 
#    z 0.000000 0.000000 1.803540 
# 
# From -- ./inp_files/27183.got.cif
#   From: 2010.06.25/outbox.cif.g09.slc.cpg/sg52_14_cif.got.tgz:27183.got - 2010.06.26 19:32:48.
