data_PCOD8217996
_publ_section_title
;
Structure prediction by ZEFSAII (Michael W. Deem and Ramdas Pophale) SiO2 
 PCOD8217996
Probable space group: P M N A
;
_chemical_formula_sum "Si O2"
_cell_formula_units_Z 64
_cell_length_a 8.705881
_cell_length_b 16.912657
_cell_length_c 25.287300
_cell_angle_alpha 90.000000
_cell_angle_beta 90.000000
_cell_angle_gamma 90.000000
_cell_volume 3723.291412
_symmetry_space_group_name_H-M "P M N A"
_symmetry_group_IT_number 53
_symmetry_cell_setting 'orthorhombic'
loop_
_space_group_symop_operation_xyz
x,y,z
1/2-x,-y,1/2+z
x,-y,-z
1/2-x,y,1/2-z
-x,-y,-z
1/2+x,y,1/2-z
-x,y,z
1/2+x,-y,1/2+z
loop_
_atom_site_type_symbol
_atom_site_label
_atom_site_fract_x
_atom_site_fract_y
_atom_site_fract_z
Si Si1 0.321738 0.344732 0.058921
Si Si2 0.173102 0.496952 0.937211
Si Si3 0.319243 0.917138 0.694076
Si Si4 0.821848 0.823821 0.601979
Si Si5 0.181254 0.915716 0.306262
Si Si6 0.822314 0.907717 0.996019
Si Si7 0.679443 0.817361 0.397562
Si Si8 0.679874 0.662877 0.061959
O O1 0.500000 0.366026 0.058303
O O2 0.234807 0.419426 0.084885
O O3 0.283712 0.268352 0.093817
O O4 0.267467 0.328126 0.998962
O O5 0.276077 0.424161 0.916354
O O6 0.000000 0.484296 0.917425
O O7 0.184804 0.500000 0.000000
O O8 0.250000 0.890351 0.750000
O O9 0.500000 0.926786 0.699813
O O10 0.280373 0.851146 0.651014
O O11 0.249597 0.000399 0.675107
O O12 0.782955 0.872497 0.549618
O O13 0.000000 0.836978 0.615036
O O14 0.250000 0.890285 0.250000
O O15 0.224435 0.849650 0.348492
O O16 0.000000 0.923769 0.301069
O O17 0.000000 0.891387 0.982218
O O18 0.774474 0.867131 0.050773
O O19 0.787560 0.000000 0.000000
O O20 0.500000 0.825001 0.385126
O O21 0.724969 0.726298 0.404615
O O22 0.500000 0.678009 0.069418
#
# Coordination Sequence:
#
# PCOD8217996 Si02
#       8
#     8   8   8   8   8   8   8   8
#     4   9  18  31  47  70 102 137 171 208 252 305
#     4   9  17  28  45  69  97 132 172 211 253 301
#     4  11  22  38  57  77 101 132 173 219 265 306
#     4  11  21  34  52  76 104 136 173 212 256 307
#     4  11  22  38  58  78 101 132 173 219 265 308
#     4  10  21  34  48  69 101 139 173 208 253 306
#     4  11  21  33  51  76 107 138 173 214 257 306
#     4  10  18  31  48  70 102 139 174 210 254 304
#
# _framework density 17.189093
#
# number of rings (size 3 to 8) (size 9 to 14) (size 15 to 20)
#    0.000    1.750    1.250    5.250    0.000    4.750 
#    0.000    0.000    0.000    0.000    0.000    0.875 
#    0.000    4.000    0.000    0.000    0.000    0.000 
#
# Total GULP energy -793860.058692 kJ/mol
# GULP energy per Si atom -12404.063417 kJ/mol
# Density = 1.714997 g / cm^3
# Si number density = 17.189093 Si / 1000 Ang^3
#
#
#
# Elastic Constant Matrix: (Units=GPa)
#
#
# Indices 1 2 3 4 5 6 
#
# 1 99.1341 41.8938 36.4333 0.0000 0.0000 0.0000
# 2 41.8938 112.4715 46.9189 0.0000 0.0000 0.0000
# 3 36.4333 46.9189 72.7444 0.0000 0.0000 0.0000
# 4 0.0000 0.0000 0.0000 11.8233 0.0000 0.0000
# 5 0.0000 0.0000 0.0000 0.0000 25.8438 0.0000
# 6 0.0000 0.0000 0.0000 0.0000 0.0000 32.1413
#
#
#
# Elastic Compliance Matrix: (Units=1/GPa)
#
#
# Indices 1 2 3 4 5 6 
#
# 1 0.013026 -0.002915 -0.004644 0.000000 0.000000 0.000000
# 2 -0.002915 0.012816 -0.006806 0.000000 0.000000 0.000000
# 3 -0.004644 -0.006806 0.020463 0.000000 0.000000 0.000000
# 4 0.000000 0.000000 0.000000 0.084579 0.000000 0.000000
# 5 0.000000 0.000000 0.000000 0.000000 0.038694 0.000000
# 6 0.000000 0.000000 0.000000 0.000000 0.000000 0.031113
#
#
# Mechanical properties :
#
#
# Convention : Reuss Voigt Hill
#
# Bulk Modulus (GPa) = 56.90031 59.42687 58.16359
# Shear Modulus (GPa) = 21.25141 24.56860 22.91000
#
# Velocity S-wave (km/s) = 3.51996 3.78473 3.65474
# Velocity P-wave (km/s) = 7.04944 7.33119 7.19170
#
# Compressibility (1/GPa) = 0.01757460
#
# Stress axis : x y z
#
# Youngs Moduli (GPa) = 76.77085 78.02633 48.86945
#
# Poissons Ratio (x) = 0.22742 0.22695
# Poissons Ratio (y) = 0.22376 0.33263
# Poissons Ratio (z) = 0.35652 0.53108
#
# Static dielectric constant tensor:
#      x y z
#    x 3.276310 0.000000 0.000000 
#    y 0.000000 3.308910 0.000000 
#    z 0.000000 0.000000 2.964180 
# 
# 
# High freq. dielectric constant tensor:
#      x y z
#    x 1.678090 0.000000 0.000000 
#    y 0.000000 1.669170 0.000000 
#    z 0.000000 0.000000 1.626020 
# 
# From -- ./inp_files/34344.got.cif
#   From: 2010.03.12/outbox.cif.g09.slc.cpg/sg53_18_cif.got.tgz:34344.got - 2010.04.16 14:36:59.
