data_PCOD8217514
_publ_section_title
;
Structure prediction by ZEFSAII (Michael W. Deem and Ramdas Pophale) SiO2 
 PCOD8217514
Probable space group: P M N A
;
_chemical_formula_sum "Si O2"
_cell_formula_units_Z 56
_cell_length_a 9.396083
_cell_length_b 17.471288
_cell_length_c 21.425352
_cell_angle_alpha 90.000000
_cell_angle_beta 90.000000
_cell_angle_gamma 90.000000
_cell_volume 3517.221611
_symmetry_space_group_name_H-M "P M N A"
_symmetry_group_IT_number 53
_symmetry_cell_setting 'orthorhombic'
loop_
_space_group_symop_operation_xyz
x,y,z
1/2-x,-y,1/2+z
x,-y,-z
1/2-x,y,1/2-z
-x,-y,-z
1/2+x,y,1/2-z
-x,y,z
1/2+x,-y,1/2+z
loop_
_atom_site_type_symbol
_atom_site_label
_atom_site_fract_x
_atom_site_fract_y
_atom_site_fract_z
Si Si1 0.840271 0.066500 0.584940
Si Si2 0.663471 0.549065 0.093471
Si Si3 0.168981 0.350640 0.814733
Si Si4 0.833627 0.240400 0.040029
Si Si5 0.662685 0.613331 0.958571
Si Si6 0.339031 0.900861 0.938987
Si Si7 0.336168 0.793840 0.397463
O O1 0.832846 0.083516 0.512079
O O2 0.744600 0.128060 0.621460
O O3 0.000000 0.076119 0.609969
O O4 0.789105 0.978696 0.596538
O O5 0.500000 0.568072 0.111378
O O6 0.771287 0.577978 0.146107
O O7 0.684298 0.457932 0.087837
O O8 0.704163 0.588803 0.028430
O O9 0.250000 0.348377 0.750000
O O10 0.208354 0.272482 0.850108
O O11 0.000000 0.360526 0.805641
O O12 0.764168 0.318667 0.064792
O O13 0.765928 0.168949 0.077796
O O14 0.000000 0.242028 0.054028
O O15 0.797457 0.233842 0.966865
O O16 0.500000 0.641838 0.956863
O O17 0.500000 0.879485 0.919245
O O18 0.500000 0.814325 0.392339
#
# Coordination Sequence:
#
# PCOD8217514 Si02
#       7
#     8   8   8   8   8   8   8
#     4   8  14  24  39  56  77 109 147 178 207 250
#     4   9  18  32  48  66  86 114 150 186 228 274
#     4  11  22  35  48  65  89 118 153 192 230 270
#     4  10  17  25  39  62  89 117 148 180 218 265
#     4   9  17  29  46  66  89 116 148 184 224 275
#     4   8  14  24  36  55  82 112 144 176 209 248
#     4   9  18  29  40  58  85 113 145 183 223 262
#
# _framework density 15.921657
#
# number of rings (size 3 to 8) (size 9 to 14) (size 15 to 20)
#    0.000    2.857    1.429    2.571    0.000    2.857 
#    0.000    4.286    0.000    0.000    0.000    0.000 
#    0.000    1.143    0.000    8.000    0.000    6.286 
#
# Total GULP energy -694175.248676 kJ/mol
# GULP energy per Si atom -12395.986584 kJ/mol
# Density = 1.588542 g / cm^3
# Si number density = 15.921657 Si / 1000 Ang^3
#
#
#
# Elastic Constant Matrix: (Units=GPa)
#
#
# Indices 1 2 3 4 5 6 
#
# 1 90.4451 73.5119 28.2523 0.0000 0.0000 0.0000
# 2 73.5119 133.6959 27.6065 0.0000 0.0000 0.0000
# 3 28.2523 27.6065 40.9415 0.0000 0.0000 0.0000
# 4 0.0000 0.0000 0.0000 12.2903 0.0000 0.0000
# 5 0.0000 0.0000 0.0000 0.0000 15.1992 0.0000
# 6 0.0000 0.0000 0.0000 0.0000 0.0000 32.7815
#
#
#
# Elastic Compliance Matrix: (Units=1/GPa)
#
#
# Indices 1 2 3 4 5 6 
#
# 1 0.022136 -0.010476 -0.008212 0.000000 0.000000 0.000000
# 2 -0.010476 0.013647 -0.001973 0.000000 0.000000 0.000000
# 3 -0.008212 -0.001973 0.031422 0.000000 0.000000 0.000000
# 4 0.000000 0.000000 0.000000 0.081365 0.000000 0.000000
# 5 0.000000 0.000000 0.000000 0.000000 0.065793 0.000000
# 6 0.000000 0.000000 0.000000 0.000000 0.000000 0.030505
#
#
# Mechanical properties :
#
#
# Convention : Reuss Voigt Hill
#
# Bulk Modulus (GPa) = 38.63358 58.20266 48.41812
# Shear Modulus (GPa) = 16.95967 21.10166 19.03066
#
# Velocity S-wave (km/s) = 3.26727 3.64448 3.46102
# Velocity P-wave (km/s) = 6.20894 7.37188 6.81526
#
# Compressibility (1/GPa) = 0.02588422
#
# Stress axis : x y z
#
# Youngs Moduli (GPa) = 45.17544 73.27551 31.82472
#
# Poissons Ratio (x) = 0.76761 0.26133
# Poissons Ratio (y) = 0.47325 0.06280
# Poissons Ratio (z) = 0.37096 0.14459
#
# Static dielectric constant tensor:
#      x y z
#    x 3.061910 0.000000 0.000000 
#    y 0.000000 3.304090 0.000000 
#    z 0.000000 0.000000 2.519140 
# 
# 
# High freq. dielectric constant tensor:
#      x y z
#    x 1.616890 0.000000 0.000000 
#    y 0.000000 1.625330 0.000000 
#    z 0.000000 0.000000 1.540990 
# 
# From -- ./inp_files/30980.got.cif
#   From: 2010.03.12/outbox.cif.g09.slc.cpg/sg53_16_cif.got.tgz:30980.got - 2010.04.16 14:36:59.
