data_PCOD8217849
_publ_section_title
;
Structure prediction by ZEFSAII (Michael W. Deem and Ramdas Pophale) SiO2 
 PCOD8217849
Probable space group: P M N A
;
_chemical_formula_sum "Si O2"
_cell_formula_units_Z 56
_cell_length_a 8.598034
_cell_length_b 13.634487
_cell_length_c 28.212129
_cell_angle_alpha 90.000000
_cell_angle_beta 90.000000
_cell_angle_gamma 90.000000
_cell_volume 3307.301755
_symmetry_space_group_name_H-M "P M N A"
_symmetry_group_IT_number 53
_symmetry_cell_setting 'orthorhombic'
loop_
_space_group_symop_operation_xyz
x,y,z
1/2-x,-y,1/2+z
x,-y,-z
1/2-x,y,1/2-z
-x,-y,-z
1/2+x,y,1/2-z
-x,y,z
1/2+x,-y,1/2+z
loop_
_atom_site_type_symbol
_atom_site_label
_atom_site_fract_x
_atom_site_fract_y
_atom_site_fract_z
Si Si1 0.816092 0.699789 0.032553
Si Si2 0.683796 0.484777 0.300128
Si Si3 0.817677 0.728568 0.700514
Si Si4 0.819051 0.793481 0.890525
Si Si5 0.315718 0.102981 0.483001
Si Si6 0.679798 0.417808 0.889116
Si Si7 0.679186 0.616809 0.942579
O O1 0.757800 0.676820 0.085772
O O2 0.000000 0.685589 0.028111
O O3 0.765486 0.810751 0.019034
O O4 0.729811 0.624226 0.997266
O O5 0.750000 0.521767 0.250000
O O6 0.500000 0.477292 0.297218
O O7 0.750525 0.377870 0.312767
O O8 0.734635 0.562859 0.339568
O O9 0.750000 0.768105 0.750000
O O10 0.772998 0.805217 0.659009
O O11 0.000000 0.718481 0.705386
O O12 0.759111 0.872783 0.929338
O O13 0.789823 0.685910 0.911568
O O14 0.000000 0.806550 0.879798
O O15 0.500000 0.095215 0.482362
O O16 0.240983 0.000000 0.500000
O O17 0.500000 0.396997 0.878677
O O18 0.704957 0.507136 0.925077
O O19 0.500000 0.649273 0.936234
#
# Coordination Sequence:
#
# PCOD8217849 Si02
#       7
#     8   8   8   8   8   8   8
#     4  10  20  31  47  70  94 123 162 202 240 285
#     4  11  21  33  49  68  95 129 169 205 237 279
#     4  11  20  31  46  67  97 131 165 200 237 281
#     4  10  18  29  48  72  96 127 164 201 240 286
#     4   8  16  32  52  73  97 124 158 200 247 298
#     4  11  21  32  46  66  96 132 165 197 237 281
#     4  10  19  30  44  63  94 131 163 194 233 279
#
# _framework density 16.932230000000001
#
# number of rings (size 3 to 8) (size 9 to 14) (size 15 to 20)
#    0.000    1.857    1.429    6.429    0.000    3.429 
#    0.000    0.000    0.000   15.429    0.000    1.000 
#    0.000    4.571    0.000    0.000    0.000    0.000 
#
# Total GULP energy -694364.245993 kJ/mol
# GULP energy per Si atom -12399.361536 kJ/mol
# Density = 1.689369 g / cm^3
# Si number density = 16.932230 Si / 1000 Ang^3
#
#
#
# Elastic Constant Matrix: (Units=GPa)
#
#
# Indices 1 2 3 4 5 6 
#
# 1 93.3862 29.0929 43.1071 0.0000 0.0000 0.0000
# 2 29.0929 68.5886 57.5502 0.0000 0.0000 0.0000
# 3 43.1071 57.5502 142.3382 0.0000 0.0000 0.0000
# 4 0.0000 0.0000 0.0000 20.1538 0.0000 0.0000
# 5 0.0000 0.0000 0.0000 0.0000 31.9939 0.0000
# 6 0.0000 0.0000 0.0000 0.0000 0.0000 11.3496
#
#
#
# Elastic Compliance Matrix: (Units=1/GPa)
#
#
# Indices 1 2 3 4 5 6 
#
# 1 0.012932 -0.003328 -0.002571 0.000000 0.000000 0.000000
# 2 -0.003328 0.022922 -0.008260 0.000000 0.000000 0.000000
# 3 -0.002571 -0.008260 0.011144 0.000000 0.000000 0.000000
# 4 0.000000 0.000000 0.000000 0.049618 0.000000 0.000000
# 5 0.000000 0.000000 0.000000 0.000000 0.031256 0.000000
# 6 0.000000 0.000000 0.000000 0.000000 0.000000 0.088109
#
#
# Mechanical properties :
#
#
# Convention : Reuss Voigt Hill
#
# Bulk Modulus (GPa) = 53.53374 62.64594 58.08984
# Shear Modulus (GPa) = 19.95814 24.33700 22.14757
#
# Velocity S-wave (km/s) = 3.43696 3.79531 3.62057
# Velocity P-wave (km/s) = 6.88733 7.50228 7.20137
#
# Compressibility (1/GPa) = 0.01867981
#
# Stress axis : x y z
#
# Youngs Moduli (GPa) = 77.32934 43.62638 89.73698
#
# Poissons Ratio (x) = 0.14520 0.23069
# Poissons Ratio (y) = 0.25737 0.74121
# Poissons Ratio (z) = 0.19879 0.36035
#
# Static dielectric constant tensor:
#      x y z
#    x 3.180420 0.000000 0.000000 
#    y 0.000000 3.005700 0.000000 
#    z 0.000000 0.000000 3.415490 
# 
# 
# High freq. dielectric constant tensor:
#      x y z
#    x 1.660280 0.000000 0.000000 
#    y 0.000000 1.599160 0.000000 
#    z 0.000000 0.000000 1.661030 
# 
# From -- ./inp_files/38380.got.cif
#   From: 2010.03.12/outbox.cif.g09.slc.cpg/sg53_20_cif.got.tgz:38380.got - 2010.04.16 14:36:59.
