data_PCOD8217923
_publ_section_title
;
Structure prediction by ZEFSAII (Michael W. Deem and Ramdas Pophale) SiO2 
 PCOD8217923
Probable space group: P M N A
;
_chemical_formula_sum "Si O2"
_cell_formula_units_Z 64
_cell_length_a 17.085917
_cell_length_b 16.220077
_cell_length_c 12.325140
_cell_angle_alpha 90.000000
_cell_angle_beta 90.000000
_cell_angle_gamma 90.000000
_cell_volume 3415.726310
_symmetry_space_group_name_H-M "P M N A"
_symmetry_group_IT_number 53
_symmetry_cell_setting 'orthorhombic'
loop_
_space_group_symop_operation_xyz
x,y,z
1/2-x,-y,1/2+z
x,-y,-z
1/2-x,y,1/2-z
-x,-y,-z
1/2+x,y,1/2-z
-x,y,z
1/2+x,-y,1/2+z
loop_
_atom_site_type_symbol
_atom_site_label
_atom_site_fract_x
_atom_site_fract_y
_atom_site_fract_z
Si Si1 0.325098 0.591086 0.482993
Si Si2 0.792373 0.268266 0.138159
Si Si3 0.658379 0.337166 0.737941
Si Si4 0.087938 0.842120 0.753438
Si Si5 0.858349 0.415949 0.546297
Si Si6 0.592921 0.999822 0.123237
Si Si7 0.089081 0.821914 0.326981
Si Si8 0.129766 0.750710 0.551305
O O1 0.362578 0.500000 0.500000
O O2 0.335288 0.651080 0.587509
O O3 0.369098 0.633123 0.380577
O O4 0.234743 0.578786 0.455961
O O5 0.750000 0.295095 0.250000
O O6 0.854250 0.193129 0.153557
O O7 0.724219 0.235952 0.057832
O O8 0.750000 0.347331 0.750000
O O9 0.616009 0.393579 0.830103
O O10 0.639174 0.240508 0.754150
O O11 0.084310 0.773241 0.660175
O O12 0.000000 0.855715 0.800311
O O13 0.123987 0.924590 0.697675
O O14 0.896040 0.500000 0.500000
O O15 0.889609 0.344872 0.467680
O O16 0.500000 0.007843 0.114471
O O17 0.617212 0.916465 0.187342
O O18 0.627777 0.000000 0.000000
O O19 0.096801 0.805618 0.454832
O O20 0.000000 0.811550 0.289976
#
# Coordination Sequence:
#
# PCOD8217923 Si02
#       8
#     8   8   8   8   8   8   8   8
#     4   9  17  30  50  71  94 131 176 214 247 296
#     4   9  19  32  49  74 103 133 171 216 263 302
#     4   9  18  31  48  73 104 133 164 208 262 309
#     4  10  18  30  49  72 101 136 171 207 250 303
#     4   8  15  27  47  74  99 128 166 207 253 307
#     4   9  16  28  50  78 101 126 164 206 247 305
#     4  10  18  31  54  78  99 128 166 208 257 310
#     4   9  16  28  48  74 103 127 158 211 263 302
#
# _framework density 18.736864000000001
#
# number of rings (size 3 to 8) (size 9 to 14) (size 15 to 20)
#    0.000    2.875    1.250    1.125    0.000    4.500 
#    0.000    2.500    0.000   14.625    0.000    2.625 
#    0.000    0.000    0.000    0.000    0.000    0.000 
#
# Total GULP energy -793077.448335 kJ/mol
# GULP energy per Si atom -12391.835130 kJ/mol
# Density = 1.869422 g / cm^3
# Si number density = 18.736864 Si / 1000 Ang^3
#
#
#
# Elastic Constant Matrix: (Units=GPa)
#
#
# Indices 1 2 3 4 5 6 
#
# 1 25.5751 20.5372 9.0916 0.0000 0.0000 0.0000
# 2 20.5372 150.4542 55.1371 0.0000 0.0000 0.0000
# 3 9.0916 55.1371 73.9168 0.0000 0.0000 0.0000
# 4 0.0000 0.0000 0.0000 33.1308 0.0000 0.0000
# 5 0.0000 0.0000 0.0000 0.0000 13.7169 0.0000
# 6 0.0000 0.0000 0.0000 0.0000 0.0000 8.8461
#
#
#
# Elastic Compliance Matrix: (Units=1/GPa)
#
#
# Indices 1 2 3 4 5 6 
#
# 1 0.044002 -0.005536 -0.001282 0.000000 0.000000 0.000000
# 2 -0.005536 0.009844 -0.006662 0.000000 0.000000 0.000000
# 3 -0.001282 -0.006662 0.018656 0.000000 0.000000 0.000000
# 4 0.000000 0.000000 0.000000 0.030183 0.000000 0.000000
# 5 0.000000 0.000000 0.000000 0.000000 0.072903 0.000000
# 6 0.000000 0.000000 0.000000 0.000000 0.000000 0.113045
#
#
# Mechanical properties :
#
#
# Convention : Reuss Voigt Hill
#
# Bulk Modulus (GPa) = 21.95846 46.60865 34.28356
# Shear Modulus (GPa) = 15.11609 22.15077 18.63343
#
# Velocity S-wave (km/s) = 2.84343 3.44205 3.15696
# Velocity P-wave (km/s) = 4.74604 6.38172 5.62367
#
# Compressibility (1/GPa) = 0.04554053
#
# Stress axis : x y z
#
# Youngs Moduli (GPa) = 22.72610 101.58881 53.60302
#
# Poissons Ratio (x) = 0.56244 0.06874
# Poissons Ratio (y) = 0.12582 0.35709
# Poissons Ratio (z) = 0.02914 0.67676
#
# Static dielectric constant tensor:
#      x y z
#    x 3.085950 0.000000 0.000000 
#    y 0.000000 3.720490 0.000000 
#    z 0.000000 0.000000 3.455580 
# 
# 
# High freq. dielectric constant tensor:
#      x y z
#    x 1.683430 0.000000 0.000000 
#    y 0.000000 1.735440 0.000000 
#    z 0.000000 0.000000 1.707250 
# 
# From -- ./inp_files/17195.got.cif
#   From: 2010.03.12/outbox.cif.g09.slc.cpg/sg53_9_cif.got.tgz:17195.got - 2010.04.16 14:36:59.
