data_PCOD8217409
_publ_section_title
;
Structure prediction by ZEFSAII (Michael W. Deem and Ramdas Pophale) SiO2 
 PCOD8217409
Probable space group: P N N A
;
_chemical_formula_sum "Si O2"
_cell_formula_units_Z 36
_cell_length_a 11.052245
_cell_length_b 10.480224
_cell_length_c 11.884359
_cell_angle_alpha 90.000000
_cell_angle_beta 90.000000
_cell_angle_gamma 90.000000
_cell_volume 1376.565342
_symmetry_space_group_name_H-M "P N N A"
_symmetry_group_IT_number 52
_symmetry_cell_setting 'orthorhombic'
loop_
_space_group_symop_operation_xyz
x,y,z
1/2-x,-y,z
x,1/2-y,1/2-z
1/2-x,1/2+y,1/2-z
-x,-y,-z
1/2+x,y,-z
-x,1/2+y,1/2+z
1/2+x,1/2-y,1/2+z
loop_
_atom_site_type_symbol
_atom_site_label
_atom_site_fract_x
_atom_site_fract_y
_atom_site_fract_z
Si Si1 0.383582 0.250000 0.250000
Si Si2 0.567087 0.472030 0.779630
Si Si3 0.127216 0.435138 0.464099
Si Si4 0.717665 0.178093 0.551076
Si Si5 0.189747 0.625693 0.812420
O O1 0.465396 0.377045 0.232060
O O2 0.302702 0.257057 0.362834
O O3 0.641491 0.433779 0.670346
O O4 0.650992 0.441471 0.888164
O O5 0.451397 0.383481 0.787906
O O6 0.250000 0.500000 0.515949
O O7 0.124036 0.284999 0.498141
O O8 0.000000 0.500000 0.500000
O O9 0.792411 0.125672 0.446125
O O10 0.250000 0.500000 0.759005
O O11 0.242290 0.750000 0.750000
#
# Coordination Sequence:
#
# PCOD8217409 Si02
#       5
#     4   8   8   8   8
#     4  12  24  48  86 116 154 216 284 328 430 496
#     4  12  27  51  82 120 165 219 279 353 420 514
#     4  12  27  47  85 126 165 221 279 349 426 508
#     4  12  26  52  80 120 165 214 279 346 421 504
#     4  12  32  53  79 120 168 218 280 351 429 499
#
# _framework density 26.152045999999999
#
# number of rings (size 3 to 8) (size 9 to 14) (size 15 to 20)
#    0.000    0.000    4.444    3.333   10.889    3.556 
#    0.000    0.000    0.000    0.000    0.000    0.000 
#    0.000    0.000    0.000    0.000    0.000    0.000 
#
# Total GULP energy -446274.736970 kJ/mol
# GULP energy per Si atom -12396.520471 kJ/mol
# Density = 2.609252 g / cm^3
# Si number density = 26.152046 Si / 1000 Ang^3
#
#
#
# Elastic Constant Matrix: (Units=GPa)
#
#
# Indices 1 2 3 4 5 6 
#
# 1 112.7347 35.6339 25.7117 0.0000 0.0000 0.0000
# 2 35.6339 191.0002 44.3154 0.0000 0.0000 0.0000
# 3 25.7117 44.3154 108.2658 0.0000 0.0000 0.0000
# 4 0.0000 0.0000 0.0000 42.1409 0.0000 0.0000
# 5 0.0000 0.0000 0.0000 0.0000 96.1511 0.0000
# 6 0.0000 0.0000 0.0000 0.0000 0.0000 47.9724
#
#
#
# Elastic Compliance Matrix: (Units=1/GPa)
#
#
# Indices 1 2 3 4 5 6 
#
# 1 0.009711 -0.001411 -0.001729 0.000000 0.000000 0.000000
# 2 -0.001411 0.005990 -0.002117 0.000000 0.000000 0.000000
# 3 -0.001729 -0.002117 0.010514 0.000000 0.000000 0.000000
# 4 0.000000 0.000000 0.000000 0.023730 0.000000 0.000000
# 5 0.000000 0.000000 0.000000 0.000000 0.010400 0.000000
# 6 0.000000 0.000000 0.000000 0.000000 0.000000 0.020845
#
#
# Mechanical properties :
#
#
# Convention : Reuss Voigt Hill
#
# Bulk Modulus (GPa) = 63.68718 69.25809 66.47264
# Shear Modulus (GPa) = 51.58065 57.67553 54.62809
#
# Velocity S-wave (km/s) = 4.44592 4.70126 4.57537
# Velocity P-wave (km/s) = 7.12464 7.48394 7.30650
#
# Compressibility (1/GPa) = 0.01570175
#
# Stress axis : x y z
#
# Youngs Moduli (GPa) = 102.98117 166.94802 95.11546
#
# Poissons Ratio (x) = 0.23549 0.16443
# Poissons Ratio (y) = 0.14526 0.20134
# Poissons Ratio (z) = 0.17803 0.35340
#
# Static dielectric constant tensor:
#      x y z
#    x 4.627720 0.000000 0.000000 
#    y 0.000000 5.304830 0.000000 
#    z 0.000000 0.000000 4.629290 
# 
# 
# High freq. dielectric constant tensor:
#      x y z
#    x 2.029700 0.000000 0.000000 
#    y 0.000000 2.077090 0.000000 
#    z 0.000000 0.000000 2.043890 
# 
# From -- ./inp_files/17789.got.cif
#   From: 2010.06.25/outbox.cif.g09.slc.cpg/sg52_9_cif.got.tgz:17789.got - 2010.06.26 19:32:48.
