data_PCOD8217565
_publ_section_title
;
Structure prediction by ZEFSAII (Michael W. Deem and Ramdas Pophale) SiO2 
 PCOD8217565
Probable space group: P M N A
;
_chemical_formula_sum "Si O2"
_cell_formula_units_Z 56
_cell_length_a 8.932881
_cell_length_b 17.548399
_cell_length_c 22.189837
_cell_angle_alpha 90.000000
_cell_angle_beta 90.000000
_cell_angle_gamma 90.000000
_cell_volume 3478.429143
_symmetry_space_group_name_H-M "P M N A"
_symmetry_group_IT_number 53
_symmetry_cell_setting 'orthorhombic'
loop_
_space_group_symop_operation_xyz
x,y,z
1/2-x,-y,1/2+z
x,-y,-z
1/2-x,y,1/2-z
-x,-y,-z
1/2+x,y,1/2-z
-x,y,z
1/2+x,-y,1/2+z
loop_
_atom_site_type_symbol
_atom_site_label
_atom_site_fract_x
_atom_site_fract_y
_atom_site_fract_z
Si Si1 0.824276 0.328941 0.966050
Si Si2 0.176795 0.745077 0.685408
Si Si3 0.324105 0.376613 0.398750
Si Si4 0.330865 0.026314 0.568591
Si Si5 0.668968 0.475592 0.931064
Si Si6 0.175721 0.827674 0.465019
Si Si7 0.326213 0.119520 0.097852
O O1 0.749566 0.394132 0.924925
O O2 0.757567 0.248983 0.944198
O O3 0.000000 0.330678 0.954663
O O4 0.785069 0.341548 0.036172
O O5 0.250000 0.752740 0.750000
O O6 0.243542 0.672409 0.651941
O O7 0.218622 0.821813 0.649783
O O8 0.000000 0.734205 0.690706
O O9 0.500000 0.377803 0.386645
O O10 0.261170 0.462298 0.392956
O O11 0.500000 0.042403 0.589147
O O12 0.234960 0.103298 0.576628
O O13 0.321772 0.000000 0.500000
O O14 0.263289 0.958804 0.609559
O O15 0.500000 0.469949 0.906048
O O16 0.669170 0.500000 0.000000
O O17 0.218556 0.842839 0.534371
O O18 0.000000 0.818148 0.455532
O O19 0.500000 0.098649 0.098194
#
# Coordination Sequence:
#
# PCOD8217565 Si02
#       7
#     8   8   8   8   8   8   8
#     4  10  18  27  42  65  92 119 151 186 223 268
#     4  11  22  35  49  67  89 118 158 197 233 271
#     4  10  19  31  46  63  87 118 151 190 232 269
#     4   9  17  27  41  62  86 113 147 183 222 268
#     4   9  17  28  43  62  86 117 151 183 221 271
#     4  10  17  27  43  63  89 120 152 182 221 270
#     4   9  18  31  45  60  84 117 151 187 227 270
#
# _framework density 16.099221
#
# number of rings (size 3 to 8) (size 9 to 14) (size 15 to 20)
#    0.000    2.286    1.429    2.571    0.000    6.286 
#    0.000    0.000    0.000    0.000    0.000    0.000 
#    0.000    1.143    0.000    9.714    0.000    6.571 
#
# Total GULP energy -694476.725874 kJ/mol
# GULP energy per Si atom -12401.370105 kJ/mol
# Density = 1.606258 g / cm^3
# Si number density = 16.099221 Si / 1000 Ang^3
#
#
#
# Elastic Constant Matrix: (Units=GPa)
#
#
# Indices 1 2 3 4 5 6 
#
# 1 94.2312 66.8004 29.4977 0.0000 0.0000 0.0000
# 2 66.8004 151.0416 40.2250 0.0000 0.0000 0.0000
# 3 29.4977 40.2250 46.5831 0.0000 0.0000 0.0000
# 4 0.0000 0.0000 0.0000 16.8247 0.0000 0.0000
# 5 0.0000 0.0000 0.0000 0.0000 17.0924 0.0000
# 6 0.0000 0.0000 0.0000 0.0000 0.0000 36.5157
#
#
#
# Elastic Compliance Matrix: (Units=1/GPa)
#
#
# Indices 1 2 3 4 5 6 
#
# 1 0.016429 -0.005838 -0.005362 0.000000 0.000000 0.000000
# 2 -0.005838 0.010672 -0.005519 0.000000 0.000000 0.000000
# 3 -0.005362 -0.005519 0.029628 0.000000 0.000000 0.000000
# 4 0.000000 0.000000 0.000000 0.059436 0.000000 0.000000
# 5 0.000000 0.000000 0.000000 0.000000 0.058506 0.000000
# 6 0.000000 0.000000 0.000000 0.000000 0.000000 0.027385
#
#
# Mechanical properties :
#
#
# Convention : Reuss Voigt Hill
#
# Bulk Modulus (GPa) = 42.93421 62.76690 52.85055
# Shear Modulus (GPa) = 20.55414 24.44208 22.49811
#
# Velocity S-wave (km/s) = 3.57699 3.90066 3.74232
# Velocity P-wave (km/s) = 6.61712 7.70448 7.18141
#
# Compressibility (1/GPa) = 0.02329145
#
# Stress axis : x y z
#
# Youngs Moduli (GPa) = 60.86657 93.69911 33.75155
#
# Poissons Ratio (x) = 0.54702 0.18099
# Poissons Ratio (y) = 0.35534 0.18627
# Poissons Ratio (z) = 0.32638 0.51712
#
# Static dielectric constant tensor:
#      x y z
#    x 3.181840 0.000000 0.000000 
#    y 0.000000 3.232250 0.000000 
#    z 0.000000 0.000000 2.490060 
# 
# 
# High freq. dielectric constant tensor:
#      x y z
#    x 1.638030 0.000000 0.000000 
#    y 0.000000 1.633580 0.000000 
#    z 0.000000 0.000000 1.545330 
# 
# From -- ./inp_files/31064.got.cif
#   From: 2010.03.12/outbox.cif.g09.slc.cpg/sg53_16_cif.got.tgz:31064.got - 2010.04.16 14:36:59.
