data_PCOD8217906
_publ_section_title
;
Structure prediction by ZEFSAII (Michael W. Deem and Ramdas Pophale) SiO2 
 PCOD8217906
Probable space group: P M N A
;
_chemical_formula_sum "Si O2"
_cell_formula_units_Z 48
_cell_length_a 9.090668
_cell_length_b 11.861541
_cell_length_c 25.982591
_cell_angle_alpha 90.000000
_cell_angle_beta 90.000000
_cell_angle_gamma 90.000000
_cell_volume 2801.685410
_symmetry_space_group_name_H-M "P M N A"
_symmetry_group_IT_number 53
_symmetry_cell_setting 'orthorhombic'
loop_
_space_group_symop_operation_xyz
x,y,z
1/2-x,-y,1/2+z
x,-y,-z
1/2-x,y,1/2-z
-x,-y,-z
1/2+x,y,1/2-z
-x,y,z
1/2+x,-y,1/2+z
loop_
_atom_site_type_symbol
_atom_site_label
_atom_site_fract_x
_atom_site_fract_y
_atom_site_fract_z
Si Si1 0.325346 0.039748 0.942999
Si Si2 0.668725 0.497133 0.869696
Si Si3 0.326999 0.674874 0.696490
Si Si4 0.666107 0.671099 0.957931
Si Si5 0.172020 0.708974 0.429313
Si Si6 0.671502 0.843570 0.606947
O O1 0.500000 0.035690 0.938995
O O2 0.261782 0.164850 0.930731
O O3 0.257524 0.961124 0.898369
O O4 0.274376 0.000000 0.000000
O O5 0.500000 0.496298 0.849989
O O6 0.767792 0.557183 0.826820
O O7 0.679955 0.559500 0.924388
O O8 0.730080 0.370630 0.882289
O O9 0.250000 0.700885 0.750000
O O10 0.500000 0.661913 0.704256
O O11 0.286646 0.780376 0.660014
O O12 0.500000 0.721746 0.953894
O O13 0.780675 0.764993 0.940018
O O14 0.705100 0.644905 0.016992
O O15 0.000000 0.719500 0.420687
O O16 0.500000 0.868128 0.603553
#
# Coordination Sequence:
#
# PCOD8217906 Si02
#       6
#     8   8   8   8   8   8
#     4  10  18  30  48  70 101 140 177 206 232 280
#     4   9  17  29  49  74  99 128 163 203 247 292
#     4  10  21  37  56  76  97 122 158 208 260 306
#     4   9  15  27  46  68  97 133 169 201 234 281
#     4   9  16  27  45  71 101 134 171 202 231 277
#     4  10  20  32  47  72 102 129 164 209 253 293
#
# _framework density 17.132542999999998
#
# number of rings (size 3 to 8) (size 9 to 14) (size 15 to 20)
#    0.000    2.500    1.667    1.500    0.000    4.333 
#    0.000    1.667    0.000    5.000    0.000    2.333 
#    0.000    0.000    0.000    0.000    0.000    0.000 
#
# Total GULP energy -594881.494639 kJ/mol
# GULP energy per Si atom -12393.364472 kJ/mol
# Density = 1.709355 g / cm^3
# Si number density = 17.132543 Si / 1000 Ang^3
#
#
#
# Elastic Constant Matrix: (Units=GPa)
#
#
# Indices 1 2 3 4 5 6 
#
# 1 48.2241 35.7680 35.9694 0.0000 0.0000 0.0000
# 2 35.7680 104.3195 46.1942 0.0000 0.0000 0.0000
# 3 35.9694 46.1942 80.6176 0.0000 0.0000 0.0000
# 4 0.0000 0.0000 0.0000 16.7850 0.0000 0.0000
# 5 0.0000 0.0000 0.0000 0.0000 21.3896 0.0000
# 6 0.0000 0.0000 0.0000 0.0000 0.0000 17.5724
#
#
#
# Elastic Compliance Matrix: (Units=1/GPa)
#
#
# Indices 1 2 3 4 5 6 
#
# 1 0.034218 -0.006662 -0.011450 0.000000 0.000000 0.000000
# 2 -0.006662 0.014142 -0.005131 0.000000 0.000000 0.000000
# 3 -0.011450 -0.005131 0.020453 0.000000 0.000000 0.000000
# 4 0.000000 0.000000 0.000000 0.059577 0.000000 0.000000
# 5 0.000000 0.000000 0.000000 0.000000 0.046752 0.000000
# 6 0.000000 0.000000 0.000000 0.000000 0.000000 0.056908
#
#
# Mechanical properties :
#
#
# Convention : Reuss Voigt Hill
#
# Bulk Modulus (GPa) = 44.78835 52.11386 48.45110
# Shear Modulus (GPa) = 17.48387 18.83137 18.15762
#
# Velocity S-wave (km/s) = 3.19800 3.31895 3.25904
# Velocity P-wave (km/s) = 6.31152 6.72096 6.51946
#
# Compressibility (1/GPa) = 0.02232723
#
# Stress axis : x y z
#
# Youngs Moduli (GPa) = 29.22436 70.70960 48.89277
#
# Poissons Ratio (x) = 0.47109 0.55981
# Poissons Ratio (y) = 0.19470 0.25087
# Poissons Ratio (z) = 0.33461 0.36282
#
# Static dielectric constant tensor:
#      x y z
#    x 3.030820 0.000000 0.000000 
#    y 0.000000 3.509330 0.000000 
#    z 0.000000 0.000000 3.006710 
# 
# 
# High freq. dielectric constant tensor:
#      x y z
#    x 1.641100 0.000000 0.000000 
#    y 0.000000 1.664010 0.000000 
#    z 0.000000 0.000000 1.633350 
# 
# From -- ./inp_files/36137.got.cif
#   From: 2010.03.12/outbox.cif.g09.slc.cpg/sg53_19_cif.got.tgz:36137.got - 2010.04.16 14:36:59.
