data_PCOD8217145
_publ_section_title
;
Structure prediction by ZEFSAII (Michael W. Deem and Ramdas Pophale) SiO2 
 PCOD8217145
Probable space group: P N N A
;
_chemical_formula_sum "Si O2"
_cell_formula_units_Z 60
_cell_length_a 9.423444
_cell_length_b 27.913207
_cell_length_c 10.552961
_cell_angle_alpha 90.000000
_cell_angle_beta 90.000000
_cell_angle_gamma 90.000000
_cell_volume 2775.835486
_symmetry_space_group_name_H-M "P N N A"
_symmetry_group_IT_number 52
_symmetry_cell_setting 'orthorhombic'
loop_
_space_group_symop_operation_xyz
x,y,z
1/2-x,-y,z
x,1/2-y,1/2-z
1/2-x,1/2+y,1/2-z
-x,-y,-z
1/2+x,y,-z
-x,1/2+y,1/2+z
1/2+x,1/2-y,1/2+z
loop_
_atom_site_type_symbol
_atom_site_label
_atom_site_fract_x
_atom_site_fract_y
_atom_site_fract_z
Si Si1 0.951643 0.047660 0.429495
Si Si2 0.750000 0.500000 0.268799
Si Si3 0.868489 0.876531 0.689443
Si Si4 0.079067 0.865552 0.915298
Si Si5 0.843544 0.241142 0.104934
Si Si6 0.877226 0.914659 0.124888
Si Si7 0.578998 0.301117 0.023011
Si Si8 0.562768 0.882373 0.657860
O O1 0.832500 0.036949 0.324058
O O2 0.898498 0.087466 0.530708
O O3 0.086099 0.070810 0.358129
O O4 0.000000 0.000000 0.500000
O O5 0.856963 0.527676 0.366138
O O6 0.855244 0.838828 0.575059
O O7 0.707367 0.879984 0.741945
O O8 0.978481 0.858385 0.794011
O O9 0.142071 0.813224 0.946812
O O10 0.217278 0.896321 0.888071
O O11 0.984196 0.892629 0.021468
O O12 0.874001 0.250000 0.250000
O O13 0.692164 0.263883 0.075664
O O14 0.963080 0.269004 0.036649
O O15 0.937878 0.906120 0.264044
O O16 0.498194 0.329549 0.133433
#
# Coordination Sequence:
#
# PCOD8217145 Si02
#       8
#     8   4   8   8   8   8   8   8
#     4  11  22  41  71 105 142 182 237 299 367 430
#     4  12  24  46  70 112 144 190 240 304 364 446
#     4  11  23  43  69 104 144 184 236 298 355 424
#     4  12  26  48  72 100 145 196 242 296 360 434
#     4  12  24  45  71 102 144 187 240 294 360 436
#     4  12  27  48  72 102 146 192 241 298 361 437
#     4  11  24  42  69 107 139 184 233 299 359 423
#     4  11  24  41  72 106 146 181 234 300 369 426
#
# _framework density 21.615113000000001
#
# number of rings (size 3 to 8) (size 9 to 14) (size 15 to 20)
#    0.000    0.533    5.333    3.200    1.867    0.533 
#    0.000    0.667    0.000    0.000    0.000    0.000 
#    0.000    0.000    0.000    0.000    0.000    0.000 
#
# Total GULP energy -743531.410610 kJ/mol
# GULP energy per Si atom -12392.190177 kJ/mol
# Density = 2.156592 g / cm^3
# Si number density = 21.615113 Si / 1000 Ang^3
#
#
#
# Elastic Constant Matrix: (Units=GPa)
#
#
# Indices 1 2 3 4 5 6 
#
# 1 180.5114 70.2436 74.0737 0.0000 0.0000 0.0000
# 2 70.2436 141.3179 67.2853 0.0000 0.0000 0.0000
# 3 74.0737 67.2853 118.9896 0.0000 0.0000 0.0000
# 4 0.0000 0.0000 0.0000 39.8756 0.0000 0.0000
# 5 0.0000 0.0000 0.0000 0.0000 53.3020 0.0000
# 6 0.0000 0.0000 0.0000 0.0000 0.0000 45.8831
#
#
#
# Elastic Compliance Matrix: (Units=1/GPa)
#
#
# Indices 1 2 3 4 5 6 
#
# 1 0.007898 -0.002169 -0.003690 0.000000 0.000000 0.000000
# 2 -0.002169 0.010279 -0.004462 0.000000 0.000000 0.000000
# 3 -0.003690 -0.004462 0.013225 0.000000 0.000000 0.000000
# 4 0.000000 0.000000 0.000000 0.025078 0.000000 0.000000
# 5 0.000000 0.000000 0.000000 0.000000 0.018761 0.000000
# 6 0.000000 0.000000 0.000000 0.000000 0.000000 0.021794
#
#
# Mechanical properties :
#
#
# Convention : Reuss Voigt Hill
#
# Bulk Modulus (GPa) = 92.94684 96.00268 94.47476
# Shear Modulus (GPa) = 41.23218 43.09323 42.16271
#
# Velocity S-wave (km/s) = 4.37230 4.46989 4.42137
# Velocity P-wave (km/s) = 8.28152 8.43510 8.35866
#
# Compressibility (1/GPa) = 0.01075884
#
# Stress axis : x y z
#
# Youngs Moduli (GPa) = 126.61228 97.28686 75.61568
#
# Poissons Ratio (x) = 0.21099 0.27905
# Poissons Ratio (y) = 0.27459 0.33742
# Poissons Ratio (z) = 0.46725 0.43413
#
# Static dielectric constant tensor:
#      x y z
#    x 3.978020 0.000000 0.000000 
#    y 0.000000 3.789180 0.000000 
#    z 0.000000 0.000000 3.768980 
# 
# 
# High freq. dielectric constant tensor:
#      x y z
#    x 1.868150 0.000000 0.000000 
#    y 0.000000 1.861980 0.000000 
#    z 0.000000 0.000000 1.839050 
# 
# From -- ./inp_files/17151.got.cif
#   From: 2010.06.25/outbox.cif.g09.slc.cpg/sg52_9_cif.got.tgz:17151.got - 2010.06.26 19:32:48.
