data_PCOD8217584
_publ_section_title
;
Structure prediction by ZEFSAII (Michael W. Deem and Ramdas Pophale) SiO2 
 PCOD8217584
Probable space group: P M N A
;
_chemical_formula_sum "Si O2"
_cell_formula_units_Z 40
_cell_length_a 8.625279
_cell_length_b 9.209716
_cell_length_c 26.146501
_cell_angle_alpha 90.000000
_cell_angle_beta 90.000000
_cell_angle_gamma 90.000000
_cell_volume 2076.983128
_symmetry_space_group_name_H-M "P M N A"
_symmetry_group_IT_number 53
_symmetry_cell_setting 'orthorhombic'
loop_
_space_group_symop_operation_xyz
x,y,z
1/2-x,-y,1/2+z
x,-y,-z
1/2-x,y,1/2-z
-x,-y,-z
1/2+x,y,1/2-z
-x,y,z
1/2+x,-y,1/2+z
loop_
_atom_site_type_symbol
_atom_site_label
_atom_site_fract_x
_atom_site_fract_y
_atom_site_fract_z
Si Si1 0.818734 0.663373 0.904042
Si Si2 0.818098 0.653283 0.404495
Si Si3 0.683518 0.335299 0.199129
Si Si4 0.179007 0.831289 0.504551
Si Si5 0.816796 0.341468 0.801126
O O1 0.750943 0.504822 0.915988
O O2 0.739996 0.737836 0.853773
O O3 0.786884 0.767138 0.951550
O O4 0.000000 0.648431 0.894103
O O5 0.776114 0.757131 0.451253
O O6 0.745042 0.729382 0.353782
O O7 0.000000 0.635884 0.396069
O O8 0.750000 0.254256 0.250000
O O9 0.500000 0.340227 0.201872
O O10 0.755034 0.495196 0.198050
O O11 0.000000 0.801565 0.518492
O O12 0.215444 0.000000 0.500000
O O13 0.750000 0.262437 0.750000
O O14 0.000000 0.336596 0.799313
#
# Coordination Sequence:
#
# PCOD8217584 Si02
#       5
#     8   8   8   8   8
#     4  11  21  33  52  79 108 137 172 212 255 304
#     4  10  19  33  54  78 104 135 172 212 256 304
#     4  10  17  28  47  73 105 136 168 207 254 302
#     4  10  22  39  56  74 100 136 175 216 263 311
#     4  10  17  27  45  72 105 135 166 205 252 301
#
# _framework density 19.258700999999999
#
# number of rings (size 3 to 8) (size 9 to 14) (size 15 to 20)
#    0.000    1.800    0.000   10.200    0.000    4.400 
#    0.000    0.000    0.000    1.200    0.000    5.600 
#    0.000    0.000    0.000    0.000    0.000    0.000 
#
# Total GULP energy -495897.244465 kJ/mol
# GULP energy per Si atom -12397.431112 kJ/mol
# Density = 1.921487 g / cm^3
# Si number density = 19.258701 Si / 1000 Ang^3
#
#
#
# Elastic Constant Matrix: (Units=GPa)
#
#
# Indices 1 2 3 4 5 6 
#
# 1 171.0133 25.4383 84.8737 0.0000 0.0000 0.0000
# 2 25.4383 52.7959 48.3129 0.0000 0.0000 0.0000
# 3 84.8737 48.3129 189.6871 0.0000 0.0000 0.0000
# 4 0.0000 0.0000 0.0000 -1.7868 0.0000 0.0000
# 5 0.0000 0.0000 0.0000 0.0000 37.7841 0.0000
# 6 0.0000 0.0000 0.0000 0.0000 0.0000 7.1691
#
#
#
# Elastic Compliance Matrix: (Units=1/GPa)
#
#
# Indices 1 2 3 4 5 6 
#
# 1 0.007537 -0.000711 -0.003191 0.000000 0.000000 0.000000
# 2 -0.000711 0.024764 -0.005989 0.000000 0.000000 0.000000
# 3 -0.003191 -0.005989 0.008225 0.000000 0.000000 0.000000
# 4 0.000000 0.000000 0.000000 -0.559659 0.000000 0.000000
# 5 0.000000 0.000000 0.000000 0.000000 0.026466 0.000000
# 6 0.000000 0.000000 0.000000 0.000000 0.000000 0.139487
#
#
# Mechanical properties :
#
#
# Convention : Reuss Voigt Hill
#
# Bulk Modulus (GPa) = 48.20877 81.19401 64.70139
# Shear Modulus (GPa) = -15.31480 25.62471 5.15496
#
# Velocity S-wave (km/s) = -2.82301 3.65163 1.63783
# Velocity P-wave (km/s) = 3.80272 7.74793 6.10291
#
# Compressibility (1/GPa) = 0.02074311
#
# Stress axis : x y z
#
# Youngs Moduli (GPa) = 132.67672 40.38095 121.57831
#
# Poissons Ratio (x) = 0.02872 0.38799
# Poissons Ratio (y) = 0.09437 0.72815
# Poissons Ratio (z) = 0.42340 0.24185
#
# Static dielectric constant tensor:
#      x y z
#    x 3.570340 0.000000 0.000000 
#    y 0.000000 2.931210 0.000000 
#    z 0.000000 0.000000 4.758910 
# 
# 
# High freq. dielectric constant tensor:
#      x y z
#    x 1.764790 0.000000 0.000000 
#    y 0.000000 1.679410 0.000000 
#    z 0.000000 0.000000 1.784690 
# 
# From -- ./inp_files/36032.got.cif
#   From: 2010.03.12/outbox.cif.g09.slc.cpg/sg53_19_cif.got.tgz:36032.got - 2010.04.16 14:36:59.
