data_PCOD8217441
_publ_section_title
;
Structure prediction by ZEFSAII (Michael W. Deem and Ramdas Pophale) SiO2 
 PCOD8217441
Probable space group: P N N A
;
_chemical_formula_sum "Si O2"
_cell_formula_units_Z 24
_cell_length_a 8.289422
_cell_length_b 8.100526
_cell_length_c 12.747367
_cell_angle_alpha 90.000000
_cell_angle_beta 90.000000
_cell_angle_gamma 90.000000
_cell_volume 855.968848
_symmetry_space_group_name_H-M "P N N A"
_symmetry_group_IT_number 52
_symmetry_cell_setting 'orthorhombic'
loop_
_space_group_symop_operation_xyz
x,y,z
1/2-x,-y,z
x,1/2-y,1/2-z
1/2-x,1/2+y,1/2-z
-x,-y,-z
1/2+x,y,-z
-x,1/2+y,1/2+z
1/2+x,1/2-y,1/2+z
loop_
_atom_site_type_symbol
_atom_site_label
_atom_site_fract_x
_atom_site_fract_y
_atom_site_fract_z
Si Si1 0.052358 0.622778 0.092539
Si Si2 0.927074 0.432680 0.287887
Si Si3 0.657367 0.341978 0.527463
O O1 0.032370 0.542617 0.206352
O O2 0.234905 0.693323 0.079214
O O3 0.928756 0.775504 0.078528
O O4 0.000000 0.500000 0.000000
O O5 0.750000 0.500000 0.304654
O O6 0.902391 0.250000 0.250000
O O7 0.026944 0.416245 0.394141
O O8 0.750000 0.500000 0.484756
#
# Coordination Sequence:
#
# PCOD8217441 Si02
#       3
#     8   8   8
#     4  12  27  54  84 125 176 222 291 373 441 523
#     4  12  30  52  85 124 178 234 293 364 445 528
#     4  12  30  51  87 127 172 234 295 361 447 532
#
# _framework density 28.038405999999998
#
# number of rings (size 3 to 8) (size 9 to 14) (size 15 to 20)
#    0.000    0.000    3.333    4.000    9.333    1.333 
#    0.000    0.000    0.000    0.000    0.000    0.000 
#    0.000    0.000    0.000    0.000    0.000    0.000 
#
# Total GULP energy -297615.920953 kJ/mol
# GULP energy per Si atom -12400.663373 kJ/mol
# Density = 2.797459 g / cm^3
# Si number density = 28.038406 Si / 1000 Ang^3
#
#
#
# Elastic Constant Matrix: (Units=GPa)
#
#
# Indices 1 2 3 4 5 6 
#
# 1 160.3376 41.2946 31.1341 0.0000 0.0000 0.0000
# 2 41.2946 124.0800 31.3287 0.0000 0.0000 0.0000
# 3 31.1341 31.3287 134.6855 0.0000 0.0000 0.0000
# 4 0.0000 0.0000 0.0000 65.8790 0.0000 0.0000
# 5 0.0000 0.0000 0.0000 0.0000 40.2676 0.0000
# 6 0.0000 0.0000 0.0000 0.0000 0.0000 100.2880
#
#
#
# Elastic Compliance Matrix: (Units=1/GPa)
#
#
# Indices 1 2 3 4 5 6 
#
# 1 0.006983 -0.002036 -0.001141 0.000000 0.000000 0.000000
# 2 -0.002036 0.009156 -0.001659 0.000000 0.000000 0.000000
# 3 -0.001141 -0.001659 0.008074 0.000000 0.000000 0.000000
# 4 0.000000 0.000000 0.000000 0.015179 0.000000 0.000000
# 5 0.000000 0.000000 0.000000 0.000000 0.024834 0.000000
# 6 0.000000 0.000000 0.000000 0.000000 0.000000 0.009971
#
#
# Mechanical properties :
#
#
# Convention : Reuss Voigt Hill
#
# Bulk Modulus (GPa) = 68.76800 69.62420 69.19610
# Shear Modulus (GPa) = 56.35998 62.30998 59.33498
#
# Velocity S-wave (km/s) = 4.48828 4.71925 4.60521
# Velocity P-wave (km/s) = 7.17211 7.38788 7.28079
#
# Compressibility (1/GPa) = 0.01454165
#
# Stress axis : x y z
#
# Youngs Moduli (GPa) = 143.21207 109.22077 123.85022
#
# Poissons Ratio (x) = 0.22236 0.14126
# Poissons Ratio (y) = 0.29156 0.20548
# Poissons Ratio (z) = 0.16334 0.18120
#
# Static dielectric constant tensor:
#      x y z
#    x 6.801270 0.000000 0.000000 
#    y 0.000000 6.436020 0.000000 
#    z 0.000000 0.000000 5.052020 
# 
# 
# High freq. dielectric constant tensor:
#      x y z
#    x 2.157360 0.000000 0.000000 
#    y 0.000000 2.185960 0.000000 
#    z 0.000000 0.000000 2.136460 
# 
# From -- ./inp_files/23895.got.cif
#   From: 2010.06.25/outbox.cif.g09.slc.cpg/sg52_12_cif.got.tgz:23895.got - 2010.06.26 19:32:48.
