data_PCOD8217489
_publ_section_title
;
Structure prediction by ZEFSAII (Michael W. Deem and Ramdas Pophale) SiO2 
 PCOD8217489
Probable space group: P M N A
;
_chemical_formula_sum "Si O2"
_cell_formula_units_Z 32
_cell_length_a 10.443561
_cell_length_b 10.444098
_cell_length_c 14.702178
_cell_angle_alpha 90.000000
_cell_angle_beta 90.000000
_cell_angle_gamma 90.000000
_cell_volume 1603.619108
_symmetry_space_group_name_H-M "P M N A"
_symmetry_group_IT_number 53
_symmetry_cell_setting 'orthorhombic'
loop_
_space_group_symop_operation_xyz
x,y,z
1/2-x,-y,1/2+z
x,-y,-z
1/2-x,y,1/2-z
-x,-y,-z
1/2+x,y,1/2-z
-x,y,z
1/2+x,-y,1/2+z
loop_
_atom_site_type_symbol
_atom_site_label
_atom_site_fract_x
_atom_site_fract_y
_atom_site_fract_z
Si Si1 0.250000 0.641365 0.750000
Si Si2 0.146683 0.547734 0.397891
Si Si3 0.500000 0.934011 0.355425
Si Si4 0.500000 0.038375 0.845255
Si Si5 0.500000 0.807800 0.728967
Si Si6 0.242020 0.824011 0.358371
O O1 0.283755 0.555876 0.836139
O O2 0.371705 0.725818 0.722175
O O3 0.152984 0.500000 0.500000
O O4 0.223011 0.679413 0.389758
O O5 0.000000 0.566474 0.365713
O O6 0.500000 0.885116 0.250883
O O7 0.373110 0.877435 0.403558
O O8 0.500000 0.089924 0.354446
O O9 0.372521 0.085739 0.897564
O O10 0.500000 0.885124 0.826079
O O11 0.250000 0.836751 0.250000
#
# Coordination Sequence:
#
# PCOD8217489 Si02
#       6
#     4   8   4   4   4   8
#     4  12  22  38  64  88 126 170 190 244 318 374
#     4  11  24  40  61  91 126 161 205 254 300 367
#     4   8  18  29  54  90 111 146 198 254 281 348
#     4   8  16  29  54  86 109 154 198 244 273 358
#     4  10  20  34  58  94 122 156 208 234 312 374
#     4  10  16  32  59  86 111 151 202 243 296 336
#
# _framework density 19.954864000000001
#
# number of rings (size 3 to 8) (size 9 to 14) (size 15 to 20)
#    0.750    1.250    3.750    1.500    0.000    1.000 
#    0.000    2.500    0.000    9.000    0.000    0.000 
#    0.000    0.000    0.000    0.000    0.000    0.000 
#
# Total GULP energy -396579.072954 kJ/mol
# GULP energy per Si atom -12393.096030 kJ/mol
# Density = 1.990945 g / cm^3
# Si number density = 19.954864 Si / 1000 Ang^3
#
#
#
# Elastic Constant Matrix: (Units=GPa)
#
#
# Indices 1 2 3 4 5 6 
#
# 1 193.6773 80.1697 39.2355 0.0000 0.0000 0.0000
# 2 80.1697 139.7672 34.2410 0.0000 0.0000 0.0000
# 3 39.2355 34.2410 33.4179 0.0000 0.0000 0.0000
# 4 0.0000 0.0000 0.0000 -15.4899 0.0000 0.0000
# 5 0.0000 0.0000 0.0000 0.0000 -9.0295 0.0000
# 6 0.0000 0.0000 0.0000 0.0000 0.0000 -91.4749
#
#
#
# Elastic Compliance Matrix: (Units=1/GPa)
#
#
# Indices 1 2 3 4 5 6 
#
# 1 0.007556 -0.002885 -0.005915 0.000000 0.000000 0.000000
# 2 -0.002885 0.010654 -0.007530 0.000000 0.000000 0.000000
# 3 -0.005915 -0.007530 0.044584 0.000000 0.000000 0.000000
# 4 0.000000 0.000000 0.000000 -0.064558 0.000000 0.000000
# 5 0.000000 0.000000 0.000000 0.000000 -0.110748 0.000000
# 6 0.000000 0.000000 0.000000 0.000000 0.000000 -0.010932
#
#
# Mechanical properties :
#
#
# Convention : Reuss Voigt Hill
#
# Bulk Modulus (GPa) = 33.18424 74.90609 54.04517
# Shear Modulus (GPa) = -61.92691 -8.98444 -35.45568
#
# Velocity S-wave (km/s) = -5.57681 -2.12418 -4.21978
# Velocity P-wave (km/s) = 4.98017 5.62166 1.84404
#
# Compressibility (1/GPa) = 0.03013479
#
# Stress axis : x y z
#
# Youngs Moduli (GPa) = 132.35182 93.86092 22.42957
#
# Poissons Ratio (x) = 0.27076 0.13267
# Poissons Ratio (y) = 0.38180 0.16888
# Poissons Ratio (z) = 0.78288 0.70673
#
# Static dielectric constant tensor:
#      x y z
#    x 4.071860 0.000000 0.000000 
#    y 0.000000 3.627720 0.000000 
#    z 0.000000 0.000000 3.042250 
# 
# 
# High freq. dielectric constant tensor:
#      x y z
#    x 1.803460 0.000000 0.000000 
#    y 0.000000 1.785220 0.000000 
#    z 0.000000 0.000000 1.722750 
# 
# From -- ./inp_files/19675.got.cif
#   From: 2010.03.12/outbox.cif.g09.slc.cpg/sg53_10_cif.got.tgz:19675.got - 2010.04.16 14:36:59.
