data_PCOD8217063
_publ_section_title
;
Structure prediction by ZEFSAII (Michael W. Deem and Ramdas Pophale) SiO2 
 PCOD8217063
Probable space group: P N N A
;
_chemical_formula_sum "Si O2"
_cell_formula_units_Z 48
_cell_length_a 19.099074
_cell_length_b 15.052553
_cell_length_c 8.645370
_cell_angle_alpha 90.000000
_cell_angle_beta 90.000000
_cell_angle_gamma 90.000000
_cell_volume 2485.455897
_symmetry_space_group_name_H-M "P N N A"
_symmetry_group_IT_number 52
_symmetry_cell_setting 'orthorhombic'
loop_
_space_group_symop_operation_xyz
x,y,z
1/2-x,-y,z
x,1/2-y,1/2-z
1/2-x,1/2+y,1/2-z
-x,-y,-z
1/2+x,y,-z
-x,1/2+y,1/2+z
1/2+x,1/2-y,1/2+z
loop_
_atom_site_type_symbol
_atom_site_label
_atom_site_fract_x
_atom_site_fract_y
_atom_site_fract_z
Si Si1 0.689044 0.440275 0.561161
Si Si2 0.059453 0.937586 0.062475
Si Si3 0.762145 0.660202 0.846487
Si Si4 0.602390 0.660295 0.848019
Si Si5 0.643205 0.241323 0.068582
Si Si6 0.987940 0.258548 0.430615
O O1 0.750000 0.500000 0.491230
O O2 0.626451 0.505456 0.529003
O O3 0.702460 0.416733 0.742364
O O4 0.682158 0.350643 0.464455
O O5 0.061515 0.914088 0.246110
O O6 0.056289 0.847081 0.965048
O O7 0.000000 0.000000 0.000000
O O8 0.760009 0.750000 0.750000
O O9 0.682319 0.632093 0.890798
O O10 0.811116 0.677384 0.996732
O O11 0.604165 0.750000 0.750000
O O12 0.556480 0.675288 0.002652
O O13 0.637849 0.250000 0.250000
O O14 0.565037 0.238878 0.002371
O O15 0.997535 0.250000 0.250000
#
# Coordination Sequence:
#
# PCOD8217063 Si02
#       6
#     8   8   8   8   8   8
#     4  11  21  39  64  89 122 165 208 256 312 371
#     4  11  21  37  64  91 124 162 208 262 313 364
#     4   9  19  37  61  84 114 163 210 246 306 378
#     4   9  19  37  60  86 119 161 206 251 308 376
#     4  11  23  40  62  89 125 167 211 259 315 380
#     4  11  23  40  61  89 126 168 212 256 313 385
#
# _framework density 19.312352000000001
#
# number of rings (size 3 to 8) (size 9 to 14) (size 15 to 20)
#    0.000    1.667    3.333    3.000    2.333    0.667 
#    0.000    3.333    0.000    0.000    0.000    0.000 
#    0.000    0.000    0.000    0.000    0.000    0.000 
#
# Total GULP energy -594803.525627 kJ/mol
# GULP energy per Si atom -12391.740117 kJ/mol
# Density = 1.926840 g / cm^3
# Si number density = 19.312352 Si / 1000 Ang^3
#
#
#
# Elastic Constant Matrix: (Units=GPa)
#
#
# Indices 1 2 3 4 5 6 
#
# 1 154.4750 52.7462 63.0389 0.0000 0.0000 0.0000
# 2 52.7462 77.1752 36.1965 0.0000 0.0000 0.0000
# 3 63.0389 36.1965 137.5051 0.0000 0.0000 0.0000
# 4 0.0000 0.0000 0.0000 33.5931 0.0000 0.0000
# 5 0.0000 0.0000 0.0000 0.0000 39.5818 0.0000
# 6 0.0000 0.0000 0.0000 0.0000 0.0000 28.5318
#
#
#
# Elastic Compliance Matrix: (Units=1/GPa)
#
#
# Indices 1 2 3 4 5 6 
#
# 1 0.009411 -0.005030 -0.002991 0.000000 0.000000 0.000000
# 2 -0.005030 0.017471 -0.002293 0.000000 0.000000 0.000000
# 3 -0.002991 -0.002293 0.009247 0.000000 0.000000 0.000000
# 4 0.000000 0.000000 0.000000 0.029768 0.000000 0.000000
# 5 0.000000 0.000000 0.000000 0.000000 0.025264 0.000000
# 6 0.000000 0.000000 0.000000 0.000000 0.000000 0.035049
#
#
# Mechanical properties :
#
#
# Convention : Reuss Voigt Hill
#
# Bulk Modulus (GPa) = 64.50627 74.79094 69.64860
# Shear Modulus (GPa) = 32.89387 34.81959 33.85673
#
# Velocity S-wave (km/s) = 4.13153 4.25075 4.19156
# Velocity P-wave (km/s) = 7.49890 7.93113 7.71804
#
# Compressibility (1/GPa) = 0.01550237
#
# Stress axis : x y z
#
# Youngs Moduli (GPa) = 106.25466 57.23911 108.14168
#
# Poissons Ratio (x) = 0.28789 0.32341
# Poissons Ratio (y) = 0.53442 0.24798
# Poissons Ratio (z) = 0.31777 0.13125
#
# Static dielectric constant tensor:
#      x y z
#    x 3.747340 0.000000 0.000000 
#    y 0.000000 3.943620 0.000000 
#    z 0.000000 0.000000 3.474450 
# 
# 
# High freq. dielectric constant tensor:
#      x y z
#    x 1.769560 0.000000 0.000000 
#    y 0.000000 1.747570 0.000000 
#    z 0.000000 0.000000 1.728420 
# 
# From -- ./inp_files/12026.got.cif
#   From: 2010.06.25/outbox.cif.g09.slc.cpg/sg52_7_cif.got.tgz:12026.got - 2010.06.26 19:32:48.
