data_PCOD8217208
_publ_section_title
;
Structure prediction by ZEFSAII (Michael W. Deem and Ramdas Pophale) SiO2 
 PCOD8217208
Probable space group: P N N A
;
_chemical_formula_sum "Si O2"
_cell_formula_units_Z 24
_cell_length_a 27.342694
_cell_length_b 8.244005
_cell_length_c 4.964971
_cell_angle_alpha 90.000000
_cell_angle_beta 90.000000
_cell_angle_gamma 90.000000
_cell_volume 1119.170528
_symmetry_space_group_name_H-M "P N N A"
_symmetry_group_IT_number 52
_symmetry_cell_setting 'orthorhombic'
loop_
_space_group_symop_operation_xyz
x,y,z
1/2-x,-y,z
x,1/2-y,1/2-z
1/2-x,1/2+y,1/2-z
-x,-y,-z
1/2+x,y,-z
-x,1/2+y,1/2+z
1/2+x,1/2-y,1/2+z
loop_
_atom_site_type_symbol
_atom_site_label
_atom_site_fract_x
_atom_site_fract_y
_atom_site_fract_z
Si Si1 0.802009 0.432656 0.351797
Si Si2 0.540366 0.363386 0.989603
Si Si3 0.147905 0.430271 0.154079
O O1 0.750000 0.500000 0.451992
O O2 0.799315 0.250000 0.250000
O O3 0.839004 0.444918 0.605171
O O4 0.819291 0.543476 0.106646
O O5 0.523442 0.250000 0.750000
O O6 0.591447 0.452337 0.926474
O O7 0.544981 0.250000 0.250000
O O8 0.500000 0.500000 0.000000
O O9 0.159426 0.250000 0.250000
#
# Coordination Sequence:
#
# PCOD8217208 Si02
#       3
#     8   8   8
#     4  12  25  42  65  95 127 167 213 264 317 378
#     4  11  24  43  67  97 130 170 212 263 321 379
#     4  11  23  43  65  92 129 169 210 261 319 377
#
# _framework density 21.444451000000001
#
# number of rings (size 3 to 8) (size 9 to 14) (size 15 to 20)
#    0.000    0.667    0.000   10.000    0.000    4.000 
#    0.000    0.000    0.000    0.000    0.000    0.000 
#    0.000    0.000    0.000    0.000    0.000    0.000 
#
# Total GULP energy -297722.585270 kJ/mol
# GULP energy per Si atom -12405.107720 kJ/mol
# Density = 2.139564 g / cm^3
# Si number density = 21.444451 Si / 1000 Ang^3
#
#
#
# Elastic Constant Matrix: (Units=GPa)
#
#
# Indices 1 2 3 4 5 6 
#
# 1 157.5347 87.0721 72.7560 0.0000 0.0000 0.0000
# 2 87.0721 94.2950 43.2634 0.0000 0.0000 0.0000
# 3 72.7560 43.2634 165.2435 0.0000 0.0000 0.0000
# 4 0.0000 0.0000 0.0000 35.5573 0.0000 0.0000
# 5 0.0000 0.0000 0.0000 0.0000 45.2738 0.0000
# 6 0.0000 0.0000 0.0000 0.0000 0.0000 42.8079
#
#
#
# Elastic Compliance Matrix: (Units=1/GPa)
#
#
# Indices 1 2 3 4 5 6 
#
# 1 0.014341 -0.011758 -0.003236 0.000000 0.000000 0.000000
# 2 -0.011758 0.021693 -0.000503 0.000000 0.000000 0.000000
# 3 -0.003236 -0.000503 0.007608 0.000000 0.000000 0.000000
# 4 0.000000 0.000000 0.000000 0.028124 0.000000 0.000000
# 5 0.000000 0.000000 0.000000 0.000000 0.022088 0.000000
# 6 0.000000 0.000000 0.000000 0.000000 0.000000 0.023360
#
#
# Mechanical properties :
#
#
# Convention : Reuss Voigt Hill
#
# Bulk Modulus (GPa) = 79.05662 91.47293 85.26478
# Shear Modulus (GPa) = 32.80352 38.99326 35.89839
#
# Velocity S-wave (km/s) = 3.91538 4.26882 4.09591
# Velocity P-wave (km/s) = 7.57536 8.18813 7.88770
#
# Compressibility (1/GPa) = 0.01264916
#
# Stress axis : x y z
#
# Youngs Moduli (GPa) = 69.72984 46.09815 131.44033
#
# Poissons Ratio (x) = 0.54202 0.42533
# Poissons Ratio (y) = 0.81988 0.06606
# Poissons Ratio (z) = 0.22564 0.02317
#
# Static dielectric constant tensor:
#      x y z
#    x 4.017690 0.000000 0.000000 
#    y 0.000000 3.300310 0.000000 
#    z 0.000000 0.000000 4.414080 
# 
# 
# High freq. dielectric constant tensor:
#      x y z
#    x 1.849070 0.000000 0.000000 
#    y 0.000000 1.845640 0.000000 
#    z 0.000000 0.000000 1.866660 
# 
# From -- ./inp_files/4694.got.cif
#   From: 2010.06.25/outbox.cif.g09.slc.cpg/sg52_3_cif.got.tgz:4694.got - 2010.06.26 19:32:48.
