data_PCOD8217391
_publ_section_title
;
Structure prediction by ZEFSAII (Michael W. Deem and Ramdas Pophale) SiO2 
 PCOD8217391
Probable space group: P N N A
;
_chemical_formula_sum "Si O2"
_cell_formula_units_Z 36
_cell_length_a 8.903903
_cell_length_b 16.331275
_cell_length_c 10.039358
_cell_angle_alpha 90.000000
_cell_angle_beta 90.000000
_cell_angle_gamma 90.000000
_cell_volume 1459.844014
_symmetry_space_group_name_H-M "P N N A"
_symmetry_group_IT_number 52
_symmetry_cell_setting 'orthorhombic'
loop_
_space_group_symop_operation_xyz
x,y,z
1/2-x,-y,z
x,1/2-y,1/2-z
1/2-x,1/2+y,1/2-z
-x,-y,-z
1/2+x,y,-z
-x,1/2+y,1/2+z
1/2+x,1/2-y,1/2+z
loop_
_atom_site_type_symbol
_atom_site_label
_atom_site_fract_x
_atom_site_fract_y
_atom_site_fract_z
Si Si1 0.944851 0.567923 0.605006
Si Si2 0.391654 0.750000 0.750000
Si Si3 0.085731 0.661219 0.085507
Si Si4 0.865217 0.566335 0.897921
Si Si5 0.695460 0.821452 0.029312
O O1 0.917379 0.531634 0.753541
O O2 0.793310 0.615263 0.559436
O O3 0.000000 0.500000 0.500000
O O4 0.083750 0.628522 0.623765
O O5 0.486915 0.666377 0.779586
O O6 0.294930 0.763718 0.880136
O O7 0.259520 0.645329 0.118829
O O8 0.085483 0.757370 0.044987
O O9 0.008514 0.592333 0.988581
O O10 0.750000 0.500000 0.963301
#
# Coordination Sequence:
#
# PCOD8217391 Si02
#       5
#     8   4   8   8   8
#     4  12  27  48  72 109 148 195 246 305 378 444
#     4  12  24  42  76 104 144 184 254 298 368 438
#     4  12  25  48  75 108 144 198 246 310 372 445
#     4  12  27  48  73 106 152 191 247 304 381 443
#     4  12  24  47  74 106 141 194 245 307 366 443
#
# _framework density 24.660170000000001
#
# number of rings (size 3 to 8) (size 9 to 14) (size 15 to 20)
#    0.000    0.000    4.444    5.333    3.111    1.778 
#    0.000    0.000    0.000    0.000    0.000    0.000 
#    0.000    0.000    0.000    0.000    0.000    0.000 
#
# Total GULP energy -445974.994892 kJ/mol
# GULP energy per Si atom -12388.194303 kJ/mol
# Density = 2.460404 g / cm^3
# Si number density = 24.660170 Si / 1000 Ang^3
#
#
#
# Elastic Constant Matrix: (Units=GPa)
#
#
# Indices 1 2 3 4 5 6 
#
# 1 123.9734 16.6584 23.7729 0.0000 0.0000 0.0000
# 2 16.6584 86.3601 15.5190 0.0000 0.0000 0.0000
# 3 23.7729 15.5190 93.4366 0.0000 0.0000 0.0000
# 4 0.0000 0.0000 0.0000 25.6728 0.0000 0.0000
# 5 0.0000 0.0000 0.0000 0.0000 32.9258 0.0000
# 6 0.0000 0.0000 0.0000 0.0000 0.0000 60.1273
#
#
#
# Elastic Compliance Matrix: (Units=1/GPa)
#
#
# Indices 1 2 3 4 5 6 
#
# 1 0.008621 -0.001308 -0.001976 0.000000 0.000000 0.000000
# 2 -0.001308 0.012134 -0.001683 0.000000 0.000000 0.000000
# 3 -0.001976 -0.001683 0.011485 0.000000 0.000000 0.000000
# 4 0.000000 0.000000 0.000000 0.038952 0.000000 0.000000
# 5 0.000000 0.000000 0.000000 0.000000 0.030371 0.000000
# 6 0.000000 0.000000 0.000000 0.000000 0.000000 0.016631
#
#
# Mechanical properties :
#
#
# Convention : Reuss Voigt Hill
#
# Bulk Modulus (GPa) = 44.83004 46.18562 45.50783
# Shear Modulus (GPa) = 36.88328 40.26652 38.57490
#
# Velocity S-wave (km/s) = 3.87157 4.04525 3.95936
# Velocity P-wave (km/s) = 6.18094 6.37089 6.27663
#
# Compressibility (1/GPa) = 0.02230647
#
# Stress axis : x y z
#
# Youngs Moduli (GPa) = 115.99686 82.41262 87.07230
#
# Poissons Ratio (x) = 0.10778 0.17207
# Poissons Ratio (y) = 0.15170 0.14651
# Poissons Ratio (z) = 0.22923 0.13867
#
# Static dielectric constant tensor:
#      x y z
#    x 4.893290 0.000000 0.000000 
#    y 0.000000 4.542060 0.000000 
#    z 0.000000 0.000000 4.213540 
# 
# 
# High freq. dielectric constant tensor:
#      x y z
#    x 2.014860 0.000000 0.000000 
#    y 0.000000 1.986950 0.000000 
#    z 0.000000 0.000000 1.964210 
# 
# From -- ./inp_files/7294.got.cif
#   From: 2010.06.25/outbox.cif.g09.slc.cpg/sg52_4_cif.got.tgz:7294.got - 2010.06.26 19:32:48.
