data_PCOD8217617
_publ_section_title
;
Structure prediction by ZEFSAII (Michael W. Deem and Ramdas Pophale) SiO2 
 PCOD8217617
Probable space group: P M N A
;
_chemical_formula_sum "Si O2"
_cell_formula_units_Z 48
_cell_length_a 25.225180
_cell_length_b 5.333782
_cell_length_c 16.118069
_cell_angle_alpha 90.000000
_cell_angle_beta 90.000000
_cell_angle_gamma 90.000000
_cell_volume 2168.615442
_symmetry_space_group_name_H-M "P M N A"
_symmetry_group_IT_number 53
_symmetry_cell_setting 'orthorhombic'
loop_
_space_group_symop_operation_xyz
x,y,z
1/2-x,-y,1/2+z
x,-y,-z
1/2-x,y,1/2-z
-x,-y,-z
1/2+x,y,1/2-z
-x,y,z
1/2+x,-y,1/2+z
loop_
_atom_site_type_symbol
_atom_site_label
_atom_site_fract_x
_atom_site_fract_y
_atom_site_fract_z
Si Si1 0.726880 0.500000 0.094989
Si Si2 0.388031 0.500000 0.158479
Si Si3 0.561708 0.500000 0.661693
Si Si4 0.400970 0.000000 0.659688
Si Si5 0.723579 1.000000 0.660992
Si Si6 0.438713 1.000000 0.153812
O O1 0.675380 0.500000 0.153355
O O2 0.760812 0.250447 0.111617
O O3 0.760812 0.749553 0.111617
O O4 0.708376 0.500000 0.000000
O O5 0.403276 0.500000 0.254864
O O6 0.411391 0.249112 0.115170
O O7 0.411391 0.750888 0.115170
O O8 0.500000 0.500000 0.683489
O O9 0.578954 0.750236 0.611016
O O10 0.578954 0.249764 0.611016
O O11 0.338877 0.000000 0.673504
O O12 0.431981 0.000000 0.747198
O O13 0.750000 1.000000 0.750000
O O14 0.500000 1.000000 0.129393
#
# Coordination Sequence:
#
# PCOD8217617 Si02
#       6
#     8   8   8   8   8   8
#     4  12  26  43  61  86 126 170 208 252 311 369
#     4  10  18  32  52  74 104 155 200 229 282 351
#     4  10  17  29  50  81 121 151 183 243 301 347
#     4  10  18  29  48  79 112 146 185 235 299 348
#     4  12  23  40  64  91 120 155 211 267 307 356
#     4  10  18  31  53  83 119 149 185 248 304 345
#
# _framework density 22.133937
#
# number of rings (size 3 to 8) (size 9 to 14) (size 15 to 20)
#    0.000    1.333    0.000   12.000    0.000    0.000 
#    0.000    0.000    0.000    5.500    0.000    0.000 
#    0.000   77.333    0.000    0.000    0.000    0.000 
#
# Total GULP energy -595003.183569 kJ/mol
# GULP energy per Si atom -12395.899658 kJ/mol
# Density = 2.208356 g / cm^3
# Si number density = 22.133937 Si / 1000 Ang^3
#
#
#
# Elastic Constant Matrix: (Units=GPa)
#
#
# Indices 1 2 3 4 5 6 
#
# 1 137.3043 60.3321 -0.1007 0.0000 0.0000 0.0000
# 2 60.3321 266.2090 7.1478 0.0000 0.0000 0.0000
# 3 -0.1007 7.1478 27.3059 0.0000 0.0000 0.0000
# 4 0.0000 0.0000 0.0000 8.5442 0.0000 0.0000
# 5 0.0000 0.0000 0.0000 0.0000 6.2566 0.0000
# 6 0.0000 0.0000 0.0000 0.0000 0.0000 41.7918
#
#
#
# Elastic Compliance Matrix: (Units=1/GPa)
#
#
# Indices 1 2 3 4 5 6 
#
# 1 0.008096 -0.001849 0.000514 0.000000 0.000000 0.000000
# 2 -0.001849 0.004205 -0.001108 0.000000 0.000000 0.000000
# 3 0.000514 -0.001108 0.036914 0.000000 0.000000 0.000000
# 4 0.000000 0.000000 0.000000 0.117039 0.000000 0.000000
# 5 0.000000 0.000000 0.000000 0.000000 0.159831 0.000000
# 6 0.000000 0.000000 0.000000 0.000000 0.000000 0.023928
#
#
# Mechanical properties :
#
#
# Convention : Reuss Voigt Hill
#
# Bulk Modulus (GPa) = 22.55809 62.84197 42.70003
# Shear Modulus (GPa) = 13.52541 35.54785 24.53663
#
# Velocity S-wave (km/s) = 2.47467 4.01188 3.33311
# Velocity P-wave (km/s) = 4.28708 7.06495 5.84349
#
# Compressibility (1/GPa) = 0.04433000
#
# Stress axis : x y z
#
# Youngs Moduli (GPa) = 123.52180 237.80454 27.09004
#
# Poissons Ratio (x) = 0.43960 -0.01392
# Poissons Ratio (y) = 0.22834 0.03000
# Poissons Ratio (z) = -0.06346 0.26339
#
# Static dielectric constant tensor:
#      x y z
#    x 3.935800 0.000000 0.000000 
#    y 0.000000 6.777470 0.000000 
#    z 0.000000 0.000000 3.186560 
# 
# 
# High freq. dielectric constant tensor:
#      x y z
#    x 1.884920 0.000000 0.000000 
#    y 0.000000 1.921470 0.000000 
#    z 0.000000 0.000000 1.788060 
# 
# From -- ./inp_files/29513.got.cif
#   From: 2010.03.12/outbox.cif.g09.slc.cpg/sg53_15_cif.got.tgz:29513.got - 2010.04.16 14:36:59.
