data_PCOD8217231
_publ_section_title
;
Structure prediction by ZEFSAII (Michael W. Deem and Ramdas Pophale) SiO2 
 PCOD8217231
Probable space group: P N N A
;
_chemical_formula_sum "Si O2"
_cell_formula_units_Z 36
_cell_length_a 9.053339
_cell_length_b 8.384045
_cell_length_c 20.102219
_cell_angle_alpha 90.000000
_cell_angle_beta 90.000000
_cell_angle_gamma 90.000000
_cell_volume 1525.830822
_symmetry_space_group_name_H-M "P N N A"
_symmetry_group_IT_number 52
_symmetry_cell_setting 'orthorhombic'
loop_
_space_group_symop_operation_xyz
x,y,z
1/2-x,-y,z
x,1/2-y,1/2-z
1/2-x,1/2+y,1/2-z
-x,-y,-z
1/2+x,y,-z
-x,1/2+y,1/2+z
1/2+x,1/2-y,1/2+z
loop_
_atom_site_type_symbol
_atom_site_label
_atom_site_fract_x
_atom_site_fract_y
_atom_site_fract_z
Si Si1 0.380742 0.222373 0.555780
Si Si2 0.720968 0.174184 0.580423
Si Si3 0.750000 0.500000 0.159871
Si Si4 0.250000 0.500000 0.339543
Si Si5 0.970666 0.919062 0.229885
Si Si6 0.750000 0.500000 0.377570
O O1 0.550865 0.177479 0.560017
O O2 0.323867 0.171464 0.484182
O O3 0.275805 0.149192 0.612433
O O4 0.359704 0.408623 0.571986
O O5 0.768461 0.333633 0.620243
O O6 0.750000 0.000000 0.616455
O O7 0.895855 0.504996 0.205348
O O8 0.394424 0.529013 0.294279
O O9 0.038401 0.750000 0.250000
O O10 0.851616 0.892560 0.170975
#
# Coordination Sequence:
#
# PCOD8217231 Si02
#       6
#     8   8   4   4   8   4
#     4  12  26  48  77 111 156 201 262 321 393 473
#     4  12  29  48  78 116 158 203 259 321 396 473
#     4  11  26  46  75 105 146 200 257 310 388 465
#     4  12  29  50  75 117 154 201 256 326 396 462
#     4  11  25  46  73 105 149 202 250 319 386 462
#     4  11  23  46  74 108 146 199 257 316 388 471
#
# _framework density 23.593706000000001
#
# number of rings (size 3 to 8) (size 9 to 14) (size 15 to 20)
#    0.000    0.444    5.556    1.333    6.222    3.556 
#    0.000    0.000    0.000    0.000    0.000    0.000 
#    0.000    0.000    0.000    0.000    0.000    0.000 
#
# Total GULP energy -446215.855061 kJ/mol
# GULP energy per Si atom -12394.884863 kJ/mol
# Density = 2.354001 g / cm^3
# Si number density = 23.593706 Si / 1000 Ang^3
#
#
#
# Elastic Constant Matrix: (Units=GPa)
#
#
# Indices 1 2 3 4 5 6 
#
# 1 143.4136 28.4491 35.9007 0.0000 0.0000 0.0000
# 2 28.4491 138.4767 40.3056 0.0000 0.0000 0.0000
# 3 35.9007 40.3056 79.6275 0.0000 0.0000 0.0000
# 4 0.0000 0.0000 0.0000 27.7293 0.0000 0.0000
# 5 0.0000 0.0000 0.0000 0.0000 -49.4722 0.0000
# 6 0.0000 0.0000 0.0000 0.0000 0.0000 37.4545
#
#
#
# Elastic Compliance Matrix: (Units=1/GPa)
#
#
# Indices 1 2 3 4 5 6 
#
# 1 0.007916 -0.000689 -0.003220 0.000000 0.000000 0.000000
# 2 -0.000689 0.008529 -0.004007 0.000000 0.000000 0.000000
# 3 -0.003220 -0.004007 0.016038 0.000000 0.000000 0.000000
# 4 0.000000 0.000000 0.000000 0.036063 0.000000 0.000000
# 5 0.000000 0.000000 0.000000 0.000000 -0.020213 0.000000
# 6 0.000000 0.000000 0.000000 0.000000 0.000000 0.026699
#
#
# Mechanical properties :
#
#
# Convention : Reuss Voigt Hill
#
# Bulk Modulus (GPa) = 60.05374 63.42539 61.73956
# Shear Modulus (GPa) = 51.85990 20.26649 36.06319
#
# Velocity S-wave (km/s) = 4.69341 2.93401 3.91386
# Velocity P-wave (km/s) = 7.40806 6.19827 6.83001
#
# Compressibility (1/GPa) = 0.01665175
#
# Stress axis : x y z
#
# Youngs Moduli (GPa) = 126.33294 117.24485 62.35054
#
# Poissons Ratio (x) = 0.08078 0.20077
# Poissons Ratio (y) = 0.08704 0.24982
# Poissons Ratio (z) = 0.40680 0.46976
#
# Static dielectric constant tensor:
#      x y z
#    x 4.338240 0.000000 0.000000 
#    y 0.000000 4.838490 0.000000 
#    z 0.000000 0.000000 4.219830 
# 
# 
# High freq. dielectric constant tensor:
#      x y z
#    x 1.943760 0.000000 0.000000 
#    y 0.000000 1.939160 0.000000 
#    z 0.000000 0.000000 1.933050 
# 
# From -- ./inp_files/35607.got.cif
#   From: 2010.06.25/outbox.cif.g09.slc.cpg/sg52_18_cif.got.tgz:35607.got - 2010.06.26 19:32:48.
