data_PCOD8217535
_publ_section_title
;
Structure prediction by ZEFSAII (Michael W. Deem and Ramdas Pophale) SiO2 
 PCOD8217535
Probable space group: P M N A
;
_chemical_formula_sum "Si O2"
_cell_formula_units_Z 44
_cell_length_a 24.547359
_cell_length_b 19.965483
_cell_length_c 5.189372
_cell_angle_alpha 90.000000
_cell_angle_beta 90.000000
_cell_angle_gamma 90.000000
_cell_volume 2543.310588
_symmetry_space_group_name_H-M "P M N A"
_symmetry_group_IT_number 53
_symmetry_cell_setting 'orthorhombic'
loop_
_space_group_symop_operation_xyz
x,y,z
1/2-x,-y,1/2+z
x,-y,-z
1/2-x,y,1/2-z
-x,-y,-z
1/2+x,y,1/2-z
-x,y,z
1/2+x,-y,1/2+z
loop_
_atom_site_type_symbol
_atom_site_label
_atom_site_fract_x
_atom_site_fract_y
_atom_site_fract_z
Si Si1 0.250000 0.040785 0.250000
Si Si2 0.185428 0.365266 0.518852
Si Si3 0.304931 0.577429 0.510033
Si Si4 0.656731 0.859411 0.688009
Si Si5 0.062188 0.957003 0.744566
Si Si6 0.186752 0.782383 0.307472
O O1 0.299313 0.083299 0.374153
O O2 0.228305 0.000000 0.500000
O O3 0.160042 0.407895 0.754837
O O4 0.250644 0.376899 0.501464
O O5 0.168853 0.289255 0.577485
O O6 0.160397 0.396569 0.256089
O O7 0.288063 0.500000 0.500000
O O8 0.596573 0.889560 0.716888
O O9 0.656365 0.803795 0.458440
O O10 0.673586 0.832848 0.966179
O O11 0.000000 0.934592 0.697993
O O12 0.083267 0.000000 0.500000
O O13 0.068633 0.000000 0.000000
O O14 0.250000 0.782006 0.250000
#
# Coordination Sequence:
#
# PCOD8217535 Si02
#       6
#     4   8   8   8   8   8
#     4  12  22  32  46  66  96 124 148 192 244 288
#     4  10  18  27  41  57  86 123 166 208 228 277
#     4  10  17  26  41  60  83 121 178 219 234 257
#     4  12  23  35  51  72  99 126 167 200 245 301
#     4  10  21  40  62  78  94 120 159 212 265 309
#     4  12  21  34  46  68  99 140 167 199 232 293
#
# _framework density 17.300284999999999
#
# number of rings (size 3 to 8) (size 9 to 14) (size 15 to 20)
#    0.000    1.091    3.636    7.091    2.545    0.000 
#    0.000    0.000    0.000    0.000    0.000    0.000 
#    0.000    0.000    0.000    0.000    0.000  105.455 
#
# Total GULP energy -545199.923556 kJ/mol
# GULP energy per Si atom -12390.907354 kJ/mol
# Density = 1.726091 g / cm^3
# Si number density = 17.300285 Si / 1000 Ang^3
#
#
#
# Elastic Constant Matrix: (Units=GPa)
#
#
# Indices 1 2 3 4 5 6 
#
# 1 35.6198 25.8024 15.5835 0.0000 0.0000 0.0000
# 2 25.8024 90.7374 37.4496 0.0000 0.0000 0.0000
# 3 15.5835 37.4496 161.7708 0.0000 0.0000 0.0000
# 4 0.0000 0.0000 0.0000 22.1567 0.0000 0.0000
# 5 0.0000 0.0000 0.0000 0.0000 29.0310 0.0000
# 6 0.0000 0.0000 0.0000 0.0000 0.0000 7.6763
#
#
#
# Elastic Compliance Matrix: (Units=1/GPa)
#
#
# Indices 1 2 3 4 5 6 
#
# 1 0.035567 -0.009619 -0.001199 0.000000 0.000000 0.000000
# 2 -0.009619 0.014786 -0.002496 0.000000 0.000000 0.000000
# 3 -0.001199 -0.002496 0.006875 0.000000 0.000000 0.000000
# 4 0.000000 0.000000 0.000000 0.045133 0.000000 0.000000
# 5 0.000000 0.000000 0.000000 0.000000 0.034446 0.000000
# 6 0.000000 0.000000 0.000000 0.000000 0.000000 0.130271
#
#
# Mechanical properties :
#
#
# Convention : Reuss Voigt Hill
#
# Bulk Modulus (GPa) = 32.68105 49.53325 41.10715
# Shear Modulus (GPa) = 16.45240 25.72564 21.08902
#
# Velocity S-wave (km/s) = 3.08716 3.86036 3.49520
# Velocity P-wave (km/s) = 5.62484 6.96875 6.33255
#
# Compressibility (1/GPa) = 0.03059877
#
# Stress axis : x y z
#
# Youngs Moduli (GPa) = 28.11612 67.62963 145.45360
#
# Poissons Ratio (x) = 0.65052 0.17446
# Poissons Ratio (y) = 0.27045 0.36311
# Poissons Ratio (z) = 0.03372 0.16883
#
# Static dielectric constant tensor:
#      x y z
#    x 2.755570 0.000000 0.000000 
#    y 0.000000 4.151070 0.000000 
#    z 0.000000 0.000000 -22.899020 
# 
# 
# High freq. dielectric constant tensor:
#      x y z
#    x 1.581340 0.000000 0.000000 
#    y 0.000000 1.670740 0.000000 
#    z 0.000000 0.000000 1.712640 
# 
# From -- ./inp_files/3702.got.cif
#   From: 2010.03.12/outbox.cif.g09.slc.cpg/sg53_2_cif.got.tgz:3702.got - 2010.04.16 14:36:59.
