data_PCOD8217724
_publ_section_title
;
Structure prediction by ZEFSAII (Michael W. Deem and Ramdas Pophale) SiO2 
 PCOD8217724
Probable space group: P M N A
;
_chemical_formula_sum "Si O2"
_cell_formula_units_Z 64
_cell_length_a 8.883107
_cell_length_b 26.293941
_cell_length_c 18.303471
_cell_angle_alpha 90.000000
_cell_angle_beta 90.000000
_cell_angle_gamma 90.000000
_cell_volume 4275.176340
_symmetry_space_group_name_H-M "P M N A"
_symmetry_group_IT_number 53
_symmetry_cell_setting 'orthorhombic'
loop_
_space_group_symop_operation_xyz
x,y,z
1/2-x,-y,1/2+z
x,-y,-z
1/2-x,y,1/2-z
-x,-y,-z
1/2+x,y,1/2-z
-x,y,z
1/2+x,-y,1/2+z
loop_
_atom_site_type_symbol
_atom_site_label
_atom_site_fract_x
_atom_site_fract_y
_atom_site_fract_z
Si Si1 0.678934 0.102145 0.590138
Si Si2 0.178093 0.492432 0.827056
Si Si3 0.321685 0.007615 0.828002
Si Si4 0.675030 0.598349 0.087833
Si Si5 0.174536 0.305312 0.675826
Si Si6 0.166110 0.048829 0.050875
Si Si7 0.321254 0.809536 0.173022
Si Si8 0.834145 0.446291 0.039854
O O1 0.500000 0.100230 0.602838
O O2 0.754390 0.060051 0.641892
O O3 0.718844 0.093777 0.504109
O O4 0.747593 0.156652 0.609840
O O5 0.250000 0.504651 0.750000
O O6 0.237825 0.439497 0.858807
O O7 0.222580 0.540708 0.878356
O O8 0.000000 0.487130 0.820370
O O9 0.250000 0.995110 0.750000
O O10 0.500000 0.012533 0.821093
O O11 0.281335 0.960806 0.882672
O O12 0.500000 0.586433 0.095776
O O13 0.715276 0.656040 0.110548
O O14 0.722768 0.591464 0.003123
O O15 0.250000 0.324627 0.750000
O O16 0.225947 0.248447 0.654387
O O17 0.000000 0.305469 0.692950
O O18 0.000000 0.060369 0.083632
O O19 0.155665 0.000000 0.000000
O O20 0.250000 0.826304 0.250000
O O21 0.500000 0.817487 0.175701
O O22 0.000000 0.421154 0.041067
O O23 0.842671 0.500000 0.000000
#
# Coordination Sequence:
#
# PCOD8217724 Si02
#       8
#     8   8   8   8   8   8   8   8
#     4  10  19  31  45  61  83 110 140 172 208 245
#     4  10  19  29  41  59  83 109 138 170 204 242
#     4  11  20  29  43  62  85 112 142 171 202 242
#     4  10  18  28  43  61  81 108 141 171 204 244
#     4   9  19  31  42  59  82 108 138 174 208 239
#     4   8  16  30  44  59  82 108 134 169 207 242
#     4  10  19  31  44  59  82 109 140 175 208 241
#     4   8  16  29  41  56  80 107 134 167 204 241
#
# _framework density 14.970141999999999
#
# number of rings (size 3 to 8) (size 9 to 14) (size 15 to 20)
#    0.000    2.500    0.000    4.875    0.000    8.000 
#    0.000    0.000    0.000    0.000    0.000    0.000 
#    0.000    1.000    0.000    6.500    0.000    5.250 
#
# Total GULP energy -793318.458442 kJ/mol
# GULP energy per Si atom -12395.600913 kJ/mol
# Density = 1.493607 g / cm^3
# Si number density = 14.970142 Si / 1000 Ang^3
#
#
#
# Elastic Constant Matrix: (Units=GPa)
#
#
# Indices 1 2 3 4 5 6 
#
# 1 86.8560 39.1440 51.9321 0.0000 0.0000 0.0000
# 2 39.1440 72.3694 50.3936 0.0000 0.0000 0.0000
# 3 51.9321 50.3936 106.1072 0.0000 0.0000 0.0000
# 4 0.0000 0.0000 0.0000 19.8889 0.0000 0.0000
# 5 0.0000 0.0000 0.0000 0.0000 26.2797 0.0000
# 6 0.0000 0.0000 0.0000 0.0000 0.0000 11.9079
#
#
#
# Elastic Compliance Matrix: (Units=1/GPa)
#
#
# Indices 1 2 3 4 5 6 
#
# 1 0.017510 -0.005235 -0.006084 0.000000 0.000000 0.000000
# 2 -0.005235 0.022211 -0.007987 0.000000 0.000000 0.000000
# 3 -0.006084 -0.007987 0.016195 0.000000 0.000000 0.000000
# 4 0.000000 0.000000 0.000000 0.050279 0.000000 0.000000
# 5 0.000000 0.000000 0.000000 0.000000 0.038052 0.000000
# 6 0.000000 0.000000 0.000000 0.000000 0.000000 0.083978
#
#
# Mechanical properties :
#
#
# Convention : Reuss Voigt Hill
#
# Bulk Modulus (GPa) = 57.78416 60.91911 59.35164
# Shear Modulus (GPa) = 18.34163 19.87282 19.10723
#
# Velocity S-wave (km/s) = 3.50410 3.64744 3.57649
# Velocity P-wave (km/s) = 7.41991 7.64987 7.53577
#
# Compressibility (1/GPa) = 0.01730578
#
# Stress axis : x y z
#
# Youngs Moduli (GPa) = 57.11016 45.02325 61.74692
#
# Poissons Ratio (x) = 0.23568 0.37566
# Poissons Ratio (y) = 0.29895 0.49315
# Poissons Ratio (z) = 0.34745 0.35958
#
# Static dielectric constant tensor:
#      x y z
#    x 2.993200 0.000000 0.000000 
#    y 0.000000 2.863130 0.000000 
#    z 0.000000 0.000000 3.197490 
# 
# 
# High freq. dielectric constant tensor:
#      x y z
#    x 1.586780 0.000000 0.000000 
#    y 0.000000 1.538510 0.000000 
#    z 0.000000 0.000000 1.563200 
# 
# From -- ./inp_files/27085.got.cif
#   From: 2010.03.12/outbox.cif.g09.slc.cpg/sg53_14_cif.got.tgz:27085.got - 2010.04.16 14:36:59.
