data_PCOD8217812
_publ_section_title
;
Structure prediction by ZEFSAII (Michael W. Deem and Ramdas Pophale) SiO2 
 PCOD8217812
Probable space group: P M N A
;
_chemical_formula_sum "Si O2"
_cell_formula_units_Z 52
_cell_length_a 9.158404
_cell_length_b 14.462246
_cell_length_c 22.737859
_cell_angle_alpha 90.000000
_cell_angle_beta 90.000000
_cell_angle_gamma 90.000000
_cell_volume 3011.654246
_symmetry_space_group_name_H-M "P M N A"
_symmetry_group_IT_number 53
_symmetry_cell_setting 'orthorhombic'
loop_
_space_group_symop_operation_xyz
x,y,z
1/2-x,-y,1/2+z
x,-y,-z
1/2-x,y,1/2-z
-x,-y,-z
1/2+x,y,1/2-z
-x,y,z
1/2+x,-y,1/2+z
loop_
_atom_site_type_symbol
_atom_site_label
_atom_site_fract_x
_atom_site_fract_y
_atom_site_fract_z
Si Si1 0.237444 0.500000 0.500000
Si Si2 0.324898 0.518526 0.687367
Si Si3 0.663537 0.182606 0.437549
Si Si4 0.165302 0.368520 0.902211
Si Si5 0.835529 0.993726 0.570144
Si Si6 0.836902 0.362490 0.402856
Si Si7 0.336537 0.169275 0.575607
O O1 0.332575 0.572664 0.462597
O O2 0.144254 0.559909 0.546212
O O3 0.250000 0.515427 0.750000
O O4 0.500000 0.526007 0.692015
O O5 0.271911 0.426601 0.652603
O O6 0.263473 0.605536 0.651402
O O7 0.500000 0.195164 0.411060
O O8 0.761951 0.271958 0.428099
O O9 0.650950 0.164292 0.506026
O O10 0.741985 0.094275 0.407835
O O11 0.240896 0.267554 0.906996
O O12 0.000000 0.344521 0.889160
O O13 0.764787 0.085981 0.598477
O O14 0.000000 0.984088 0.594263
O O15 0.836569 0.000000 0.500000
O O16 0.000000 0.339839 0.380190
O O17 0.500000 0.157806 0.602081
#
# Coordination Sequence:
#
# PCOD8217812 Si02
#       7
#     4   8   8   8   8   8   8
#     4  10  18  30  44  70 101 132 159 198 241 292
#     4  10  21  37  54  71  95 128 168 209 247 289
#     4  10  18  29  46  68  95 130 166 199 237 289
#     4   9  17  29  49  72  97 129 164 201 243 290
#     4   9  17  28  41  62  94 131 162 196 239 287
#     4  11  21  32  48  72 101 131 162 200 245 293
#     4   9  16  28  44  67  95 128 165 198 235 290
#
# _framework density 17.266259000000002
#
# number of rings (size 3 to 8) (size 9 to 14) (size 15 to 20)
#    0.000    2.308    1.538    2.308    0.000    3.692 
#    0.000    1.538    0.000    0.000    0.000    1.077 
#    0.000    2.462    0.000    0.000    0.000    0.000 
#
# Total GULP energy -644376.967852 kJ/mol
# GULP energy per Si atom -12391.864766 kJ/mol
# Density = 1.722696 g / cm^3
# Si number density = 17.266259 Si / 1000 Ang^3
#
#
#
# Elastic Constant Matrix: (Units=GPa)
#
#
# Indices 1 2 3 4 5 6 
#
# 1 115.4238 52.7659 22.0526 0.0000 0.0000 0.0000
# 2 52.7659 122.2529 16.8427 0.0000 0.0000 0.0000
# 3 22.0526 16.8427 59.5439 0.0000 0.0000 0.0000
# 4 0.0000 0.0000 0.0000 12.0085 0.0000 0.0000
# 5 0.0000 0.0000 0.0000 0.0000 14.5398 0.0000
# 6 0.0000 0.0000 0.0000 0.0000 0.0000 19.2047
#
#
#
# Elastic Compliance Matrix: (Units=1/GPa)
#
#
# Indices 1 2 3 4 5 6 
#
# 1 0.011257 -0.004458 -0.002908 0.000000 0.000000 0.000000
# 2 -0.004458 0.010277 -0.001256 0.000000 0.000000 0.000000
# 3 -0.002908 -0.001256 0.018227 0.000000 0.000000 0.000000
# 4 0.000000 0.000000 0.000000 0.083275 0.000000 0.000000
# 5 0.000000 0.000000 0.000000 0.000000 0.068777 0.000000
# 6 0.000000 0.000000 0.000000 0.000000 0.000000 0.052071
#
#
# Mechanical properties :
#
#
# Convention : Reuss Voigt Hill
#
# Bulk Modulus (GPa) = 44.41180 53.39367 48.90274
# Shear Modulus (GPa) = 18.61276 22.85456 20.73366
#
# Velocity S-wave (km/s) = 3.28683 3.64215 3.46904
# Velocity P-wave (km/s) = 6.33892 6.97695 6.66557
#
# Compressibility (1/GPa) = 0.02251654
#
# Stress axis : x y z
#
# Youngs Moduli (GPa) = 88.83027 97.30477 54.86477
#
# Poissons Ratio (x) = 0.43380 0.15956
# Poissons Ratio (y) = 0.39602 0.06890
# Poissons Ratio (z) = 0.25834 0.12220
#
# Static dielectric constant tensor:
#      x y z
#    x 3.295160 0.000000 0.000000 
#    y 0.000000 3.577870 0.000000 
#    z 0.000000 0.000000 2.774350 
# 
# 
# High freq. dielectric constant tensor:
#      x y z
#    x 1.668530 0.000000 0.000000 
#    y 0.000000 1.680550 0.000000 
#    z 0.000000 0.000000 1.603040 
# 
# From -- ./inp_files/30592.got.cif
#   From: 2010.03.12/outbox.cif.g09.slc.cpg/sg53_16_cif.got.tgz:30592.got - 2010.04.16 14:36:59.
