data_PCOD8217788
_publ_section_title
;
Structure prediction by ZEFSAII (Michael W. Deem and Ramdas Pophale) SiO2 
 PCOD8217788
Probable space group: P M N A
;
_chemical_formula_sum "Si O2"
_cell_formula_units_Z 56
_cell_length_a 9.475483
_cell_length_b 13.379851
_cell_length_c 27.952936
_cell_angle_alpha 90.000000
_cell_angle_beta 90.000000
_cell_angle_gamma 90.000000
_cell_volume 3543.888620
_symmetry_space_group_name_H-M "P M N A"
_symmetry_group_IT_number 53
_symmetry_cell_setting 'orthorhombic'
loop_
_space_group_symop_operation_xyz
x,y,z
1/2-x,-y,1/2+z
x,-y,-z
1/2-x,y,1/2-z
-x,-y,-z
1/2+x,y,1/2-z
-x,y,z
1/2+x,-y,1/2+z
loop_
_atom_site_type_symbol
_atom_site_label
_atom_site_fract_x
_atom_site_fract_y
_atom_site_fract_z
Si Si1 0.341317 0.107089 0.453052
Si Si2 0.334406 0.198173 0.966777
Si Si3 0.164459 0.396912 0.477176
Si Si4 0.835139 0.232689 0.204389
Si Si5 0.835070 0.002875 0.204358
Si Si6 0.339918 0.306757 0.396445
Si Si7 0.662834 0.091442 0.605507
O O1 0.500000 0.106943 0.474703
O O2 0.231265 0.119133 0.496035
O O3 0.324569 0.194352 0.414810
O O4 0.308016 0.005346 0.426379
O O5 0.500000 0.178766 0.962161
O O6 0.259924 0.181089 0.915253
O O7 0.300163 0.309805 0.984938
O O8 0.218199 0.500000 0.500000
O O9 0.242088 0.381254 0.426602
O O10 0.000000 0.400683 0.465203
O O11 0.750000 0.273631 0.250000
O O12 0.793997 0.117755 0.193420
O O13 0.793979 0.302329 0.159162
O O14 0.000000 0.241332 0.215633
O O15 0.750000 0.962284 0.250000
O O16 0.000000 0.993780 0.215279
O O17 0.791860 0.933646 0.159619
O O18 0.500000 0.345010 0.401627
O O19 0.500000 0.124389 0.603433
#
# Coordination Sequence:
#
# PCOD8217788 Si02
#       7
#     8   8   8   8   8   8   8
#     4   9  16  28  43  59  86 123 152 172 206 254
#     4  10  20  30  42  64  88 110 144 185 219 257
#     4   9  19  35  50  64  87 116 145 182 232 282
#     4   9  16  27  42  63  91 121 152 183 213 251
#     4   9  17  29  43  61  87 121 157 185 212 250
#     4   9  16  28  46  67  90 117 151 186 216 255
#     4  10  18  29  44  61  87 123 153 175 210 258
#
# _framework density 15.801850999999999
#
# number of rings (size 3 to 8) (size 9 to 14) (size 15 to 20)
#    0.000    2.714    1.429    0.857    0.000    4.286 
#    0.000    0.000    0.000    0.000    0.000    1.000 
#    0.000    0.000    0.000    0.000    0.000    0.000 
#
# Total GULP energy -694295.419837 kJ/mol
# GULP energy per Si atom -12398.132497 kJ/mol
# Density = 1.576589 g / cm^3
# Si number density = 15.801851 Si / 1000 Ang^3
#
#
#
# Elastic Constant Matrix: (Units=GPa)
#
#
# Indices 1 2 3 4 5 6 
#
# 1 70.6734 34.9922 68.4347 0.0000 0.0000 0.0000
# 2 34.9922 49.0338 52.5928 0.0000 0.0000 0.0000
# 3 68.4347 52.5928 135.9129 0.0000 0.0000 0.0000
# 4 0.0000 0.0000 0.0000 16.6878 0.0000 0.0000
# 5 0.0000 0.0000 0.0000 0.0000 33.0708 0.0000
# 6 0.0000 0.0000 0.0000 0.0000 0.0000 17.7622
#
#
#
# Elastic Compliance Matrix: (Units=1/GPa)
#
#
# Indices 1 2 3 4 5 6 
#
# 1 0.029682 -0.008807 -0.011538 0.000000 0.000000 0.000000
# 2 -0.008807 0.037478 -0.010068 0.000000 0.000000 0.000000
# 3 -0.011538 -0.010068 0.017063 0.000000 0.000000 0.000000
# 4 0.000000 0.000000 0.000000 0.059924 0.000000 0.000000
# 5 0.000000 0.000000 0.000000 0.000000 0.030238 0.000000
# 6 0.000000 0.000000 0.000000 0.000000 0.000000 0.056299
#
#
# Mechanical properties :
#
#
# Convention : Reuss Voigt Hill
#
# Bulk Modulus (GPa) = 42.73916 63.07325 52.90621
# Shear Modulus (GPa) = 16.70513 20.14418 18.42465
#
# Velocity S-wave (km/s) = 3.25493 3.57431 3.41835
# Velocity P-wave (km/s) = 6.42120 7.55222 7.00956
#
# Compressibility (1/GPa) = 0.02339774
#
# Stress axis : x y z
#
# Youngs Moduli (GPa) = 33.68997 26.68245 58.60699
#
# Poissons Ratio (x) = 0.23500 0.67618
# Poissons Ratio (y) = 0.29672 0.59004
# Poissons Ratio (z) = 0.38870 0.26863
#
# Static dielectric constant tensor:
#      x y z
#    x 2.998220 0.000000 0.000000 
#    y 0.000000 2.748470 0.000000 
#    z 0.000000 0.000000 3.205430 
# 
# 
# High freq. dielectric constant tensor:
#      x y z
#    x 1.606700 0.000000 0.000000 
#    y 0.000000 1.564640 0.000000 
#    z 0.000000 0.000000 1.607780 
# 
# From -- ./inp_files/38377.got.cif
#   From: 2010.03.12/outbox.cif.g09.slc.cpg/sg53_20_cif.got.tgz:38377.got - 2010.04.16 14:36:59.
