data_PCOD8217105
_publ_section_title
;
Structure prediction by ZEFSAII (Michael W. Deem and Ramdas Pophale) SiO2 
 PCOD8217105
Probable space group: P N N A
;
_chemical_formula_sum "Si O2"
_cell_formula_units_Z 64
_cell_length_a 17.501640
_cell_length_b 15.097826
_cell_length_c 12.191540
_cell_angle_alpha 90.000000
_cell_angle_beta 90.000000
_cell_angle_gamma 90.000000
_cell_volume 3221.452486
_symmetry_space_group_name_H-M "P N N A"
_symmetry_group_IT_number 52
_symmetry_cell_setting 'orthorhombic'
loop_
_space_group_symop_operation_xyz
x,y,z
1/2-x,-y,z
x,1/2-y,1/2-z
1/2-x,1/2+y,1/2-z
-x,-y,-z
1/2+x,y,-z
-x,1/2+y,1/2+z
1/2+x,1/2-y,1/2+z
loop_
_atom_site_type_symbol
_atom_site_label
_atom_site_fract_x
_atom_site_fract_y
_atom_site_fract_z
Si Si1 0.659272 1.000000 0.368163
Si Si2 0.340570 0.656911 0.020136
Si Si3 0.411019 0.348271 0.479650
Si Si4 0.334001 0.645541 0.259497
Si Si5 0.340570 0.343089 0.020136
Si Si6 0.159719 0.500000 0.621034
Si Si7 0.834001 0.145541 0.759497
Si Si8 0.588981 0.151729 0.979651
O O1 0.629780 0.088427 0.428936
O O2 0.627646 1.000000 0.245078
O O3 0.750000 0.000000 0.373320
O O4 0.629780 0.911573 0.428936
O O5 0.361189 0.613307 0.139061
O O6 0.250000 0.675561 0.014114
O O7 0.383906 0.748585 0.999121
O O8 0.383906 0.248585 0.500879
O O9 0.368415 0.411134 0.564138
O O10 0.392589 0.381354 0.355535
O O11 0.500000 0.356638 0.500000
O O12 0.327464 0.750000 0.250000
O O13 0.250000 0.606220 0.288491
O O14 0.392589 0.618646 0.355535
O O15 0.361189 0.386693 0.139060
O O16 0.250000 0.500000 0.621603
O O17 0.131585 0.411133 0.564138
O O18 0.827464 0.250000 0.750000
#
# Coordination Sequence:
#
# PCOD8217105 Si02
#       8
#     8   8   8   8   8   8   8   8
#     4   9  20  38  60  88 115 146 199 244 279 341
#     4   9  18  38  63  86 113 150 198 250 291 336
#     4  11  22  37  57  85 122 152 189 240 302 351
#     4   8  15  32  59  85 108 141 192 242 284 338
#     4   9  18  38  63  86 113 150 198 250 291 336
#     4  11  23  40  59  83 117 160 203 238 278 351
#     4   8  15  32  59  85 108 141 192 242 284 338
#     4  11  22  37  57  85 122 152 189 240 302 351
#
# _framework density 19.866813
#
# number of rings (size 3 to 8) (size 9 to 14) (size 15 to 20)
#    0.000    2.500    0.000    4.125    0.000    2.000 
#   13.500    6.875    0.000    0.000    0.000    0.000 
#    0.000    0.000    0.000    0.000    0.000    0.000 
#
# Total GULP energy -793353.740004 kJ/mol
# GULP energy per Si atom -12396.152188 kJ/mol
# Density = 1.982160 g / cm^3
# Si number density = 19.866813 Si / 1000 Ang^3
#
#
#
# Elastic Constant Matrix: (Units=GPa)
#
#
# Indices 1 2 3 4 5 6 
#
# 1 91.1171 28.0243 63.0333 0.0000 0.0000 0.0000
# 2 28.0243 90.8184 69.6993 0.0000 0.0000 0.0000
# 3 63.0333 69.6993 194.5093 0.0000 0.0000 0.0000
# 4 0.0000 0.0000 0.0000 37.9387 0.0000 0.0000
# 5 0.0000 0.0000 0.0000 0.0000 13.5132 0.0000
# 6 0.0000 0.0000 0.0000 0.0000 0.0000 -43.7497
#
#
#
# Elastic Compliance Matrix: (Units=1/GPa)
#
#
# Indices 1 2 3 4 5 6 
#
# 1 0.014237 -0.001176 -0.004192 0.000000 0.000000 0.000000
# 2 -0.001176 0.015285 -0.005096 0.000000 0.000000 0.000000
# 3 -0.004192 -0.005096 0.008326 0.000000 0.000000 0.000000
# 4 0.000000 0.000000 0.000000 0.026358 0.000000 0.000000
# 5 0.000000 0.000000 0.000000 0.000000 0.074002 0.000000
# 6 0.000000 0.000000 0.000000 0.000000 0.000000 -0.022857
#
#
# Mechanical properties :
#
#
# Convention : Reuss Voigt Hill
#
# Bulk Modulus (GPa) = 59.10453 77.55097 68.32775
# Shear Modulus (GPa) = 35.23171 15.91964 25.57567
#
# Velocity S-wave (km/s) = 4.21574 2.83383 3.59187
# Velocity P-wave (km/s) = 7.31516 7.05887 7.18816
#
# Compressibility (1/GPa) = 0.01691918
#
# Stress axis : x y z
#
# Youngs Moduli (GPa) = 70.24124 65.42453 120.10854
#
# Poissons Ratio (x) = 0.07692 0.50353
# Poissons Ratio (y) = 0.08258 0.61208
# Poissons Ratio (z) = 0.29447 0.33341
#
# Static dielectric constant tensor:
#      x y z
#    x 3.389580 0.000000 0.000000 
#    y 0.000000 3.512330 0.000000 
#    z 0.000000 0.000000 4.222920 
# 
# 
# High freq. dielectric constant tensor:
#      x y z
#    x 1.745610 0.000000 0.000000 
#    y 0.000000 1.771820 0.000000 
#    z 0.000000 0.000000 1.788190 
# 
# From -- ./inp_files/20864.got.cif
#   From: 2010.06.25/outbox.cif.g09.slc.cpg/sg52_11_cif.got.tgz:20864.got - 2010.06.26 19:32:48.
