data_PCOD8217421
_publ_section_title
;
Structure prediction by ZEFSAII (Michael W. Deem and Ramdas Pophale) SiO2 
 PCOD8217421
Probable space group: P N N A
;
_chemical_formula_sum "Si O2"
_cell_formula_units_Z 32
_cell_length_a 15.995800
_cell_length_b 4.938125
_cell_length_c 16.480999
_cell_angle_alpha 90.000000
_cell_angle_beta 90.000000
_cell_angle_gamma 90.000000
_cell_volume 1301.821913
_symmetry_space_group_name_H-M "P N N A"
_symmetry_group_IT_number 52
_symmetry_cell_setting 'orthorhombic'
loop_
_space_group_symop_operation_xyz
x,y,z
1/2-x,-y,z
x,1/2-y,1/2-z
1/2-x,1/2+y,1/2-z
-x,-y,-z
1/2+x,y,-z
-x,1/2+y,1/2+z
1/2+x,1/2-y,1/2+z
loop_
_atom_site_type_symbol
_atom_site_label
_atom_site_fract_x
_atom_site_fract_y
_atom_site_fract_z
Si Si1 0.907527 0.841255 0.098362
Si Si2 0.662021 0.334124 0.925647
Si Si3 0.250000 0.500000 0.305964
Si Si4 0.501142 0.338794 0.843165
Si Si5 0.750000 0.000000 0.195501
O O1 0.932515 0.573810 0.148334
O O2 0.829210 0.971550 0.140166
O O3 0.977965 0.077578 0.100395
O O4 0.875805 0.760539 0.009865
O O5 0.750000 0.500000 0.933440
O O6 0.586095 0.481683 0.877993
O O7 0.674880 0.076239 0.866538
O O8 0.278697 0.250000 0.250000
O O9 0.510145 0.250000 0.750000
O O10 0.727677 0.750000 0.250000
#
# Coordination Sequence:
#
# PCOD8217421 Si02
#       5
#     8   8   4   8   4
#     4  12  28  50  77 116 156 204 262 322 396 462
#     4  12  30  50  82 116 159 207 262 322 393 466
#     4  12  27  48  77 114 154 202 260 316 381 458
#     4  12  28  51  78 113 159 207 260 322 391 465
#     4  12  25  46  81 110 152 202 262 320 383 464
#
# _framework density 24.580933999999999
#
# number of rings (size 3 to 8) (size 9 to 14) (size 15 to 20)
#    0.000    0.000    1.250    7.500   12.250    0.000 
#    0.000    0.000    0.000    0.000    0.000    0.000 
#    0.000    0.000    0.000    0.000    0.000    0.000 
#
# Total GULP energy -396580.076307 kJ/mol
# GULP energy per Si atom -12393.127385 kJ/mol
# Density = 2.452499 g / cm^3
# Si number density = 24.580934 Si / 1000 Ang^3
#
#
#
# Elastic Constant Matrix: (Units=GPa)
#
#
# Indices 1 2 3 4 5 6 
#
# 1 140.6359 44.5810 67.0452 0.0000 0.0000 0.0000
# 2 44.5810 136.3030 45.1762 0.0000 0.0000 0.0000
# 3 67.0452 45.1762 148.1110 0.0000 0.0000 0.0000
# 4 0.0000 0.0000 0.0000 8.1594 0.0000 0.0000
# 5 0.0000 0.0000 0.0000 0.0000 47.7477 0.0000
# 6 0.0000 0.0000 0.0000 0.0000 0.0000 99.6092
#
#
#
# Elastic Compliance Matrix: (Units=1/GPa)
#
#
# Indices 1 2 3 4 5 6 
#
# 1 0.009476 -0.001866 -0.003720 0.000000 0.000000 0.000000
# 2 -0.001866 0.008529 -0.001757 0.000000 0.000000 0.000000
# 3 -0.003720 -0.001757 0.008972 0.000000 0.000000 0.000000
# 4 0.000000 0.000000 0.000000 0.122557 0.000000 0.000000
# 5 0.000000 0.000000 0.000000 0.000000 0.020943 0.000000
# 6 0.000000 0.000000 0.000000 0.000000 0.000000 0.010039
#
#
# Mechanical properties :
#
#
# Convention : Reuss Voigt Hill
#
# Bulk Modulus (GPa) = 81.36568 82.07275 81.71922
# Shear Modulus (GPa) = 25.08790 48.98644 37.03717
#
# Velocity S-wave (km/s) = 3.19819 4.46899 3.88589
# Velocity P-wave (km/s) = 6.84185 7.75180 7.31100
#
# Compressibility (1/GPa) = 0.01229019
#
# Stress axis : x y z
#
# Youngs Moduli (GPa) = 105.53394 117.24349 111.46407
#
# Poissons Ratio (x) = 0.21880 0.41466
# Poissons Ratio (y) = 0.19695 0.19582
# Poissons Ratio (z) = 0.39260 0.20597
#
# Static dielectric constant tensor:
#      x y z
#    x 4.915710 0.000000 0.000000 
#    y 0.000000 4.615000 0.000000 
#    z 0.000000 0.000000 4.712120 
# 
# 
# High freq. dielectric constant tensor:
#      x y z
#    x 1.999170 0.000000 0.000000 
#    y 0.000000 1.979070 0.000000 
#    z 0.000000 0.000000 1.998310 
# 
# From -- ./inp_files/32730.got.cif
#   From: 2010.06.25/outbox.cif.g09.slc.cpg/sg52_17_cif.got.tgz:32730.got - 2010.06.26 19:32:48.
