data_PCOD8217217
_publ_section_title
;
Structure prediction by ZEFSAII (Michael W. Deem and Ramdas Pophale) SiO2 
 PCOD8217217
Probable space group: P N N A
;
_chemical_formula_sum "Si O2"
_cell_formula_units_Z 24
_cell_length_a 13.019265
_cell_length_b 5.080173
_cell_length_c 16.270718
_cell_angle_alpha 90.000000
_cell_angle_beta 90.000000
_cell_angle_gamma 90.000000
_cell_volume 1076.147217
_symmetry_space_group_name_H-M "P N N A"
_symmetry_group_IT_number 52
_symmetry_cell_setting 'orthorhombic'
loop_
_space_group_symop_operation_xyz
x,y,z
1/2-x,-y,z
x,1/2-y,1/2-z
1/2-x,1/2+y,1/2-z
-x,-y,-z
1/2+x,y,-z
-x,1/2+y,1/2+z
1/2+x,1/2-y,1/2+z
loop_
_atom_site_type_symbol
_atom_site_label
_atom_site_fract_x
_atom_site_fract_y
_atom_site_fract_z
Si Si1 0.152576 0.175316 0.344669
Si Si2 0.438887 0.998419 0.693966
Si Si3 0.250000 0.500000 0.468655
Si Si4 0.750000 0.500000 0.077914
O O1 0.164627 0.250000 0.250000
O O2 0.155645 0.424443 0.406945
O O3 0.042734 0.039760 0.358649
O O4 0.250000 0.000000 0.371306
O O5 0.411120 0.250000 0.750000
O O6 0.460678 0.750000 0.750000
O O7 0.346964 0.927695 0.633464
O O8 0.218619 0.746991 0.524594
#
# Coordination Sequence:
#
# PCOD8217217 Si02
#       4
#     8   8   4   4
#     4  11  23  43  71  97 131 172 233 278 332 396
#     4  11  25  44  74  97 130 182 229 280 324 395
#     4  12  26  42  68 100 140 178 210 284 344 398
#     4  12  26  46  64 102 142 176 222 270 344 406
#
# _framework density 22.301783
#
# number of rings (size 3 to 8) (size 9 to 14) (size 15 to 20)
#    0.000    0.667    3.333    4.000    4.667    2.667 
#    0.000    0.000    0.000    0.000    0.000    0.000 
#    0.000    0.000    0.000    0.000    0.000    0.000 
#
# Total GULP energy -297581.884159 kJ/mol
# GULP energy per Si atom -12399.245173 kJ/mol
# Density = 2.225102 g / cm^3
# Si number density = 22.301783 Si / 1000 Ang^3
#
#
#
# Elastic Constant Matrix: (Units=GPa)
#
#
# Indices 1 2 3 4 5 6 
#
# 1 180.7549 45.7694 64.9690 0.0000 0.0000 0.0000
# 2 45.7694 137.8402 48.1910 0.0000 0.0000 0.0000
# 3 64.9690 48.1910 99.0946 0.0000 0.0000 0.0000
# 4 0.0000 0.0000 0.0000 35.1595 0.0000 0.0000
# 5 0.0000 0.0000 0.0000 0.0000 -0.4925 0.0000
# 6 0.0000 0.0000 0.0000 0.0000 0.0000 31.5442
#
#
#
# Elastic Compliance Matrix: (Units=1/GPa)
#
#
# Indices 1 2 3 4 5 6 
#
# 1 0.007331 -0.000908 -0.004365 0.000000 0.000000 0.000000
# 2 -0.000908 0.008853 -0.003710 0.000000 0.000000 0.000000
# 3 -0.004365 -0.003710 0.014757 0.000000 0.000000 0.000000
# 4 0.000000 0.000000 0.000000 0.028442 0.000000 0.000000
# 5 0.000000 0.000000 0.000000 0.000000 -2.030626 0.000000
# 6 0.000000 0.000000 0.000000 0.000000 0.000000 0.031702
#
#
# Mechanical properties :
#
#
# Convention : Reuss Voigt Hill
#
# Bulk Modulus (GPa) = 77.06745 81.72760 79.39753
# Shear Modulus (GPa) = -2.60790 30.49292 13.94251
#
# Velocity S-wave (km/s) = -1.08255 3.70169 2.50306
# Velocity P-wave (km/s) = 5.75057 7.41592 6.63570
#
# Compressibility (1/GPa) = 0.01297565
#
# Stress axis : x y z
#
# Youngs Moduli (GPa) = 136.40344 112.95013 67.76314
#
# Poissons Ratio (x) = 0.10259 0.29577
# Poissons Ratio (y) = 0.12390 0.25140
# Poissons Ratio (z) = 0.59537 0.41905
#
# Static dielectric constant tensor:
#      x y z
#    x 4.071990 0.000000 0.000000 
#    y 0.000000 6.488590 0.000000 
#    z 0.000000 0.000000 3.928550 
# 
# 
# High freq. dielectric constant tensor:
#      x y z
#    x 1.869800 0.000000 0.000000 
#    y 0.000000 1.892450 0.000000 
#    z 0.000000 0.000000 1.888620 
# 
# From -- ./inp_files/26572.got.cif
#   From: 2010.06.25/outbox.cif.g09.slc.cpg/sg52_14_cif.got.tgz:26572.got - 2010.06.26 19:32:48.
