data_PCOD8217644
_publ_section_title
;
Structure prediction by ZEFSAII (Michael W. Deem and Ramdas Pophale) SiO2 
 PCOD8217644
Probable space group: P M N A
;
_chemical_formula_sum "Si O2"
_cell_formula_units_Z 48
_cell_length_a 17.157729
_cell_length_b 7.805253
_cell_length_c 20.310369
_cell_angle_alpha 90.000000
_cell_angle_beta 90.000000
_cell_angle_gamma 90.000000
_cell_volume 2719.973061
_symmetry_space_group_name_H-M "P M N A"
_symmetry_group_IT_number 53
_symmetry_cell_setting 'orthorhombic'
loop_
_space_group_symop_operation_xyz
x,y,z
1/2-x,-y,1/2+z
x,-y,-z
1/2-x,y,1/2-z
-x,-y,-z
1/2+x,y,1/2-z
-x,y,z
1/2+x,-y,1/2+z
loop_
_atom_site_type_symbol
_atom_site_label
_atom_site_fract_x
_atom_site_fract_y
_atom_site_fract_z
Si Si1 0.585801 0.802489 0.014566
Si Si2 0.299428 0.922423 0.683364
Si Si3 0.413347 0.723939 0.867875
Si Si4 0.411685 0.946823 0.219049
Si Si5 0.239290 0.566934 0.675377
Si Si6 0.204008 0.219340 0.631017
O O1 0.500000 0.742818 0.041336
O O2 0.654822 0.762825 0.064569
O O3 0.604286 0.710598 0.945533
O O4 0.581104 0.000000 0.000000
O O5 0.250000 0.918336 0.750000
O O6 0.385425 0.976497 0.709268
O O7 0.293548 0.729381 0.652627
O O8 0.263912 0.057770 0.631058
O O9 0.500000 0.655975 0.852114
O O10 0.404887 0.916939 0.840595
O O11 0.352243 0.605150 0.831638
O O12 0.500000 0.881358 0.227367
O O13 0.354716 0.794411 0.194249
O O14 0.250000 0.518107 0.750000
O O15 0.256347 0.392292 0.635259
#
# Coordination Sequence:
#
# PCOD8217644 Si02
#       6
#     8   8   8   8   8   8
#     4  10  18  31  49  71 103 142 173 198 235 295
#     4   9  17  33  47  67  94 128 167 210 253 300
#     4  10  19  31  49  70  98 135 170 199 237 292
#     4  10  17  31  51  70  96 132 169 207 250 297
#     4  11  19  33  49  67  95 133 170 211 252 289
#     4  11  20  30  50  72  99 136 171 203 252 297
#
# _framework density 17.647234000000001
#
# number of rings (size 3 to 8) (size 9 to 14) (size 15 to 20)
#    0.000    1.833    6.667    2.000    0.000    2.000 
#    0.000    1.667    0.000    0.000    0.000    0.000 
#    0.000    7.333    0.000   17.167    0.000    0.000 
#
# Total GULP energy -594716.263426 kJ/mol
# GULP energy per Si atom -12389.922155 kJ/mol
# Density = 1.760707 g / cm^3
# Si number density = 17.647234 Si / 1000 Ang^3
#
#
#
# Elastic Constant Matrix: (Units=GPa)
#
#
# Indices 1 2 3 4 5 6 
#
# 1 57.5638 22.4316 39.7934 0.0000 0.0000 0.0000
# 2 22.4316 81.8096 23.9299 0.0000 0.0000 0.0000
# 3 39.7934 23.9299 73.6875 0.0000 0.0000 0.0000
# 4 0.0000 0.0000 0.0000 -5.1107 0.0000 0.0000
# 5 0.0000 0.0000 0.0000 0.0000 34.5479 0.0000
# 6 0.0000 0.0000 0.0000 0.0000 0.0000 18.3776
#
#
#
# Elastic Compliance Matrix: (Units=1/GPa)
#
#
# Indices 1 2 3 4 5 6 
#
# 1 0.028692 -0.003685 -0.014298 0.000000 0.000000 0.000000
# 2 -0.003685 0.013980 -0.002550 0.000000 0.000000 0.000000
# 3 -0.014298 -0.002550 0.022120 0.000000 0.000000 0.000000
# 4 0.000000 0.000000 0.000000 -0.195670 0.000000 0.000000
# 5 0.000000 0.000000 0.000000 0.000000 0.028945 0.000000
# 6 0.000000 0.000000 0.000000 0.000000 0.000000 0.054414
#
#
# Mechanical properties :
#
#
# Convention : Reuss Voigt Hill
#
# Bulk Modulus (GPa) = 42.14696 42.81897 42.48296
# Shear Modulus (GPa) = 3434.83740 18.02337 1726.43039
#
# Velocity S-wave (km/s) = 44.16576 3.19927 31.31173
# Velocity P-wave (km/s) = 51.23235 6.16146 36.48779
#
# Compressibility (1/GPa) = 0.02372650
#
# Stress axis : x y z
#
# Youngs Moduli (GPa) = 34.85297 71.53195 45.20764
#
# Poissons Ratio (x) = 0.26359 0.64637
# Poissons Ratio (y) = 0.12843 0.11528
# Poissons Ratio (z) = 0.49832 0.18240
#
# Static dielectric constant tensor:
#      x y z
#    x 3.413610 0.000000 0.000000 
#    y 0.000000 3.443120 0.000000 
#    z 0.000000 0.000000 3.541880 
# 
# 
# High freq. dielectric constant tensor:
#      x y z
#    x 1.655380 0.000000 0.000000 
#    y 0.000000 1.685240 0.000000 
#    z 0.000000 0.000000 1.645790 
# 
# From -- ./inp_files/32732.got.cif
#   From: 2010.03.12/outbox.cif.g09.slc.cpg/sg53_17_cif.got.tgz:32732.got - 2010.04.16 14:36:59.
