data_PCOD8217831
_publ_section_title
;
Structure prediction by ZEFSAII (Michael W. Deem and Ramdas Pophale) SiO2 
 PCOD8217831
Probable space group: P M N A
;
_chemical_formula_sum "Si O2"
_cell_formula_units_Z 64
_cell_length_a 9.497081
_cell_length_b 24.801559
_cell_length_c 14.585411
_cell_angle_alpha 90.000000
_cell_angle_beta 90.000000
_cell_angle_gamma 90.000000
_cell_volume 3435.482927
_symmetry_space_group_name_H-M "P M N A"
_symmetry_group_IT_number 53
_symmetry_cell_setting 'orthorhombic'
loop_
_space_group_symop_operation_xyz
x,y,z
1/2-x,-y,1/2+z
x,-y,-z
1/2-x,y,1/2-z
-x,-y,-z
1/2+x,y,1/2-z
-x,y,z
1/2+x,-y,1/2+z
loop_
_atom_site_type_symbol
_atom_site_label
_atom_site_fract_x
_atom_site_fract_y
_atom_site_fract_z
Si Si1 0.335684 0.678599 0.028712
Si Si2 0.162817 0.028861 0.663142
Si Si3 0.158436 0.407954 0.668694
Si Si4 0.164085 0.903917 0.661481
Si Si5 0.830784 0.775949 0.346380
Si Si6 0.166068 0.122664 0.535113
Si Si7 0.838277 0.479072 0.406304
Si Si8 0.831853 0.364374 0.339599
O O1 0.500000 0.688270 0.026112
O O2 0.297241 0.620723 0.073845
O O3 0.273409 0.727115 0.089503
O O4 0.285054 0.675393 0.922898
O O5 0.250000 0.048978 0.750000
O O6 0.212267 0.065199 0.577410
O O7 0.000000 0.039102 0.685773
O O8 0.192817 0.966740 0.641264
O O9 0.250000 0.383377 0.750000
O O10 0.176826 0.472306 0.665508
O O11 0.000000 0.391747 0.692640
O O12 0.250000 0.883443 0.750000
O O13 0.220504 0.872963 0.570351
O O14 0.000000 0.892976 0.680860
O O15 0.750000 0.773277 0.250000
O O16 0.779863 0.829206 0.400440
O O17 0.000000 0.774424 0.330186
O O18 0.000000 0.125486 0.528559
O O19 0.763564 0.500000 0.500000
O O20 0.774157 0.424645 0.363605
O O21 0.000000 0.465380 0.430459
O O22 0.750000 0.343729 0.250000
O O23 0.000000 0.363642 0.322595
#
# Coordination Sequence:
#
# PCOD8217831 Si02
#       8
#     8   8   8   8   8   8   8   8
#     4   9  18  33  52  70  92 125 160 189 227 284
#     4   9  16  27  45  69  96 126 159 195 236 282
#     4  10  18  29  47  70  93 120 153 187 227 274
#     4   9  17  30  47  68  95 127 162 197 233 277
#     4  10  20  35  54  75  97 123 156 194 237 283
#     4   9  17  30  49  70  94 127 162 194 234 287
#     4   9  15  27  48  69  91 124 159 187 221 277
#     4  10  19  33  52  72  95 125 161 197 233 276
#
# _framework density 18.629114000000001
#
# number of rings (size 3 to 8) (size 9 to 14) (size 15 to 20)
#    0.000    2.625    1.250    1.500    0.000    1.500 
#    0.000    3.125    0.000    3.750    0.000    0.000 
#    0.000    0.000    0.000    0.000    0.000    0.000 
#
# Total GULP energy -793099.859616 kJ/mol
# GULP energy per Si atom -12392.185306 kJ/mol
# Density = 1.858671 g / cm^3
# Si number density = 18.629114 Si / 1000 Ang^3
#
#
#
# Elastic Constant Matrix: (Units=GPa)
#
#
# Indices 1 2 3 4 5 6 
#
# 1 37.2853 19.4007 49.3013 0.0000 0.0000 0.0000
# 2 19.4007 70.3885 52.3350 0.0000 0.0000 0.0000
# 3 49.3013 52.3350 178.7632 0.0000 0.0000 0.0000
# 4 0.0000 0.0000 0.0000 27.3070 0.0000 0.0000
# 5 0.0000 0.0000 0.0000 0.0000 32.0230 0.0000
# 6 0.0000 0.0000 0.0000 0.0000 0.0000 12.4662
#
#
#
# Elastic Compliance Matrix: (Units=1/GPa)
#
#
# Indices 1 2 3 4 5 6 
#
# 1 0.043029 -0.003881 -0.010731 0.000000 0.000000 0.000000
# 2 -0.003881 0.018510 -0.004349 0.000000 0.000000 0.000000
# 3 -0.010731 -0.004349 0.009826 0.000000 0.000000 0.000000
# 4 0.000000 0.000000 0.000000 0.036621 0.000000 0.000000
# 5 0.000000 0.000000 0.000000 0.000000 0.031228 0.000000
# 6 0.000000 0.000000 0.000000 0.000000 0.000000 0.080217
#
#
# Mechanical properties :
#
#
# Convention : Reuss Voigt Hill
#
# Bulk Modulus (GPa) = 29.90073 58.72345 44.31209
# Shear Modulus (GPa) = 18.62206 25.38592 22.00399
#
# Velocity S-wave (km/s) = 3.16511 3.69548 3.44053
# Velocity P-wave (km/s) = 5.42610 7.05689 6.29453
#
# Compressibility (1/GPa) = 0.03344400
#
# Stress axis : x y z
#
# Youngs Moduli (GPa) = 23.24039 54.02525 101.76590
#
# Poissons Ratio (x) = 0.20969 1.09201
# Poissons Ratio (y) = 0.09020 0.44253
# Poissons Ratio (z) = 0.24938 0.23493
#
# Static dielectric constant tensor:
#      x y z
#    x 3.003430 0.000000 0.000000 
#    y 0.000000 3.488910 0.000000 
#    z 0.000000 0.000000 3.648180 
# 
# 
# High freq. dielectric constant tensor:
#      x y z
#    x 1.670110 0.000000 0.000000 
#    y 0.000000 1.713330 0.000000 
#    z 0.000000 0.000000 1.736030 
# 
# From -- ./inp_files/15037.got.cif
#   From: 2010.03.12/outbox.cif.g09.slc.cpg/sg53_8_cif.got.tgz:15037.got - 2010.04.16 14:36:59.
