data_PCOD8217058
_publ_section_title
;
Structure prediction by ZEFSAII (Michael W. Deem and Ramdas Pophale) SiO2 
 PCOD8217058
Probable space group: P N N A
;
_chemical_formula_sum "Si O2"
_cell_formula_units_Z 60
_cell_length_a 12.639774
_cell_length_b 23.585919
_cell_length_c 8.917111
_cell_angle_alpha 90.000000
_cell_angle_beta 90.000000
_cell_angle_gamma 90.000000
_cell_volume 2658.375246
_symmetry_space_group_name_H-M "P N N A"
_symmetry_group_IT_number 52
_symmetry_cell_setting 'orthorhombic'
loop_
_space_group_symop_operation_xyz
x,y,z
1/2-x,-y,z
x,1/2-y,1/2-z
1/2-x,1/2+y,1/2-z
-x,-y,-z
1/2+x,y,-z
-x,1/2+y,1/2+z
1/2+x,1/2-y,1/2+z
loop_
_atom_site_type_symbol
_atom_site_label
_atom_site_fract_x
_atom_site_fract_y
_atom_site_fract_z
Si Si1 0.717111 0.719668 0.525480
Si Si2 0.365140 0.750000 0.750000
Si Si3 0.991448 0.812932 0.693514
Si Si4 0.236020 0.327904 0.176369
Si Si5 0.393511 0.109081 0.494047
Si Si6 0.213432 0.562796 0.733006
Si Si7 0.065943 0.126165 0.736041
Si Si8 0.443169 0.128399 0.962962
O O1 0.793733 0.729185 0.386582
O O2 0.772548 0.675916 0.643642
O O3 0.691086 0.777555 0.611454
O O4 0.607805 0.690986 0.479037
O O5 0.436460 0.805420 0.711736
O O6 0.013400 0.750000 0.750000
O O7 0.088391 0.832351 0.588416
O O8 0.976931 0.859586 0.826436
O O9 0.880332 0.818898 0.604407
O O10 0.294655 0.384647 0.120901
O O11 0.360409 0.061709 0.616626
O O12 0.499984 0.095738 0.399114
O O13 0.250000 0.500000 0.695667
O O14 0.314139 0.603657 0.761307
O O15 0.146692 0.583317 0.588016
O O16 0.005254 0.108624 0.889427
#
# Coordination Sequence:
#
# PCOD8217058 Si02
#       8
#     8   4   8   8   8   8   8   8
#     4  11  21  37  57  91 140 179 217 263 323 412
#     4  12  24  38  66 106 148 186 218 266 350 430
#     4  11  22  35  58  89 135 181 214 257 327 408
#     4  11  22  37  58  93 142 177 220 265 327 418
#     4  11  24  42  65  98 130 175 229 284 348 421
#     4  11  27  52  73  95 134 183 242 313 361 410
#     4  12  26  42  71 103 142 182 229 287 357 429
#     4  11  25  42  64  99 130 177 233 284 347 413
#
# _framework density 22.570176
#
# number of rings (size 3 to 8) (size 9 to 14) (size 15 to 20)
#    0.000    0.800    4.000    4.000    6.533    1.067 
#    0.000    0.667    0.000    0.000    0.000    0.000 
#    0.000    0.000    0.000    0.000    0.000    0.000 
#
# Total GULP energy -743527.162476 kJ/mol
# GULP energy per Si atom -12392.119375 kJ/mol
# Density = 2.251881 g / cm^3
# Si number density = 22.570176 Si / 1000 Ang^3
#
#
#
# Elastic Constant Matrix: (Units=GPa)
#
#
# Indices 1 2 3 4 5 6 
#
# 1 78.3344 13.9048 29.2248 0.0000 0.0000 0.0000
# 2 13.9048 61.5852 2.1608 0.0000 0.0000 0.0000
# 3 29.2248 2.1608 114.3744 0.0000 0.0000 0.0000
# 4 0.0000 0.0000 0.0000 18.4836 0.0000 0.0000
# 5 0.0000 0.0000 0.0000 0.0000 40.3059 0.0000
# 6 0.0000 0.0000 0.0000 0.0000 0.0000 16.8763
#
#
#
# Elastic Compliance Matrix: (Units=1/GPa)
#
#
# Indices 1 2 3 4 5 6 
#
# 1 0.014712 -0.003192 -0.003699 0.000000 0.000000 0.000000
# 2 -0.003192 0.016941 0.000496 0.000000 0.000000 0.000000
# 3 -0.003699 0.000496 0.009679 0.000000 0.000000 0.000000
# 4 0.000000 0.000000 0.000000 0.054102 0.000000 0.000000
# 5 0.000000 0.000000 0.000000 0.000000 0.024810 0.000000
# 6 0.000000 0.000000 0.000000 0.000000 0.000000 0.059255
#
#
# Mechanical properties :
#
#
# Convention : Reuss Voigt Hill
#
# Bulk Modulus (GPa) = 35.03666 38.31942 36.67804
# Shear Modulus (GPa) = 24.77649 29.06672 26.92161
#
# Velocity S-wave (km/s) = 3.31683 3.59254 3.45743
# Velocity P-wave (km/s) = 5.49778 5.85006 5.67666
#
# Compressibility (1/GPa) = 0.02854153
#
# Stress axis : x y z
#
# Youngs Moduli (GPa) = 67.96994 59.02843 103.31634
#
# Poissons Ratio (x) = 0.18842 0.38217
# Poissons Ratio (y) = 0.21696 -0.05120
# Poissons Ratio (z) = 0.25142 -0.02925
#
# Static dielectric constant tensor:
#      x y z
#    x 4.062130 0.000000 0.000000 
#    y 0.000000 3.496750 0.000000 
#    z 0.000000 0.000000 4.451880 
# 
# 
# High freq. dielectric constant tensor:
#      x y z
#    x 1.898750 0.000000 0.000000 
#    y 0.000000 1.825300 0.000000 
#    z 0.000000 0.000000 1.913100 
# 
# From -- ./inp_files/9040.got.cif
#   From: 2010.06.25/outbox.cif.g09.slc.cpg/sg52_5_cif.got.tgz:9040.got - 2010.06.26 19:32:48.
