data_PCOD8217642
_publ_section_title
;
Structure prediction by ZEFSAII (Michael W. Deem and Ramdas Pophale) SiO2 
 PCOD8217642
Probable space group: P M N A
;
_chemical_formula_sum "Si O2"
_cell_formula_units_Z 40
_cell_length_a 16.832766
_cell_length_b 10.239324
_cell_length_c 15.070678
_cell_angle_alpha 90.000000
_cell_angle_beta 90.000000
_cell_angle_gamma 90.000000
_cell_volume 2597.523961
_symmetry_space_group_name_H-M "P M N A"
_symmetry_group_IT_number 53
_symmetry_cell_setting 'orthorhombic'
loop_
_space_group_symop_operation_xyz
x,y,z
1/2-x,-y,1/2+z
x,-y,-z
1/2-x,y,1/2-z
-x,-y,-z
1/2+x,y,1/2-z
-x,y,z
1/2+x,-y,1/2+z
loop_
_atom_site_type_symbol
_atom_site_label
_atom_site_fract_x
_atom_site_fract_y
_atom_site_fract_z
Si Si1 0.206839 0.008012 0.596553
Si Si2 0.130356 0.887432 0.072154
Si Si3 0.909653 0.640664 0.962125
Si Si4 0.694245 0.773325 0.675669
Si Si5 0.088925 0.008855 0.250207
O O1 0.252111 0.872341 0.618141
O O2 0.143284 0.049158 0.670659
O O3 0.164473 0.000000 0.500000
O O4 0.275062 0.118487 0.590608
O O5 0.086865 0.913955 0.165308
O O6 0.099784 0.748860 0.038309
O O7 0.109261 0.000000 0.000000
O O8 0.846117 0.663459 0.884121
O O9 0.000000 0.644683 0.925813
O O10 0.888600 0.500000 0.000000
O O11 0.750000 0.705553 0.750000
O O12 0.623073 0.851216 0.722654
O O13 0.000000 0.026240 0.286848
#
# Coordination Sequence:
#
# PCOD8217642 Si02
#       5
#     8   8   8   8   8
#     4   9  16  30  48  68  92 127 161 199 226 279
#     4  10  17  31  50  67  94 128 152 188 239 297
#     4  11  21  31  48  75 102 120 151 204 247 275
#     4   9  17  31  48  66  95 130 161 186 230 291
#     4  10  18  26  46  75  98 121 159 198 239 282
#
# _framework density 15.399281
#
# number of rings (size 3 to 8) (size 9 to 14) (size 15 to 20)
#    0.000    2.200    6.000    3.000    0.000    1.200 
#    0.000    2.000    0.000    0.000    0.000    0.000 
#    0.000    5.600    0.000    0.000    0.000    0.000 
#
# Total GULP energy -495766.655667 kJ/mol
# GULP energy per Si atom -12394.166392 kJ/mol
# Density = 1.536423 g / cm^3
# Si number density = 15.399281 Si / 1000 Ang^3
#
#
#
# Elastic Constant Matrix: (Units=GPa)
#
#
# Indices 1 2 3 4 5 6 
#
# 1 96.7317 34.7593 56.5906 0.0000 0.0000 0.0000
# 2 34.7593 79.3378 29.4821 0.0000 0.0000 0.0000
# 3 56.5906 29.4821 99.1897 0.0000 0.0000 0.0000
# 4 0.0000 0.0000 0.0000 15.8822 0.0000 0.0000
# 5 0.0000 0.0000 0.0000 0.0000 19.7759 0.0000
# 6 0.0000 0.0000 0.0000 0.0000 0.0000 15.0221
#
#
#
# Elastic Compliance Matrix: (Units=1/GPa)
#
#
# Indices 1 2 3 4 5 6 
#
# 1 0.016699 -0.004245 -0.008265 0.000000 0.000000 0.000000
# 2 -0.004245 0.015248 -0.002111 0.000000 0.000000 0.000000
# 3 -0.008265 -0.002111 0.015425 0.000000 0.000000 0.000000
# 4 0.000000 0.000000 0.000000 0.062964 0.000000 0.000000
# 5 0.000000 0.000000 0.000000 0.000000 0.050567 0.000000
# 6 0.000000 0.000000 0.000000 0.000000 0.000000 0.066569
#
#
# Mechanical properties :
#
#
# Convention : Reuss Voigt Hill
#
# Bulk Modulus (GPa) = 55.15591 57.43591 56.29591
# Shear Modulus (GPa) = 19.02913 20.43118 19.73015
#
# Velocity S-wave (km/s) = 3.51909 3.64643 3.58332
# Velocity P-wave (km/s) = 7.23926 7.42343 7.33193
#
# Compressibility (1/GPa) = 0.01813042
#
# Stress axis : x y z
#
# Youngs Moduli (GPa) = 59.88535 65.58135 64.83114
#
# Poissons Ratio (x) = 0.27836 0.53586
# Poissons Ratio (y) = 0.25418 0.13683
# Poissons Ratio (z) = 0.49498 0.13842
#
# Static dielectric constant tensor:
#      x y z
#    x 2.993510 0.000000 0.000000 
#    y 0.000000 2.559900 0.000000 
#    z 0.000000 0.000000 3.175430 
# 
# 
# High freq. dielectric constant tensor:
#      x y z
#    x 1.593300 0.000000 0.000000 
#    y 0.000000 1.541480 0.000000 
#    z 0.000000 0.000000 1.598070 
# 
# From -- ./inp_files/23439.got.cif
#   From: 2010.03.12/outbox.cif.g09.slc.cpg/sg53_12_cif.got.tgz:23439.got - 2010.04.16 14:36:59.
