data_PCOD8217226
_publ_section_title
;
Structure prediction by ZEFSAII (Michael W. Deem and Ramdas Pophale) SiO2 
 PCOD8217226
Probable space group: P N N A
;
_chemical_formula_sum "Si O2"
_cell_formula_units_Z 40
_cell_length_a 18.428087
_cell_length_b 8.186248
_cell_length_c 11.439659
_cell_angle_alpha 90.000000
_cell_angle_beta 90.000000
_cell_angle_gamma 90.000000
_cell_volume 1725.751383
_symmetry_space_group_name_H-M "P N N A"
_symmetry_group_IT_number 52
_symmetry_cell_setting 'orthorhombic'
loop_
_space_group_symop_operation_xyz
x,y,z
1/2-x,-y,z
x,1/2-y,1/2-z
1/2-x,1/2+y,1/2-z
-x,-y,-z
1/2+x,y,-z
-x,1/2+y,1/2+z
1/2+x,1/2-y,1/2+z
loop_
_atom_site_type_symbol
_atom_site_label
_atom_site_fract_x
_atom_site_fract_y
_atom_site_fract_z
Si Si1 0.322992 0.572689 0.009213
Si Si2 0.893201 0.068863 0.298218
Si Si3 0.547149 0.540780 0.848479
Si Si4 0.440696 0.094714 0.078267
Si Si5 0.171417 0.438473 0.576603
O O1 0.250000 0.500000 0.069533
O O2 0.389008 0.568652 0.099877
O O3 0.332332 0.457944 0.895605
O O4 0.318837 0.758436 0.970887
O O5 0.887232 0.250000 0.250000
O O6 0.968702 0.040214 0.366466
O O7 0.881458 0.942589 0.190509
O O8 0.545413 0.712065 0.917743
O O9 0.560350 0.538033 0.710871
O O10 0.500000 0.000000 0.000000
O O11 0.362036 0.056672 0.022983
O O12 0.250000 0.500000 0.615456
#
# Coordination Sequence:
#
# PCOD8217226 Si02
#       5
#     8   8   8   8   8
#     4  12  27  46  70 107 148 189 243 297 366 441
#     4  12  25  44  73 106 144 188 246 301 363 426
#     4  11  26  44  73 107 145 189 240 298 357 433
#     4  11  23  45  74 104 145 188 242 295 358 428
#     4  12  26  46  74 102 144 193 240 304 368 428
#
# _framework density 23.17831
#
# number of rings (size 3 to 8) (size 9 to 14) (size 15 to 20)
#    0.000    0.400    2.000    6.600    5.600    0.800 
#    0.000    0.000    0.000    0.000    0.000    0.000 
#    0.000    0.000    0.000    0.000    0.000    0.000 
#
# Total GULP energy -496081.074284 kJ/mol
# GULP energy per Si atom -12402.026857 kJ/mol
# Density = 2.312556 g / cm^3
# Si number density = 23.178310 Si / 1000 Ang^3
#
#
#
# Elastic Constant Matrix: (Units=GPa)
#
#
# Indices 1 2 3 4 5 6 
#
# 1 139.6707 41.1585 56.4475 0.0000 0.0000 0.0000
# 2 41.1585 95.0922 63.9586 0.0000 0.0000 0.0000
# 3 56.4475 63.9586 93.8360 0.0000 0.0000 0.0000
# 4 0.0000 0.0000 0.0000 28.8966 0.0000 0.0000
# 5 0.0000 0.0000 0.0000 0.0000 42.9575 0.0000
# 6 0.0000 0.0000 0.0000 0.0000 0.0000 40.3535
#
#
#
# Elastic Compliance Matrix: (Units=1/GPa)
#
#
# Indices 1 2 3 4 5 6 
#
# 1 0.009472 -0.000494 -0.005361 0.000000 0.000000 0.000000
# 2 -0.000494 0.019444 -0.012956 0.000000 0.000000 0.000000
# 3 -0.005361 -0.012956 0.022713 0.000000 0.000000 0.000000
# 4 0.000000 0.000000 0.000000 0.034606 0.000000 0.000000
# 5 0.000000 0.000000 0.000000 0.000000 0.023279 0.000000
# 6 0.000000 0.000000 0.000000 0.000000 0.000000 0.024781
#
#
# Mechanical properties :
#
#
# Convention : Reuss Voigt Hill
#
# Bulk Modulus (GPa) = 71.39493 72.41424 71.90459
# Shear Modulus (GPa) = 28.31483 33.57714 30.94599
#
# Velocity S-wave (km/s) = 3.49894 3.81024 3.65790
# Velocity P-wave (km/s) = 6.86970 7.11809 6.99500
#
# Compressibility (1/GPa) = 0.01400660
#
# Stress axis : x y z
#
# Youngs Moduli (GPa) = 105.57447 51.42992 44.02780
#
# Poissons Ratio (x) = 0.02539 0.23605
# Poissons Ratio (y) = 0.05212 0.57043
# Poissons Ratio (z) = 0.56603 0.66633
#
# Static dielectric constant tensor:
#      x y z
#    x 4.422460 0.000000 0.000000 
#    y 0.000000 4.136470 0.000000 
#    z 0.000000 0.000000 4.505830 
# 
# 
# High freq. dielectric constant tensor:
#      x y z
#    x 1.925270 0.000000 0.000000 
#    y 0.000000 1.921310 0.000000 
#    z 0.000000 0.000000 1.929760 
# 
# From -- ./inp_files/20314.got.cif
#   From: 2010.06.25/outbox.cif.g09.slc.cpg/sg52_11_cif.got.tgz:20314.got - 2010.06.26 19:32:48.
