data_PCOD8217860
_publ_section_title
;
Structure prediction by ZEFSAII (Michael W. Deem and Ramdas Pophale) SiO2 
 PCOD8217860
Probable space group: P M N A
;
_chemical_formula_sum "Si O2"
_cell_formula_units_Z 64
_cell_length_a 8.833197
_cell_length_b 21.406766
_cell_length_c 19.002288
_cell_angle_alpha 90.000000
_cell_angle_beta 90.000000
_cell_angle_gamma 90.000000
_cell_volume 3593.146081
_symmetry_space_group_name_H-M "P M N A"
_symmetry_group_IT_number 53
_symmetry_cell_setting 'orthorhombic'
loop_
_space_group_symop_operation_xyz
x,y,z
1/2-x,-y,1/2+z
x,-y,-z
1/2-x,y,1/2-z
-x,-y,-z
1/2+x,y,1/2-z
-x,y,z
1/2+x,-y,1/2+z
loop_
_atom_site_type_symbol
_atom_site_label
_atom_site_fract_x
_atom_site_fract_y
_atom_site_fract_z
Si Si1 0.332593 0.181922 0.477087
Si Si2 0.675655 0.934113 0.036135
Si Si3 0.681714 0.897000 0.321471
Si Si4 0.677011 0.698032 0.937709
Si Si5 0.324278 0.402607 0.174757
Si Si6 0.818654 0.644708 0.075887
Si Si7 0.835052 0.767977 0.133413
Si Si8 0.179241 0.515668 0.420961
O O1 0.500000 0.168884 0.445290
O O2 0.240342 0.117478 0.482306
O O3 0.244811 0.232356 0.428980
O O4 0.350573 0.211392 0.553140
O O5 0.500000 0.920291 0.049703
O O6 0.760628 0.935327 0.111230
O O7 0.703794 0.000000 0.000000
O O8 0.750000 0.926624 0.250000
O O9 0.500000 0.898780 0.321310
O O10 0.747312 0.825064 0.326115
O O11 0.500000 0.702607 0.954954
O O12 0.708892 0.662243 0.864993
O O13 0.753198 0.656993 0.998633
O O14 0.250000 0.399890 0.250000
O O15 0.500000 0.413108 0.185782
O O16 0.261026 0.460772 0.129536
O O17 0.757646 0.699255 0.130389
O O18 0.760001 0.578958 0.104874
O O19 0.000000 0.646770 0.072351
O O20 0.000000 0.760676 0.168126
O O21 0.230948 0.500000 0.500000
O O22 0.000000 0.524868 0.417224
#
# Coordination Sequence:
#
# PCOD8217860 Si02
#       8
#     8   8   8   8   8   8   8   8
#     4   9  17  30  50  78 106 132 166 211 257 302
#     4  10  20  34  54  82 114 148 186 224 264 316
#     4  10  19  33  53  76 107 145 184 226 272 321
#     4  10  18  32  52  74 100 133 167 209 265 315
#     4  10  22  37  53  72  99 135 171 218 273 327
#     4  10  18  29  49  77 101 126 168 218 261 305
#     4   7  14  28  44  67  99 128 158 203 251 299
#     4  10  19  35  52  70 100 134 174 218 267 325
#
# _framework density 17.811689000000001
#
# number of rings (size 3 to 8) (size 9 to 14) (size 15 to 20)
#    0.000    2.500    1.250    3.375    0.000    2.750 
#    0.000    2.500    0.000    3.750    0.000    3.500 
#    0.000    0.000    0.000    0.000    0.000    0.000 
#
# Total GULP energy -793113.862527 kJ/mol
# GULP energy per Si atom -12392.404102 kJ/mol
# Density = 1.777115 g / cm^3
# Si number density = 17.811689 Si / 1000 Ang^3
#
#
#
# Elastic Constant Matrix: (Units=GPa)
#
#
# Indices 1 2 3 4 5 6 
#
# 1 85.8517 53.2475 38.8816 0.0000 0.0000 0.0000
# 2 53.2475 123.5919 43.8154 0.0000 0.0000 0.0000
# 3 38.8816 43.8154 86.4062 0.0000 0.0000 0.0000
# 4 0.0000 0.0000 0.0000 90.8967 0.0000 0.0000
# 5 0.0000 0.0000 0.0000 0.0000 23.3767 0.0000
# 6 0.0000 0.0000 0.0000 0.0000 0.0000 28.0848
#
#
#
# Elastic Compliance Matrix: (Units=1/GPa)
#
#
# Indices 1 2 3 4 5 6 
#
# 1 0.017463 -0.005776 -0.004929 0.000000 0.000000 0.000000
# 2 -0.005776 0.011775 -0.003372 0.000000 0.000000 0.000000
# 3 -0.004929 -0.003372 0.015501 0.000000 0.000000 0.000000
# 4 0.000000 0.000000 0.000000 0.011002 0.000000 0.000000
# 5 0.000000 0.000000 0.000000 0.000000 0.042778 0.000000
# 6 0.000000 0.000000 0.000000 0.000000 0.000000 0.035606
#
#
# Mechanical properties :
#
#
# Convention : Reuss Voigt Hill
#
# Bulk Modulus (GPa) = 60.29545 63.08207 61.68876
# Shear Modulus (GPa) = 29.79617 39.13198 34.46408
#
# Velocity S-wave (km/s) = 4.09448 4.69228 4.40354
# Velocity P-wave (km/s) = 7.50187 8.05293 7.78228
#
# Compressibility (1/GPa) = 0.01658500
#
# Stress axis : x y z
#
# Youngs Moduli (GPa) = 57.26444 84.92528 64.51184
#
# Poissons Ratio (x) = 0.49054 0.31798
# Poissons Ratio (y) = 0.33077 0.21752
# Poissons Ratio (z) = 0.28226 0.28635
#
# Static dielectric constant tensor:
#      x y z
#    x 3.298140 0.000000 0.000000 
#    y 0.000000 3.524850 0.000000 
#    z 0.000000 0.000000 2.979830 
# 
# 
# High freq. dielectric constant tensor:
#      x y z
#    x 1.688330 0.000000 0.000000 
#    y 0.000000 1.692560 0.000000 
#    z 0.000000 0.000000 1.653520 
# 
# From -- ./inp_files/26971.got.cif
#   From: 2010.03.12/outbox.cif.g09.slc.cpg/sg53_14_cif.got.tgz:26971.got - 2010.04.16 14:36:59.
