data_PCOD8217485
_publ_section_title
;
Structure prediction by ZEFSAII (Michael W. Deem and Ramdas Pophale) SiO2 
 PCOD8217485
Probable space group: P M N A
;
_chemical_formula_sum "Si O2"
_cell_formula_units_Z 52
_cell_length_a 23.341523
_cell_length_b 12.713348
_cell_length_c 9.489096
_cell_angle_alpha 90.000000
_cell_angle_beta 90.000000
_cell_angle_gamma 90.000000
_cell_volume 2815.878845
_symmetry_space_group_name_H-M "P M N A"
_symmetry_group_IT_number 53
_symmetry_cell_setting 'orthorhombic'
loop_
_space_group_symop_operation_xyz
x,y,z
1/2-x,-y,1/2+z
x,-y,-z
1/2-x,y,1/2-z
-x,-y,-z
1/2+x,y,1/2-z
-x,y,z
1/2+x,-y,1/2+z
loop_
_atom_site_type_symbol
_atom_site_label
_atom_site_fract_x
_atom_site_fract_y
_atom_site_fract_z
Si Si1 0.000000 0.240840 0.002095
Si Si2 0.377587 0.865056 0.117305
Si Si3 0.500000 0.928512 0.716598
Si Si4 0.371782 0.726570 0.586146
Si Si5 0.000000 0.154907 0.712953
Si Si6 0.184907 0.700346 0.207802
Si Si7 0.877969 0.094648 0.305952
Si Si8 0.696649 0.469919 0.341861
O O1 0.060156 0.291793 0.056451
O O2 0.000000 0.122681 0.062009
O O3 0.000000 0.246552 0.831838
O O4 0.445450 0.844775 0.112139
O O5 0.351992 0.760531 0.179401
O O6 0.362037 0.969850 0.210579
O O7 0.354095 0.872295 0.958343
O O8 0.553800 0.892908 0.809581
O O9 0.500000 0.051963 0.688577
O O10 0.333478 0.742205 0.446329
O O11 0.355572 0.829267 0.681023
O O12 0.351655 0.619926 0.663360
O O13 0.250000 0.724480 0.250000
O O14 0.170954 0.576643 0.224968
O O15 0.717294 0.500000 0.500000
O O16 0.750000 0.429106 0.250000
#
# Coordination Sequence:
#
# PCOD8217485 Si02
#       8
#     4   8   4   8   4   8   8   8
#     4  10  17  30  52  87 114 141 179 227 281 335
#     4  10  19  34  52  80 110 146 183 220 272 324
#     4   8  16  28  47  77 111 143 180 222 254 320
#     4  10  20  36  57  85 114 144 183 227 282 332
#     4  10  16  28  54  77 109 146 187 215 269 329
#     4  10  21  38  55  75 106 139 185 234 268 324
#     4   9  19  32  52  79 113 144 178 222 270 326
#     4   9  20  38  59  80 103 137 187 232 272 323
#
# _framework density 18.466704
#
# number of rings (size 3 to 8) (size 9 to 14) (size 15 to 20)
#    0.000    2.462    1.538    0.692    0.000    6.154 
#    0.000    8.077    0.000    0.000    0.000    4.846 
#    0.000    0.000    0.000    0.000    0.000    0.000 
#
# Total GULP energy -644185.544329 kJ/mol
# GULP energy per Si atom -12388.183545 kJ/mol
# Density = 1.842467 g / cm^3
# Si number density = 18.466704 Si / 1000 Ang^3
#
#
#
# Elastic Constant Matrix: (Units=GPa)
#
#
# Indices 1 2 3 4 5 6 
#
# 1 86.5726 47.4116 35.1307 0.0000 0.0000 0.0000
# 2 47.4116 80.6632 38.8090 0.0000 0.0000 0.0000
# 3 35.1307 38.8090 72.9291 0.0000 0.0000 0.0000
# 4 0.0000 0.0000 0.0000 31.6559 0.0000 0.0000
# 5 0.0000 0.0000 0.0000 0.0000 26.8497 0.0000
# 6 0.0000 0.0000 0.0000 0.0000 0.0000 28.7891
#
#
#
# Elastic Compliance Matrix: (Units=1/GPa)
#
#
# Indices 1 2 3 4 5 6 
#
# 1 0.017887 -0.008559 -0.004061 0.000000 0.000000 0.000000
# 2 -0.008559 0.020759 -0.006924 0.000000 0.000000 0.000000
# 3 -0.004061 -0.006924 0.019353 0.000000 0.000000 0.000000
# 4 0.000000 0.000000 0.000000 0.031590 0.000000 0.000000
# 5 0.000000 0.000000 0.000000 0.000000 0.037244 0.000000
# 6 0.000000 0.000000 0.000000 0.000000 0.000000 0.034735
#
#
# Mechanical properties :
#
#
# Convention : Reuss Voigt Hill
#
# Bulk Modulus (GPa) = 52.88282 53.65194 53.26738
# Shear Modulus (GPa) = 24.15918 25.37983 24.76950
#
# Velocity S-wave (km/s) = 3.62091 3.71125 3.66636
# Velocity P-wave (km/s) = 6.79561 6.89064 6.84329
#
# Compressibility (1/GPa) = 0.01890973
#
# Stress axis : x y z
#
# Youngs Moduli (GPa) = 55.90803 48.17103 51.67169
#
# Poissons Ratio (x) = 0.41230 0.20986
# Poissons Ratio (y) = 0.47853 0.35777
# Poissons Ratio (z) = 0.22706 0.33354
#
# Static dielectric constant tensor:
#      x y z
#    x 3.479600 0.000000 0.000000 
#    y 0.000000 3.457280 0.000000 
#    z 0.000000 0.000000 3.371640 
# 
# 
# High freq. dielectric constant tensor:
#      x y z
#    x 1.699520 0.000000 0.000000 
#    y 0.000000 1.707220 0.000000 
#    z 0.000000 0.000000 1.716510 
# 
# From -- ./inp_files/12529.got.cif
#   From: 2010.03.12/outbox.cif.g09.slc.cpg/sg53_7_cif.got.tgz:12529.got - 2010.04.16 14:36:59.
