data_PCOD8217973
_publ_section_title
;
Structure prediction by ZEFSAII (Michael W. Deem and Ramdas Pophale) SiO2 
 PCOD8217973
Probable space group: P M N A
;
_chemical_formula_sum "Si O2"
_cell_formula_units_Z 40
_cell_length_a 18.562580
_cell_length_b 9.176150
_cell_length_c 11.763983
_cell_angle_alpha 90.000000
_cell_angle_beta 90.000000
_cell_angle_gamma 90.000000
_cell_volume 2003.794734
_symmetry_space_group_name_H-M "P M N A"
_symmetry_group_IT_number 53
_symmetry_cell_setting 'orthorhombic'
loop_
_space_group_symop_operation_xyz
x,y,z
1/2-x,-y,1/2+z
x,-y,-z
1/2-x,y,1/2-z
-x,-y,-z
1/2+x,y,1/2-z
-x,y,z
1/2+x,-y,1/2+z
loop_
_atom_site_type_symbol
_atom_site_label
_atom_site_fract_x
_atom_site_fract_y
_atom_site_fract_z
Si Si1 0.183046 0.344456 0.447498
Si Si2 0.158777 0.331272 0.028937
Si Si3 0.918805 0.256397 0.812615
Si Si4 0.082162 0.141217 0.576223
Si Si5 0.417956 0.408799 0.256074
O O1 0.195951 0.500000 0.500000
O O2 0.262610 0.274113 0.429909
O O3 0.138118 0.261658 0.541398
O O4 0.138408 0.343159 0.332235
O O5 0.099275 0.321432 0.128107
O O6 0.163700 0.500000 0.000000
O O7 0.134077 0.234293 0.920203
O O8 0.905930 0.133098 0.714013
O O9 0.906417 0.418009 0.762214
O O10 0.000000 0.244270 0.858966
O O11 0.000000 0.191371 0.553591
O O12 0.099281 0.000000 0.500000
O O13 0.500000 0.372267 0.220153
#
# Coordination Sequence:
#
# PCOD8217973 Si02
#       5
#     8   8   8   8   8
#     4  11  20  32  54  82 112 140 181 233 289 336
#     4   9  19  31  50  80 113 146 183 231 283 336
#     4   9  17  32  54  79 109 146 187 228 276 336
#     4  10  21  36  55  80 109 144 186 228 276 333
#     4  10  18  30  52  81 112 144 183 232 279 331
#
# _framework density 19.962125
#
# number of rings (size 3 to 8) (size 9 to 14) (size 15 to 20)
#    0.000    2.200    2.000    1.800    0.000    4.000 
#    0.000    0.000    8.800    0.000    0.000    5.600 
#    0.000    0.000    0.000    0.000    0.000    0.000 
#
# Total GULP energy -495602.060619 kJ/mol
# GULP energy per Si atom -12390.051515 kJ/mol
# Density = 1.991669 g / cm^3
# Si number density = 19.962125 Si / 1000 Ang^3
#
#
#
# Elastic Constant Matrix: (Units=GPa)
#
#
# Indices 1 2 3 4 5 6 
#
# 1 137.4255 26.5112 73.7951 0.0000 0.0000 0.0000
# 2 26.5112 29.6497 29.2012 0.0000 0.0000 0.0000
# 3 73.7951 29.2012 140.9382 0.0000 0.0000 0.0000
# 4 0.0000 0.0000 0.0000 32.9506 0.0000 0.0000
# 5 0.0000 0.0000 0.0000 0.0000 59.3515 0.0000
# 6 0.0000 0.0000 0.0000 0.0000 0.0000 26.0795
#
#
#
# Elastic Compliance Matrix: (Units=1/GPa)
#
#
# Indices 1 2 3 4 5 6 
#
# 1 0.010701 -0.005088 -0.004549 0.000000 0.000000 0.000000
# 2 -0.005088 0.044793 -0.006617 0.000000 0.000000 0.000000
# 3 -0.004549 -0.006617 0.010848 0.000000 0.000000 0.000000
# 4 0.000000 0.000000 0.000000 0.030348 0.000000 0.000000
# 5 0.000000 0.000000 0.000000 0.000000 0.016849 0.000000
# 6 0.000000 0.000000 0.000000 0.000000 0.000000 0.038344
#
#
# Mechanical properties :
#
#
# Convention : Reuss Voigt Hill
#
# Bulk Modulus (GPa) = 29.55521 63.00314 46.27917
# Shear Modulus (GPa) = 25.55336 35.57671 30.56504
#
# Velocity S-wave (km/s) = 3.58172 4.22620 3.91724
# Velocity P-wave (km/s) = 5.65179 7.44609 6.61011
#
# Compressibility (1/GPa) = 0.03383498
#
# Stress axis : x y z
#
# Youngs Moduli (GPa) = 93.45068 22.32477 92.18356
#
# Poissons Ratio (x) = 0.11359 0.41932
# Poissons Ratio (y) = 0.47550 0.60994
# Poissons Ratio (z) = 0.42508 0.14771
#
# Static dielectric constant tensor:
#      x y z
#    x 3.851070 0.000000 0.000000 
#    y 0.000000 3.160620 0.000000 
#    z 0.000000 0.000000 3.742770 
# 
# 
# High freq. dielectric constant tensor:
#      x y z
#    x 1.792610 0.000000 0.000000 
#    y 0.000000 1.714170 0.000000 
#    z 0.000000 0.000000 1.787670 
# 
# From -- ./inp_files/16649.got.cif
#   From: 2010.03.12/outbox.cif.g09.slc.cpg/sg53_9_cif.got.tgz:16649.got - 2010.04.16 14:36:59.
