data_PCOD8217406
_publ_section_title
;
Structure prediction by ZEFSAII (Michael W. Deem and Ramdas Pophale) SiO2 
 PCOD8217406
Probable space group: P N N A
;
_chemical_formula_sum "Si O2"
_cell_formula_units_Z 40
_cell_length_a 11.533570
_cell_length_b 18.179820
_cell_length_c 8.586755
_cell_angle_alpha 90.000000
_cell_angle_beta 90.000000
_cell_angle_gamma 90.000000
_cell_volume 1800.455560
_symmetry_space_group_name_H-M "P N N A"
_symmetry_group_IT_number 52
_symmetry_cell_setting 'orthorhombic'
loop_
_space_group_symop_operation_xyz
x,y,z
1/2-x,-y,z
x,1/2-y,1/2-z
1/2-x,1/2+y,1/2-z
-x,-y,-z
1/2+x,y,-z
-x,1/2+y,1/2+z
1/2+x,1/2-y,1/2+z
loop_
_atom_site_type_symbol
_atom_site_label
_atom_site_fract_x
_atom_site_fract_y
_atom_site_fract_z
Si Si1 0.104831 0.101583 0.795322
Si Si2 0.865103 0.169608 0.699998
Si Si3 0.828987 0.324692 0.157334
Si Si4 0.519779 0.535564 0.167249
Si Si5 0.315182 0.571375 0.379518
O O1 0.206734 0.148339 0.721213
O O2 0.983368 0.124188 0.716560
O O3 0.113521 0.014861 0.757270
O O4 0.110598 0.110100 0.982700
O O5 0.899606 0.250000 0.750000
O O6 0.814701 0.180784 0.527437
O O7 0.768756 0.133052 0.809262
O O8 0.863070 0.250000 0.250000
O O9 0.932502 0.382124 0.180015
O O10 0.394602 0.537620 0.245531
O O11 0.500000 0.500000 0.000000
O O12 0.250000 0.500000 0.449332
#
# Coordination Sequence:
#
# PCOD8217406 Si02
#       5
#     8   8   8   8   8
#     4  12  26  47  76 107 145 197 253 306 373 451
#     4  12  28  47  72 106 151 191 247 309 374 452
#     4  12  27  48  74 109 151 194 248 311 386 448
#     4  12  24  47  79 107 147 197 255 313 373 450
#     4  12  25  45  75 107 147 191 248 309 373 440
#
# _framework density 22.216598999999999
#
# number of rings (size 3 to 8) (size 9 to 14) (size 15 to 20)
#    0.000    0.000    4.000    5.400    5.600    0.800 
#    0.000    0.000    0.000    0.000    0.000    0.000 
#    0.000    0.000    0.000    0.000    0.000    0.000 
#
# Total GULP energy -495929.895887 kJ/mol
# GULP energy per Si atom -12398.247397 kJ/mol
# Density = 2.216603 g / cm^3
# Si number density = 22.216599 Si / 1000 Ang^3
#
#
#
# Elastic Constant Matrix: (Units=GPa)
#
#
# Indices 1 2 3 4 5 6 
#
# 1 97.6399 39.7832 60.2680 0.0000 0.0000 0.0000
# 2 39.7832 132.0108 34.7540 0.0000 0.0000 0.0000
# 3 60.2680 34.7540 144.2447 0.0000 0.0000 0.0000
# 4 0.0000 0.0000 0.0000 40.3071 0.0000 0.0000
# 5 0.0000 0.0000 0.0000 0.0000 47.2801 0.0000
# 6 0.0000 0.0000 0.0000 0.0000 0.0000 19.5630
#
#
#
# Elastic Compliance Matrix: (Units=1/GPa)
#
#
# Indices 1 2 3 4 5 6 
#
# 1 0.014859 -0.003036 -0.005477 0.000000 0.000000 0.000000
# 2 -0.003036 0.008709 -0.000830 0.000000 0.000000 0.000000
# 3 -0.005477 -0.000830 0.009421 0.000000 0.000000 0.000000
# 4 0.000000 0.000000 0.000000 0.024810 0.000000 0.000000
# 5 0.000000 0.000000 0.000000 0.000000 0.021151 0.000000
# 6 0.000000 0.000000 0.000000 0.000000 0.000000 0.051117
#
#
# Mechanical properties :
#
#
# Convention : Reuss Voigt Hill
#
# Bulk Modulus (GPa) = 69.91404 71.50064 70.70734
# Shear Modulus (GPa) = 32.56914 37.36938 34.96926
#
# Velocity S-wave (km/s) = 3.83297 4.10573 3.97169
# Velocity P-wave (km/s) = 7.15028 7.39792 7.27515
#
# Compressibility (1/GPa) = 0.01430328
#
# Stress axis : x y z
#
# Youngs Moduli (GPa) = 67.29706 114.82969 106.14635
#
# Poissons Ratio (x) = 0.34864 0.58137
# Poissons Ratio (y) = 0.20433 0.08806
# Poissons Ratio (z) = 0.36859 0.09527
#
# Static dielectric constant tensor:
#      x y z
#    x 3.972380 0.000000 0.000000 
#    y 0.000000 4.294930 0.000000 
#    z 0.000000 0.000000 3.729480 
# 
# 
# High freq. dielectric constant tensor:
#      x y z
#    x 1.876310 0.000000 0.000000 
#    y 0.000000 1.890850 0.000000 
#    z 0.000000 0.000000 1.892130 
# 
# From -- ./inp_files/8491.got.cif
#   From: 2010.06.25/outbox.cif.g09.slc.cpg/sg52_5_cif.got.tgz:8491.got - 2010.06.26 19:32:48.
