data_PCOD8217914
_publ_section_title
;
Structure prediction by ZEFSAII (Michael W. Deem and Ramdas Pophale) SiO2 
 PCOD8217914
Probable space group: P M N A
;
_chemical_formula_sum "Si O2"
_cell_formula_units_Z 48
_cell_length_a 8.801928
_cell_length_b 19.335504
_cell_length_c 15.585772
_cell_angle_alpha 90.000000
_cell_angle_beta 90.000000
_cell_angle_gamma 90.000000
_cell_volume 2652.538080
_symmetry_space_group_name_H-M "P M N A"
_symmetry_group_IT_number 53
_symmetry_cell_setting 'orthorhombic'
loop_
_space_group_symop_operation_xyz
x,y,z
1/2-x,-y,1/2+z
x,-y,-z
1/2-x,y,1/2-z
-x,-y,-z
1/2+x,y,1/2-z
-x,y,z
1/2+x,-y,1/2+z
loop_
_atom_site_type_symbol
_atom_site_label
_atom_site_fract_x
_atom_site_fract_y
_atom_site_fract_z
Si Si1 0.175014 0.942070 0.337917
Si Si2 0.824148 0.429045 0.461690
Si Si3 0.674554 0.281318 0.002650
Si Si4 0.320901 0.147861 0.516858
Si Si5 0.175839 0.894634 0.660830
Si Si6 0.320921 0.664690 0.659276
O O1 0.250000 0.914549 0.250000
O O2 0.256578 0.909533 0.419767
O O3 0.000000 0.919770 0.337751
O O4 0.196329 0.023457 0.346319
O O5 0.757945 0.500000 0.500000
O O6 0.807345 0.362486 0.527411
O O7 0.727376 0.411661 0.376208
O O8 0.000000 0.438752 0.435661
O O9 0.500000 0.258667 0.002760
O O10 0.744383 0.277276 0.098856
O O11 0.768463 0.224321 0.948519
O O12 0.500000 0.142133 0.516062
O O13 0.257384 0.138373 0.421150
O O14 0.250000 0.867981 0.750000
O O15 0.000000 0.873086 0.660510
O O16 0.250000 0.677709 0.750000
O O17 0.500000 0.672872 0.661072
#
# Coordination Sequence:
#
# PCOD8217914 Si02
#       6
#     8   8   8   8   8   8
#     4  10  21  38  59  81 106 140 184 232 279 327
#     4   8  16  32  53  75 100 134 171 210 255 305
#     4   9  19  34  51  74 103 137 173 215 262 317
#     4  12  23  35  54  81 112 147 185 226 274 331
#     4  10  21  37  56  80 110 144 183 227 276 330
#     4  10  18  30  48  74 104 135 170 209 256 310
#
# _framework density 18.095877000000002
#
# number of rings (size 3 to 8) (size 9 to 14) (size 15 to 20)
#    1.000    1.167    0.000    4.500    0.000    5.000 
#    0.000    3.333    0.000    1.000    0.000    4.667 
#    0.000    0.000    0.000    0.000    0.000    0.000 
#
# Total GULP energy -594692.975345 kJ/mol
# GULP energy per Si atom -12389.436986 kJ/mol
# Density = 1.805469 g / cm^3
# Si number density = 18.095877 Si / 1000 Ang^3
#
#
#
# Elastic Constant Matrix: (Units=GPa)
#
#
# Indices 1 2 3 4 5 6 
#
# 1 127.3886 36.1723 27.6622 0.0000 0.0000 0.0000
# 2 36.1723 54.7623 17.6673 0.0000 0.0000 0.0000
# 3 27.6622 17.6673 54.8647 0.0000 0.0000 0.0000
# 4 0.0000 0.0000 0.0000 16.9749 0.0000 0.0000
# 5 0.0000 0.0000 0.0000 0.0000 31.4115 0.0000
# 6 0.0000 0.0000 0.0000 0.0000 0.0000 16.5116
#
#
#
# Elastic Compliance Matrix: (Units=1/GPa)
#
#
# Indices 1 2 3 4 5 6 
#
# 1 0.010174 -0.005652 -0.003309 0.000000 0.000000 0.000000
# 2 -0.005652 0.023518 -0.004723 0.000000 0.000000 0.000000
# 3 -0.003309 -0.004723 0.021416 0.000000 0.000000 0.000000
# 4 0.000000 0.000000 0.000000 0.058911 0.000000 0.000000
# 5 0.000000 0.000000 0.000000 0.000000 0.031836 0.000000
# 6 0.000000 0.000000 0.000000 0.000000 0.000000 0.060564
#
#
# Mechanical properties :
#
#
# Convention : Reuss Voigt Hill
#
# Bulk Modulus (GPa) = 36.05172 44.44657 40.24915
# Shear Modulus (GPa) = 20.57330 23.34718 21.96024
#
# Velocity S-wave (km/s) = 3.37546 3.59582 3.48738
# Velocity P-wave (km/s) = 5.92938 6.46954 6.20534
#
# Compressibility (1/GPa) = 0.02773792
#
# Stress axis : x y z
#
# Youngs Moduli (GPa) = 98.29366 42.52037 46.69373
#
# Poissons Ratio (x) = 0.24034 0.15452
# Poissons Ratio (y) = 0.55559 0.22055
# Poissons Ratio (z) = 0.32528 0.20084
#
# Static dielectric constant tensor:
#      x y z
#    x 3.428850 0.000000 0.000000 
#    y 0.000000 3.686930 0.000000 
#    z 0.000000 0.000000 3.107980 
# 
# 
# High freq. dielectric constant tensor:
#      x y z
#    x 1.715360 0.000000 0.000000 
#    y 0.000000 1.701070 0.000000 
#    z 0.000000 0.000000 1.666330 
# 
# From -- ./inp_files/20250.got.cif
#   From: 2010.03.12/outbox.cif.g09.slc.cpg/sg53_11_cif.got.tgz:20250.got - 2010.04.16 14:36:59.
