data_PCOD8217080
_publ_section_title
;
Structure prediction by ZEFSAII (Michael W. Deem and Ramdas Pophale) SiO2 
 PCOD8217080
Probable space group: P N N A
;
_chemical_formula_sum "Si O2"
_cell_formula_units_Z 60
_cell_length_a 16.820441
_cell_length_b 18.864650
_cell_length_c 8.840396
_cell_angle_alpha 90.000000
_cell_angle_beta 90.000000
_cell_angle_gamma 90.000000
_cell_volume 2805.161369
_symmetry_space_group_name_H-M "P N N A"
_symmetry_group_IT_number 52
_symmetry_cell_setting 'orthorhombic'
loop_
_space_group_symop_operation_xyz
x,y,z
1/2-x,-y,z
x,1/2-y,1/2-z
1/2-x,1/2+y,1/2-z
-x,-y,-z
1/2+x,y,-z
-x,1/2+y,1/2+z
1/2+x,1/2-y,1/2+z
loop_
_atom_site_type_symbol
_atom_site_label
_atom_site_fract_x
_atom_site_fract_y
_atom_site_fract_z
Si Si1 0.830890 0.198069 0.137034
Si Si2 0.720125 0.278724 0.916399
Si Si3 0.587355 0.486756 0.683223
Si Si4 0.083662 0.209448 0.898120
Si Si5 0.750000 0.000000 0.994240
Si Si6 0.812880 0.559678 0.947350
Si Si7 0.799218 0.606202 0.275537
Si Si8 0.535133 0.610131 0.491601
O O1 0.880141 0.250000 0.250000
O O2 0.757725 0.174336 0.252380
O O3 0.882262 0.129969 0.088812
O O4 0.796153 0.240571 0.992227
O O5 0.713219 0.250000 0.750000
O O6 0.723960 0.364108 0.902416
O O7 0.638451 0.260188 0.002177
O O8 0.672525 0.483667 0.602709
O O9 0.605854 0.463640 0.858012
O O10 0.552637 0.565412 0.646755
O O11 0.522319 0.432204 0.621392
O O12 0.057886 0.250000 0.750000
O O13 0.121861 0.132864 0.859165
O O14 0.002266 0.187467 0.978728
O O15 0.742194 0.934341 0.107459
O O16 0.750000 0.500000 0.903963
O O17 0.826291 0.561517 0.128757
#
# Coordination Sequence:
#
# PCOD8217080 Si02
#       8
#     8   8   8   8   4   8   8   8
#     4  11  23  44  67  97 135 175 226 282 344 407
#     4  11  24  40  72 100 127 173 243 293 328 396
#     4  11  25  43  66  97 134 174 227 279 326 415
#     4  11  22  44  65  91 134 180 225 274 336 407
#     4  12  20  40  76  88 122 176 228 264 318 390
#     4  12  24  40  68 102 134 163 226 300 336 388
#     4  11  21  41  69  96 123 173 229 276 330 391
#     4  11  25  42  66  97 137 181 223 267 352 417
#
# _framework density 21.389144000000002
#
# number of rings (size 3 to 8) (size 9 to 14) (size 15 to 20)
#    0.000    0.800    6.667    1.600    3.733    2.133 
#    0.000    0.667    0.000    0.000    0.000    0.000 
#    0.000    0.000    0.000    0.000    0.000    0.000 
#
# Total GULP energy -743319.140615 kJ/mol
# GULP energy per Si atom -12388.652344 kJ/mol
# Density = 2.134046 g / cm^3
# Si number density = 21.389144 Si / 1000 Ang^3
#
#
#
# Elastic Constant Matrix: (Units=GPa)
#
#
# Indices 1 2 3 4 5 6 
#
# 1 79.5130 35.6317 24.3063 0.0000 0.0000 0.0000
# 2 35.6317 102.2267 27.8387 0.0000 0.0000 0.0000
# 3 24.3063 27.8387 95.2707 0.0000 0.0000 0.0000
# 4 0.0000 0.0000 0.0000 38.4119 0.0000 0.0000
# 5 0.0000 0.0000 0.0000 0.0000 29.9122 0.0000
# 6 0.0000 0.0000 0.0000 0.0000 0.0000 -17.2246
#
#
#
# Elastic Compliance Matrix: (Units=1/GPa)
#
#
# Indices 1 2 3 4 5 6 
#
# 1 0.015465 -0.004689 -0.002575 0.000000 0.000000 0.000000
# 2 -0.004689 0.012050 -0.002325 0.000000 0.000000 0.000000
# 3 -0.002575 -0.002325 0.011833 0.000000 0.000000 0.000000
# 4 0.000000 0.000000 0.000000 0.026034 0.000000 0.000000
# 5 0.000000 0.000000 0.000000 0.000000 0.033431 0.000000
# 6 0.000000 0.000000 0.000000 0.000000 0.000000 -0.058056
#
#
# Mechanical properties :
#
#
# Convention : Reuss Voigt Hill
#
# Bulk Modulus (GPa) = 49.58060 50.28485 49.93273
# Shear Modulus (GPa) = 75.01041 22.83547 48.92294
#
# Velocity S-wave (km/s) = 5.92837 3.27099 4.78774
# Velocity P-wave (km/s) = 8.37205 6.15032 7.34567
#
# Compressibility (1/GPa) = 0.02016918
#
# Stress axis : x y z
#
# Youngs Moduli (GPa) = 64.66149 82.98984 84.51125
#
# Poissons Ratio (x) = 0.38915 0.21765
# Poissons Ratio (y) = 0.30321 0.19646
# Poissons Ratio (z) = 0.16653 0.19292
#
# Static dielectric constant tensor:
#      x y z
#    x 3.720490 0.000000 0.000000 
#    y 0.000000 -4.710460 0.000000 
#    z 0.000000 0.000000 3.926580 
# 
# 
# High freq. dielectric constant tensor:
#      x y z
#    x 1.825620 0.000000 0.000000 
#    y 0.000000 1.855270 0.000000 
#    z 0.000000 0.000000 1.834710 
# 
# From -- ./inp_files/12447.got.cif
#   From: 2010.06.25/outbox.cif.g09.slc.cpg/sg52_7_cif.got.tgz:12447.got - 2010.06.26 19:32:48.
