data_PCOD8217153
_publ_section_title
;
Structure prediction by ZEFSAII (Michael W. Deem and Ramdas Pophale) SiO2 
 PCOD8217153
Probable space group: P N N A
;
_chemical_formula_sum "Si O2"
_cell_formula_units_Z 64
_cell_length_a 11.597873
_cell_length_b 14.217122
_cell_length_c 18.051818
_cell_angle_alpha 90.000000
_cell_angle_beta 90.000000
_cell_angle_gamma 90.000000
_cell_volume 2976.534943
_symmetry_space_group_name_H-M "P N N A"
_symmetry_group_IT_number 52
_symmetry_cell_setting 'orthorhombic'
loop_
_space_group_symop_operation_xyz
x,y,z
1/2-x,-y,z
x,1/2-y,1/2-z
1/2-x,1/2+y,1/2-z
-x,-y,-z
1/2+x,y,-z
-x,1/2+y,1/2+z
1/2+x,1/2-y,1/2+z
loop_
_atom_site_type_symbol
_atom_site_label
_atom_site_fract_x
_atom_site_fract_y
_atom_site_fract_z
Si Si1 0.530609 0.743103 0.396797
Si Si2 0.676097 0.333508 0.701949
Si Si3 0.381391 0.406735 0.396379
Si Si4 0.784955 0.098002 0.053866
Si Si5 0.918195 0.839327 0.301826
Si Si6 0.841291 0.351010 0.214117
Si Si7 0.479867 0.513128 0.268173
Si Si8 0.934356 0.733024 0.445628
O O1 0.427872 0.711339 0.344199
O O2 0.619797 0.655710 0.401073
O O3 0.598117 0.836264 0.366679
O O4 0.477889 0.772267 0.476033
O O5 0.732833 0.250000 0.750000
O O6 0.770845 0.379656 0.650908
O O7 0.623767 0.415851 0.755458
O O8 0.339311 0.439635 0.476678
O O9 0.454263 0.487866 0.354604
O O10 0.462408 0.317871 0.403896
O O11 0.675229 0.165701 0.042551
O O12 0.750000 0.000000 0.095283
O O13 0.944958 0.750000 0.250000
O O14 0.791791 0.879657 0.284505
O O15 0.910736 0.818527 0.389486
O O16 0.013804 0.918956 0.282526
O O17 0.862267 0.250000 0.250000
O O18 0.899906 0.432651 0.261641
#
# Coordination Sequence:
#
# PCOD8217153 Si02
#       8
#     8   8   8   8   8   8   8   8
#     4  11  22  42  68  93 134 179 227 268 354 400
#     4  12  24  43  68  95 136 181 223 276 344 422
#     4  11  26  42  64 100 141 175 222 282 349 412
#     4  11  24  39  66  97 137 178 221 282 341 419
#     4  11  24  43  64  97 135 178 233 282 341 394
#     4  11  22  42  68  97 130 178 227 285 337 406
#     4  12  23  41  67  98 132 169 225 284 337 397
#     4  11  24  43  66  96 135 184 222 283 340 407
#
# _framework density 21.501511000000001
#
# number of rings (size 3 to 8) (size 9 to 14) (size 15 to 20)
#    0.000    0.750    6.250    1.500    3.500    1.000 
#    2.250    0.625    0.000    0.000    0.000    0.000 
#    0.000    0.000    0.000    0.000    0.000    0.000 
#
# Total GULP energy -793293.971195 kJ/mol
# GULP energy per Si atom -12395.218300 kJ/mol
# Density = 2.145257 g / cm^3
# Si number density = 21.501511 Si / 1000 Ang^3
#
#
#
# Elastic Constant Matrix: (Units=GPa)
#
#
# Indices 1 2 3 4 5 6 
#
# 1 67.1285 27.0817 18.0401 0.0000 0.0000 0.0000
# 2 27.0817 74.1678 31.9083 0.0000 0.0000 0.0000
# 3 18.0401 31.9083 82.4552 0.0000 0.0000 0.0000
# 4 0.0000 0.0000 0.0000 27.5234 0.0000 0.0000
# 5 0.0000 0.0000 0.0000 0.0000 26.1216 0.0000
# 6 0.0000 0.0000 0.0000 0.0000 0.0000 32.0077
#
#
#
# Elastic Compliance Matrix: (Units=1/GPa)
#
#
# Indices 1 2 3 4 5 6 
#
# 1 0.017654 -0.005740 -0.001641 0.000000 0.000000 0.000000
# 2 -0.005740 0.018042 -0.005726 0.000000 0.000000 0.000000
# 3 -0.001641 -0.005726 0.014703 0.000000 0.000000 0.000000
# 4 0.000000 0.000000 0.000000 0.036333 0.000000 0.000000
# 5 0.000000 0.000000 0.000000 0.000000 0.038283 0.000000
# 6 0.000000 0.000000 0.000000 0.000000 0.000000 0.031243
#
#
# Mechanical properties :
#
#
# Convention : Reuss Voigt Hill
#
# Bulk Modulus (GPa) = 41.34946 41.97907 41.66427
# Shear Modulus (GPa) = 26.24230 26.91197 26.57713
#
# Velocity S-wave (km/s) = 3.49734 3.54168 3.51958
# Velocity P-wave (km/s) = 5.96500 6.02419 5.99466
#
# Compressibility (1/GPa) = 0.02418411
#
# Stress axis : x y z
#
# Youngs Moduli (GPa) = 56.64595 55.42527 68.01456
#
# Poissons Ratio (x) = 0.31814 0.11162
# Poissons Ratio (y) = 0.32515 0.38946
# Poissons Ratio (z) = 0.09296 0.31737
#
# Static dielectric constant tensor:
#      x y z
#    x 4.324450 0.000000 0.000000 
#    y 0.000000 4.149530 0.000000 
#    z 0.000000 0.000000 4.404510 
# 
# 
# High freq. dielectric constant tensor:
#      x y z
#    x 1.862600 0.000000 0.000000 
#    y 0.000000 1.827870 0.000000 
#    z 0.000000 0.000000 1.833030 
# 
# From -- ./inp_files/32412.got.cif
#   From: 2010.06.25/outbox.cif.g09.slc.cpg/sg52_17_cif.got.tgz:32412.got - 2010.06.26 19:32:48.
