data_PCOD8217000
_publ_section_title
;
Structure prediction by ZEFSAII (Michael W. Deem and Ramdas Pophale) SiO2 
 PCOD8217000
Probable space group: P N N A
;
_chemical_formula_sum "Si O2"
_cell_formula_units_Z 48
_cell_length_a 22.046563
_cell_length_b 11.175935
_cell_length_c 9.318680
_cell_angle_alpha 90.000000
_cell_angle_beta 90.000000
_cell_angle_gamma 90.000000
_cell_volume 2296.038465
_symmetry_space_group_name_H-M "P N N A"
_symmetry_group_IT_number 52
_symmetry_cell_setting 'orthorhombic'
loop_
_space_group_symop_operation_xyz
x,y,z
1/2-x,-y,z
x,1/2-y,1/2-z
1/2-x,1/2+y,1/2-z
-x,-y,-z
1/2+x,y,-z
-x,1/2+y,1/2+z
1/2+x,1/2-y,1/2+z
loop_
_atom_site_type_symbol
_atom_site_label
_atom_site_fract_x
_atom_site_fract_y
_atom_site_fract_z
Si Si1 0.897123 0.865759 0.319757
Si Si2 0.013032 0.130555 0.446616
Si Si3 0.884669 0.253856 0.087948
Si Si4 0.429136 0.502845 0.538467
Si Si5 0.118081 0.119563 0.233267
Si Si6 0.179534 0.976119 0.468088
O O1 0.864463 0.750000 0.250000
O O2 0.949795 0.808896 0.421866
O O3 0.924798 0.954710 0.202052
O O4 0.850292 0.940679 0.412170
O O5 0.051519 0.127533 0.301958
O O6 0.951622 0.194120 0.409406
O O7 0.000000 0.000000 0.500000
O O8 0.858774 0.250000 0.250000
O O9 0.893031 0.122604 0.020710
O O10 0.839371 0.337132 0.993159
O O11 0.500000 0.500000 0.500000
O O12 0.391999 0.590880 0.433524
O O13 0.150232 0.250000 0.250000
O O14 0.157713 0.017127 0.310414
O O15 0.250000 0.000000 0.481265
#
# Coordination Sequence:
#
# PCOD8217000 Si02
#       6
#     8   8   8   8   8   8
#     4  11  22  40  65  97 130 173 226 270 339 416
#     4  11  19  37  64  93 137 173 202 264 347 419
#     4  12  22  41  68  99 138 170 224 282 338 405
#     4  12  23  37  67 109 138 165 210 274 357 421
#     4  11  23  43  65  95 135 171 217 273 343 412
#     4  11  26  48  67  88 132 186 234 282 332 384
#
# _framework density 20.905571999999999
#
# number of rings (size 3 to 8) (size 9 to 14) (size 15 to 20)
#    0.000    0.667    5.000    6.500    0.000    1.333 
#    3.000    0.833    0.000    0.000    0.000    0.000 
#    0.000    0.000    0.000    0.000    0.000    0.000 
#
# Total GULP energy -595125.822269 kJ/mol
# GULP energy per Si atom -12398.454631 kJ/mol
# Density = 2.085799 g / cm^3
# Si number density = 20.905572 Si / 1000 Ang^3
#
#
#
# Elastic Constant Matrix: (Units=GPa)
#
#
# Indices 1 2 3 4 5 6 
#
# 1 96.5268 11.7549 22.7282 0.0000 0.0000 0.0000
# 2 11.7549 100.6367 6.1387 0.0000 0.0000 0.0000
# 3 22.7282 6.1387 85.2321 0.0000 0.0000 0.0000
# 4 0.0000 0.0000 0.0000 40.1429 0.0000 0.0000
# 5 0.0000 0.0000 0.0000 0.0000 12.3884 0.0000
# 6 0.0000 0.0000 0.0000 0.0000 0.0000 19.2632
#
#
#
# Elastic Compliance Matrix: (Units=1/GPa)
#
#
# Indices 1 2 3 4 5 6 
#
# 1 0.011180 -0.001129 -0.002900 0.000000 0.000000 0.000000
# 2 -0.001129 0.010095 -0.000426 0.000000 0.000000 0.000000
# 3 -0.002900 -0.000426 0.012537 0.000000 0.000000 0.000000
# 4 0.000000 0.000000 0.000000 0.024911 0.000000 0.000000
# 5 0.000000 0.000000 0.000000 0.000000 0.080720 0.000000
# 6 0.000000 0.000000 0.000000 0.000000 0.000000 0.051912
#
#
# Mechanical properties :
#
#
# Convention : Reuss Voigt Hill
#
# Bulk Modulus (GPa) = 40.15836 40.40435 40.28136
# Shear Modulus (GPa) = 23.97326 30.47717 27.22521
#
# Velocity S-wave (km/s) = 3.39003 3.82232 3.61265
# Velocity P-wave (km/s) = 5.87998 6.23291 6.05902
#
# Compressibility (1/GPa) = 0.02490142
#
# Stress axis : x y z
#
# Youngs Moduli (GPa) = 89.44430 99.06296 79.76594
#
# Poissons Ratio (x) = 0.11184 0.23132
# Poissons Ratio (y) = 0.10098 0.03398
# Poissons Ratio (z) = 0.25939 0.04220
#
# Static dielectric constant tensor:
#      x y z
#    x 3.498050 0.000000 0.000000 
#    y 0.000000 3.059860 0.000000 
#    z 0.000000 0.000000 4.114770 
# 
# 
# High freq. dielectric constant tensor:
#      x y z
#    x 1.775280 0.000000 0.000000 
#    y 0.000000 1.839770 0.000000 
#    z 0.000000 0.000000 1.831990 
# 
# From -- ./inp_files/14231.got.cif
#   From: 2010.06.25/outbox.cif.g09.slc.cpg/sg52_8_cif.got.tgz:14231.got - 2010.06.26 19:32:48.
