data_PCOD8217487
_publ_section_title
;
Structure prediction by ZEFSAII (Michael W. Deem and Ramdas Pophale) SiO2 
 PCOD8217487
Probable space group: P M N A
;
_chemical_formula_sum "Si O2"
_cell_formula_units_Z 40
_cell_length_a 18.989158
_cell_length_b 10.377740
_cell_length_c 10.563628
_cell_angle_alpha 90.000000
_cell_angle_beta 90.000000
_cell_angle_gamma 90.000000
_cell_volume 2081.716541
_symmetry_space_group_name_H-M "P M N A"
_symmetry_group_IT_number 53
_symmetry_cell_setting 'orthorhombic'
loop_
_space_group_symop_operation_xyz
x,y,z
1/2-x,-y,1/2+z
x,-y,-z
1/2-x,y,1/2-z
-x,-y,-z
1/2+x,y,1/2-z
-x,y,z
1/2+x,-y,1/2+z
loop_
_atom_site_type_symbol
_atom_site_label
_atom_site_fract_x
_atom_site_fract_y
_atom_site_fract_z
Si Si1 0.919727 0.442699 0.187649
Si Si2 0.000000 0.099260 0.883713
Si Si3 0.779023 0.141932 0.057052
Si Si4 0.641980 0.208614 0.194142
Si Si5 0.000000 0.934316 0.635476
Si Si6 0.113993 0.305048 0.932686
O O1 0.871551 0.361150 0.284515
O O2 0.883574 0.583171 0.173623
O O3 0.000000 0.458216 0.236306
O O4 0.922345 0.365514 0.056023
O O5 0.069269 0.184604 0.887115
O O6 0.000000 0.035065 0.747822
O O7 0.000000 0.000000 0.000000
O O8 0.700713 0.190149 0.087394
O O9 0.830849 0.138531 0.178282
O O10 0.808236 0.248295 0.958333
O O11 0.776344 0.000000 0.000000
O O12 0.569111 0.151597 0.146871
O O13 0.000000 0.000000 0.500000
#
# Coordination Sequence:
#
# PCOD8217487 Si02
#       6
#     8   4   8   8   4   8
#     4  10  16  32  57  91 121 146 196 252 313 358
#     4  12  20  32  59  95 121 145 203 265 307 348
#     4  10  20  35  56  85 119 153 199 258 317 358
#     4  10  21  36  58  81 117 164 198 241 300 380
#     4  12  24  37  57  85 123 164 208 239 302 380
#     4  10  18  30  57  92 118 142 190 267 313 347
#
# _framework density 19.214912999999999
#
# number of rings (size 3 to 8) (size 9 to 14) (size 15 to 20)
#    0.000    1.600    3.000    5.400    0.000    0.000 
#    0.000    0.000    0.000   57.600    0.000    0.000 
#    0.000    0.000    0.000    0.000    0.000    0.000 
#
# Total GULP energy -495931.742223 kJ/mol
# GULP energy per Si atom -12398.293556 kJ/mol
# Density = 1.917118 g / cm^3
# Si number density = 19.214913 Si / 1000 Ang^3
#
#
#
# Elastic Constant Matrix: (Units=GPa)
#
#
# Indices 1 2 3 4 5 6 
#
# 1 168.5251 87.6561 52.2329 0.0000 0.0000 0.0000
# 2 87.6561 173.2209 65.0614 0.0000 0.0000 0.0000
# 3 52.2329 65.0614 73.9404 0.0000 0.0000 0.0000
# 4 0.0000 0.0000 0.0000 22.0700 0.0000 0.0000
# 5 0.0000 0.0000 0.0000 0.0000 14.3994 0.0000
# 6 0.0000 0.0000 0.0000 0.0000 0.0000 24.1098
#
#
#
# Elastic Compliance Matrix: (Units=1/GPa)
#
#
# Indices 1 2 3 4 5 6 
#
# 1 0.008574 -0.003082 -0.003344 0.000000 0.000000 0.000000
# 2 -0.003082 0.009731 -0.006385 0.000000 0.000000 0.000000
# 3 -0.003344 -0.006385 0.021505 0.000000 0.000000 0.000000
# 4 0.000000 0.000000 0.000000 0.045310 0.000000 0.000000
# 5 0.000000 0.000000 0.000000 0.000000 0.069447 0.000000
# 6 0.000000 0.000000 0.000000 0.000000 0.000000 0.041477
#
#
# Mechanical properties :
#
#
# Convention : Reuss Voigt Hill
#
# Bulk Modulus (GPa) = 70.49030 91.73192 81.11111
# Shear Modulus (GPa) = 22.08513 26.16490 24.12501
#
# Velocity S-wave (km/s) = 3.39392 3.69412 3.54720
# Velocity P-wave (km/s) = 7.21963 8.12644 7.68642
#
# Compressibility (1/GPa) = 0.01418635
#
# Stress axis : x y z
#
# Youngs Moduli (GPa) = 116.63601 102.76436 46.50067
#
# Poissons Ratio (x) = 0.31677 0.15551
# Poissons Ratio (y) = 0.35953 0.29690
# Poissons Ratio (z) = 0.39006 0.65614
#
# Static dielectric constant tensor:
#      x y z
#    x 3.610380 0.000000 0.000000 
#    y 0.000000 3.742360 0.000000 
#    z 0.000000 0.000000 3.287730 
# 
# 
# High freq. dielectric constant tensor:
#      x y z
#    x 1.754640 0.000000 0.000000 
#    y 0.000000 1.758710 0.000000 
#    z 0.000000 0.000000 1.706870 
# 
# From -- ./inp_files/17681.got.cif
#   From: 2010.03.12/outbox.cif.g09.slc.cpg/sg53_9_cif.got.tgz:17681.got - 2010.04.16 14:36:59.
