data_PCOD8217952
_publ_section_title
;
Structure prediction by ZEFSAII (Michael W. Deem and Ramdas Pophale) SiO2 
 PCOD8217952
Probable space group: P M N A
;
_chemical_formula_sum "Si O2"
_cell_formula_units_Z 64
_cell_length_a 8.838157
_cell_length_b 25.056305
_cell_length_c 14.213501
_cell_angle_alpha 90.000000
_cell_angle_beta 90.000000
_cell_angle_gamma 90.000000
_cell_volume 3147.601933
_symmetry_space_group_name_H-M "P M N A"
_symmetry_group_IT_number 53
_symmetry_cell_setting 'orthorhombic'
loop_
_space_group_symop_operation_xyz
x,y,z
1/2-x,-y,1/2+z
x,-y,-z
1/2-x,y,1/2-z
-x,-y,-z
1/2+x,y,1/2-z
-x,y,z
1/2+x,-y,1/2+z
loop_
_atom_site_type_symbol
_atom_site_label
_atom_site_fract_x
_atom_site_fract_y
_atom_site_fract_z
Si Si1 0.175482 0.373009 0.543785
Si Si2 0.680571 0.974551 0.646305
Si Si3 0.678291 0.594002 0.844911
Si Si4 0.176864 0.722148 0.149357
Si Si5 0.672415 0.813607 0.037010
Si Si6 0.175235 0.474568 0.657215
Si Si7 0.175901 0.132676 0.349185
Si Si8 0.322160 0.920279 0.148529
O O1 0.222720 0.368935 0.433944
O O2 0.274356 0.334569 0.607855
O O3 0.206756 0.434532 0.571462
O O4 0.000000 0.357976 0.558749
O O5 0.750000 0.977811 0.750000
O O6 0.500000 0.974077 0.644879
O O7 0.745238 0.919518 0.604070
O O8 0.742883 0.028543 0.596587
O O9 0.750000 0.618441 0.750000
O O10 0.500000 0.593395 0.833077
O O11 0.740622 0.533804 0.863148
O O12 0.250000 0.733878 0.250000
O O13 0.219253 0.767807 0.075116
O O14 0.000000 0.721828 0.165051
O O15 0.500000 0.797075 0.059094
O O16 0.712574 0.869358 0.085284
O O17 0.696607 0.819680 0.924469
O O18 0.250000 0.449555 0.750000
O O19 0.000000 0.479527 0.677884
O O20 0.250000 0.149675 0.250000
O O21 0.000000 0.119773 0.331825
O O22 0.250000 0.909102 0.250000
O O23 0.500000 0.931373 0.159638
#
# Coordination Sequence:
#
# PCOD8217952 Si02
#       8
#     8   8   8   8   8   8   8   8
#     4  10  20  36  58  82 113 152 194 236 280 332
#     4  10  18  30  50  78 112 148 183 221 268 325
#     4   9  18  33  54  82 117 155 192 234 281 330
#     4  12  26  43  64  87 114 144 181 229 279 332
#     4  10  23  41  61  83 109 144 186 231 282 334
#     4   9  17  30  51  81 115 152 191 231 280 334
#     4  10  20  37  59  83 112 145 182 227 276 329
#     4  10  19  33  53  79 110 144 181 223 273 330
#
# _framework density 20.332940000000001
#
# number of rings (size 3 to 8) (size 9 to 14) (size 15 to 20)
#    0.000    2.000    0.000    5.625    0.000    7.000 
#    0.000    3.125    0.000    3.750    0.000    0.000 
#    0.000    0.000    0.000    0.000    0.000    0.000 
#
# Total GULP energy -793454.653636 kJ/mol
# GULP energy per Si atom -12397.728963 kJ/mol
# Density = 2.028666 g / cm^3
# Si number density = 20.332940 Si / 1000 Ang^3
#
#
#
# Elastic Constant Matrix: (Units=GPa)
#
#
# Indices 1 2 3 4 5 6 
#
# 1 109.9314 34.6575 36.5662 0.0000 0.0000 0.0000
# 2 34.6575 60.5098 27.7300 0.0000 0.0000 0.0000
# 3 36.5662 27.7300 96.2523 0.0000 0.0000 0.0000
# 4 0.0000 0.0000 0.0000 24.2365 0.0000 0.0000
# 5 0.0000 0.0000 0.0000 0.0000 29.8180 0.0000
# 6 0.0000 0.0000 0.0000 0.0000 0.0000 33.7391
#
#
#
# Elastic Compliance Matrix: (Units=1/GPa)
#
#
# Indices 1 2 3 4 5 6 
#
# 1 0.011770 -0.005406 -0.002914 0.000000 0.000000 0.000000
# 2 -0.005406 0.021523 -0.004147 0.000000 0.000000 0.000000
# 3 -0.002914 -0.004147 0.012691 0.000000 0.000000 0.000000
# 4 0.000000 0.000000 0.000000 0.041260 0.000000 0.000000
# 5 0.000000 0.000000 0.000000 0.000000 0.033537 0.000000
# 6 0.000000 0.000000 0.000000 0.000000 0.000000 0.029639
#
#
# Mechanical properties :
#
#
# Convention : Reuss Voigt Hill
#
# Bulk Modulus (GPa) = 47.50530 51.62231 49.56381
# Shear Modulus (GPa) = 27.41656 28.74136 28.07896
#
# Velocity S-wave (km/s) = 3.67602 3.76378 3.72016
# Velocity P-wave (km/s) = 6.43676 6.65821 6.54842
#
# Compressibility (1/GPa) = 0.02105028
#
# Stress axis : x y z
#
# Youngs Moduli (GPa) = 84.96022 46.46171 78.79520
#
# Poissons Ratio (x) = 0.25118 0.22961
# Poissons Ratio (y) = 0.45930 0.32676
# Poissons Ratio (z) = 0.24758 0.19268
#
# Static dielectric constant tensor:
#      x y z
#    x 3.650760 0.000000 0.000000 
#    y 0.000000 3.747410 0.000000 
#    z 0.000000 0.000000 3.499170 
# 
# 
# High freq. dielectric constant tensor:
#      x y z
#    x 1.790650 0.000000 0.000000 
#    y 0.000000 1.780300 0.000000 
#    z 0.000000 0.000000 1.798230 
# 
# From -- ./inp_files/21013.got.cif
#   From: 2010.03.12/outbox.cif.g09.slc.cpg/sg53_11_cif.got.tgz:21013.got - 2010.04.16 14:36:59.
