data_PCOD8217440
_publ_section_title
;
Structure prediction by ZEFSAII (Michael W. Deem and Ramdas Pophale) SiO2 
 PCOD8217440
Probable space group: P N N A
;
_chemical_formula_sum "Si O2"
_cell_formula_units_Z 20
_cell_length_a 15.317496
_cell_length_b 10.916151
_cell_length_c 4.834119
_cell_angle_alpha 90.000000
_cell_angle_beta 90.000000
_cell_angle_gamma 90.000000
_cell_volume 808.303850
_symmetry_space_group_name_H-M "P N N A"
_symmetry_group_IT_number 52
_symmetry_cell_setting 'orthorhombic'
loop_
_space_group_symop_operation_xyz
x,y,z
1/2-x,-y,z
x,1/2-y,1/2-z
1/2-x,1/2+y,1/2-z
-x,-y,-z
1/2+x,y,-z
-x,1/2+y,1/2+z
1/2+x,1/2-y,1/2+z
loop_
_atom_site_type_symbol
_atom_site_label
_atom_site_fract_x
_atom_site_fract_y
_atom_site_fract_z
Si Si1 0.160507 0.861914 0.091876
Si Si2 0.899619 0.506781 0.073370
Si Si3 0.811889 0.750000 0.250000
O O1 0.110238 0.750000 0.250000
O O2 0.164817 0.968657 0.321933
O O3 0.254414 0.811345 0.993505
O O4 0.110560 0.912183 0.826100
O O5 0.874730 0.645243 0.137209
O O6 0.000000 0.500000 0.000000
#
# Coordination Sequence:
#
# PCOD8217440 Si02
#       3
#     8   8   4
#     4  12  27  51  79 116 161 213 274 322 403 487
#     4  12  30  52  81 121 164 208 272 339 407 471
#     4  12  30  46  92 112 168 216 272 328 404 484
#
# _framework density 24.743169999999999
#
# number of rings (size 3 to 8) (size 9 to 14) (size 15 to 20)
#    0.000    0.000    4.000    2.400   14.000    0.000 
#    7.200    0.000    8.800    0.000    0.000    0.000 
#    0.000    0.000    0.000    0.000    0.000    0.000 
#
# Total GULP energy -247901.557029 kJ/mol
# GULP energy per Si atom -12395.077851 kJ/mol
# Density = 2.468685 g / cm^3
# Si number density = 24.743170 Si / 1000 Ang^3
#
#
#
# Elastic Constant Matrix: (Units=GPa)
#
#
# Indices 1 2 3 4 5 6 
#
# 1 149.6721 144.4387 87.7726 0.0000 0.0000 0.0000
# 2 144.4387 172.0469 92.5756 0.0000 0.0000 0.0000
# 3 87.7726 92.5756 205.4462 0.0000 0.0000 0.0000
# 4 0.0000 0.0000 0.0000 66.9139 0.0000 0.0000
# 5 0.0000 0.0000 0.0000 0.0000 -1.8063 0.0000
# 6 0.0000 0.0000 0.0000 0.0000 0.0000 28.5804
#
#
#
# Elastic Compliance Matrix: (Units=1/GPa)
#
#
# Indices 1 2 3 4 5 6 
#
# 1 0.036020 -0.028988 -0.002327 0.000000 0.000000 0.000000
# 2 -0.028988 0.031002 -0.001585 0.000000 0.000000 0.000000
# 3 -0.002327 -0.001585 0.006576 0.000000 0.000000 0.000000
# 4 0.000000 0.000000 0.000000 0.014945 0.000000 0.000000
# 5 0.000000 0.000000 0.000000 0.000000 -0.553617 0.000000
# 6 0.000000 0.000000 0.000000 0.000000 0.000000 0.034989
#
#
# Mechanical properties :
#
#
# Convention : Reuss Voigt Hill
#
# Bulk Modulus (GPa) = 128.23762 130.74878 129.49320
# Shear Modulus (GPa) = -13.82415 32.22947 9.20266
#
# Velocity S-wave (km/s) = -2.36626 3.61302 1.93063
# Velocity P-wave (km/s) = 6.66891 8.38822 7.57749
#
# Compressibility (1/GPa) = 0.00779802
#
# Stress axis : x y z
#
# Youngs Moduli (GPa) = 27.76197 32.25607 152.07602
#
# Poissons Ratio (x) = 0.93505 0.35382
# Poissons Ratio (y) = 0.80478 0.24104
# Poissons Ratio (z) = 0.06459 0.05113
#
# Static dielectric constant tensor:
#      x y z
#    x 4.100670 0.000000 0.000000 
#    y 0.000000 5.383480 0.000000 
#    z 0.000000 0.000000 5.097880 
# 
# 
# High freq. dielectric constant tensor:
#      x y z
#    x 1.956590 0.000000 0.000000 
#    y 0.000000 2.015990 0.000000 
#    z 0.000000 0.000000 2.013950 
# 
# From -- ./inp_files/1600.got.cif
#   From: 2010.06.25/outbox.cif.g09.slc.cpg/sg52_1_cif.got.tgz:1600.got - 2010.06.26 19:32:48.
