data_PCOD8217221
_publ_section_title
;
Structure prediction by ZEFSAII (Michael W. Deem and Ramdas Pophale) SiO2 
 PCOD8217221
Probable space group: P N N A
;
_chemical_formula_sum "Si O2"
_cell_formula_units_Z 32
_cell_length_a 9.486649
_cell_length_b 25.616635
_cell_length_c 6.560220
_cell_angle_alpha 90.000000
_cell_angle_beta 90.000000
_cell_angle_gamma 90.000000
_cell_volume 1594.238586
_symmetry_space_group_name_H-M "P N N A"
_symmetry_group_IT_number 52
_symmetry_cell_setting 'orthorhombic'
loop_
_space_group_symop_operation_xyz
x,y,z
1/2-x,-y,z
x,1/2-y,1/2-z
1/2-x,1/2+y,1/2-z
-x,-y,-z
1/2+x,y,-z
-x,1/2+y,1/2+z
1/2+x,1/2-y,1/2+z
loop_
_atom_site_type_symbol
_atom_site_label
_atom_site_fract_x
_atom_site_fract_y
_atom_site_fract_z
Si Si1 0.503067 0.395832 0.535733
Si Si2 0.332963 0.861325 0.426067
Si Si3 0.266429 0.559638 0.735755
Si Si4 0.444288 0.189221 0.279448
O O1 0.593495 0.389568 0.738114
O O2 0.355864 0.423607 0.580958
O O3 0.584194 0.432636 0.375744
O O4 0.474231 0.339475 0.434681
O O5 0.258621 0.906013 0.560301
O O6 0.214101 0.821522 0.351533
O O7 0.446422 0.828661 0.550056
O O8 0.250000 0.500000 0.802540
O O9 0.465949 0.250000 0.250000
#
# Coordination Sequence:
#
# PCOD8217221 Si02
#       4
#     8   8   8   8
#     4  11  23  44  63  97 130 162 221 265 313 392
#     4  11  24  45  64  96 134 162 218 270 308 392
#     4  11  24  42  69  95 129 174 212 266 327 378
#     4  11  26  42  67  94 126 173 212 265 325 376
#
# _framework density 20.072277
#
# number of rings (size 3 to 8) (size 9 to 14) (size 15 to 20)
#    0.000    1.000    5.000    0.750    3.500    2.000 
#    0.000    0.000    0.000    0.000    0.000    0.000 
#    0.000    0.000    0.000    0.000    0.000    0.000 
#
# Total GULP energy -397032.953839 kJ/mol
# GULP energy per Si atom -12407.279807 kJ/mol
# Density = 2.002659 g / cm^3
# Si number density = 20.072277 Si / 1000 Ang^3
#
#
#
# Elastic Constant Matrix: (Units=GPa)
#
#
# Indices 1 2 3 4 5 6 
#
# 1 85.8375 4.3960 9.5507 0.0000 0.0000 0.0000
# 2 4.3960 98.7701 7.1304 0.0000 0.0000 0.0000
# 3 9.5507 7.1304 72.0771 0.0000 0.0000 0.0000
# 4 0.0000 0.0000 0.0000 16.2241 0.0000 0.0000
# 5 0.0000 0.0000 0.0000 0.0000 20.5199 0.0000
# 6 0.0000 0.0000 0.0000 0.0000 0.0000 19.4497
#
#
#
# Elastic Compliance Matrix: (Units=1/GPa)
#
#
# Indices 1 2 3 4 5 6 
#
# 1 0.011841 -0.000417 -0.001528 0.000000 0.000000 0.000000
# 2 -0.000417 0.010212 -0.000955 0.000000 0.000000 0.000000
# 3 -0.001528 -0.000955 0.014171 0.000000 0.000000 0.000000
# 4 0.000000 0.000000 0.000000 0.061637 0.000000 0.000000
# 5 0.000000 0.000000 0.000000 0.000000 0.048733 0.000000
# 6 0.000000 0.000000 0.000000 0.000000 0.000000 0.051415
#
#
# Mechanical properties :
#
#
# Convention : Reuss Voigt Hill
#
# Bulk Modulus (GPa) = 32.86762 33.20432 33.03597
# Shear Modulus (GPa) = 23.36998 26.94590 25.15794
#
# Velocity S-wave (km/s) = 3.41587 3.66791 3.54413
# Velocity P-wave (km/s) = 5.65400 5.87507 5.76559
#
# Compressibility (1/GPa) = 0.03042508
#
# Stress axis : x y z
#
# Youngs Moduli (GPa) = 84.45050 97.92390 70.56685
#
# Poissons Ratio (x) = 0.04081 0.10781
# Poissons Ratio (y) = 0.03519 0.06739
# Poissons Ratio (z) = 0.12902 0.09352
#
# Static dielectric constant tensor:
#      x y z
#    x 3.887330 0.000000 0.000000 
#    y 0.000000 3.495140 0.000000 
#    z 0.000000 0.000000 3.798720 
# 
# 
# High freq. dielectric constant tensor:
#      x y z
#    x 1.804860 0.000000 0.000000 
#    y 0.000000 1.776390 0.000000 
#    z 0.000000 0.000000 1.794700 
# 
# From -- ./inp_files/387.got.cif
#   From: 2010.06.25/outbox.cif.g09.slc.cpg/sg52_1_cif.got.tgz:387.got - 2010.06.26 19:32:48.
