data_PCOD8217925
_publ_section_title
;
Structure prediction by ZEFSAII (Michael W. Deem and Ramdas Pophale) SiO2 
 PCOD8217925
Probable space group: P M N A
;
_chemical_formula_sum "Si O2"
_cell_formula_units_Z 40
_cell_length_a 8.534293
_cell_length_b 11.628633
_cell_length_c 22.013954
_cell_angle_alpha 90.000000
_cell_angle_beta 90.000000
_cell_angle_gamma 90.000000
_cell_volume 2184.712372
_symmetry_space_group_name_H-M "P M N A"
_symmetry_group_IT_number 53
_symmetry_cell_setting 'orthorhombic'
loop_
_space_group_symop_operation_xyz
x,y,z
1/2-x,-y,1/2+z
x,-y,-z
1/2-x,y,1/2-z
-x,-y,-z
1/2+x,y,1/2-z
-x,y,z
1/2+x,-y,1/2+z
loop_
_atom_site_type_symbol
_atom_site_label
_atom_site_fract_x
_atom_site_fract_y
_atom_site_fract_z
Si Si1 0.815216 0.032361 0.315427
Si Si2 0.185885 0.716943 0.812240
Si Si3 0.184512 0.443210 0.082798
Si Si4 0.684080 0.927965 0.058149
Si Si5 0.184796 0.320356 0.962736
O O1 0.750000 0.986516 0.250000
O O2 0.767821 0.163230 0.326664
O O3 0.000000 0.020206 0.311100
O O4 0.748797 0.966904 0.375540
O O5 0.250000 0.666724 0.750000
O O6 0.246295 0.620225 0.858042
O O7 0.000000 0.734910 0.812378
O O8 0.230157 0.578436 0.085235
O O9 0.000000 0.436371 0.076084
O O10 0.249704 0.371266 0.025917
O O11 0.500000 0.947970 0.058724
O O12 0.722194 0.794424 0.051960
O O13 0.754261 0.000000 0.000000
O O14 0.000000 0.292521 0.963038
#
# Coordination Sequence:
#
# PCOD8217925 Si02
#       5
#     8   8   8   8   8
#     4  10  20  34  51  71  99 132 164 201 243 288
#     4  10  18  30  49  72  97 124 158 197 238 284
#     4   8  16  31  50  72  97 123 154 198 242 280
#     4  10  21  35  50  73 104 131 159 201 250 293
#     4   9  17  32  53  73  94 124 162 198 236 284
#
# _framework density 18.309047
#
# number of rings (size 3 to 8) (size 9 to 14) (size 15 to 20)
#    0.000    2.600    0.000    4.800    0.000    2.000 
#    0.000    6.000    0.000    4.800    0.000    0.000 
#    0.000    0.000    0.000    0.000    0.000    0.000 
#
# Total GULP energy -495578.974496 kJ/mol
# GULP energy per Si atom -12389.474362 kJ/mol
# Density = 1.826738 g / cm^3
# Si number density = 18.309047 Si / 1000 Ang^3
#
#
#
# Elastic Constant Matrix: (Units=GPa)
#
#
# Indices 1 2 3 4 5 6 
#
# 1 24.2735 4.1000 19.5377 0.0000 0.0000 0.0000
# 2 4.1000 119.3663 83.1880 0.0000 0.0000 0.0000
# 3 19.5377 83.1880 149.8241 0.0000 0.0000 0.0000
# 4 0.0000 0.0000 0.0000 37.3395 0.0000 0.0000
# 5 0.0000 0.0000 0.0000 0.0000 1.9940 0.0000
# 6 0.0000 0.0000 0.0000 0.0000 0.0000 24.8534
#
#
#
# Elastic Compliance Matrix: (Units=1/GPa)
#
#
# Indices 1 2 3 4 5 6 
#
# 1 0.047386 0.004370 -0.008606 0.000000 0.000000 0.000000
# 2 0.004370 0.014068 -0.008381 0.000000 0.000000 0.000000
# 3 -0.008606 -0.008381 0.012450 0.000000 0.000000 0.000000
# 4 0.000000 0.000000 0.000000 0.026781 0.000000 0.000000
# 5 0.000000 0.000000 0.000000 0.000000 0.501506 0.000000
# 6 0.000000 0.000000 0.000000 0.000000 0.000000 0.040236
#
#
# Mechanical properties :
#
#
# Convention : Reuss Voigt Hill
#
# Bulk Modulus (GPa) = 20.54639 56.34615 38.44627
# Shear Modulus (GPa) = 7.31118 25.27994 16.29556
#
# Velocity S-wave (km/s) = 2.00047 3.71986 2.98657
# Velocity P-wave (km/s) = 4.07212 7.02080 5.73907
#
# Compressibility (1/GPa) = 0.04867035
#
# Stress axis : x y z
#
# Youngs Moduli (GPa) = 21.10344 71.08114 80.31977
#
# Poissons Ratio (x) = -0.31060 0.69119
# Poissons Ratio (y) = -0.09222 0.67317
# Poissons Ratio (z) = 0.18161 0.59574
#
# Static dielectric constant tensor:
#      x y z
#    x 3.110990 0.000000 0.000000 
#    y 0.000000 3.406470 0.000000 
#    z 0.000000 0.000000 4.017370 
# 
# 
# High freq. dielectric constant tensor:
#      x y z
#    x 1.689030 0.000000 0.000000 
#    y 0.000000 1.706330 0.000000 
#    z 0.000000 0.000000 1.717250 
# 
# From -- ./inp_files/30372.got.cif
#   From: 2010.03.12/outbox.cif.g09.slc.cpg/sg53_16_cif.got.tgz:30372.got - 2010.04.16 14:36:59.
