data_PCOD8217456
_publ_section_title
;
Structure prediction by ZEFSAII (Michael W. Deem and Ramdas Pophale) SiO2 
 PCOD8217456
Probable space group: P M N A
;
_chemical_formula_sum "Si O2"
_cell_formula_units_Z 40
_cell_length_a 7.946394
_cell_length_b 7.956216
_cell_length_c 29.626521
_cell_angle_alpha 90.000000
_cell_angle_beta 90.000000
_cell_angle_gamma 90.000000
_cell_volume 1873.084265
_symmetry_space_group_name_H-M "P M N A"
_symmetry_group_IT_number 53
_symmetry_cell_setting 'orthorhombic'
loop_
_space_group_symop_operation_xyz
x,y,z
1/2-x,-y,1/2+z
x,-y,-z
1/2-x,y,1/2-z
-x,-y,-z
1/2+x,y,1/2-z
-x,y,z
1/2+x,-y,1/2+z
loop_
_atom_site_type_symbol
_atom_site_label
_atom_site_fract_x
_atom_site_fract_y
_atom_site_fract_z
Si Si1 0.684215 0.047480 0.107962
Si Si2 0.686897 0.551008 0.892536
Si Si3 0.194041 0.594331 0.704754
Si Si4 0.000000 0.447664 0.051291
Si Si5 0.500000 0.949269 0.551627
Si Si6 0.811535 0.962248 0.797570
O O1 0.500000 0.987804 0.090193
O O2 0.691742 0.248190 0.108695
O O3 0.831775 0.976781 0.075444
O O4 0.704595 0.976882 0.158976
O O5 0.500000 0.489620 0.908261
O O6 0.725886 0.488112 0.841209
O O7 0.830810 0.477586 0.925475
O O8 0.250000 0.490235 0.750000
O O9 0.308119 0.760565 0.705197
O O10 0.000000 0.649694 0.706397
O O11 0.000000 0.249482 0.056394
O O12 0.000000 0.500000 0.000000
O O13 0.500000 0.000000 0.500000
O O14 0.750000 0.041729 0.750000
O O15 0.000000 0.022225 0.806369
#
# Coordination Sequence:
#
# PCOD8217456 Si02
#       6
#     8   8   8   4   4   8
#     4   9  16  28  42  61  88 120 152 185 229 276
#     4   8  16  27  40  60  88 119 149 183 227 273
#     4   9  15  20  31  53  81 118 150 175 215 271
#     4  10  20  32  50  68  88 122 158 192 231 270
#     4  10  20  34  50  68  92 122 156 194 235 276
#     4  10  15  20  32  54  84 120 152 178 215 273
#
# _framework density 21.355149999999998
#
# number of rings (size 3 to 8) (size 9 to 14) (size 15 to 20)
#    0.000    2.800    1.000    4.800    5.600    0.800 
#    0.000    0.000    0.000    0.000    0.000    0.000 
#    0.000    1.600    0.000    0.000    0.000    0.000 
#
# Total GULP energy -495569.218606 kJ/mol
# GULP energy per Si atom -12389.230465 kJ/mol
# Density = 2.130655 g / cm^3
# Si number density = 21.355150 Si / 1000 Ang^3
#
#
#
# Elastic Constant Matrix: (Units=GPa)
#
#
# Indices 1 2 3 4 5 6 
#
# 1 195.2596 2.1890 104.0400 0.0000 0.0000 0.0000
# 2 2.1890 3.6883 -1.8362 0.0000 0.0000 0.0000
# 3 104.0400 -1.8362 196.6348 0.0000 0.0000 0.0000
# 4 0.0000 0.0000 0.0000 13.6985 0.0000 0.0000
# 5 0.0000 0.0000 0.0000 0.0000 40.5167 0.0000
# 6 0.0000 0.0000 0.0000 0.0000 0.0000 1.8084
#
#
#
# Elastic Compliance Matrix: (Units=1/GPa)
#
#
# Indices 1 2 3 4 5 6 
#
# 1 0.007273 -0.006262 -0.003907 0.000000 0.000000 0.000000
# 2 -0.006262 0.277783 0.005907 0.000000 0.000000 0.000000
# 3 -0.003907 0.005907 0.007208 0.000000 0.000000 0.000000
# 4 0.000000 0.000000 0.000000 0.073000 0.000000 0.000000
# 5 0.000000 0.000000 0.000000 0.000000 0.024681 0.000000
# 6 0.000000 0.000000 0.000000 0.000000 0.000000 0.552986
#
#
# Mechanical properties :
#
#
# Convention : Reuss Voigt Hill
#
# Bulk Modulus (GPa) = 3.52434 67.15203 35.33818
# Shear Modulus (GPa) = 4.77996 30.61740 17.69868
#
# Velocity S-wave (km/s) = 1.49772 3.79056 2.88197
# Velocity P-wave (km/s) = 2.15519 7.11839 5.25910
#
# Compressibility (1/GPa) = 0.28374135
#
# Stress axis : x y z
#
# Youngs Moduli (GPa) = 137.49079 3.59993 138.73850
#
# Poissons Ratio (x) = 0.02254 0.54202
# Poissons Ratio (y) = 0.86091 -0.81953
# Poissons Ratio (z) = 0.53714 -0.02126
#
# Static dielectric constant tensor:
#      x y z
#    x 4.217290 0.000000 0.000000 
#    y 0.000000 2.846500 0.000000 
#    z 0.000000 0.000000 1.882850 
# 
# 
# High freq. dielectric constant tensor:
#      x y z
#    x 1.856760 0.000000 0.000000 
#    y 0.000000 1.736600 0.000000 
#    z 0.000000 0.000000 1.846880 
# 
# From -- ./inp_files/36063.got.cif
#   From: 2010.03.12/outbox.cif.g09.slc.cpg/sg53_19_cif.got.tgz:36063.got - 2010.04.16 14:36:59.
