data_PCOD8217531
_publ_section_title
;
Structure prediction by ZEFSAII (Michael W. Deem and Ramdas Pophale) SiO2 
 PCOD8217531
Probable space group: P M N A
;
_chemical_formula_sum "Si O2"
_cell_formula_units_Z 48
_cell_length_a 8.466416
_cell_length_b 10.359486
_cell_length_c 30.291334
_cell_angle_alpha 90.000000
_cell_angle_beta 90.000000
_cell_angle_gamma 90.000000
_cell_volume 2656.783781
_symmetry_space_group_name_H-M "P M N A"
_symmetry_group_IT_number 53
_symmetry_cell_setting 'orthorhombic'
loop_
_space_group_symop_operation_xyz
x,y,z
1/2-x,-y,1/2+z
x,-y,-z
1/2-x,y,1/2-z
-x,-y,-z
1/2+x,y,1/2-z
-x,y,z
1/2+x,-y,1/2+z
loop_
_atom_site_type_symbol
_atom_site_label
_atom_site_fract_x
_atom_site_fract_y
_atom_site_fract_z
Si Si1 0.185515 0.233596 0.888820
Si Si2 0.314081 0.238224 0.706771
Si Si3 0.314302 0.472719 0.386435
Si Si4 0.685887 0.128850 0.521318
Si Si5 0.684111 0.626678 0.973711
Si Si6 0.815778 0.477546 0.295028
O O1 0.224035 0.169884 0.840544
O O2 0.249343 0.380252 0.890652
O O3 0.000000 0.241556 0.895672
O O4 0.258641 0.150719 0.929204
O O5 0.250000 0.158513 0.750000
O O6 0.500000 0.266322 0.710574
O O7 0.218508 0.370790 0.707087
O O8 0.500000 0.461730 0.394556
O O9 0.222754 0.387416 0.422178
O O10 0.271515 0.418058 0.337880
O O11 0.500000 0.109549 0.524958
O O12 0.720764 0.251086 0.491103
O O13 0.762725 0.000000 0.500000
O O14 0.500000 0.650890 0.981178
O O15 0.742557 0.500000 0.000000
O O16 0.750000 0.411654 0.250000
O O17 0.000000 0.450271 0.299076
#
# Coordination Sequence:
#
# PCOD8217531 Si02
#       6
#     8   8   8   8   8   8
#     4   8  15  27  44  67  94 124 157 201 249 295
#     4   9  15  24  38  60  90 124 159 196 243 293
#     4  10  18  30  49  70  96 130 168 208 255 298
#     4  10  20  35  54  74  97 132 174 212 256 309
#     4  11  22  34  50  75 103 132 168 209 256 306
#     4  10  17  26  40  63  97 130 163 200 247 301
#
# _framework density 18.066956000000001
#
# number of rings (size 3 to 8) (size 9 to 14) (size 15 to 20)
#    0.000    2.333    1.667    5.000    0.000    1.000 
#    0.000    0.833    0.000    0.000    0.000    1.167 
#    0.000    5.333    0.000    0.000    0.000    0.000 
#
# Total GULP energy -594790.275524 kJ/mol
# GULP energy per Si atom -12391.464073 kJ/mol
# Density = 1.802583 g / cm^3
# Si number density = 18.066956 Si / 1000 Ang^3
#
#
#
# Elastic Constant Matrix: (Units=GPa)
#
#
# Indices 1 2 3 4 5 6 
#
# 1 35.2012 2.6220 8.5014 0.0000 0.0000 0.0000
# 2 2.6220 56.4780 43.4334 0.0000 0.0000 0.0000
# 3 8.5014 43.4334 188.8891 0.0000 0.0000 0.0000
# 4 0.0000 0.0000 0.0000 13.8101 0.0000 0.0000
# 5 0.0000 0.0000 0.0000 0.0000 25.8501 0.0000
# 6 0.0000 0.0000 0.0000 0.0000 0.0000 10.2848
#
#
#
# Elastic Compliance Matrix: (Units=1/GPa)
#
#
# Indices 1 2 3 4 5 6 
#
# 1 0.028728 -0.000412 -0.001198 0.000000 0.000000 0.000000
# 2 -0.000412 0.021516 -0.004929 0.000000 0.000000 0.000000
# 3 -0.001198 -0.004929 0.006481 0.000000 0.000000 0.000000
# 4 0.000000 0.000000 0.000000 0.072411 0.000000 0.000000
# 5 0.000000 0.000000 0.000000 0.000000 0.038685 0.000000
# 6 0.000000 0.000000 0.000000 0.000000 0.000000 0.097231
#
#
# Mechanical properties :
#
#
# Convention : Reuss Voigt Hill
#
# Bulk Modulus (GPa) = 22.91123 43.29797 33.10460
# Shear Modulus (GPa) = 17.08356 25.05643 21.07000
#
# Velocity S-wave (km/s) = 3.07835 3.72810 3.41870
# Velocity P-wave (km/s) = 5.03426 6.52296 5.82635
#
# Compressibility (1/GPa) = 0.04364672
#
# Stress axis : x y z
#
# Youngs Moduli (GPa) = 34.80900 46.47808 154.28856
#
# Poissons Ratio (x) = 0.01916 0.18487
# Poissons Ratio (y) = 0.01435 0.76045
# Poissons Ratio (z) = 0.04171 0.22908
#
# Static dielectric constant tensor:
#      x y z
#    x 3.163570 0.000000 0.000000 
#    y 0.000000 2.841670 0.000000 
#    z 0.000000 0.000000 4.326360 
# 
# 
# High freq. dielectric constant tensor:
#      x y z
#    x 1.691100 0.000000 0.000000 
#    y 0.000000 1.617380 0.000000 
#    z 0.000000 0.000000 1.735200 
# 
# From -- ./inp_files/36181.got.cif
#   From: 2010.03.12/outbox.cif.g09.slc.cpg/sg53_19_cif.got.tgz:36181.got - 2010.04.16 14:36:59.
