data_PCOD8217589
_publ_section_title
;
Structure prediction by ZEFSAII (Michael W. Deem and Ramdas Pophale) SiO2 
 PCOD8217589
Probable space group: P M N A
;
_chemical_formula_sum "Si O2"
_cell_formula_units_Z 40
_cell_length_a 8.703723
_cell_length_b 7.600893
_cell_length_c 30.173851
_cell_angle_alpha 90.000000
_cell_angle_beta 90.000000
_cell_angle_gamma 90.000000
_cell_volume 1996.183315
_symmetry_space_group_name_H-M "P M N A"
_symmetry_group_IT_number 53
_symmetry_cell_setting 'orthorhombic'
loop_
_space_group_symop_operation_xyz
x,y,z
1/2-x,-y,1/2+z
x,-y,-z
1/2-x,y,1/2-z
-x,-y,-z
1/2+x,y,1/2-z
-x,y,z
1/2+x,-y,1/2+z
loop_
_atom_site_type_symbol
_atom_site_label
_atom_site_fract_x
_atom_site_fract_y
_atom_site_fract_z
Si Si1 0.317814 0.297124 0.115214
Si Si2 0.321057 0.321789 0.792076
Si Si3 0.316939 0.003105 0.950303
Si Si4 0.680386 0.295497 0.294263
Si Si5 0.178879 0.691775 0.389405
O O1 0.500000 0.301643 0.121230
O O2 0.265638 0.174910 0.074454
O O3 0.249163 0.214465 0.160440
O O4 0.252375 0.494388 0.105954
O O5 0.250000 0.212396 0.750000
O O6 0.500000 0.362289 0.784348
O O7 0.225926 0.501035 0.793662
O O8 0.295105 0.228882 0.839678
O O9 0.500000 0.015169 0.950979
O O10 0.246796 0.172875 0.924571
O O11 0.249712 0.000000 0.000000
O O12 0.750000 0.202717 0.250000
O O13 0.500000 0.268425 0.293959
O O14 0.000000 0.677953 0.399756
#
# Coordination Sequence:
#
# PCOD8217589 Si02
#       5
#     8   8   8   8   8
#     4   9  17  30  48  70  98 128 157 195 240 283
#     4   9  15  25  43  68  98 128 157 191 231 277
#     4   9  17  29  47  71  96 123 159 204 248 285
#     4  10  17  27  46  71  99 129 161 194 231 280
#     4   8  15  27  43  67  97 125 155 193 236 280
#
# _framework density 20.038239999999998
#
# number of rings (size 3 to 8) (size 9 to 14) (size 15 to 20)
#    0.000    3.000    0.000    4.800    0.000    0.800 
#    0.000    5.000    0.000    9.000    0.000    5.600 
#    0.000    0.000    0.000    0.000    0.000    0.000 
#
# Total GULP energy -495543.466937 kJ/mol
# GULP energy per Si atom -12388.586673 kJ/mol
# Density = 1.999263 g / cm^3
# Si number density = 20.038240 Si / 1000 Ang^3
#
#
#
# Elastic Constant Matrix: (Units=GPa)
#
#
# Indices 1 2 3 4 5 6 
#
# 1 53.3362 18.5398 36.0801 0.0000 0.0000 0.0000
# 2 18.5398 87.5132 79.1282 0.0000 0.0000 0.0000
# 3 36.0801 79.1282 216.6255 0.0000 0.0000 0.0000
# 4 0.0000 0.0000 0.0000 15.7690 0.0000 0.0000
# 5 0.0000 0.0000 0.0000 0.0000 23.5495 0.0000
# 6 0.0000 0.0000 0.0000 0.0000 0.0000 3.7693
#
#
#
# Elastic Compliance Matrix: (Units=1/GPa)
#
#
# Indices 1 2 3 4 5 6 
#
# 1 0.021351 -0.001953 -0.002843 0.000000 0.000000 0.000000
# 2 -0.001953 0.017241 -0.005972 0.000000 0.000000 0.000000
# 3 -0.002843 -0.005972 0.007271 0.000000 0.000000 0.000000
# 4 0.000000 0.000000 0.000000 0.063416 0.000000 0.000000
# 5 0.000000 0.000000 0.000000 0.000000 0.042464 0.000000
# 6 0.000000 0.000000 0.000000 0.000000 0.000000 0.265304
#
#
# Mechanical properties :
#
#
# Convention : Reuss Voigt Hill
#
# Bulk Modulus (GPa) = 41.10672 69.44122 55.27397
# Shear Modulus (GPa) = 11.19341 23.53267 17.36304
#
# Velocity S-wave (km/s) = 2.36604 3.43065 2.94682
# Velocity P-wave (km/s) = 5.29366 7.10085 6.26279
#
# Compressibility (1/GPa) = 0.02432692
#
# Stress axis : x y z
#
# Youngs Moduli (GPa) = 46.83655 58.00243 137.52706
#
# Poissons Ratio (x) = 0.11327 0.39096
# Poissons Ratio (y) = 0.09146 0.82136
# Poissons Ratio (z) = 0.13315 0.34641
#
# Static dielectric constant tensor:
#      x y z
#    x 3.231240 0.000000 0.000000 
#    y 0.000000 3.493320 0.000000 
#    z 0.000000 0.000000 4.487490 
# 
# 
# High freq. dielectric constant tensor:
#      x y z
#    x 1.732870 0.000000 0.000000 
#    y 0.000000 1.751180 0.000000 
#    z 0.000000 0.000000 1.798550 
# 
# From -- ./inp_files/37519.got.cif
#   From: 2010.03.12/outbox.cif.g09.slc.cpg/sg53_19_cif.got.tgz:37519.got - 2010.04.16 14:36:59.
