data_PCOD8217572
_publ_section_title
;
Structure prediction by ZEFSAII (Michael W. Deem and Ramdas Pophale) SiO2 
 PCOD8217572
Probable space group: P M N A
;
_chemical_formula_sum "Si O2"
_cell_formula_units_Z 56
_cell_length_a 8.715394
_cell_length_b 18.270926
_cell_length_c 19.371662
_cell_angle_alpha 90.000000
_cell_angle_beta 90.000000
_cell_angle_gamma 90.000000
_cell_volume 3084.710890
_symmetry_space_group_name_H-M "P M N A"
_symmetry_group_IT_number 53
_symmetry_cell_setting 'orthorhombic'
loop_
_space_group_symop_operation_xyz
x,y,z
1/2-x,-y,1/2+z
x,-y,-z
1/2-x,y,1/2-z
-x,-y,-z
1/2+x,y,1/2-z
-x,y,z
1/2+x,-y,1/2+z
loop_
_atom_site_type_symbol
_atom_site_label
_atom_site_fract_x
_atom_site_fract_y
_atom_site_fract_z
Si Si1 0.319264 0.345838 0.419053
Si Si2 0.680824 0.776531 0.825393
Si Si3 0.168791 0.492770 0.918491
Si Si4 0.818311 0.076112 0.173337
Si Si5 0.679814 0.652076 0.068329
Si Si6 0.321320 0.772463 0.175212
Si Si7 0.820869 0.066647 0.674858
O O1 0.500000 0.330446 0.411436
O O2 0.220858 0.291194 0.373407
O O3 0.277360 0.427536 0.391198
O O4 0.273565 0.335938 0.498539
O O5 0.750000 0.762911 0.750000
O O6 0.500000 0.785539 0.818665
O O7 0.751096 0.850043 0.860931
O O8 0.286475 0.428132 0.898612
O O9 0.000000 0.473334 0.888757
O O10 0.157462 0.500000 0.000000
O O11 0.750000 0.073301 0.250000
O O12 0.000000 0.079677 0.173782
O O13 0.761156 0.001396 0.134594
O O14 0.500000 0.659899 0.053249
O O15 0.741716 0.712707 0.121723
O O16 0.250000 0.760597 0.250000
O O17 0.500000 0.761294 0.186292
O O18 0.288381 0.853290 0.142018
O O19 0.750000 0.071564 0.750000
O O20 0.000000 0.049152 0.679351
#
# Coordination Sequence:
#
# PCOD8217572 Si02
#       7
#     8   8   8   8   8   8   8
#     4  10  20  35  53  74  99 129 165 203 245 294
#     4  11  21  34  52  75 102 131 162 200 246 292
#     4   8  16  31  50  71  95 125 162 203 244 288
#     4  10  17  27  44  68  96 126 161 199 238 283
#     4  10  19  32  51  76 101 128 165 206 247 293
#     4   9  19  32  48  72 102 132 164 203 246 291
#     4   9  15  26  43  65  93 125 161 200 239 280
#
# _framework density 18.154050999999999
#
# number of rings (size 3 to 8) (size 9 to 14) (size 15 to 20)
#    0.000    2.429    0.000    6.429    0.000    4.857 
#    0.000    0.714    0.000    2.571    0.000    6.000 
#    0.000    0.000    0.000    0.000    0.000    0.000 
#
# Total GULP energy -693929.427944 kJ/mol
# GULP energy per Si atom -12391.596928 kJ/mol
# Density = 1.811273 g / cm^3
# Si number density = 18.154051 Si / 1000 Ang^3
#
#
#
# Elastic Constant Matrix: (Units=GPa)
#
#
# Indices 1 2 3 4 5 6 
#
# 1 110.8326 57.7835 22.2759 0.0000 0.0000 0.0000
# 2 57.7835 167.6469 44.2833 0.0000 0.0000 0.0000
# 3 22.2759 44.2833 40.7315 0.0000 0.0000 0.0000
# 4 0.0000 0.0000 0.0000 -4.1195 0.0000 0.0000
# 5 0.0000 0.0000 0.0000 0.0000 18.2849 0.0000
# 6 0.0000 0.0000 0.0000 0.0000 0.0000 35.6305
#
#
#
# Elastic Compliance Matrix: (Units=1/GPa)
#
#
# Indices 1 2 3 4 5 6 
#
# 1 0.011208 -0.003148 -0.002707 0.000000 0.000000 0.000000
# 2 -0.003148 0.009252 -0.008337 0.000000 0.000000 0.000000
# 3 -0.002707 -0.008337 0.035096 0.000000 0.000000 0.000000
# 4 0.000000 0.000000 0.000000 -0.242746 0.000000 0.000000
# 5 0.000000 0.000000 0.000000 0.000000 0.054690 0.000000
# 6 0.000000 0.000000 0.000000 0.000000 0.000000 0.028066
#
#
# Mechanical properties :
#
#
# Convention : Reuss Voigt Hill
#
# Bulk Modulus (GPa) = 36.80375 63.09962 49.95168
# Shear Modulus (GPa) = -74.63601 22.95039 -25.84281
#
# Velocity S-wave (km/s) = -6.41887 3.55942 -3.77706
# Velocity P-wave (km/s) = 5.88377 7.19208 2.92465
#
# Compressibility (1/GPa) = 0.02717115
#
# Stress axis : x y z
#
# Youngs Moduli (GPa) = 89.22241 108.08172 28.49335
#
# Poissons Ratio (x) = 0.34024 0.07713
# Poissons Ratio (y) = 0.28087 0.23756
# Poissons Ratio (z) = 0.24153 0.90112
#
# Static dielectric constant tensor:
#      x y z
#    x 3.420360 0.000000 0.000000 
#    y 0.000000 4.628040 0.000000 
#    z 0.000000 0.000000 2.829470 
# 
# 
# High freq. dielectric constant tensor:
#      x y z
#    x 1.714980 0.000000 0.000000 
#    y 0.000000 1.733610 0.000000 
#    z 0.000000 0.000000 1.636610 
# 
# From -- ./inp_files/30982.got.cif
#   From: 2010.03.12/outbox.cif.g09.slc.cpg/sg53_16_cif.got.tgz:30982.got - 2010.04.16 14:36:59.
