data_PCOD8217478
_publ_section_title
;
Structure prediction by ZEFSAII (Michael W. Deem and Ramdas Pophale) SiO2 
 PCOD8217478
Probable space group: P M N A
;
_chemical_formula_sum "Si O2"
_cell_formula_units_Z 48
_cell_length_a 24.627079
_cell_length_b 5.232151
_cell_length_c 26.563657
_cell_angle_alpha 90.000000
_cell_angle_beta 90.000000
_cell_angle_gamma 90.000000
_cell_volume 3422.796164
_symmetry_space_group_name_H-M "P M N A"
_symmetry_group_IT_number 53
_symmetry_cell_setting 'orthorhombic'
loop_
_space_group_symop_operation_xyz
x,y,z
1/2-x,-y,1/2+z
x,-y,-z
1/2-x,y,1/2-z
-x,-y,-z
1/2+x,y,1/2-z
-x,y,z
1/2+x,-y,1/2+z
loop_
_atom_site_type_symbol
_atom_site_label
_atom_site_fract_x
_atom_site_fract_y
_atom_site_fract_z
Si Si1 0.162068 0.786158 0.862880
Si Si2 0.113079 0.250352 0.032554
Si Si3 0.116675 0.713826 0.186450
Si Si4 0.271852 0.213591 0.193073
Si Si5 0.000000 0.719623 0.912060
Si Si6 0.307341 0.286496 0.778722
Si Si7 0.500000 0.780002 0.345489
O O1 0.156608 0.749324 0.922358
O O2 0.127344 0.568391 0.835008
O O3 0.224490 0.756295 0.847476
O O4 0.141218 0.068799 0.849515
O O5 0.052152 0.249726 0.053138
O O6 0.124331 0.500000 0.000000
O O7 0.123189 0.000000 0.000000
O O8 0.142173 0.742595 0.241452
O O9 0.052167 0.750934 0.190298
O O10 0.250000 0.183578 0.250000
O O11 0.312643 0.454395 0.188534
O O12 0.306003 0.954462 0.183270
O O13 0.000000 0.436948 0.888394
O O14 0.000000 0.939721 0.870115
O O15 0.250000 0.316389 0.750000
#
# Coordination Sequence:
#
# PCOD8217478 Si02
#       7
#     8   8   8   8   4   8   4
#     4  12  20  32  50  61  83 106 133 182 229 255
#     4  12  24  37  46  60  78 109 151 191 229 263
#     4  12  19  31  45  64  87 108 134 174 222 264
#     4  10  16  28  45  71  83  96 123 165 225 258
#     4  12  22  37  50  56  72 108 154 206 228 247
#     4  10  16  26  45  66  86 101 123 164 218 254
#     4  12  22  33  46  66  84 112 148 178 232 271
#
# _framework density 14.023622
#
# number of rings (size 3 to 8) (size 9 to 14) (size 15 to 20)
#    0.000    0.667   10.000    2.500    0.000    0.000 
#    0.000    0.000    0.000    0.000    0.000    0.000 
#    0.000    0.000    0.000    0.000    0.000    0.000 
#
# Total GULP energy -595089.016030 kJ/mol
# GULP energy per Si atom -12397.687834 kJ/mol
# Density = 1.399170 g / cm^3
# Si number density = 14.023622 Si / 1000 Ang^3
#
#
#
# Elastic Constant Matrix: (Units=GPa)
#
#
# Indices 1 2 3 4 5 6 
#
# 1 58.9316 16.6218 47.0162 0.0000 0.0000 0.0000
# 2 16.6218 100.9251 16.0611 0.0000 0.0000 0.0000
# 3 47.0162 16.0611 60.2344 0.0000 0.0000 0.0000
# 4 0.0000 0.0000 0.0000 20.9005 0.0000 0.0000
# 5 0.0000 0.0000 0.0000 0.0000 27.3879 0.0000
# 6 0.0000 0.0000 0.0000 0.0000 0.0000 16.4913
#
#
#
# Elastic Compliance Matrix: (Units=1/GPa)
#
#
# Indices 1 2 3 4 5 6 
#
# 1 0.045330 -0.001916 -0.034872 0.000000 0.000000 0.000000
# 2 -0.001916 0.010428 -0.001285 0.000000 0.000000 0.000000
# 3 -0.034872 -0.001285 0.044164 0.000000 0.000000 0.000000
# 4 0.000000 0.000000 0.000000 0.047846 0.000000 0.000000
# 5 0.000000 0.000000 0.000000 0.000000 0.036512 0.000000
# 6 0.000000 0.000000 0.000000 0.000000 0.000000 0.060638
#
#
# Mechanical properties :
#
#
# Convention : Reuss Voigt Hill
#
# Bulk Modulus (GPa) = 42.05825 42.16546 42.11186
# Shear Modulus (GPa) = 15.19802 22.31541 18.75672
#
# Velocity S-wave (km/s) = 3.29560 3.99340 3.66116
# Velocity P-wave (km/s) = 6.67364 7.16908 6.92579
#
# Compressibility (1/GPa) = 0.02377655
#
# Stress axis : x y z
#
# Youngs Moduli (GPa) = 22.06029 95.89188 22.64298
#
# Poissons Ratio (x) = 0.18375 0.78960
# Poissons Ratio (y) = 0.04227 0.02910
# Poissons Ratio (z) = 0.76928 0.12322
#
# Static dielectric constant tensor:
#      x y z
#    x 2.726100 0.000000 0.000000 
#    y 0.000000 3.928090 0.000000 
#    z 0.000000 0.000000 2.548520 
# 
# 
# High freq. dielectric constant tensor:
#      x y z
#    x 1.504850 0.000000 0.000000 
#    y 0.000000 1.576140 0.000000 
#    z 0.000000 0.000000 1.489910 
# 
# From -- ./inp_files/33153.got.cif
#   From: 2010.03.12/outbox.cif.g09.slc.cpg/sg53_17_cif.got.tgz:33153.got - 2010.04.16 14:36:59.
