data_PCOD8217988
_publ_section_title
;
Structure prediction by ZEFSAII (Michael W. Deem and Ramdas Pophale) SiO2 
 PCOD8217988
Probable space group: P M N A
;
_chemical_formula_sum "Si O2"
_cell_formula_units_Z 56
_cell_length_a 9.148242
_cell_length_b 17.698160
_cell_length_c 20.251957
_cell_angle_alpha 90.000000
_cell_angle_beta 90.000000
_cell_angle_gamma 90.000000
_cell_volume 3278.934627
_symmetry_space_group_name_H-M "P M N A"
_symmetry_group_IT_number 53
_symmetry_cell_setting 'orthorhombic'
loop_
_space_group_symop_operation_xyz
x,y,z
1/2-x,-y,1/2+z
x,-y,-z
1/2-x,y,1/2-z
-x,-y,-z
1/2+x,y,1/2-z
-x,y,z
1/2+x,-y,1/2+z
loop_
_atom_site_type_symbol
_atom_site_label
_atom_site_fract_x
_atom_site_fract_y
_atom_site_fract_z
Si Si1 0.335957 0.510867 0.421727
Si Si2 0.672940 0.815463 0.033822
Si Si3 0.671213 0.960707 0.431118
Si Si4 0.668730 0.073991 0.317207
Si Si5 0.664492 0.632857 0.905646
Si Si6 0.171377 0.218963 0.101288
Si Si7 0.338390 0.348143 0.937969
O O1 0.332451 0.500000 0.500000
O O2 0.500000 0.506503 0.394286
O O3 0.241425 0.445936 0.385978
O O4 0.271769 0.593332 0.403317
O O5 0.500000 0.823125 0.020882
O O6 0.734849 0.884447 0.076654
O O7 0.707078 0.738758 0.075233
O O8 0.755104 0.814376 0.964102
O O9 0.500000 0.941141 0.427239
O O10 0.709979 0.000000 0.500000
O O11 0.723038 0.016089 0.373118
O O12 0.750000 0.056113 0.250000
O O13 0.500000 0.060669 0.303599
O O14 0.698382 0.159583 0.340232
O O15 0.500000 0.633778 0.876844
O O16 0.756087 0.702447 0.875486
O O17 0.661562 0.640583 0.983843
O O18 0.000000 0.231262 0.086908
O O19 0.500000 0.364903 0.909971
#
# Coordination Sequence:
#
# PCOD8217988 Si02
#       7
#     8   8   8   8   8   8   8
#     4   9  15  22  34  54  80 116 157 189 227 279
#     4  10  19  29  45  71  95 122 160 203 245 288
#     4  10  19  35  53  71  97 128 163 203 251 300
#     4  10  22  37  53  72  97 130 162 203 252 297
#     4   9  16  25  38  58  84 117 155 194 234 276
#     4  10  18  31  47  65  92 125 160 198 242 289
#     4   8  15  25  35  53  86 119 149 189 236 278
#
# _framework density 17.078719
#
# number of rings (size 3 to 8) (size 9 to 14) (size 15 to 20)
#    0.000    2.571    1.429    2.571    0.000    7.714 
#    0.000    0.000    0.000    0.000    0.000    0.000 
#    0.000    1.143    0.000    5.714    0.000    8.000 
#
# Total GULP energy -694284.338710 kJ/mol
# GULP energy per Si atom -12397.934620 kJ/mol
# Density = 1.703985 g / cm^3
# Si number density = 17.078719 Si / 1000 Ang^3
#
#
#
# Elastic Constant Matrix: (Units=GPa)
#
#
# Indices 1 2 3 4 5 6 
#
# 1 117.6542 79.6865 32.6305 0.0000 0.0000 0.0000
# 2 79.6865 153.0882 38.8051 0.0000 0.0000 0.0000
# 3 32.6305 38.8051 57.0484 0.0000 0.0000 0.0000
# 4 0.0000 0.0000 0.0000 9.2687 0.0000 0.0000
# 5 0.0000 0.0000 0.0000 0.0000 16.0273 0.0000
# 6 0.0000 0.0000 0.0000 0.0000 0.0000 37.3782
#
#
#
# Elastic Compliance Matrix: (Units=1/GPa)
#
#
# Indices 1 2 3 4 5 6 
#
# 1 0.013717 -0.006225 -0.003612 0.000000 0.000000 0.000000
# 2 -0.006225 0.010718 -0.003730 0.000000 0.000000 0.000000
# 3 -0.003612 -0.003730 0.022132 0.000000 0.000000 0.000000
# 4 0.000000 0.000000 0.000000 0.107890 0.000000 0.000000
# 5 0.000000 0.000000 0.000000 0.000000 0.062394 0.000000
# 6 0.000000 0.000000 0.000000 0.000000 0.000000 0.026754
#
#
# Mechanical properties :
#
#
# Convention : Reuss Voigt Hill
#
# Bulk Modulus (GPa) = 51.45618 70.00389 60.73003
# Shear Modulus (GPa) = 18.03657 24.31277 21.17467
#
# Velocity S-wave (km/s) = 3.25327 3.77712 3.52494
# Velocity P-wave (km/s) = 6.65627 7.75242 7.22517
#
# Compressibility (1/GPa) = 0.01943401
#
# Stress axis : x y z
#
# Youngs Moduli (GPa) = 72.90199 93.30348 45.18330
#
# Poissons Ratio (x) = 0.58077 0.16320
# Poissons Ratio (y) = 0.45378 0.16853
# Poissons Ratio (z) = 0.26331 0.34802
#
# Static dielectric constant tensor:
#      x y z
#    x 3.326570 0.000000 0.000000 
#    y 0.000000 3.520010 0.000000 
#    z 0.000000 0.000000 2.542870 
# 
# 
# High freq. dielectric constant tensor:
#      x y z
#    x 1.670930 0.000000 0.000000 
#    y 0.000000 1.677530 0.000000 
#    z 0.000000 0.000000 1.579480 
# 
# From -- ./inp_files/31018.got.cif
#   From: 2010.03.12/outbox.cif.g09.slc.cpg/sg53_16_cif.got.tgz:31018.got - 2010.04.16 14:36:59.
