data_PCOD8217931
_publ_section_title
;
Structure prediction by ZEFSAII (Michael W. Deem and Ramdas Pophale) SiO2 
 PCOD8217931
Probable space group: P M N A
;
_chemical_formula_sum "Si O2"
_cell_formula_units_Z 48
_cell_length_a 17.425388
_cell_length_b 5.324852
_cell_length_c 20.896609
_cell_angle_alpha 90.000000
_cell_angle_beta 90.000000
_cell_angle_gamma 90.000000
_cell_volume 1938.946451
_symmetry_space_group_name_H-M "P M N A"
_symmetry_group_IT_number 53
_symmetry_cell_setting 'orthorhombic'
loop_
_space_group_symop_operation_xyz
x,y,z
1/2-x,-y,1/2+z
x,-y,-z
1/2-x,y,1/2-z
-x,-y,-z
1/2+x,y,1/2-z
-x,y,z
1/2+x,-y,1/2+z
loop_
_atom_site_type_symbol
_atom_site_label
_atom_site_fract_x
_atom_site_fract_y
_atom_site_fract_z
Si Si1 0.913945 0.150591 0.282572
Si Si2 0.089118 0.759480 0.925093
Si Si3 0.153106 0.739701 0.065055
Si Si4 0.913145 0.843362 0.565424
Si Si5 0.172436 0.343670 0.567668
Si Si6 0.332352 0.650414 0.219945
O O1 0.910819 0.155297 0.358690
O O2 0.869551 0.392051 0.254925
O O3 0.000000 0.169932 0.256802
O O4 0.879741 0.891297 0.255799
O O5 0.126602 0.506166 0.894562
O O6 0.000000 0.776268 0.907791
O O7 0.133850 0.003548 0.896168
O O8 0.101701 0.749555 0.001253
O O9 0.241848 0.721070 0.045041
O O10 0.854314 0.621428 0.542155
O O11 0.000000 0.790799 0.542191
O O12 0.886472 0.125311 0.542194
O O13 0.171922 0.346002 0.643730
O O14 0.250000 0.676247 0.250000
#
# Coordination Sequence:
#
# PCOD8217931 Si02
#       6
#     8   8   8   8   8   8
#     4   9  17  30  49  67  87 118 160 202 234 266
#     4  10  19  33  53  74  94 126 164 198 235 279
#     4  10  18  30  49  74  98 119 152 202 240 275
#     4   9  17  30  47  70  94 119 155 199 235 271
#     4  10  19  30  48  74  97 122 157 198 243 282
#     4  10  19  31  48  69  97 128 156 193 240 289
#
# _framework density 24.755710000000001
#
# number of rings (size 3 to 8) (size 9 to 14) (size 15 to 20)
#    0.000    2.333    0.000    5.000    0.000    4.000 
#    0.000    0.000    0.000    8.000    0.000   46.667 
#    0.000    0.000    0.000    0.000    0.000    0.000 
#
# Total GULP energy -595275.700470 kJ/mol
# GULP energy per Si atom -12401.577093 kJ/mol
# Density = 2.469937 g / cm^3
# Si number density = 24.755710 Si / 1000 Ang^3
#
#
#
# Elastic Constant Matrix: (Units=GPa)
#
#
# Indices 1 2 3 4 5 6 
#
# 1 201.5725 96.0229 7.1353 0.0000 0.0000 0.0000
# 2 96.0229 247.3212 26.6729 0.0000 0.0000 0.0000
# 3 7.1353 26.6729 29.3597 0.0000 0.0000 0.0000
# 4 0.0000 0.0000 0.0000 4.4148 0.0000 0.0000
# 5 0.0000 0.0000 0.0000 0.0000 14.8649 0.0000
# 6 0.0000 0.0000 0.0000 0.0000 0.0000 53.7883
#
#
#
# Elastic Compliance Matrix: (Units=1/GPa)
#
#
# Indices 1 2 3 4 5 6 
#
# 1 0.006101 -0.002449 0.000742 0.000000 0.000000 0.000000
# 2 -0.002449 0.005465 -0.004370 0.000000 0.000000 0.000000
# 3 0.000742 -0.004370 0.037850 0.000000 0.000000 0.000000
# 4 0.000000 0.000000 0.000000 0.226509 0.000000 0.000000
# 5 0.000000 0.000000 0.000000 0.000000 0.067273 0.000000
# 6 0.000000 0.000000 0.000000 0.000000 0.000000 0.018591
#
#
# Mechanical properties :
#
#
# Convention : Reuss Voigt Hill
#
# Bulk Modulus (GPa) = 26.83642 81.99064 54.41353
# Shear Modulus (GPa) = 12.94114 37.84174 25.39144
#
# Velocity S-wave (km/s) = 2.28886 3.91398 3.20610
# Velocity P-wave (km/s) = 4.22483 7.32239 5.97774
#
# Compressibility (1/GPa) = 0.03726279
#
# Stress axis : x y z
#
# Youngs Moduli (GPa) = 163.89977 182.96923 26.42001
#
# Poissons Ratio (x) = 0.44806 -0.01960
# Poissons Ratio (y) = 0.40137 0.11546
# Poissons Ratio (z) = -0.12160 0.79959
#
# Static dielectric constant tensor:
#      x y z
#    x 4.389540 0.000000 0.000000 
#    y 0.000000 6.271480 0.000000 
#    z 0.000000 0.000000 4.296670 
# 
# 
# High freq. dielectric constant tensor:
#      x y z
#    x 1.985660 0.000000 0.000000 
#    y 0.000000 2.022510 0.000000 
#    z 0.000000 0.000000 1.970600 
# 
# From -- ./inp_files/38818.got.cif
#   From: 2010.03.12/outbox.cif.g09.slc.cpg/sg53_20_cif.got.tgz:38818.got - 2010.04.16 14:36:59.
