data_PCOD8217772
_publ_section_title
;
Structure prediction by ZEFSAII (Michael W. Deem and Ramdas Pophale) SiO2 
 PCOD8217772
Probable space group: P M N A
;
_chemical_formula_sum "Si O2"
_cell_formula_units_Z 64
_cell_length_a 9.070082
_cell_length_b 20.368344
_cell_length_c 20.451476
_cell_angle_alpha 90.000000
_cell_angle_beta 90.000000
_cell_angle_gamma 90.000000
_cell_volume 3778.257833
_symmetry_space_group_name_H-M "P M N A"
_symmetry_group_IT_number 53
_symmetry_cell_setting 'orthorhombic'
loop_
_space_group_symop_operation_xyz
x,y,z
1/2-x,-y,1/2+z
x,-y,-z
1/2-x,y,1/2-z
-x,-y,-z
1/2+x,y,1/2-z
-x,y,z
1/2+x,-y,1/2+z
loop_
_atom_site_type_symbol
_atom_site_label
_atom_site_fract_x
_atom_site_fract_y
_atom_site_fract_z
Si Si1 0.164298 0.284566 0.349155
Si Si2 0.664177 0.574899 0.811497
Si Si3 0.673441 0.947280 0.446443
Si Si4 0.671965 0.017122 0.313516
Si Si5 0.673549 0.694815 0.522380
Si Si6 0.674210 0.564316 0.959737
Si Si7 0.165024 0.856446 0.649123
Si Si8 0.829339 0.176642 0.501977
O O1 0.167742 0.346018 0.300168
O O2 0.293380 0.293960 0.401456
O O3 0.186173 0.213968 0.313934
O O4 0.000000 0.282961 0.383713
O O5 0.750000 0.542723 0.750000
O O6 0.500000 0.546691 0.806783
O O7 0.728056 0.557196 0.883746
O O8 0.500000 0.934756 0.453901
O O9 0.757708 0.879067 0.453125
O O10 0.727718 0.000000 0.500000
O O11 0.718088 0.974952 0.375929
O O12 0.750000 0.986267 0.250000
O O13 0.500000 0.016026 0.301610
O O14 0.718855 0.092763 0.322257
O O15 0.500000 0.693962 0.508683
O O16 0.744272 0.624391 0.503632
O O17 0.748492 0.754312 0.481913
O O18 0.500000 0.578152 0.960290
O O19 0.717556 0.500000 0.000000
O O20 0.195792 0.843893 0.572844
O O21 0.000000 0.884398 0.660015
O O22 0.000000 0.183445 0.520255
#
# Coordination Sequence:
#
# PCOD8217772 Si02
#       8
#     8   8   8   8   8   8   8   8
#     4   8  16  30  44  62  91 128 167 201 231 276
#     4   9  17  29  45  66  94 126 163 201 239 282
#     4  10  20  35  53  74  98 124 163 212 259 297
#     4  11  23  36  49  66  95 129 161 205 254 308
#     4  10  18  28  46  73 103 129 158 200 248 293
#     4   9  18  34  53  71  97 135 173 206 241 287
#     4   9  17  30  47  67  92 124 164 204 240 280
#     4  10  19  31  51  75  99 128 164 206 247 296
#
# _framework density 16.939024
#
# number of rings (size 3 to 8) (size 9 to 14) (size 15 to 20)
#    0.000    2.500    1.250    3.375    0.000    6.000 
#    0.000    1.250    0.000    0.000    0.000    0.875 
#    0.000    4.000    0.000    0.000    0.000    0.000 
#
# Total GULP energy -793168.554702 kJ/mol
# GULP energy per Si atom -12393.258667 kJ/mol
# Density = 1.690047 g / cm^3
# Si number density = 16.939024 Si / 1000 Ang^3
#
#
#
# Elastic Constant Matrix: (Units=GPa)
#
#
# Indices 1 2 3 4 5 6 
#
# 1 76.7314 49.8679 39.8551 0.0000 0.0000 0.0000
# 2 49.8679 107.6297 48.3283 0.0000 0.0000 0.0000
# 3 39.8551 48.3283 85.5959 0.0000 0.0000 0.0000
# 4 0.0000 0.0000 0.0000 12.9002 0.0000 0.0000
# 5 0.0000 0.0000 0.0000 0.0000 23.2203 0.0000
# 6 0.0000 0.0000 0.0000 0.0000 0.0000 23.8200
#
#
#
# Elastic Compliance Matrix: (Units=1/GPa)
#
#
# Indices 1 2 3 4 5 6 
#
# 1 0.020469 -0.006972 -0.005594 0.000000 0.000000 0.000000
# 2 -0.006972 0.014821 -0.005122 0.000000 0.000000 0.000000
# 3 -0.005594 -0.005122 0.017180 0.000000 0.000000 0.000000
# 4 0.000000 0.000000 0.000000 0.077518 0.000000 0.000000
# 5 0.000000 0.000000 0.000000 0.000000 0.043066 0.000000
# 6 0.000000 0.000000 0.000000 0.000000 0.000000 0.041981
#
#
# Mechanical properties :
#
#
# Convention : Reuss Voigt Hill
#
# Bulk Modulus (GPa) = 58.50197 60.67329 59.58763
# Shear Modulus (GPa) = 19.52279 20.78180 20.15230
#
# Velocity S-wave (km/s) = 3.39858 3.50646 3.45294
# Velocity P-wave (km/s) = 7.07193 7.23119 7.15200
#
# Compressibility (1/GPa) = 0.01709344
#
# Stress axis : x y z
#
# Youngs Moduli (GPa) = 48.85330 67.47026 58.20851
#
# Poissons Ratio (x) = 0.47040 0.32565
# Poissons Ratio (y) = 0.34061 0.29814
# Poissons Ratio (z) = 0.27331 0.34558
#
# Static dielectric constant tensor:
#      x y z
#    x 3.144490 0.000000 0.000000 
#    y 0.000000 3.219420 0.000000 
#    z 0.000000 0.000000 2.969080 
# 
# 
# High freq. dielectric constant tensor:
#      x y z
#    x 1.656260 0.000000 0.000000 
#    y 0.000000 1.639880 0.000000 
#    z 0.000000 0.000000 1.616550 
# 
# From -- ./inp_files/31383.got.cif
#   From: 2010.03.12/outbox.cif.g09.slc.cpg/sg53_16_cif.got.tgz:31383.got - 2010.04.16 14:36:59.
