data_PCOD8217785
_publ_section_title
;
Structure prediction by ZEFSAII (Michael W. Deem and Ramdas Pophale) SiO2 
 PCOD8217785
Probable space group: P M N A
;
_chemical_formula_sum "Si O2"
_cell_formula_units_Z 64
_cell_length_a 9.079077
_cell_length_b 17.038066
_cell_length_c 25.791905
_cell_angle_alpha 90.000000
_cell_angle_beta 90.000000
_cell_angle_gamma 90.000000
_cell_volume 3989.747544
_symmetry_space_group_name_H-M "P M N A"
_symmetry_group_IT_number 53
_symmetry_cell_setting 'orthorhombic'
loop_
_space_group_symop_operation_xyz
x,y,z
1/2-x,-y,1/2+z
x,-y,-z
1/2-x,y,1/2-z
-x,-y,-z
1/2+x,y,1/2-z
-x,y,z
1/2+x,-y,1/2+z
loop_
_atom_site_type_symbol
_atom_site_label
_atom_site_fract_x
_atom_site_fract_y
_atom_site_fract_z
Si Si1 0.165470 0.400818 0.964347
Si Si2 0.835565 0.289667 0.866037
Si Si3 0.831487 0.482936 0.398713
Si Si4 0.666193 0.985415 0.939136
Si Si5 0.826933 0.832045 0.955446
Si Si6 0.327248 0.861336 0.425975
Si Si7 0.172228 0.588548 0.303021
Si Si8 0.169261 0.676754 0.557374
O O1 0.161604 0.343329 0.916114
O O2 0.228437 0.484637 0.945172
O O3 0.000000 0.411558 0.986838
O O4 0.274706 0.362859 0.005088
O O5 0.779741 0.203708 0.883767
O O6 0.728213 0.326535 0.823023
O O7 0.000000 0.283933 0.842374
O O8 0.785683 0.519931 0.343655
O O9 0.813345 0.388373 0.396932
O O10 0.000000 0.506466 0.411509
O O11 0.500000 0.976509 0.918640
O O12 0.755649 0.906424 0.926343
O O13 0.741716 0.059321 0.910921
O O14 0.670977 0.000000 0.000000
O O15 0.763161 0.753669 0.928846
O O16 0.000000 0.834748 0.946380
O O17 0.785561 0.831433 0.016359
O O18 0.500000 0.878989 0.423853
O O19 0.250000 0.564717 0.250000
O O20 0.000000 0.594834 0.293295
O O21 0.000000 0.701746 0.549950
#
# Coordination Sequence:
#
# PCOD8217785 Si02
#       8
#     8   8   8   8   8   8   8   8
#     4  10  18  29  43  62  87 117 151 185 219 258
#     4   9  17  30  46  66  90 117 150 184 222 266
#     4   9  20  34  45  62  86 115 147 181 225 273
#     4   9  17  27  39  59  84 115 154 188 219 255
#     4  10  18  29  42  59  85 120 157 189 223 256
#     4   9  16  28  43  60  86 118 151 186 220 256
#     4  10  20  35  52  68  87 113 145 184 231 276
#     4  11  20  29  42  60  88 120 151 186 223 262
#
# _framework density 16.041115999999999
#
# number of rings (size 3 to 8) (size 9 to 14) (size 15 to 20)
#    0.000    2.375    1.250    2.250    0.000    6.000 
#    0.000    0.000    0.000    0.000    0.000    0.000 
#    0.000    1.000    0.000    9.250    0.000    3.875 
#
# Total GULP energy -793524.155365 kJ/mol
# GULP energy per Si atom -12398.814928 kJ/mol
# Density = 1.600461 g / cm^3
# Si number density = 16.041116 Si / 1000 Ang^3
#
#
#
# Elastic Constant Matrix: (Units=GPa)
#
#
# Indices 1 2 3 4 5 6 
#
# 1 90.3869 56.5599 24.9434 0.0000 0.0000 0.0000
# 2 56.5599 131.3287 24.7096 0.0000 0.0000 0.0000
# 3 24.9434 24.7096 35.6557 0.0000 0.0000 0.0000
# 4 0.0000 0.0000 0.0000 11.4453 0.0000 0.0000
# 5 0.0000 0.0000 0.0000 0.0000 17.3466 0.0000
# 6 0.0000 0.0000 0.0000 0.0000 0.0000 30.7156
#
#
#
# Elastic Compliance Matrix: (Units=1/GPa)
#
#
# Indices 1 2 3 4 5 6 
#
# 1 0.016826 -0.005786 -0.007761 0.000000 0.000000 0.000000
# 2 -0.005786 0.010746 -0.003399 0.000000 0.000000 0.000000
# 3 -0.007761 -0.003399 0.035831 0.000000 0.000000 0.000000
# 4 0.000000 0.000000 0.000000 0.087372 0.000000 0.000000
# 5 0.000000 0.000000 0.000000 0.000000 0.057648 0.000000
# 6 0.000000 0.000000 0.000000 0.000000 0.000000 0.032557
#
#
# Mechanical properties :
#
#
# Convention : Reuss Voigt Hill
#
# Bulk Modulus (GPa) = 33.88662 52.19966 43.04314
# Shear Modulus (GPa) = 17.56175 21.97873 19.77024
#
# Velocity S-wave (km/s) = 3.31236 3.70557 3.51447
# Velocity P-wave (km/s) = 5.98328 7.13583 6.58482
#
# Compressibility (1/GPa) = 0.02951017
#
# Stress axis : x y z
#
# Youngs Moduli (GPa) = 59.43144 93.05722 27.90886
#
# Poissons Ratio (x) = 0.53846 0.21660
# Poissons Ratio (y) = 0.34389 0.09487
# Poissons Ratio (z) = 0.46124 0.31632
#
# Static dielectric constant tensor:
#      x y z
#    x 3.227370 0.000000 0.000000 
#    y 0.000000 3.254340 0.000000 
#    z 0.000000 0.000000 2.616130 
# 
# 
# High freq. dielectric constant tensor:
#      x y z
#    x 1.631000 0.000000 0.000000 
#    y 0.000000 1.623290 0.000000 
#    z 0.000000 0.000000 1.551910 
# 
# From -- ./inp_files/36518.got.cif
#   From: 2010.03.12/outbox.cif.g09.slc.cpg/sg53_19_cif.got.tgz:36518.got - 2010.04.16 14:36:59.
