data_PCOD8217562
_publ_section_title
;
Structure prediction by ZEFSAII (Michael W. Deem and Ramdas Pophale) SiO2 
 PCOD8217562
Probable space group: P M N A
;
_chemical_formula_sum "Si O2"
_cell_formula_units_Z 64
_cell_length_a 15.822361
_cell_length_b 7.982224
_cell_length_c 31.937007
_cell_angle_alpha 90.000000
_cell_angle_beta 90.000000
_cell_angle_gamma 90.000000
_cell_volume 4033.568284
_symmetry_space_group_name_H-M "P M N A"
_symmetry_group_IT_number 53
_symmetry_cell_setting 'orthorhombic'
loop_
_space_group_symop_operation_xyz
x,y,z
1/2-x,-y,1/2+z
x,-y,-z
1/2-x,y,1/2-z
-x,-y,-z
1/2+x,y,1/2-z
-x,y,z
1/2+x,-y,1/2+z
loop_
_atom_site_type_symbol
_atom_site_label
_atom_site_fract_x
_atom_site_fract_y
_atom_site_fract_z
Si Si1 0.595960 0.826056 0.327937
Si Si2 0.596027 0.304912 0.412366
Si Si3 0.900218 0.702858 0.259719
Si Si4 0.170584 0.166475 0.169134
Si Si5 0.096035 0.196604 0.999328
Si Si6 0.904708 0.306608 0.912519
Si Si7 0.402003 0.331083 0.253811
Si Si8 0.317695 0.029233 0.213382
O O1 0.500000 0.765459 0.331538
O O2 0.635411 0.735532 0.287338
O O3 0.641432 0.777181 0.372108
O O4 0.601811 0.023774 0.320274
O O5 0.500000 0.230881 0.408986
O O6 0.657826 0.226103 0.378109
O O7 0.637090 0.267960 0.457997
O O8 0.594220 0.499180 0.403879
O O9 0.877112 0.507953 0.269316
O O10 0.000000 0.734851 0.262528
O O11 0.857784 0.841865 0.290785
O O12 0.153139 0.312419 0.203428
O O13 0.265095 0.085400 0.172059
O O14 0.141571 0.263330 0.956768
O O15 0.000000 0.263669 0.999308
O O16 0.102418 0.000000 0.000000
O O17 0.000000 0.233030 0.916129
O O18 0.500000 0.339053 0.266537
O O19 0.386791 0.174295 0.222656
O O20 0.250000 0.030135 0.250000
#
# Coordination Sequence:
#
# PCOD8217562 Si02
#       8
#     8   8   8   8   8   8   8   8
#     4  10  17  27  43  60  82 110 145 185 216 254
#     4  10  18  28  42  58  83 116 152 190 220 258
#     4  10  19  32  49  64  81 112 150 187 224 264
#     4  11  20  30  41  64  87 114 143 184 226 264
#     4   9  16  26  40  57  79 109 146 190 227 252
#     4   9  17  27  39  61  83 108 149 192 229 252
#     4  10  19  32  49  64  80 108 147 185 224 267
#     4  10  20  32  43  63  88 111 140 184 228 269
#
# _framework density 15.866844
#
# number of rings (size 3 to 8) (size 9 to 14) (size 15 to 20)
#    0.000    2.125    2.500    3.375    0.000    7.000 
#    2.250    0.000    0.000    0.000    0.000    0.000 
#    0.000    0.000    0.000    0.000    0.000   32.500 
#
# Total GULP energy -792930.736032 kJ/mol
# GULP energy per Si atom -12389.542750 kJ/mol
# Density = 1.583073 g / cm^3
# Si number density = 15.866844 Si / 1000 Ang^3
#
#
#
# Elastic Constant Matrix: (Units=GPa)
#
#
# Indices 1 2 3 4 5 6 
#
# 1 35.4953 23.3287 23.8869 0.0000 0.0000 0.0000
# 2 23.3287 96.1039 22.3206 0.0000 0.0000 0.0000
# 3 23.8869 22.3206 73.7812 0.0000 0.0000 0.0000
# 4 0.0000 0.0000 0.0000 24.8255 0.0000 0.0000
# 5 0.0000 0.0000 0.0000 0.0000 13.3775 0.0000
# 6 0.0000 0.0000 0.0000 0.0000 0.0000 13.1614
#
#
#
# Elastic Compliance Matrix: (Units=1/GPa)
#
#
# Indices 1 2 3 4 5 6 
#
# 1 0.040225 -0.007249 -0.010830 0.000000 0.000000 0.000000
# 2 -0.007249 0.012498 -0.001434 0.000000 0.000000 0.000000
# 3 -0.010830 -0.001434 0.017494 0.000000 0.000000 0.000000
# 4 0.000000 0.000000 0.000000 0.040281 0.000000 0.000000
# 5 0.000000 0.000000 0.000000 0.000000 0.074752 0.000000
# 6 0.000000 0.000000 0.000000 0.000000 0.000000 0.075980
#
#
# Mechanical properties :
#
#
# Convention : Reuss Voigt Hill
#
# Bulk Modulus (GPa) = 32.06087 38.27251 35.16669
# Shear Modulus (GPa) = 16.09510 19.32916 17.71213
#
# Velocity S-wave (km/s) = 3.18840 3.49407 3.34473
# Velocity P-wave (km/s) = 5.81417 6.36015 6.09328
#
# Compressibility (1/GPa) = 0.03119067
#
# Stress axis : x y z
#
# Youngs Moduli (GPa) = 24.86005 80.01177 57.16353
#
# Poissons Ratio (x) = 0.58001 0.61908
# Poissons Ratio (y) = 0.18021 0.08198
# Poissons Ratio (z) = 0.26923 0.11474
#
# Static dielectric constant tensor:
#      x y z
#    x 2.793580 0.000000 0.000000 
#    y 0.000000 3.189520 0.000000 
#    z 0.000000 0.000000 3.200430 
# 
# 
# High freq. dielectric constant tensor:
#      x y z
#    x 1.541340 0.000000 0.000000 
#    y 0.000000 1.630490 0.000000 
#    z 0.000000 0.000000 1.589800 
# 
# From -- ./inp_files/38965.got.cif
#   From: 2010.03.12/outbox.cif.g09.slc.cpg/sg53_20_cif.got.tgz:38965.got - 2010.04.16 14:36:59.
