data_PCOD8217362
_publ_section_title
;
Structure prediction by ZEFSAII (Michael W. Deem and Ramdas Pophale) SiO2 
 PCOD8217362
Probable space group: P N N A
;
_chemical_formula_sum "Si O2"
_cell_formula_units_Z 40
_cell_length_a 11.680578
_cell_length_b 10.657333
_cell_length_c 15.131963
_cell_angle_alpha 90.000000
_cell_angle_beta 90.000000
_cell_angle_gamma 90.000000
_cell_volume 1883.684398
_symmetry_space_group_name_H-M "P N N A"
_symmetry_group_IT_number 52
_symmetry_cell_setting 'orthorhombic'
loop_
_space_group_symop_operation_xyz
x,y,z
1/2-x,-y,z
x,1/2-y,1/2-z
1/2-x,1/2+y,1/2-z
-x,-y,-z
1/2+x,y,-z
-x,1/2+y,1/2+z
1/2+x,1/2-y,1/2+z
loop_
_atom_site_type_symbol
_atom_site_label
_atom_site_fract_x
_atom_site_fract_y
_atom_site_fract_z
Si Si1 0.736586 0.144653 0.402318
Si Si2 0.243834 0.769192 0.405576
Si Si3 0.417332 0.568346 0.217725
Si Si4 0.750000 0.500000 0.640036
Si Si5 0.502839 0.684098 0.839589
Si Si6 0.889371 0.250000 0.250000
O O1 0.772792 0.156707 0.503884
O O2 0.606956 0.196536 0.402833
O O3 0.813333 0.230693 0.337722
O O4 0.750000 0.000000 0.372058
O O5 0.330276 0.838857 0.336683
O O6 0.278244 0.623129 0.418989
O O7 0.117239 0.747256 0.368578
O O8 0.356855 0.487569 0.293664
O O9 0.470367 0.464399 0.154323
O O10 0.524548 0.634737 0.264230
O O11 0.461448 0.750000 0.750000
#
# Coordination Sequence:
#
# PCOD8217362 Si02
#       6
#     8   8   8   4   8   4
#     4  12  28  46  68 100 140 183 228 277 347 405
#     4  12  26  43  71 108 133 177 233 287 338 398
#     4  12  22  42  75  99 138 177 227 283 341 406
#     4  12  22  44  68 110 132 174 230 282 344 400
#     4  12  23  44  71 101 138 179 228 278 338 418
#     4  12  26  46  68  98 138 182 226 280 348 408
#
# _framework density 21.234978999999999
#
# number of rings (size 3 to 8) (size 9 to 14) (size 15 to 20)
#    0.000    0.000    9.000    1.200    2.800    1.600 
#    5.400    2.000    0.000    0.000    0.000    0.000 
#    0.000    0.000    0.000    0.000    0.000    0.000 
#
# Total GULP energy -495546.683748 kJ/mol
# GULP energy per Si atom -12388.667094 kJ/mol
# Density = 2.118665 g / cm^3
# Si number density = 21.234979 Si / 1000 Ang^3
#
#
#
# Elastic Constant Matrix: (Units=GPa)
#
#
# Indices 1 2 3 4 5 6 
#
# 1 122.4225 23.7753 32.1867 0.0000 0.0000 0.0000
# 2 23.7753 101.1736 24.6106 0.0000 0.0000 0.0000
# 3 32.1867 24.6106 84.9601 0.0000 0.0000 0.0000
# 4 0.0000 0.0000 0.0000 30.0118 0.0000 0.0000
# 5 0.0000 0.0000 0.0000 0.0000 -296.6256 0.0000
# 6 0.0000 0.0000 0.0000 0.0000 0.0000 30.1318
#
#
#
# Elastic Compliance Matrix: (Units=1/GPa)
#
#
# Indices 1 2 3 4 5 6 
#
# 1 0.009259 -0.001423 -0.003095 0.000000 0.000000 0.000000
# 2 -0.001423 0.010852 -0.002604 0.000000 0.000000 0.000000
# 3 -0.003095 -0.002604 0.013697 0.000000 0.000000 0.000000
# 4 0.000000 0.000000 0.000000 0.033320 0.000000 0.000000
# 5 0.000000 0.000000 0.000000 0.000000 -0.003371 0.000000
# 6 0.000000 0.000000 0.000000 0.000000 0.000000 0.033187
#
#
# Mechanical properties :
#
#
# Convention : Reuss Voigt Hill
#
# Bulk Modulus (GPa) = 51.11824 52.18903 51.65363
# Shear Modulus (GPa) = 42.47710 -32.09749 5.18980
#
# Velocity S-wave (km/s) = 4.47736 -3.89207 1.56502
# Velocity P-wave (km/s) = 7.13120 2.10539 5.25769
#
# Compressibility (1/GPa) = 0.01956249
#
# Stress axis : x y z
#
# Youngs Moduli (GPa) = 108.00799 92.14991 73.00673
#
# Poissons Ratio (x) = 0.13111 0.22599
# Poissons Ratio (y) = 0.15367 0.19015
# Poissons Ratio (z) = 0.33433 0.24000
#
# Static dielectric constant tensor:
#      x y z
#    x 4.046090 0.000000 0.000000 
#    y 0.000000 4.344280 0.000000 
#    z 0.000000 0.000000 3.466680 
# 
# 
# High freq. dielectric constant tensor:
#      x y z
#    x 1.851540 0.000000 0.000000 
#    y 0.000000 1.844330 0.000000 
#    z 0.000000 0.000000 1.803520 
# 
# From -- ./inp_files/25866.got.cif
#   From: 2010.06.25/outbox.cif.g09.slc.cpg/sg52_13_cif.got.tgz:25866.got - 2010.06.26 19:32:48.
