data_PCOD8217569
_publ_section_title
;
Structure prediction by ZEFSAII (Michael W. Deem and Ramdas Pophale) SiO2 
 PCOD8217569
Probable space group: P M N A
;
_chemical_formula_sum "Si O2"
_cell_formula_units_Z 64
_cell_length_a 9.110096
_cell_length_b 16.907570
_cell_length_c 25.938050
_cell_angle_alpha 90.000000
_cell_angle_beta 90.000000
_cell_angle_gamma 90.000000
_cell_volume 3995.227099
_symmetry_space_group_name_H-M "P M N A"
_symmetry_group_IT_number 53
_symmetry_cell_setting 'orthorhombic'
loop_
_space_group_symop_operation_xyz
x,y,z
1/2-x,-y,1/2+z
x,-y,-z
1/2-x,y,1/2-z
-x,-y,-z
1/2+x,y,1/2-z
-x,y,z
1/2+x,-y,1/2+z
loop_
_atom_site_type_symbol
_atom_site_label
_atom_site_fract_x
_atom_site_fract_y
_atom_site_fract_z
Si Si1 0.828538 0.588252 0.301577
Si Si2 0.671631 0.319706 0.098079
Si Si3 0.825139 0.411250 0.500298
Si Si4 0.328765 0.156992 0.051389
Si Si5 0.326120 0.313883 0.900858
Si Si6 0.325936 0.832524 0.442776
Si Si7 0.338342 0.006178 0.438832
Si Si8 0.827238 0.593253 0.698042
O O1 0.750000 0.618509 0.250000
O O2 0.776605 0.642671 0.348739
O O3 0.786336 0.497670 0.314147
O O4 0.000000 0.596549 0.292259
O O5 0.500000 0.338045 0.098310
O O6 0.740471 0.365892 0.049294
O O7 0.702850 0.226265 0.092659
O O8 0.737053 0.353200 0.151478
O O9 0.762318 0.500000 0.500000
O O10 0.771331 0.367408 0.551692
O O11 0.000000 0.411967 0.499028
O O12 0.500000 0.150483 0.038088
O O13 0.274536 0.075052 0.077414
O O14 0.244954 0.178047 0.999000
O O15 0.500000 0.299593 0.902839
O O16 0.243238 0.230146 0.903348
O O17 0.500000 0.821074 0.448275
O O18 0.289086 0.919449 0.418943
O O19 0.500000 0.028167 0.417421
O O20 0.344594 0.000000 0.500000
O O21 0.750000 0.622722 0.750000
O O22 0.000000 0.604481 0.705164
#
# Coordination Sequence:
#
# PCOD8217569 Si02
#       8
#     8   8   8   8   8   8   8   8
#     4   9  18  31  48  68  89 117 153 194 229 263
#     4   9  16  26  42  66  92 117 147 185 224 263
#     4   9  15  24  41  64  89 116 146 181 220 262
#     4  10  17  27  44  67  91 117 151 190 225 262
#     4  10  18  29  46  69  91 115 155 192 220 264
#     4  10  19  30  43  62  92 126 151 179 224 274
#     4   8  16  29  42  59  87 122 153 177 215 273
#     4   9  17  31  48  66  89 118 154 191 228 264
#
# _framework density 16.019113999999998
#
# number of rings (size 3 to 8) (size 9 to 14) (size 15 to 20)
#    0.000    2.750    1.250    2.250    0.000    6.250 
#    0.000    1.250    0.000    0.375    0.000    0.875 
#    0.000    2.000    0.000    0.000    0.000    0.000 
#
# Total GULP energy -793385.331108 kJ/mol
# GULP energy per Si atom -12396.645799 kJ/mol
# Density = 1.598265 g / cm^3
# Si number density = 16.019114 Si / 1000 Ang^3
#
#
#
# Elastic Constant Matrix: (Units=GPa)
#
#
# Indices 1 2 3 4 5 6 
#
# 1 45.9615 43.2945 35.2328 0.0000 0.0000 0.0000
# 2 43.2945 132.0822 68.8318 0.0000 0.0000 0.0000
# 3 35.2328 68.8318 115.9520 0.0000 0.0000 0.0000
# 4 0.0000 0.0000 0.0000 19.2470 0.0000 0.0000
# 5 0.0000 0.0000 0.0000 0.0000 18.9532 0.0000
# 6 0.0000 0.0000 0.0000 0.0000 0.0000 17.1872
#
#
#
# Elastic Compliance Matrix: (Units=1/GPa)
#
#
# Indices 1 2 3 4 5 6 
#
# 1 0.033596 -0.008242 -0.005316 0.000000 0.000000 0.000000
# 2 -0.008242 0.012984 -0.005203 0.000000 0.000000 0.000000
# 3 -0.005316 -0.005203 0.013328 0.000000 0.000000 0.000000
# 4 0.000000 0.000000 0.000000 0.051956 0.000000 0.000000
# 5 0.000000 0.000000 0.000000 0.000000 0.052762 0.000000
# 6 0.000000 0.000000 0.000000 0.000000 0.000000 0.058183
#
#
# Mechanical properties :
#
#
# Convention : Reuss Voigt Hill
#
# Bulk Modulus (GPa) = 44.67009 65.41266 55.04138
# Shear Modulus (GPa) = 18.67108 20.85324 19.76216
#
# Velocity S-wave (km/s) = 3.41772 3.61192 3.51616
# Velocity P-wave (km/s) = 6.59700 7.63658 7.13575
#
# Compressibility (1/GPa) = 0.02238634
#
# Stress axis : x y z
#
# Youngs Moduli (GPa) = 29.76542 77.01614 75.02841
#
# Poissons Ratio (x) = 0.63478 0.39883
# Poissons Ratio (y) = 0.24533 0.39040
# Poissons Ratio (z) = 0.15822 0.40074
#
# Static dielectric constant tensor:
#      x y z
#    x 2.851460 0.000000 0.000000 
#    y 0.000000 3.340790 0.000000 
#    z 0.000000 0.000000 2.896720 
# 
# 
# High freq. dielectric constant tensor:
#      x y z
#    x 1.595290 0.000000 0.000000 
#    y 0.000000 1.622720 0.000000 
#    z 0.000000 0.000000 1.582690 
# 
# From -- ./inp_files/34532.got.cif
#   From: 2010.03.12/outbox.cif.g09.slc.cpg/sg53_18_cif.got.tgz:34532.got - 2010.04.16 14:36:59.
