data_PCOD8217154
_publ_section_title
;
Structure prediction by ZEFSAII (Michael W. Deem and Ramdas Pophale) SiO2 
 PCOD8217154
Probable space group: P N N A
;
_chemical_formula_sum "Si O2"
_cell_formula_units_Z 60
_cell_length_a 8.577387
_cell_length_b 10.466929
_cell_length_c 29.542755
_cell_angle_alpha 90.000000
_cell_angle_beta 90.000000
_cell_angle_gamma 90.000000
_cell_volume 2652.316069
_symmetry_space_group_name_H-M "P N N A"
_symmetry_group_IT_number 52
_symmetry_cell_setting 'orthorhombic'
loop_
_space_group_symop_operation_xyz
x,y,z
1/2-x,-y,z
x,1/2-y,1/2-z
1/2-x,1/2+y,1/2-z
-x,-y,-z
1/2+x,y,-z
-x,1/2+y,1/2+z
1/2+x,1/2-y,1/2+z
loop_
_atom_site_type_symbol
_atom_site_label
_atom_site_fract_x
_atom_site_fract_y
_atom_site_fract_z
Si Si1 0.489885 0.585966 0.701668
Si Si2 0.652544 0.812121 0.204891
Si Si3 0.061152 0.197914 0.503707
Si Si4 0.819044 0.370469 0.520742
Si Si5 0.935482 0.645914 0.845033
Si Si6 0.200860 0.637503 0.373514
Si Si7 0.066349 0.999010 0.432516
Si Si8 0.750000 0.000000 0.730525
O O1 0.437516 0.441202 0.691853
O O2 0.335906 0.667030 0.714087
O O3 0.548488 0.662949 0.657094
O O4 0.626318 0.583765 0.739909
O O5 0.581191 0.750000 0.250000
O O6 0.603701 0.709619 0.166113
O O7 0.239255 0.236218 0.495150
O O8 0.993049 0.108864 0.464055
O O9 0.989054 0.342058 0.500475
O O10 0.020050 0.133129 0.552707
O O11 0.750000 0.500000 0.499718
O O12 0.837069 0.379559 0.574327
O O13 0.826997 0.750994 0.869180
O O14 0.965939 0.528699 0.879735
O O15 0.849332 0.596365 0.800301
O O16 0.250000 0.500000 0.352957
O O17 0.250000 0.000000 0.442248
#
# Coordination Sequence:
#
# PCOD8217154 Si02
#       8
#     8   8   8   8   8   8   8   4
#     4  11  24  43  68 103 139 195 231 291 369 408
#     4  11  24  44  65  98 152 182 230 302 357 421
#     4  11  22  44  70  99 136 182 223 290 364 417
#     4  11  24  43  72 104 138 183 234 295 350 432
#     4  12  23  42  70 105 138 183 246 297 342 424
#     4  11  22  42  69 101 137 179 248 297 342 423
#     4  11  22  42  72 101 141 181 232 295 350 427
#     4  12  24  40  78 106 138 194 254 278 344 456
#
# _framework density 22.621738000000001
#
# number of rings (size 3 to 8) (size 9 to 14) (size 15 to 20)
#    0.000    0.800    6.667    0.400    1.867    0.000 
#    2.400    0.000    5.867    0.000    0.000    0.000 
#    0.000    0.000    0.000    0.000    0.000    0.000 
#
# Total GULP energy -743372.211494 kJ/mol
# GULP energy per Si atom -12389.536858 kJ/mol
# Density = 2.257025 g / cm^3
# Si number density = 22.621738 Si / 1000 Ang^3
#
#
#
# Elastic Constant Matrix: (Units=GPa)
#
#
# Indices 1 2 3 4 5 6 
#
# 1 74.0472 24.4756 50.1694 0.0000 0.0000 0.0000
# 2 24.4756 84.4492 31.6563 0.0000 0.0000 0.0000
# 3 50.1694 31.6563 85.3331 0.0000 0.0000 0.0000
# 4 0.0000 0.0000 0.0000 34.7690 0.0000 0.0000
# 5 0.0000 0.0000 0.0000 0.0000 23.3983 0.0000
# 6 0.0000 0.0000 0.0000 0.0000 0.0000 39.6151
#
#
#
# Elastic Compliance Matrix: (Units=1/GPa)
#
#
# Indices 1 2 3 4 5 6 
#
# 1 0.022687 -0.001830 -0.012659 0.000000 0.000000 0.000000
# 2 -0.001830 0.013902 -0.004081 0.000000 0.000000 0.000000
# 3 -0.012659 -0.004081 0.020676 0.000000 0.000000 0.000000
# 4 0.000000 0.000000 0.000000 0.028761 0.000000 0.000000
# 5 0.000000 0.000000 0.000000 0.000000 0.042738 0.000000
# 6 0.000000 0.000000 0.000000 0.000000 0.000000 0.025243
#
#
# Mechanical properties :
#
#
# Convention : Reuss Voigt Hill
#
# Bulk Modulus (GPa) = 49.69415 50.71469 50.20442
# Shear Modulus (GPa) = 25.27099 28.72501 26.99800
#
# Velocity S-wave (km/s) = 3.34595 3.56729 3.45839
# Velocity P-wave (km/s) = 6.07802 6.27970 6.17968
#
# Compressibility (1/GPa) = 0.02012309
#
# Stress axis : x y z
#
# Youngs Moduli (GPa) = 44.07836 71.93375 48.36615
#
# Poissons Ratio (x) = 0.13163 0.61228
# Poissons Ratio (y) = 0.08066 0.19740
# Poissons Ratio (z) = 0.55800 0.29359
#
# Static dielectric constant tensor:
#      x y z
#    x 4.019580 0.000000 0.000000 
#    y 0.000000 4.228670 0.000000 
#    z 0.000000 0.000000 3.948480 
# 
# 
# High freq. dielectric constant tensor:
#      x y z
#    x 1.887080 0.000000 0.000000 
#    y 0.000000 1.903810 0.000000 
#    z 0.000000 0.000000 1.881250 
# 
# From -- ./inp_files/42356.got.cif
#   From: 2010.06.25/outbox.cif.g09.slc.cpg/sg52_22_cif.got.tgz:42356.got - 2010.06.26 19:32:48.
