data_PCOD8217295
_publ_section_title
;
Structure prediction by ZEFSAII (Michael W. Deem and Ramdas Pophale) SiO2 
 PCOD8217295
Probable space group: P N N A
;
_chemical_formula_sum "Si O2"
_cell_formula_units_Z 40
_cell_length_a 19.496530
_cell_length_b 11.063065
_cell_length_c 8.439363
_cell_angle_alpha 90.000000
_cell_angle_beta 90.000000
_cell_angle_gamma 90.000000
_cell_volume 1820.297841
_symmetry_space_group_name_H-M "P N N A"
_symmetry_group_IT_number 52
_symmetry_cell_setting 'orthorhombic'
loop_
_space_group_symop_operation_xyz
x,y,z
1/2-x,-y,z
x,1/2-y,1/2-z
1/2-x,1/2+y,1/2-z
-x,-y,-z
1/2+x,y,-z
-x,1/2+y,1/2+z
1/2+x,1/2-y,1/2+z
loop_
_atom_site_type_symbol
_atom_site_label
_atom_site_fract_x
_atom_site_fract_y
_atom_site_fract_z
Si Si1 0.496584 0.813396 0.953806
Si Si2 0.605494 0.832113 0.404714
Si Si3 0.756065 0.634653 0.132955
Si Si4 0.503956 0.480144 0.759464
Si Si5 0.120043 0.331598 0.097896
O O1 0.498486 0.878479 0.783238
O O2 0.563981 0.730094 0.953703
O O3 0.502135 0.904455 0.099774
O O4 0.425979 0.741700 0.973138
O O5 0.603983 0.750000 0.250000
O O6 0.683481 0.851482 0.456688
O O7 0.562784 0.954871 0.367939
O O8 0.750000 0.500000 0.218404
O O9 0.769377 0.750000 0.250000
O O10 0.812020 0.627897 0.994235
O O11 0.576072 0.448300 0.844619
O O12 0.140114 0.250000 0.250000
#
# Coordination Sequence:
#
# PCOD8217295 Si02
#       5
#     8   8   8   8   8
#     4   8  14  29  60  92 122 159 210 258 325 385
#     4   8  16  32  54  86 119 158 211 261 306 376
#     4  11  25  44  63  88 132 178 220 265 320 392
#     4   8  14  29  60  92 123 160 208 266 317 377
#     4   9  19  38  61  95 129 167 212 270 328 382
#
# _framework density 21.974426999999999
#
# number of rings (size 3 to 8) (size 9 to 14) (size 15 to 20)
#    0.000    3.200    0.000    2.400    2.800    0.000 
#    7.200    4.000    0.000    0.000    0.000    0.000 
#    0.000    0.000    0.000    0.000    0.000    0.000 
#
# Total GULP energy -495553.262533 kJ/mol
# GULP energy per Si atom -12388.831563 kJ/mol
# Density = 2.192441 g / cm^3
# Si number density = 21.974427 Si / 1000 Ang^3
#
#
#
# Elastic Constant Matrix: (Units=GPa)
#
#
# Indices 1 2 3 4 5 6 
#
# 1 185.6846 54.7309 60.0108 0.0000 0.0000 0.0000
# 2 54.7309 142.0075 52.3598 0.0000 0.0000 0.0000
# 3 60.0108 52.3598 85.1279 0.0000 0.0000 0.0000
# 4 0.0000 0.0000 0.0000 36.7850 0.0000 0.0000
# 5 0.0000 0.0000 0.0000 0.0000 5.5238 0.0000
# 6 0.0000 0.0000 0.0000 0.0000 0.0000 1.8941
#
#
#
# Elastic Compliance Matrix: (Units=1/GPa)
#
#
# Indices 1 2 3 4 5 6 
#
# 1 0.007118 -0.001155 -0.004307 0.000000 0.000000 0.000000
# 2 -0.001155 0.009295 -0.004903 0.000000 0.000000 0.000000
# 3 -0.004307 -0.004903 0.017799 0.000000 0.000000 0.000000
# 4 0.000000 0.000000 0.000000 0.027185 0.000000 0.000000
# 5 0.000000 0.000000 0.000000 0.000000 0.181034 0.000000
# 6 0.000000 0.000000 0.000000 0.000000 0.000000 0.527953
#
#
# Mechanical properties :
#
#
# Convention : Reuss Voigt Hill
#
# Bulk Modulus (GPa) = 74.17577 83.00256 78.58917
# Shear Modulus (GPa) = 6.28450 25.22181 15.75315
#
# Velocity S-wave (km/s) = 1.69296 3.39157 2.68038
# Velocity P-wave (km/s) = 6.13598 7.29324 6.73949
#
# Compressibility (1/GPa) = 0.01348149
#
# Stress axis : x y z
#
# Youngs Moduli (GPa) = 140.48796 107.58770 56.18315
#
# Poissons Ratio (x) = 0.12428 0.24200
# Poissons Ratio (y) = 0.16229 0.27544
# Poissons Ratio (z) = 0.60513 0.52746
#
# Static dielectric constant tensor:
#      x y z
#    x 4.109180 0.000000 0.000000 
#    y 0.000000 4.582220 0.000000 
#    z 0.000000 0.000000 3.936270 
# 
# 
# High freq. dielectric constant tensor:
#      x y z
#    x 1.858880 0.000000 0.000000 
#    y 0.000000 1.881790 0.000000 
#    z 0.000000 0.000000 1.851460 
# 
# From -- ./inp_files/11619.got.cif
#   From: 2010.06.25/outbox.cif.g09.slc.cpg/sg52_6_cif.got.tgz:11619.got - 2010.06.26 19:32:48.
