data_PCOD8217270
_publ_section_title
;
Structure prediction by ZEFSAII (Michael W. Deem and Ramdas Pophale) SiO2 
 PCOD8217270
Probable space group: P N N A
;
_chemical_formula_sum "Si O2"
_cell_formula_units_Z 32
_cell_length_a 30.577670
_cell_length_b 4.978197
_cell_length_c 9.783949
_cell_angle_alpha 90.000000
_cell_angle_beta 90.000000
_cell_angle_gamma 90.000000
_cell_volume 1489.329008
_symmetry_space_group_name_H-M "P N N A"
_symmetry_group_IT_number 52
_symmetry_cell_setting 'orthorhombic'
loop_
_space_group_symop_operation_xyz
x,y,z
1/2-x,-y,z
x,1/2-y,1/2-z
1/2-x,1/2+y,1/2-z
-x,-y,-z
1/2+x,y,-z
-x,1/2+y,1/2+z
1/2+x,1/2-y,1/2+z
loop_
_atom_site_type_symbol
_atom_site_label
_atom_site_fract_x
_atom_site_fract_y
_atom_site_fract_z
Si Si1 0.482703 0.748466 0.586350
Si Si2 0.280942 0.250000 0.250000
Si Si3 0.831383 0.321048 0.009709
Si Si4 0.619953 0.311570 0.403170
Si Si5 0.750000 0.000000 0.325766
O O1 0.496670 0.750000 0.750000
O O2 0.500000 0.500000 0.500000
O O3 0.430879 0.737330 0.576229
O O4 0.500000 0.000000 0.500000
O O5 0.250000 0.500000 0.216627
O O6 0.314718 0.193135 0.129802
O O7 0.854152 0.611678 0.994650
O O8 0.787446 0.341637 0.095800
O O9 0.867299 0.119699 0.071218
O O10 0.634503 0.250000 0.250000
O O11 0.773582 0.750000 0.250000
#
# Coordination Sequence:
#
# PCOD8217270 Si02
#       5
#     8   4   8   8   4
#     4  11  24  47  74 105 142 181 224 281 351 421
#     4  12  26  46  62  84 134 182 214 266 326 386
#     4  12  24  43  64  93 129 172 223 263 329 386
#     4  11  24  44  68  98 133 167 214 277 332 384
#     4  12  24  38  64  94 124 164 220 276 316 384
#
# _framework density 21.486187999999999
#
# number of rings (size 3 to 8) (size 9 to 14) (size 15 to 20)
#    0.000    0.500    1.250    8.250    1.750    4.000 
#   13.500    0.000    0.000    0.000    0.000    0.000 
#    0.000    0.000    0.000    0.000    0.000    0.000 
#
# Total GULP energy -396612.752619 kJ/mol
# GULP energy per Si atom -12394.148519 kJ/mol
# Density = 2.143728 g / cm^3
# Si number density = 21.486188 Si / 1000 Ang^3
#
#
#
# Elastic Constant Matrix: (Units=GPa)
#
#
# Indices 1 2 3 4 5 6 
#
# 1 111.7488 39.1577 46.1687 0.0000 0.0000 0.0000
# 2 39.1577 147.7156 46.5446 0.0000 0.0000 0.0000
# 3 46.1687 46.5446 134.3138 0.0000 0.0000 0.0000
# 4 0.0000 0.0000 0.0000 37.8521 0.0000 0.0000
# 5 0.0000 0.0000 0.0000 0.0000 27.2994 0.0000
# 6 0.0000 0.0000 0.0000 0.0000 0.0000 54.5907
#
#
#
# Elastic Compliance Matrix: (Units=1/GPa)
#
#
# Indices 1 2 3 4 5 6 
#
# 1 0.010893 -0.001917 -0.003080 0.000000 0.000000 0.000000
# 2 -0.001917 0.007937 -0.002091 0.000000 0.000000 0.000000
# 3 -0.003080 -0.002091 0.009229 0.000000 0.000000 0.000000
# 4 0.000000 0.000000 0.000000 0.026419 0.000000 0.000000
# 5 0.000000 0.000000 0.000000 0.000000 0.036631 0.000000
# 6 0.000000 0.000000 0.000000 0.000000 0.000000 0.018318
#
#
# Mechanical properties :
#
#
# Convention : Reuss Voigt Hill
#
# Bulk Modulus (GPa) = 72.03810 73.05778 72.54794
# Shear Modulus (GPa) = 38.99231 41.40892 40.20061
#
# Velocity S-wave (km/s) = 4.26462 4.39479 4.33020
# Velocity P-wave (km/s) = 7.60590 7.73487 7.67066
#
# Compressibility (1/GPa) = 0.01388154
#
# Stress axis : x y z
#
# Youngs Moduli (GPa) = 91.80311 125.99251 108.35739
#
# Poissons Ratio (x) = 0.24154 0.33374
# Poissons Ratio (y) = 0.17600 0.22663
# Poissons Ratio (z) = 0.28275 0.26351
#
# Static dielectric constant tensor:
#      x y z
#    x 3.908170 0.000000 0.000000 
#    y 0.000000 4.286280 0.000000 
#    z 0.000000 0.000000 4.014380 
# 
# 
# High freq. dielectric constant tensor:
#      x y z
#    x 1.855260 0.000000 0.000000 
#    y 0.000000 1.864180 0.000000 
#    z 0.000000 0.000000 1.840900 
# 
# From -- ./inp_files/15190.got.cif
#   From: 2010.06.25/outbox.cif.g09.slc.cpg/sg52_8_cif.got.tgz:15190.got - 2010.06.26 19:32:48.
