data_PCOD8217284
_publ_section_title
;
Structure prediction by ZEFSAII (Michael W. Deem and Ramdas Pophale) SiO2 
 PCOD8217284
Probable space group: P N N A
;
_chemical_formula_sum "Si O2"
_cell_formula_units_Z 48
_cell_length_a 17.245463
_cell_length_b 14.816504
_cell_length_c 8.843580
_cell_angle_alpha 90.000000
_cell_angle_beta 90.000000
_cell_angle_gamma 90.000000
_cell_volume 2259.689201
_symmetry_space_group_name_H-M "P N N A"
_symmetry_group_IT_number 52
_symmetry_cell_setting 'orthorhombic'
loop_
_space_group_symop_operation_xyz
x,y,z
1/2-x,-y,z
x,1/2-y,1/2-z
1/2-x,1/2+y,1/2-z
-x,-y,-z
1/2+x,y,-z
-x,1/2+y,1/2+z
1/2+x,1/2-y,1/2+z
loop_
_atom_site_type_symbol
_atom_site_label
_atom_site_fract_x
_atom_site_fract_y
_atom_site_fract_z
Si Si1 0.297064 0.750000 0.250000
Si Si2 0.569007 0.656361 0.286181
Si Si3 0.196669 0.912859 0.306737
Si Si4 0.164310 0.968192 0.984319
Si Si5 0.964417 0.750000 0.250000
Si Si6 0.460743 0.095999 0.465585
Si Si7 0.914333 0.846737 0.969777
O O1 0.244273 0.821746 0.340191
O O2 0.349792 0.802676 0.133427
O O3 0.612644 0.750000 0.250000
O O4 0.633682 0.586622 0.340195
O O5 0.501599 0.664304 0.410759
O O6 0.526884 0.637002 0.129442
O O7 0.128648 0.922859 0.427626
O O8 0.250000 0.000000 0.323605
O O9 0.164729 0.906488 0.134548
O O10 0.250000 0.000000 0.940581
O O11 0.104697 0.048466 0.015086
O O12 0.908930 0.700796 0.368327
O O13 0.010282 0.832466 0.336493
O O14 0.500000 0.000000 0.500000
#
# Coordination Sequence:
#
# PCOD8217284 Si02
#       7
#     4   8   8   8   4   8   8
#     4  12  23  44  72  99 140 188 232 294 355 434
#     4  12  25  43  72 102 137 181 235 291 343 422
#     4  11  25  44  73 102 142 186 234 285 359 429
#     4  11  24  47  68 101 140 190 231 287 362 422
#     4  12  25  44  72 103 136 182 240 296 349 422
#     4  12  26  45  71 105 141 181 238 294 352 420
#     4  12  23  46  72 100 139 182 238 286 357 422
#
# _framework density 21.241859000000002
#
# number of rings (size 3 to 8) (size 9 to 14) (size 15 to 20)
#    0.000    0.333    5.833    4.000    4.667    0.667 
#    4.500    0.000    0.000    0.000    0.000    0.000 
#    0.000    0.000    0.000    0.000    0.000    0.000 
#
# Total GULP energy -594913.281056 kJ/mol
# GULP energy per Si atom -12394.026689 kJ/mol
# Density = 2.119351 g / cm^3
# Si number density = 21.241859 Si / 1000 Ang^3
#
#
#
# Elastic Constant Matrix: (Units=GPa)
#
#
# Indices 1 2 3 4 5 6 
#
# 1 91.6956 37.0538 25.3281 0.0000 0.0000 0.0000
# 2 37.0538 148.4160 35.6627 0.0000 0.0000 0.0000
# 3 25.3281 35.6627 88.0363 0.0000 0.0000 0.0000
# 4 0.0000 0.0000 0.0000 43.0316 0.0000 0.0000
# 5 0.0000 0.0000 0.0000 0.0000 22.5376 0.0000
# 6 0.0000 0.0000 0.0000 0.0000 0.0000 30.4398
#
#
#
# Elastic Compliance Matrix: (Units=1/GPa)
#
#
# Indices 1 2 3 4 5 6 
#
# 1 0.012650 -0.002530 -0.002615 0.000000 0.000000 0.000000
# 2 -0.002530 0.007970 -0.002501 0.000000 0.000000 0.000000
# 3 -0.002615 -0.002501 0.013124 0.000000 0.000000 0.000000
# 4 0.000000 0.000000 0.000000 0.023239 0.000000 0.000000
# 5 0.000000 0.000000 0.000000 0.000000 0.044370 0.000000
# 6 0.000000 0.000000 0.000000 0.000000 0.000000 0.032852
#
#
# Mechanical properties :
#
#
# Convention : Reuss Voigt Hill
#
# Bulk Modulus (GPa) = 54.18898 58.24859 56.21878
# Shear Modulus (GPa) = 32.12381 34.54201 33.33291
#
# Velocity S-wave (km/s) = 3.89303 4.03690 3.96562
# Velocity P-wave (km/s) = 6.76561 7.01498 6.89142
#
# Compressibility (1/GPa) = 0.01845394
#
# Stress axis : x y z
#
# Youngs Moduli (GPa) = 79.05002 125.46429 76.19490
#
# Poissons Ratio (x) = 0.31743 0.19922
# Poissons Ratio (y) = 0.20000 0.19055
# Poissons Ratio (z) = 0.20668 0.31377
#
# Static dielectric constant tensor:
#      x y z
#    x 3.770560 0.000000 0.000000 
#    y 0.000000 3.876120 0.000000 
#    z 0.000000 0.000000 3.955660 
# 
# 
# High freq. dielectric constant tensor:
#      x y z
#    x 1.827380 0.000000 0.000000 
#    y 0.000000 1.860000 0.000000 
#    z 0.000000 0.000000 1.835070 
# 
# From -- ./inp_files/12152.got.cif
#   From: 2010.06.25/outbox.cif.g09.slc.cpg/sg52_7_cif.got.tgz:12152.got - 2010.06.26 19:32:48.
