data_PCOD8217573
_publ_section_title
;
Structure prediction by ZEFSAII (Michael W. Deem and Ramdas Pophale) SiO2 
 PCOD8217573
Probable space group: P M N A
;
_chemical_formula_sum "Si O2"
_cell_formula_units_Z 48
_cell_length_a 9.173731
_cell_length_b 14.893179
_cell_length_c 21.213418
_cell_angle_alpha 90.000000
_cell_angle_beta 90.000000
_cell_angle_gamma 90.000000
_cell_volume 2898.304827
_symmetry_space_group_name_H-M "P M N A"
_symmetry_group_IT_number 53
_symmetry_cell_setting 'orthorhombic'
loop_
_space_group_symop_operation_xyz
x,y,z
1/2-x,-y,1/2+z
x,-y,-z
1/2-x,y,1/2-z
-x,-y,-z
1/2+x,y,1/2-z
-x,y,z
1/2+x,-y,1/2+z
loop_
_atom_site_type_symbol
_atom_site_label
_atom_site_fract_x
_atom_site_fract_y
_atom_site_fract_z
Si Si1 0.167780 0.869506 0.455501
Si Si2 0.668148 0.061788 0.092601
Si Si3 0.335162 0.522474 0.073357
Si Si4 0.328243 0.187058 0.316162
Si Si5 0.830275 0.693764 0.047664
Si Si6 0.168127 0.647921 0.904325
O O1 0.214911 0.894706 0.526339
O O2 0.266363 0.788744 0.429428
O O3 0.000000 0.838964 0.454704
O O4 0.192022 0.954733 0.410182
O O5 0.500000 0.084233 0.107426
O O6 0.769930 0.099744 0.147477
O O7 0.500000 0.534365 0.097198
O O8 0.247539 0.614100 0.086384
O O9 0.261797 0.440639 0.111451
O O10 0.328166 0.500000 0.000000
O O11 0.250000 0.195300 0.250000
O O12 0.500000 0.176532 0.306690
O O13 0.287313 0.275899 0.355071
O O14 0.000000 0.689824 0.063239
O O15 0.796799 0.684830 0.973659
O O16 0.000000 0.620618 0.898800
#
# Coordination Sequence:
#
# PCOD8217573 Si02
#       6
#     8   8   8   8   8   8
#     4   9  17  29  47  70  97 127 159 195 242 293
#     4   9  18  32  48  68  95 127 160 200 244 288
#     4   9  17  27  42  65  91 122 156 188 228 277
#     4  11  22  35  50  70  95 128 167 204 242 285
#     4  10  17  27  44  68  97 127 156 190 235 284
#     4   9  18  31  44  63  93 125 157 195 236 280
#
# _framework density 16.561406000000002
#
# number of rings (size 3 to 8) (size 9 to 14) (size 15 to 20)
#    0.000    2.500    1.667    2.500    0.000    4.667 
#    0.000    1.667    0.000    0.000    0.000    1.167 
#    0.000    2.667    0.000    0.000    0.000    0.000 
#
# Total GULP energy -595247.494249 kJ/mol
# GULP energy per Si atom -12400.989464 kJ/mol
# Density = 1.652371 g / cm^3
# Si number density = 16.561406 Si / 1000 Ang^3
#
#
#
# Elastic Constant Matrix: (Units=GPa)
#
#
# Indices 1 2 3 4 5 6 
#
# 1 103.3080 73.1834 33.1626 0.0000 0.0000 0.0000
# 2 73.1834 130.8475 30.9994 0.0000 0.0000 0.0000
# 3 33.1626 30.9994 53.4172 0.0000 0.0000 0.0000
# 4 0.0000 0.0000 0.0000 15.6680 0.0000 0.0000
# 5 0.0000 0.0000 0.0000 0.0000 16.5116 0.0000
# 6 0.0000 0.0000 0.0000 0.0000 0.0000 37.6451
#
#
#
# Elastic Compliance Matrix: (Units=1/GPa)
#
#
# Indices 1 2 3 4 5 6 
#
# 1 0.017562 -0.008393 -0.006032 0.000000 0.000000 0.000000
# 2 -0.008393 0.012872 -0.002259 0.000000 0.000000 0.000000
# 3 -0.006032 -0.002259 0.023776 0.000000 0.000000 0.000000
# 4 0.000000 0.000000 0.000000 0.063825 0.000000 0.000000
# 5 0.000000 0.000000 0.000000 0.000000 0.060564 0.000000
# 6 0.000000 0.000000 0.000000 0.000000 0.000000 0.026564
#
#
# Mechanical properties :
#
#
# Convention : Reuss Voigt Hill
#
# Bulk Modulus (GPa) = 47.98150 62.47371 55.22760
# Shear Modulus (GPa) = 20.36834 23.98008 22.17421
#
# Velocity S-wave (km/s) = 3.51075 3.80932 3.66308
# Velocity P-wave (km/s) = 6.74304 7.55991 7.16313
#
# Compressibility (1/GPa) = 0.02084137
#
# Stress axis : x y z
#
# Youngs Moduli (GPa) = 56.94115 77.68684 42.05850
#
# Poissons Ratio (x) = 0.65206 0.25369
# Poissons Ratio (y) = 0.47793 0.09502
# Poissons Ratio (z) = 0.34347 0.17551
#
# Static dielectric constant tensor:
#      x y z
#    x 3.154180 0.000000 0.000000 
#    y 0.000000 3.219390 0.000000 
#    z 0.000000 0.000000 2.652620 
# 
# 
# High freq. dielectric constant tensor:
#      x y z
#    x 1.647550 0.000000 0.000000 
#    y 0.000000 1.649580 0.000000 
#    z 0.000000 0.000000 1.576650 
# 
# From -- ./inp_files/26247.got.cif
#   From: 2010.03.12/outbox.cif.g09.slc.cpg/sg53_14_cif.got.tgz:26247.got - 2010.04.16 14:36:59.
