data_PCOD8217910
_publ_section_title
;
Structure prediction by ZEFSAII (Michael W. Deem and Ramdas Pophale) SiO2 
 PCOD8217910
Probable space group: P M N A
;
_chemical_formula_sum "Si O2"
_cell_formula_units_Z 48
_cell_length_a 8.651086
_cell_length_b 11.996736
_cell_length_c 26.466428
_cell_angle_alpha 90.000000
_cell_angle_beta 90.000000
_cell_angle_gamma 90.000000
_cell_volume 2746.812801
_symmetry_space_group_name_H-M "P M N A"
_symmetry_group_IT_number 53
_symmetry_cell_setting 'orthorhombic'
loop_
_space_group_symop_operation_xyz
x,y,z
1/2-x,-y,1/2+z
x,-y,-z
1/2-x,y,1/2-z
-x,-y,-z
1/2+x,y,1/2-z
-x,y,z
1/2+x,-y,1/2+z
loop_
_atom_site_type_symbol
_atom_site_label
_atom_site_fract_x
_atom_site_fract_y
_atom_site_fract_z
Si Si1 0.179647 0.836615 0.115118
Si Si2 0.684051 0.678828 0.194414
Si Si3 0.324488 0.510374 0.877410
Si Si4 0.175502 0.669599 0.457966
Si Si5 0.316238 0.965936 0.943506
Si Si6 0.683025 0.283086 0.068834
O O1 0.263135 0.790160 0.165355
O O2 0.208534 0.754652 0.068571
O O3 0.000000 0.847367 0.126984
O O4 0.246370 0.956643 0.100007
O O5 0.750000 0.679811 0.250000
O O6 0.500000 0.676722 0.194881
O O7 0.752846 0.568305 0.165565
O O8 0.500000 0.527068 0.860253
O O9 0.315645 0.450258 0.931822
O O10 0.249184 0.633811 0.886965
O O11 0.227775 0.660535 0.515646
O O12 0.000000 0.718233 0.453638
O O13 0.500000 0.971275 0.941346
O O14 0.252527 0.842541 0.929351
O O15 0.259809 0.000000 0.000000
O O16 0.500000 0.280586 0.074969
#
# Coordination Sequence:
#
# PCOD8217910 Si02
#       6
#     8   8   8   8   8   8
#     4  11  21  32  48  72 103 135 172 210 252 298
#     4  10  20  36  58  79  99 122 159 207 260 308
#     4   8  15  26  46  75  99 123 160 205 248 299
#     4   9  15  27  46  69  98 131 169 207 243 288
#     4  10  18  30  48  71 101 139 181 216 246 289
#     4   9  15  25  45  71 100 134 171 205 243 292
#
# _framework density 17.474798
#
# number of rings (size 3 to 8) (size 9 to 14) (size 15 to 20)
#    0.000    2.500    1.667    3.500    0.000    2.333 
#    0.000    0.000    0.000   15.000    0.000    2.333 
#    0.000    0.000    0.000    0.000    0.000    0.000 
#
# Total GULP energy -594699.144261 kJ/mol
# GULP energy per Si atom -12389.565505 kJ/mol
# Density = 1.743502 g / cm^3
# Si number density = 17.474798 Si / 1000 Ang^3
#
#
#
# Elastic Constant Matrix: (Units=GPa)
#
#
# Indices 1 2 3 4 5 6 
#
# 1 43.1534 27.9617 25.1580 0.0000 0.0000 0.0000
# 2 27.9617 128.4076 74.7450 0.0000 0.0000 0.0000
# 3 25.1580 74.7450 116.2824 0.0000 0.0000 0.0000
# 4 0.0000 0.0000 0.0000 692.9778 0.0000 0.0000
# 5 0.0000 0.0000 0.0000 0.0000 21.1789 0.0000
# 6 0.0000 0.0000 0.0000 0.0000 0.0000 10.0507
#
#
#
# Elastic Compliance Matrix: (Units=1/GPa)
#
#
# Indices 1 2 3 4 5 6 
#
# 1 0.027793 -0.004078 -0.003392 0.000000 0.000000 0.000000
# 2 -0.004078 0.013042 -0.007501 0.000000 0.000000 0.000000
# 3 -0.003392 -0.007501 0.014155 0.000000 0.000000 0.000000
# 4 0.000000 0.000000 0.000000 0.001443 0.000000 0.000000
# 5 0.000000 0.000000 0.000000 0.000000 0.047217 0.000000
# 6 0.000000 0.000000 0.000000 0.000000 0.000000 0.099495
#
#
# Mechanical properties :
#
#
# Convention : Reuss Voigt Hill
#
# Bulk Modulus (GPa) = 39.92230 60.39698 50.15964
# Shear Modulus (GPa) = 20.70945 155.50673 88.10809
#
# Velocity S-wave (km/s) = 3.44627 9.44364 7.10841
# Velocity P-wave (km/s) = 6.22342 12.39141 9.80505
#
# Compressibility (1/GPa) = 0.02504865
#
# Stress axis : x y z
#
# Youngs Moduli (GPa) = 35.98051 76.67598 70.64567
#
# Poissons Ratio (x) = 0.31266 0.23963
# Poissons Ratio (y) = 0.14672 0.52991
# Poissons Ratio (z) = 0.12205 0.57514
#
# Static dielectric constant tensor:
#      x y z
#    x 2.897660 0.000000 0.000000 
#    y 0.000000 3.590570 0.000000 
#    z 0.000000 0.000000 1.432400 
# 
# 
# High freq. dielectric constant tensor:
#      x y z
#    x 1.638100 0.000000 0.000000 
#    y 0.000000 1.681690 0.000000 
#    z 0.000000 0.000000 1.647840 
# 
# From -- ./inp_files/36156.got.cif
#   From: 2010.03.12/outbox.cif.g09.slc.cpg/sg53_19_cif.got.tgz:36156.got - 2010.04.16 14:36:59.
