data_PCOD8217911
_publ_section_title
;
Structure prediction by ZEFSAII (Michael W. Deem and Ramdas Pophale) SiO2 
 PCOD8217911
Probable space group: P M N A
;
_chemical_formula_sum "Si O2"
_cell_formula_units_Z 64
_cell_length_a 9.137542
_cell_length_b 14.860474
_cell_length_c 29.436700
_cell_angle_alpha 90.000000
_cell_angle_beta 90.000000
_cell_angle_gamma 90.000000
_cell_volume 3997.156663
_symmetry_space_group_name_H-M "P M N A"
_symmetry_group_IT_number 53
_symmetry_cell_setting 'orthorhombic'
loop_
_space_group_symop_operation_xyz
x,y,z
1/2-x,-y,1/2+z
x,-y,-z
1/2-x,y,1/2-z
-x,-y,-z
1/2+x,y,1/2-z
-x,y,z
1/2+x,-y,1/2+z
loop_
_atom_site_type_symbol
_atom_site_label
_atom_site_fract_x
_atom_site_fract_y
_atom_site_fract_z
Si Si1 0.830501 0.127823 0.946043
Si Si2 0.170794 0.788485 0.294159
Si Si3 0.328957 0.555368 0.438688
Si Si4 0.830604 0.995772 0.294145
Si Si5 0.330246 0.183549 0.035685
Si Si6 0.168542 0.029091 0.394189
Si Si7 0.667649 0.287759 0.622460
Si Si8 0.826782 0.366763 0.032568
O O1 0.809351 0.221072 0.919694
O O2 0.000000 0.108673 0.956314
O O3 0.768475 0.047195 0.916035
O O4 0.746178 0.133961 0.993538
O O5 0.250000 0.748396 0.250000
O O6 0.215374 0.892073 0.300880
O O7 0.222752 0.733363 0.337418
O O8 0.000000 0.774981 0.288013
O O9 0.500000 0.557856 0.447832
O O10 0.288174 0.611750 0.393872
O O11 0.283424 0.450356 0.434041
O O12 0.264528 0.604645 0.483196
O O13 0.750000 0.037584 0.250000
O O14 0.000000 0.005998 0.283404
O O15 0.786769 0.044906 0.341278
O O16 0.500000 0.196680 0.023706
O O17 0.308836 0.122528 0.080114
O O18 0.257750 0.278280 0.048502
O O19 0.000000 0.995947 0.396628
O O20 0.500000 0.282933 0.639582
O O21 0.000000 0.345739 0.033008
#
# Coordination Sequence:
#
# PCOD8217911 Si02
#       8
#     8   8   8   8   8   8   8   8
#     4  11  21  32  48  69  95 128 168 203 228 270
#     4  10  19  31  48  69  94 125 157 194 236 283
#     4   8  15  29  50  70  92 123 155 194 240 279
#     4   9  18  32  49  67  90 119 155 194 235 280
#     4  11  22  33  47  66  97 134 164 198 242 282
#     4  10  21  36  48  65  96 133 162 192 240 289
#     4  10  18  30  48  71  96 125 159 194 237 285
#     4   9  16  31  51  69  91 122 161 198 234 277
#
# _framework density 16.011382000000001
#
# number of rings (size 3 to 8) (size 9 to 14) (size 15 to 20)
#    0.000    2.250    2.500    2.250    0.000    4.000 
#    0.000    1.875    0.000    0.000    0.000    0.875 
#    0.000    4.000    0.000    0.000    0.000    0.000 
#
# Total GULP energy -793438.403983 kJ/mol
# GULP energy per Si atom -12397.475062 kJ/mol
# Density = 1.597494 g / cm^3
# Si number density = 16.011382 Si / 1000 Ang^3
#
#
#
# Elastic Constant Matrix: (Units=GPa)
#
#
# Indices 1 2 3 4 5 6 
#
# 1 76.3038 41.8826 50.5369 0.0000 0.0000 0.0000
# 2 41.8826 77.2123 43.2707 0.0000 0.0000 0.0000
# 3 50.5369 43.2707 114.2198 0.0000 0.0000 0.0000
# 4 0.0000 0.0000 0.0000 16.4820 0.0000 0.0000
# 5 0.0000 0.0000 0.0000 0.0000 26.1467 0.0000
# 6 0.0000 0.0000 0.0000 0.0000 0.0000 16.2232
#
#
#
# Elastic Compliance Matrix: (Units=1/GPa)
#
#
# Indices 1 2 3 4 5 6 
#
# 1 0.022005 -0.008227 -0.006620 0.000000 0.000000 0.000000
# 2 -0.008227 0.019518 -0.003754 0.000000 0.000000 0.000000
# 3 -0.006620 -0.003754 0.013106 0.000000 0.000000 0.000000
# 4 0.000000 0.000000 0.000000 0.060672 0.000000 0.000000
# 5 0.000000 0.000000 0.000000 0.000000 0.038246 0.000000
# 6 0.000000 0.000000 0.000000 0.000000 0.000000 0.061640
#
#
# Mechanical properties :
#
#
# Convention : Reuss Voigt Hill
#
# Bulk Modulus (GPa) = 57.37861 59.90180 58.64020
# Shear Modulus (GPa) = 19.36502 20.57344 19.96923
#
# Velocity S-wave (km/s) = 3.48149 3.58848 3.53539
# Velocity P-wave (km/s) = 7.21630 7.39343 7.30540
#
# Compressibility (1/GPa) = 0.01742810
#
# Stress axis : x y z
#
# Youngs Moduli (GPa) = 45.44336 51.23599 76.29998
#
# Poissons Ratio (x) = 0.42150 0.50509
# Poissons Ratio (y) = 0.37385 0.28643
# Poissons Ratio (z) = 0.30083 0.19234
#
# Static dielectric constant tensor:
#      x y z
#    x 2.990720 0.000000 0.000000 
#    y 0.000000 3.117190 0.000000 
#    z 0.000000 0.000000 3.137270 
# 
# 
# High freq. dielectric constant tensor:
#      x y z
#    x 1.611580 0.000000 0.000000 
#    y 0.000000 1.596600 0.000000 
#    z 0.000000 0.000000 1.604280 
# 
# From -- ./inp_files/38398.got.cif
#   From: 2010.03.12/outbox.cif.g09.slc.cpg/sg53_20_cif.got.tgz:38398.got - 2010.04.16 14:36:59.
