data_PCOD8217555
_publ_section_title
;
Structure prediction by ZEFSAII (Michael W. Deem and Ramdas Pophale) SiO2 
 PCOD8217555
Probable space group: P M N A
;
_chemical_formula_sum "Si O2"
_cell_formula_units_Z 40
_cell_length_a 8.735724
_cell_length_b 7.569898
_cell_length_c 30.104176
_cell_angle_alpha 90.000000
_cell_angle_beta 90.000000
_cell_angle_gamma 90.000000
_cell_volume 1990.745196
_symmetry_space_group_name_H-M "P M N A"
_symmetry_group_IT_number 53
_symmetry_cell_setting 'orthorhombic'
loop_
_space_group_symop_operation_xyz
x,y,z
1/2-x,-y,1/2+z
x,-y,-z
1/2-x,y,1/2-z
-x,-y,-z
1/2+x,y,1/2-z
-x,y,z
1/2+x,-y,1/2+z
loop_
_atom_site_type_symbol
_atom_site_label
_atom_site_fract_x
_atom_site_fract_y
_atom_site_fract_z
Si Si1 0.318958 0.498084 0.201607
Si Si2 0.180927 0.802790 0.635168
Si Si3 0.321413 0.800429 0.138870
Si Si4 0.178762 0.182947 0.541440
Si Si5 0.819941 0.201756 0.044937
O O1 0.250000 0.495302 0.250000
O O2 0.500000 0.513344 0.204944
O O3 0.271914 0.317889 0.176736
O O4 0.248748 0.665041 0.174414
O O5 0.255352 0.717492 0.590799
O O6 0.000000 0.806113 0.627180
O O7 0.245691 0.000906 0.644360
O O8 0.500000 0.811563 0.148451
O O9 0.292536 0.722752 0.089015
O O10 0.244896 0.293760 0.499305
O O11 0.000000 0.143109 0.534506
O O12 0.271569 0.001537 0.543856
O O13 0.000000 0.227031 0.042957
#
# Coordination Sequence:
#
# PCOD8217555 Si02
#       5
#     8   8   8   8   8
#     4  10  21  37  55  75  99 127 164 211 257 300
#     4   9  18  34  54  73  99 136 171 202 242 298
#     4   8  16  32  53  75  98 129 169 205 239 290
#     4   9  15  27  48  72 102 139 173 202 241 297
#     4  10  17  26  45  75 107 134 166 208 249 290
#
# _framework density 20.092980000000001
#
# number of rings (size 3 to 8) (size 9 to 14) (size 15 to 20)
#    0.000    2.800    0.000    4.800    0.000    1.600 
#    0.000    6.000    0.000    6.000    0.000    0.000 
#    0.000    0.000    0.000    0.000    0.000    0.000 
#
# Total GULP energy -495594.956835 kJ/mol
# GULP energy per Si atom -12389.873921 kJ/mol
# Density = 2.004725 g / cm^3
# Si number density = 20.092980 Si / 1000 Ang^3
#
#
#
# Elastic Constant Matrix: (Units=GPa)
#
#
# Indices 1 2 3 4 5 6 
#
# 1 39.5346 29.7300 46.0156 0.0000 0.0000 0.0000
# 2 29.7300 83.0975 76.7666 0.0000 0.0000 0.0000
# 3 46.0156 76.7666 217.6164 0.0000 0.0000 0.0000
# 4 0.0000 0.0000 0.0000 8.3460 0.0000 0.0000
# 5 0.0000 0.0000 0.0000 0.0000 36.5053 0.0000
# 6 0.0000 0.0000 0.0000 0.0000 0.0000 4.6331
#
#
#
# Elastic Compliance Matrix: (Units=1/GPa)
#
#
# Indices 1 2 3 4 5 6 
#
# 1 0.037662 -0.009075 -0.004762 0.000000 0.000000 0.000000
# 2 -0.009075 0.020038 -0.005150 0.000000 0.000000 0.000000
# 3 -0.004762 -0.005150 0.007419 0.000000 0.000000 0.000000
# 4 0.000000 0.000000 0.000000 0.119818 0.000000 0.000000
# 5 0.000000 0.000000 0.000000 0.000000 0.027393 0.000000
# 6 0.000000 0.000000 0.000000 0.000000 0.000000 0.215839
#
#
# Mechanical properties :
#
#
# Convention : Reuss Voigt Hill
#
# Bulk Modulus (GPa) = 36.83940 71.69700 54.26820
# Shear Modulus (GPa) = 10.52207 22.41262 16.46735
#
# Velocity S-wave (km/s) = 2.29086 3.34345 2.86590
# Velocity P-wave (km/s) = 5.03703 7.11793 6.16590
#
# Compressibility (1/GPa) = 0.02714485
#
# Stress axis : x y z
#
# Youngs Moduli (GPa) = 26.55216 49.90458 134.79004
#
# Poissons Ratio (x) = 0.45287 0.64193
# Poissons Ratio (y) = 0.24095 0.69415
# Poissons Ratio (z) = 0.12645 0.25700
#
# Static dielectric constant tensor:
#      x y z
#    x 3.312200 0.000000 0.000000 
#    y 0.000000 3.566470 0.000000 
#    z 0.000000 0.000000 4.580350 
# 
# 
# High freq. dielectric constant tensor:
#      x y z
#    x 1.753880 0.000000 0.000000 
#    y 0.000000 1.754970 0.000000 
#    z 0.000000 0.000000 1.800190 
# 
# From -- ./inp_files/37526.got.cif
#   From: 2010.03.12/outbox.cif.g09.slc.cpg/sg53_19_cif.got.tgz:37526.got - 2010.04.16 14:36:59.
