data_PCOD8217301
_publ_section_title
;
Structure prediction by ZEFSAII (Michael W. Deem and Ramdas Pophale) SiO2 
 PCOD8217301
Probable space group: P N N A
;
_chemical_formula_sum "Si O2"
_cell_formula_units_Z 40
_cell_length_a 9.405932
_cell_length_b 10.499201
_cell_length_c 18.270250
_cell_angle_alpha 90.000000
_cell_angle_beta 90.000000
_cell_angle_gamma 90.000000
_cell_volume 1804.274349
_symmetry_space_group_name_H-M "P N N A"
_symmetry_group_IT_number 52
_symmetry_cell_setting 'orthorhombic'
loop_
_space_group_symop_operation_xyz
x,y,z
1/2-x,-y,z
x,1/2-y,1/2-z
1/2-x,1/2+y,1/2-z
-x,-y,-z
1/2+x,y,-z
-x,1/2+y,1/2+z
1/2+x,1/2-y,1/2+z
loop_
_atom_site_type_symbol
_atom_site_label
_atom_site_fract_x
_atom_site_fract_y
_atom_site_fract_z
Si Si1 0.917047 0.999028 0.576199
Si Si2 0.474217 0.775382 0.079070
Si Si3 0.506405 0.750299 0.662638
Si Si4 0.713744 0.146963 0.057191
Si Si5 0.284798 0.862940 0.193464
O O1 0.052089 0.136560 0.385892
O O2 0.976855 0.107876 0.629942
O O3 0.750000 0.000000 0.560759
O O4 0.000000 0.000000 0.500000
O O5 0.637961 0.780424 0.058164
O O6 0.423440 0.875866 0.141231
O O7 0.383434 0.797966 0.006528
O O8 0.489820 0.750000 0.750000
O O9 0.370129 0.675396 0.632038
O O10 0.650260 0.673595 0.642049
O O11 0.750000 0.000000 0.047045
O O12 0.309712 0.750000 0.250000
O O13 0.250000 0.000000 0.231493
#
# Coordination Sequence:
#
# PCOD8217301 Si02
#       5
#     8   8   8   8   8
#     4  12  24  45  74 109 141 187 247 305 367 430
#     4  12  24  42  75 101 138 184 243 299 358 431
#     4  11  26  45  69 102 150 188 237 305 366 440
#     4  12  25  46  68 102 140 189 237 299 364 430
#     4  11  25  44  71 103 140 191 239 297 366 439
#
# _framework density 22.169578000000001
#
# number of rings (size 3 to 8) (size 9 to 14) (size 15 to 20)
#    0.000    0.400    4.000    4.800    5.600    0.800 
#    3.600    0.000    0.000    0.000    0.000    0.000 
#    0.000    0.000    0.000    0.000    0.000    0.000 
#
# Total GULP energy -495907.194937 kJ/mol
# GULP energy per Si atom -12397.679873 kJ/mol
# Density = 2.211912 g / cm^3
# Si number density = 22.169578 Si / 1000 Ang^3
#
#
#
# Elastic Constant Matrix: (Units=GPa)
#
#
# Indices 1 2 3 4 5 6 
#
# 1 161.0269 20.7839 45.3689 0.0000 0.0000 0.0000
# 2 20.7839 130.0367 36.4901 0.0000 0.0000 0.0000
# 3 45.3689 36.4901 108.6880 0.0000 0.0000 0.0000
# 4 0.0000 0.0000 0.0000 34.9442 0.0000 0.0000
# 5 0.0000 0.0000 0.0000 0.0000 14.9891 0.0000
# 6 0.0000 0.0000 0.0000 0.0000 0.0000 29.7737
#
#
#
# Elastic Compliance Matrix: (Units=1/GPa)
#
#
# Indices 1 2 3 4 5 6 
#
# 1 0.007051 -0.000332 -0.002832 0.000000 0.000000 0.000000
# 2 -0.000332 0.008506 -0.002717 0.000000 0.000000 0.000000
# 3 -0.002832 -0.002717 0.011295 0.000000 0.000000 0.000000
# 4 0.000000 0.000000 0.000000 0.028617 0.000000 0.000000
# 5 0.000000 0.000000 0.000000 0.000000 0.066715 0.000000
# 6 0.000000 0.000000 0.000000 0.000000 0.000000 0.033587
#
#
# Mechanical properties :
#
#
# Convention : Reuss Voigt Hill
#
# Bulk Modulus (GPa) = 66.27097 67.22640 66.74868
# Shear Modulus (GPa) = 28.97516 35.74866 32.36191
#
# Velocity S-wave (km/s) = 3.61914 4.01996 3.82480
# Velocity P-wave (km/s) = 6.88635 7.20669 7.04834
#
# Compressibility (1/GPa) = 0.01508956
#
# Stress axis : x y z
#
# Youngs Moduli (GPa) = 141.82715 117.56885 88.53655
#
# Poissons Ratio (x) = 0.03907 0.25070
# Poissons Ratio (y) = 0.04714 0.24054
# Poissons Ratio (z) = 0.40160 0.31942
#
# Static dielectric constant tensor:
#      x y z
#    x 4.689560 0.000000 0.000000 
#    y 0.000000 4.424510 0.000000 
#    z 0.000000 0.000000 3.855150 
# 
# 
# High freq. dielectric constant tensor:
#      x y z
#    x 1.881890 0.000000 0.000000 
#    y 0.000000 1.891670 0.000000 
#    z 0.000000 0.000000 1.866750 
# 
# From -- ./inp_files/30886.got.cif
#   From: 2010.06.25/outbox.cif.g09.slc.cpg/sg52_16_cif.got.tgz:30886.got - 2010.06.26 19:32:48.
