data_PCOD8217852
_publ_section_title
;
Structure prediction by ZEFSAII (Michael W. Deem and Ramdas Pophale) SiO2 
 PCOD8217852
Probable space group: P M N A
;
_chemical_formula_sum "Si O2"
_cell_formula_units_Z 56
_cell_length_a 15.437915
_cell_length_b 8.842318
_cell_length_c 22.534737
_cell_angle_alpha 90.000000
_cell_angle_beta 90.000000
_cell_angle_gamma 90.000000
_cell_volume 3076.148300
_symmetry_space_group_name_H-M "P M N A"
_symmetry_group_IT_number 53
_symmetry_cell_setting 'orthorhombic'
loop_
_space_group_symop_operation_xyz
x,y,z
1/2-x,-y,1/2+z
x,-y,-z
1/2-x,y,1/2-z
-x,-y,-z
1/2+x,y,1/2-z
-x,y,z
1/2+x,-y,1/2+z
loop_
_atom_site_type_symbol
_atom_site_label
_atom_site_fract_x
_atom_site_fract_y
_atom_site_fract_z
Si Si1 0.731604 0.942015 0.134208
Si Si2 0.352464 0.478676 0.563616
Si Si3 0.901586 0.777184 0.289500
Si Si4 0.813407 0.277710 0.537315
Si Si5 0.096223 0.483345 0.619572
Si Si6 0.904200 0.236731 0.846821
Si Si7 0.772971 0.273385 0.405866
O O1 0.740593 0.121737 0.131270
O O2 0.671189 0.900224 0.190929
O O3 0.685593 0.876539 0.075291
O O4 0.829517 0.879156 0.134798
O O5 0.403199 0.500000 0.500000
O O6 0.271636 0.374015 0.549046
O O7 0.405842 0.392516 0.614716
O O8 0.319681 0.642239 0.587117
O O9 0.883979 0.626642 0.326071
O O10 0.888224 0.726371 0.221924
O O11 0.000000 0.838940 0.300439
O O12 0.890788 0.388737 0.558323
O O13 0.819144 0.235386 0.468587
O O14 0.161235 0.621143 0.629904
O O15 0.000000 0.549245 0.620655
O O16 0.000000 0.162704 0.855468
#
# Coordination Sequence:
#
# PCOD8217852 Si02
#       7
#     8   8   8   8   8   8   8
#     4  10  19  32  51  74 102 134 168 205 247 299
#     4   8  16  32  53  75  97 123 161 206 253 302
#     4   9  19  36  54  71  95 133 175 206 240 298
#     4   8  16  30  48  69  98 138 171 195 237 299
#     4   9  17  30  49  74 102 132 171 213 249 294
#     4  10  20  36  56  72  93 132 175 209 248 305
#     4  10  18  29  48  75 104 132 160 204 260 296
#
# _framework density 18.204584000000001
#
# number of rings (size 3 to 8) (size 9 to 14) (size 15 to 20)
#    0.000    2.857    0.000    3.000    0.000    2.000 
#    0.000    3.571    0.000   18.857    0.000    0.000 
#    0.000    0.000    0.000    0.000    0.000    0.000 
#
# Total GULP energy -693923.939646 kJ/mol
# GULP energy per Si atom -12391.498922 kJ/mol
# Density = 1.816315 g / cm^3
# Si number density = 18.204584 Si / 1000 Ang^3
#
#
#
# Elastic Constant Matrix: (Units=GPa)
#
#
# Indices 1 2 3 4 5 6 
#
# 1 84.7414 51.6259 35.3896 0.0000 0.0000 0.0000
# 2 51.6259 106.9569 44.5324 0.0000 0.0000 0.0000
# 3 35.3896 44.5324 100.5745 0.0000 0.0000 0.0000
# 4 0.0000 0.0000 0.0000 18.1003 0.0000 0.0000
# 5 0.0000 0.0000 0.0000 0.0000 20.0241 0.0000
# 6 0.0000 0.0000 0.0000 0.0000 0.0000 16.4879
#
#
#
# Elastic Compliance Matrix: (Units=1/GPa)
#
#
# Indices 1 2 3 4 5 6 
#
# 1 0.017401 -0.007172 -0.002947 0.000000 0.000000 0.000000
# 2 -0.007172 0.014419 -0.003861 0.000000 0.000000 0.000000
# 3 -0.002947 -0.003861 0.012689 0.000000 0.000000 0.000000
# 4 0.000000 0.000000 0.000000 0.055248 0.000000 0.000000
# 5 0.000000 0.000000 0.000000 0.000000 0.049940 0.000000
# 6 0.000000 0.000000 0.000000 0.000000 0.000000 0.060650
#
#
# Mechanical properties :
#
#
# Convention : Reuss Voigt Hill
#
# Bulk Modulus (GPa) = 60.42641 61.70763 61.06702
# Shear Modulus (GPa) = 20.50671 21.63746 21.07209
#
# Velocity S-wave (km/s) = 3.35992 3.45131 3.40592
# Velocity P-wave (km/s) = 6.95105 7.06062 7.00605
#
# Compressibility (1/GPa) = 0.01654905
#
# Stress axis : x y z
#
# Youngs Moduli (GPa) = 57.46917 69.35442 78.80579
#
# Poissons Ratio (x) = 0.49740 0.23227
# Poissons Ratio (y) = 0.41216 0.30425
# Poissons Ratio (z) = 0.16938 0.26776
#
# Static dielectric constant tensor:
#      x y z
#    x 3.382480 0.000000 0.000000 
#    y 0.000000 3.199620 0.000000 
#    z 0.000000 0.000000 3.588210 
# 
# 
# High freq. dielectric constant tensor:
#      x y z
#    x 1.695430 0.000000 0.000000 
#    y 0.000000 1.681390 0.000000 
#    z 0.000000 0.000000 1.704610 
# 
# From -- ./inp_files/32492.got.cif
#   From: 2010.03.12/outbox.cif.g09.slc.cpg/sg53_17_cif.got.tgz:32492.got - 2010.04.16 14:36:59.
