data_PCOD8217864
_publ_section_title
;
Structure prediction by ZEFSAII (Michael W. Deem and Ramdas Pophale) SiO2 
 PCOD8217864
Probable space group: P M N A
;
_chemical_formula_sum "Si O2"
_cell_formula_units_Z 56
_cell_length_a 9.346611
_cell_length_b 16.752074
_cell_length_c 21.219972
_cell_angle_alpha 90.000000
_cell_angle_beta 90.000000
_cell_angle_gamma 90.000000
_cell_volume 3322.519644
_symmetry_space_group_name_H-M "P M N A"
_symmetry_group_IT_number 53
_symmetry_cell_setting 'orthorhombic'
loop_
_space_group_symop_operation_xyz
x,y,z
1/2-x,-y,1/2+z
x,-y,-z
1/2-x,y,1/2-z
-x,-y,-z
1/2+x,y,1/2-z
-x,y,z
1/2+x,-y,1/2+z
loop_
_atom_site_type_symbol
_atom_site_label
_atom_site_fract_x
_atom_site_fract_y
_atom_site_fract_z
Si Si1 0.166953 0.153291 0.313810
Si Si2 0.330771 0.542883 0.437618
Si Si3 0.661830 0.713275 0.623434
Si Si4 0.663216 0.286009 0.521649
Si Si5 0.333244 0.546490 0.686021
Si Si6 0.830971 0.127490 0.529437
Si Si7 0.333490 0.029810 0.088594
O O1 0.250000 0.162672 0.250000
O O2 0.222388 0.219207 0.362193
O O3 0.199777 0.065473 0.342522
O O4 0.000000 0.166810 0.302074
O O5 0.264945 0.500000 0.500000
O O6 0.500000 0.529205 0.439138
O O7 0.290696 0.636613 0.438138
O O8 0.271406 0.506051 0.372217
O O9 0.500000 0.745026 0.634515
O O10 0.683825 0.688951 0.551066
O O11 0.692009 0.638639 0.668538
O O12 0.500000 0.262577 0.535229
O O13 0.757490 0.211458 0.543610
O O14 0.250000 0.525010 0.750000
O O15 0.500000 0.528552 0.697424
O O16 0.770010 0.089882 0.464243
O O17 0.000000 0.143129 0.528816
O O18 0.782924 0.062240 0.582840
O O19 0.500000 0.030184 0.073304
#
# Coordination Sequence:
#
# PCOD8217864 Si02
#       7
#     8   8   8   8   8   8   8
#     4  11  21  33  48  69  98 133 165 195 235 286
#     4   9  16  31  53  73  96 132 170 203 246 299
#     4  10  19  31  48  73 102 131 162 197 241 294
#     4  10  18  29  50  78 102 123 160 208 247 285
#     4  10  20  34  52  72  98 134 171 205 244 296
#     4   9  16  31  51  70  93 124 157 192 240 292
#     4   8  16  30  49  68  91 126 163 190 227 288
#
# _framework density 16.854679000000001
#
# number of rings (size 3 to 8) (size 9 to 14) (size 15 to 20)
#    0.000    2.429    2.857    1.714    0.000    1.714 
#    0.000    3.571    0.000    1.714    0.000    6.000 
#    0.000    0.000    0.000    0.000    0.000    0.000 
#
# Total GULP energy -694082.559323 kJ/mol
# GULP energy per Si atom -12394.331416 kJ/mol
# Density = 1.681632 g / cm^3
# Si number density = 16.854679 Si / 1000 Ang^3
#
#
#
# Elastic Constant Matrix: (Units=GPa)
#
#
# Indices 1 2 3 4 5 6 
#
# 1 54.8847 41.6664 31.4956 0.0000 0.0000 0.0000
# 2 41.6664 107.7010 47.8583 0.0000 0.0000 0.0000
# 3 31.4956 47.8583 81.7824 0.0000 0.0000 0.0000
# 4 0.0000 0.0000 0.0000 24.0814 0.0000 0.0000
# 5 0.0000 0.0000 0.0000 0.0000 12.1353 0.0000
# 6 0.0000 0.0000 0.0000 0.0000 0.0000 24.2836
#
#
#
# Elastic Compliance Matrix: (Units=1/GPa)
#
#
# Indices 1 2 3 4 5 6 
#
# 1 0.027793 -0.008103 -0.005961 0.000000 0.000000 0.000000
# 2 -0.008103 0.014910 -0.005605 0.000000 0.000000 0.000000
# 3 -0.005961 -0.005605 0.017803 0.000000 0.000000 0.000000
# 4 0.000000 0.000000 0.000000 0.041526 0.000000 0.000000
# 5 0.000000 0.000000 0.000000 0.000000 0.082404 0.000000
# 6 0.000000 0.000000 0.000000 0.000000 0.000000 0.041180
#
#
# Mechanical properties :
#
#
# Convention : Reuss Voigt Hill
#
# Bulk Modulus (GPa) = 47.24216 54.04541 50.64378
# Shear Modulus (GPa) = 18.38162 20.32325 19.35243
#
# Velocity S-wave (km/s) = 3.30600 3.47622 3.39218
# Velocity P-wave (km/s) = 6.53168 6.94603 6.74203
#
# Compressibility (1/GPa) = 0.02116754
#
# Stress axis : x y z
#
# Youngs Moduli (GPa) = 35.98079 67.06736 56.16935
#
# Poissons Ratio (x) = 0.54345 0.33485
# Poissons Ratio (y) = 0.29156 0.31482
# Poissons Ratio (z) = 0.21450 0.37590
#
# Static dielectric constant tensor:
#      x y z
#    x 2.903100 0.000000 0.000000 
#    y 0.000000 3.285050 0.000000 
#    z 0.000000 0.000000 3.128470 
# 
# 
# High freq. dielectric constant tensor:
#      x y z
#    x 1.621910 0.000000 0.000000 
#    y 0.000000 1.651730 0.000000 
#    z 0.000000 0.000000 1.634240 
# 
# From -- ./inp_files/31000.got.cif
#   From: 2010.03.12/outbox.cif.g09.slc.cpg/sg53_16_cif.got.tgz:31000.got - 2010.04.16 14:36:59.
