data_PCOD8217497
_publ_section_title
;
Structure prediction by ZEFSAII (Michael W. Deem and Ramdas Pophale) SiO2 
 PCOD8217497
Probable space group: P M N A
;
_chemical_formula_sum "Si O2"
_cell_formula_units_Z 56
_cell_length_a 8.747209
_cell_length_b 18.061749
_cell_length_c 20.327578
_cell_angle_alpha 90.000000
_cell_angle_beta 90.000000
_cell_angle_gamma 90.000000
_cell_volume 3211.551881
_symmetry_space_group_name_H-M "P M N A"
_symmetry_group_IT_number 53
_symmetry_cell_setting 'orthorhombic'
loop_
_space_group_symop_operation_xyz
x,y,z
1/2-x,-y,1/2+z
x,-y,-z
1/2-x,y,1/2-z
-x,-y,-z
1/2+x,y,1/2-z
-x,y,z
1/2+x,-y,1/2+z
loop_
_atom_site_type_symbol
_atom_site_label
_atom_site_fract_x
_atom_site_fract_y
_atom_site_fract_z
Si Si1 0.819168 0.934223 0.180484
Si Si2 0.322030 0.206235 0.608130
Si Si3 0.820357 0.034917 0.430082
Si Si4 0.823404 0.663913 0.555750
Si Si5 0.821220 0.637094 0.081872
Si Si6 0.170589 0.479270 0.076719
Si Si7 0.319382 0.187361 0.458940
O O1 0.750000 0.956875 0.250000
O O2 0.751463 0.853125 0.158981
O O3 0.000000 0.934111 0.187054
O O4 0.770378 0.993211 0.126528
O O5 0.500000 0.190180 0.606402
O O6 0.287749 0.292051 0.629493
O O7 0.260640 0.192483 0.534354
O O8 0.769006 0.119868 0.425548
O O9 0.000000 0.027964 0.417507
O O10 0.772765 0.000000 0.500000
O O11 0.787460 0.646032 0.480416
O O12 0.777727 0.589757 0.597031
O O13 0.728970 0.736633 0.578198
O O14 0.000000 0.680450 0.566714
O O15 0.786900 0.556686 0.115164
O O16 0.000000 0.640078 0.058717
O O17 0.000000 0.454408 0.094967
O O18 0.183129 0.500000 0.000000
O O19 0.500000 0.175695 0.452925
#
# Coordination Sequence:
#
# PCOD8217497 Si02
#       7
#     8   8   8   8   8   8   8
#     4  11  22  37  54  74 101 135 172 209 256 305
#     4   8  15  28  47  67  89 121 163 203 241 290
#     4  11  22  35  53  78 104 127 162 211 260 308
#     4  10  17  23  34  57  89 120 152 193 243 287
#     4   8  14  25  39  56  79 116 160 196 231 282
#     4   8  13  22  35  51  78 116 156 191 230 283
#     4  10  18  31  49  68  91 125 167 203 244 298
#
# _framework density 17.437052999999999
#
# number of rings (size 3 to 8) (size 9 to 14) (size 15 to 20)
#    0.000    2.571    1.429    4.286    0.000    3.143 
#    0.000    0.714    0.000    0.000    0.000    0.000 
#    0.000    1.143    0.000    8.000    0.000    6.000 
#
# Total GULP energy -693780.481145 kJ/mol
# GULP energy per Si atom -12388.937163 kJ/mol
# Density = 1.739737 g / cm^3
# Si number density = 17.437053 Si / 1000 Ang^3
#
#
#
# Elastic Constant Matrix: (Units=GPa)
#
#
# Indices 1 2 3 4 5 6 
#
# 1 61.1476 30.0778 17.1952 0.0000 0.0000 0.0000
# 2 30.0778 151.2306 34.9007 0.0000 0.0000 0.0000
# 3 17.1952 34.9007 51.5458 0.0000 0.0000 0.0000
# 4 0.0000 0.0000 0.0000 9.5140 0.0000 0.0000
# 5 0.0000 0.0000 0.0000 0.0000 11.9720 0.0000
# 6 0.0000 0.0000 0.0000 0.0000 0.0000 26.5622
#
#
#
# Elastic Compliance Matrix: (Units=1/GPa)
#
#
# Indices 1 2 3 4 5 6 
#
# 1 0.018958 -0.002739 -0.004470 0.000000 0.000000 0.000000
# 2 -0.002739 0.008233 -0.004661 0.000000 0.000000 0.000000
# 3 -0.004470 -0.004661 0.024047 0.000000 0.000000 0.000000
# 4 0.000000 0.000000 0.000000 0.105108 0.000000 0.000000
# 5 0.000000 0.000000 0.000000 0.000000 0.083528 0.000000
# 6 0.000000 0.000000 0.000000 0.000000 0.000000 0.037647
#
#
# Mechanical properties :
#
#
# Convention : Reuss Voigt Hill
#
# Bulk Modulus (GPa) = 36.36474 47.58571 41.97523
# Shear Modulus (GPa) = 16.10689 21.72633 18.91661
#
# Velocity S-wave (km/s) = 3.04257 3.53368 3.29728
# Velocity P-wave (km/s) = 5.76568 6.63313 6.21456
#
# Compressibility (1/GPa) = 0.02749916
#
# Stress axis : x y z
#
# Youngs Moduli (GPa) = 52.74793 121.46656 41.58556
#
# Poissons Ratio (x) = 0.33270 0.18588
# Poissons Ratio (y) = 0.14448 0.19381
# Poissons Ratio (z) = 0.23577 0.56610
#
# Static dielectric constant tensor:
#      x y z
#    x 3.097710 0.000000 0.000000 
#    y 0.000000 3.966570 0.000000 
#    z 0.000000 0.000000 2.733400 
# 
# 
# High freq. dielectric constant tensor:
#      x y z
#    x 1.666400 0.000000 0.000000 
#    y 0.000000 1.706690 0.000000 
#    z 0.000000 0.000000 1.585270 
# 
# From -- ./inp_files/30978.got.cif
#   From: 2010.03.12/outbox.cif.g09.slc.cpg/sg53_16_cif.got.tgz:30978.got - 2010.04.16 14:36:59.
