data_PCOD8217858
_publ_section_title
;
Structure prediction by ZEFSAII (Michael W. Deem and Ramdas Pophale) SiO2 
 PCOD8217858
Probable space group: P M N A
;
_chemical_formula_sum "Si O2"
_cell_formula_units_Z 40
_cell_length_a 15.599503
_cell_length_b 14.942429
_cell_length_c 8.450592
_cell_angle_alpha 90.000000
_cell_angle_beta 90.000000
_cell_angle_gamma 90.000000
_cell_volume 1969.786230
_symmetry_space_group_name_H-M "P M N A"
_symmetry_group_IT_number 53
_symmetry_cell_setting 'orthorhombic'
loop_
_space_group_symop_operation_xyz
x,y,z
1/2-x,-y,1/2+z
x,-y,-z
1/2-x,y,1/2-z
-x,-y,-z
1/2+x,y,1/2-z
-x,y,z
1/2+x,-y,1/2+z
loop_
_atom_site_type_symbol
_atom_site_label
_atom_site_fract_x
_atom_site_fract_y
_atom_site_fract_z
Si Si1 0.402775 0.598344 0.344078
Si Si2 0.000000 0.100479 0.812172
Si Si3 0.000000 0.898898 0.810652
Si Si4 0.656266 0.780430 0.689277
Si Si5 0.657112 0.417338 0.310809
Si Si6 0.657904 0.782606 0.312234
O O1 0.500000 0.621129 0.393172
O O2 0.345081 0.587429 0.499607
O O3 0.400112 0.502552 0.251154
O O4 0.364526 0.682574 0.246349
O O5 0.914428 0.149364 0.748215
O O6 0.000000 0.999748 0.744777
O O7 0.000000 0.101320 0.000847
O O8 0.085109 0.849177 0.745832
O O9 0.750000 0.809428 0.750000
O O10 0.630084 0.681006 0.753942
O O11 0.657368 0.781134 0.500746
O O12 0.750000 0.441500 0.250000
O O13 0.750000 0.814655 0.250000
#
# Coordination Sequence:
#
# PCOD8217858 Si02
#       6
#     8   4   4   8   8   8
#     4  10  18  29  49  74  98 132 174 206 244 301
#     4   9  18  34  50  80  96 133 167 211 250 304
#     4   9  18  32  56  70 104 129 169 207 254 298
#     4   9  19  33  51  77 100 132 169 205 249 301
#     4   9  17  27  44  73  99 126 163 207 246 284
#     4  10  19  33  54  76 102 132 168 211 250 297
#
# _framework density 20.306771999999999
#
# number of rings (size 3 to 8) (size 9 to 14) (size 15 to 20)
#    0.000    2.600    1.000    1.800    5.600    0.800 
#    0.000    1.000    0.000    1.200    0.000    9.800 
#    0.000    0.000    0.000    0.000    0.000    0.000 
#
# Total GULP energy -495571.610705 kJ/mol
# GULP energy per Si atom -12389.290268 kJ/mol
# Density = 2.026055 g / cm^3
# Si number density = 20.306772 Si / 1000 Ang^3
#
#
#
# Elastic Constant Matrix: (Units=GPa)
#
#
# Indices 1 2 3 4 5 6 
#
# 1 172.2564 94.2149 19.1412 0.0000 0.0000 0.0000
# 2 94.2149 195.1775 7.0155 0.0000 0.0000 0.0000
# 3 19.1412 7.0155 10.1830 0.0000 0.0000 0.0000
# 4 0.0000 0.0000 0.0000 8.5002 0.0000 0.0000
# 5 0.0000 0.0000 0.0000 0.0000 25.8633 0.0000
# 6 0.0000 0.0000 0.0000 0.0000 0.0000 34.7148
#
#
#
# Elastic Compliance Matrix: (Units=1/GPa)
#
#
# Indices 1 2 3 4 5 6 
#
# 1 0.009825 -0.004182 -0.015586 0.000000 0.000000 0.000000
# 2 -0.004182 0.007034 0.003015 0.000000 0.000000 0.000000
# 3 -0.015586 0.003015 0.125423 0.000000 0.000000 0.000000
# 4 0.000000 0.000000 0.000000 0.117645 0.000000 0.000000
# 5 0.000000 0.000000 0.000000 0.000000 0.038665 0.000000
# 6 0.000000 0.000000 0.000000 0.000000 0.000000 0.028806
#
#
# Mechanical properties :
#
#
# Convention : Reuss Voigt Hill
#
# Bulk Modulus (GPa) = 9.19323 68.70667 38.94995
# Shear Modulus (GPa) = 12.58929 30.96534 21.77731
#
# Velocity S-wave (km/s) = 2.49259 3.90920 3.27833
# Velocity P-wave (km/s) = 3.58064 7.36774 5.79244
#
# Compressibility (1/GPa) = 0.10877575
#
# Stress axis : x y z
#
# Youngs Moduli (GPa) = 101.78378 142.16656 7.97300
#
# Poissons Ratio (x) = 0.59458 0.12427
# Poissons Ratio (y) = 0.42569 -0.02404
# Poissons Ratio (z) = 1.58644 -0.42870
#
# Static dielectric constant tensor:
#      x y z
#    x 3.768620 0.000000 0.000000 
#    y 0.000000 4.345120 0.000000 
#    z 0.000000 0.000000 2.999380 
# 
# 
# High freq. dielectric constant tensor:
#      x y z
#    x 1.798090 0.000000 0.000000 
#    y 0.000000 1.813070 0.000000 
#    z 0.000000 0.000000 1.721000 
# 
# From -- ./inp_files/15847.got.cif
#   From: 2010.03.12/outbox.cif.g09.slc.cpg/sg53_8_cif.got.tgz:15847.got - 2010.04.16 14:36:59.
