data_PCOD8217885
_publ_section_title
;
Structure prediction by ZEFSAII (Michael W. Deem and Ramdas Pophale) SiO2 
 PCOD8217885
Probable space group: P M N A
;
_chemical_formula_sum "Si O2"
_cell_formula_units_Z 56
_cell_length_a 8.582666
_cell_length_b 14.523305
_cell_length_c 26.410890
_cell_angle_alpha 90.000000
_cell_angle_beta 90.000000
_cell_angle_gamma 90.000000
_cell_volume 3292.082471
_symmetry_space_group_name_H-M "P M N A"
_symmetry_group_IT_number 53
_symmetry_cell_setting 'orthorhombic'
loop_
_space_group_symop_operation_xyz
x,y,z
1/2-x,-y,1/2+z
x,-y,-z
1/2-x,y,1/2-z
-x,-y,-z
1/2+x,y,1/2-z
-x,y,z
1/2+x,-y,1/2+z
loop_
_atom_site_type_symbol
_atom_site_label
_atom_site_fract_x
_atom_site_fract_y
_atom_site_fract_z
Si Si1 0.317157 0.761201 0.881827
Si Si2 0.319547 0.320254 0.569044
Si Si3 0.815991 0.877104 0.041240
Si Si4 0.820361 0.379147 0.043896
Si Si5 0.183150 0.624645 0.805253
Si Si6 0.180298 0.485690 0.617687
Si Si7 0.816139 0.925830 0.929672
O O1 0.500000 0.745426 0.886545
O O2 0.228344 0.715220 0.929022
O O3 0.259397 0.716190 0.829522
O O4 0.272541 0.869408 0.885355
O O5 0.500000 0.318296 0.584188
O O6 0.249144 0.216436 0.566501
O O7 0.294073 0.369914 0.515471
O O8 0.228343 0.378665 0.611624
O O9 0.000000 0.866320 0.036091
O O10 0.773557 0.965669 0.075768
O O11 0.752976 0.891406 0.984303
O O12 0.716125 0.462481 0.064931
O O13 0.000000 0.400650 0.056608
O O14 0.250000 0.609616 0.750000
O O15 0.222413 0.533916 0.837782
O O16 0.000000 0.638975 0.802914
O O17 0.000000 0.493226 0.631494
O O18 0.000000 0.910879 0.924144
#
# Coordination Sequence:
#
# PCOD8217885 Si02
#       7
#     8   8   8   8   8   8   8
#     4  11  20  30  47  73 103 132 163 201 246 297
#     4  10  18  30  46  67  94 132 174 209 242 284
#     4   8  15  27  47  68  93 130 176 213 240 280
#     4  10  18  30  47  65  91 130 172 207 240 284
#     4  11  22  39  59  77  97 122 156 201 249 300
#     4  11  22  33  46  69  99 129 161 199 245 295
#     4   9  15  29  48  68  93 131 173 209 244 284
#
# _framework density 17.010508000000002
#
# number of rings (size 3 to 8) (size 9 to 14) (size 15 to 20)
#    0.000    2.000    1.429    7.286    0.000    2.857 
#    0.000    2.143    0.000    0.000    0.000    1.000 
#    0.000    0.000    0.000    0.000    0.000    0.000 
#
# Total GULP energy -694233.987826 kJ/mol
# GULP energy per Si atom -12397.035497 kJ/mol
# Density = 1.697179 g / cm^3
# Si number density = 17.010508 Si / 1000 Ang^3
#
#
#
# Elastic Constant Matrix: (Units=GPa)
#
#
# Indices 1 2 3 4 5 6 
#
# 1 44.5082 19.1643 19.9389 0.0000 0.0000 0.0000
# 2 19.1643 126.8731 40.9514 0.0000 0.0000 0.0000
# 3 19.9389 40.9514 61.5642 0.0000 0.0000 0.0000
# 4 0.0000 0.0000 0.0000 15.3787 0.0000 0.0000
# 5 0.0000 0.0000 0.0000 0.0000 20.0809 0.0000
# 6 0.0000 0.0000 0.0000 0.0000 0.0000 14.1596
#
#
#
# Elastic Compliance Matrix: (Units=1/GPa)
#
#
# Indices 1 2 3 4 5 6 
#
# 1 0.026524 -0.001571 -0.007545 0.000000 0.000000 0.000000
# 2 -0.001571 0.010130 -0.006229 0.000000 0.000000 0.000000
# 3 -0.007545 -0.006229 0.022831 0.000000 0.000000 0.000000
# 4 0.000000 0.000000 0.000000 0.065025 0.000000 0.000000
# 5 0.000000 0.000000 0.000000 0.000000 0.049799 0.000000
# 6 0.000000 0.000000 0.000000 0.000000 0.000000 0.070624
#
#
# Mechanical properties :
#
#
# Convention : Reuss Voigt Hill
#
# Bulk Modulus (GPa) = 34.73048 43.67274 39.20161
# Shear Modulus (GPa) = 17.53022 20.11657 18.82340
#
# Velocity S-wave (km/s) = 3.21370 3.44262 3.33013
# Velocity P-wave (km/s) = 5.85081 6.44452 6.15483
#
# Compressibility (1/GPa) = 0.02879315
#
# Stress axis : x y z
#
# Youngs Moduli (GPa) = 37.70107 98.71774 43.80077
#
# Poissons Ratio (x) = 0.15509 0.33050
# Poissons Ratio (y) = 0.05923 0.27285
# Poissons Ratio (z) = 0.28447 0.61495
#
# Static dielectric constant tensor:
#      x y z
#    x 3.057060 0.000000 0.000000 
#    y 0.000000 3.490620 0.000000 
#    z 0.000000 0.000000 2.819790 
# 
# 
# High freq. dielectric constant tensor:
#      x y z
#    x 1.650360 0.000000 0.000000 
#    y 0.000000 1.663600 0.000000 
#    z 0.000000 0.000000 1.605790 
# 
# From -- ./inp_files/38359.got.cif
#   From: 2010.03.12/outbox.cif.g09.slc.cpg/sg53_20_cif.got.tgz:38359.got - 2010.04.16 14:36:59.
