data_PCOD8217396
_publ_section_title
;
Structure prediction by ZEFSAII (Michael W. Deem and Ramdas Pophale) SiO2 
 PCOD8217396
Probable space group: P N N A
;
_chemical_formula_sum "Si O2"
_cell_formula_units_Z 40
_cell_length_a 22.622302
_cell_length_b 9.491767
_cell_length_c 8.352401
_cell_angle_alpha 90.000000
_cell_angle_beta 90.000000
_cell_angle_gamma 90.000000
_cell_volume 1793.474480
_symmetry_space_group_name_H-M "P N N A"
_symmetry_group_IT_number 52
_symmetry_cell_setting 'orthorhombic'
loop_
_space_group_symop_operation_xyz
x,y,z
1/2-x,-y,z
x,1/2-y,1/2-z
1/2-x,1/2+y,1/2-z
-x,-y,-z
1/2+x,y,-z
-x,1/2+y,1/2+z
1/2+x,1/2-y,1/2+z
loop_
_atom_site_type_symbol
_atom_site_label
_atom_site_fract_x
_atom_site_fract_y
_atom_site_fract_z
Si Si1 0.634146 0.717775 0.565956
Si Si2 0.372335 0.768970 0.434372
Si Si3 0.744262 0.330599 0.411790
Si Si4 0.935899 0.976685 0.066673
Si Si5 0.934213 0.029375 0.438858
O O1 0.645126 0.750000 0.750000
O O2 0.695362 0.737488 0.473452
O O3 0.611259 0.559216 0.543462
O O4 0.583110 0.814041 0.490439
O O5 0.388954 0.750000 0.250000
O O6 0.306197 0.711772 0.461770
O O7 0.418779 0.686089 0.546866
O O8 0.383662 0.930488 0.483293
O O9 0.750000 0.500000 0.389436
O O10 0.726798 0.250000 0.250000
O O11 0.931521 0.022763 0.248921
O O12 0.000000 0.000000 0.000000
O O13 0.000000 0.000000 0.500000
#
# Coordination Sequence:
#
# PCOD8217396 Si02
#       5
#     8   8   8   8   8
#     4  12  26  46  71 103 141 183 234 291 350 415
#     4  12  26  46  71 103 141 183 234 291 350 415
#     4  12  27  48  74 106 142 185 236 292 354 423
#     4  12  24  45  70 101 142 184 234 288 348 420
#     4  12  26  45  72 105 140 186 232 286 352 418
#
# _framework density 22.303077999999999
#
# number of rings (size 3 to 8) (size 9 to 14) (size 15 to 20)
#    0.000    0.000    2.000    9.000    2.800    0.000 
#    0.000    0.000    0.000    0.000    0.000    0.000 
#    0.000    0.000    0.000    0.000    0.000    0.000 
#
# Total GULP energy -496272.405176 kJ/mol
# GULP energy per Si atom -12406.810129 kJ/mol
# Density = 2.225232 g / cm^3
# Si number density = 22.303078 Si / 1000 Ang^3
#
#
#
# Elastic Constant Matrix: (Units=GPa)
#
#
# Indices 1 2 3 4 5 6 
#
# 1 130.2429 21.4400 7.6595 0.0000 0.0000 0.0000
# 2 21.4400 78.9222 27.2095 0.0000 0.0000 0.0000
# 3 7.6595 27.2095 117.0687 0.0000 0.0000 0.0000
# 4 0.0000 0.0000 0.0000 37.9294 0.0000 0.0000
# 5 0.0000 0.0000 0.0000 0.0000 26.8816 0.0000
# 6 0.0000 0.0000 0.0000 0.0000 0.0000 42.5600
#
#
#
# Elastic Compliance Matrix: (Units=1/GPa)
#
#
# Indices 1 2 3 4 5 6 
#
# 1 0.008037 -0.002177 -0.000020 0.000000 0.000000 0.000000
# 2 -0.002177 0.014364 -0.003196 0.000000 0.000000 0.000000
# 3 -0.000020 -0.003196 0.009286 0.000000 0.000000 0.000000
# 4 0.000000 0.000000 0.000000 0.026365 0.000000 0.000000
# 5 0.000000 0.000000 0.000000 0.000000 0.037200 0.000000
# 6 0.000000 0.000000 0.000000 0.000000 0.000000 0.023496
#
#
# Mechanical properties :
#
#
# Convention : Reuss Voigt Hill
#
# Bulk Modulus (GPa) = 47.84189 48.76131 48.30160
# Shear Modulus (GPa) = 36.62967 39.46917 38.04942
#
# Velocity S-wave (km/s) = 4.05700 4.21131 4.13488
# Velocity P-wave (km/s) = 6.59113 6.74962 6.67085
#
# Compressibility (1/GPa) = 0.02090219
#
# Stress axis : x y z
#
# Youngs Moduli (GPa) = 124.41781 69.61903 107.68722
#
# Poissons Ratio (x) = 0.15153 0.00215
# Poissons Ratio (y) = 0.27080 0.34418
# Poissons Ratio (z) = 0.00249 0.22251
#
# Static dielectric constant tensor:
#      x y z
#    x 4.074650 0.000000 0.000000 
#    y 0.000000 4.201340 0.000000 
#    z 0.000000 0.000000 3.981610 
# 
# 
# High freq. dielectric constant tensor:
#      x y z
#    x 1.891300 0.000000 0.000000 
#    y 0.000000 1.893030 0.000000 
#    z 0.000000 0.000000 1.890870 
# 
# From -- ./inp_files/13982.got.cif
#   From: 2010.06.25/outbox.cif.g09.slc.cpg/sg52_7_cif.got.tgz:13982.got - 2010.06.26 19:32:48.
