data_PCOD8217953
_publ_section_title
;
Structure prediction by ZEFSAII (Michael W. Deem and Ramdas Pophale) SiO2 
 PCOD8217953
Probable space group: P M N A
;
_chemical_formula_sum "Si O2"
_cell_formula_units_Z 52
_cell_length_a 9.717976
_cell_length_b 14.327144
_cell_length_c 20.195047
_cell_angle_alpha 90.000000
_cell_angle_beta 90.000000
_cell_angle_gamma 90.000000
_cell_volume 2811.773389
_symmetry_space_group_name_H-M "P M N A"
_symmetry_group_IT_number 53
_symmetry_cell_setting 'orthorhombic'
loop_
_space_group_symop_operation_xyz
x,y,z
1/2-x,-y,1/2+z
x,-y,-z
1/2-x,y,1/2-z
-x,-y,-z
1/2+x,y,1/2-z
-x,y,z
1/2+x,-y,1/2+z
loop_
_atom_site_type_symbol
_atom_site_label
_atom_site_fract_x
_atom_site_fract_y
_atom_site_fract_z
Si Si1 0.159723 0.172342 0.887513
Si Si2 0.654220 0.717893 0.872662
Si Si3 0.845996 0.527586 0.689639
Si Si4 0.250000 0.838576 0.750000
Si Si5 0.658918 0.832215 0.541702
Si Si6 0.837306 0.682239 0.316182
Si Si7 0.153808 0.025027 0.144743
O O1 0.265485 0.254951 0.871689
O O2 0.000000 0.199414 0.871106
O O3 0.214785 0.079938 0.847703
O O4 0.178112 0.150559 0.964770
O O5 0.500000 0.739212 0.896511
O O6 0.677184 0.606961 0.864989
O O7 0.673902 0.772948 0.802937
O O8 0.757796 0.743143 0.931551
O O9 0.750000 0.551875 0.750000
O O10 0.817822 0.424707 0.660018
O O11 0.000000 0.531976 0.718126
O O12 0.347757 0.911144 0.710547
O O13 0.500000 0.815507 0.560791
O O14 0.722055 0.919775 0.583040
O O15 0.750000 0.700774 0.250000
O O16 0.000000 0.706804 0.306661
O O17 0.000000 0.003199 0.122237
#
# Coordination Sequence:
#
# PCOD8217953 Si02
#       7
#     8   8   8   4   8   8   8
#     4  10  20  36  56  76 104 142 182 220 258 305
#     4  10  19  32  53  80 109 136 169 215 266 315
#     4   9  18  33  53  78 106 136 169 211 264 318
#     4  10  18  30  50  80 110 136 164 216 266 318
#     4   9  19  35  54  76 104 143 182 215 257 312
#     4  10  21  37  56  79 106 137 175 217 263 313
#     4   9  18  32  52  76 105 140 177 214 260 312
#
# _framework density 18.493668
#
# number of rings (size 3 to 8) (size 9 to 14) (size 15 to 20)
#    0.000    2.462    0.769    1.385    1.077    4.308 
#    0.000    3.846    0.000    9.231    0.000    0.000 
#    0.000    0.000    0.000    0.000    0.000    0.000 
#
# Total GULP energy -644284.414975 kJ/mol
# GULP energy per Si atom -12390.084903 kJ/mol
# Density = 1.845158 g / cm^3
# Si number density = 18.493668 Si / 1000 Ang^3
#
#
#
# Elastic Constant Matrix: (Units=GPa)
#
#
# Indices 1 2 3 4 5 6 
#
# 1 83.7268 47.3649 19.8691 0.0000 0.0000 0.0000
# 2 47.3649 108.5520 30.8054 0.0000 0.0000 0.0000
# 3 19.8691 30.8054 54.3079 0.0000 0.0000 0.0000
# 4 0.0000 0.0000 0.0000 19.4082 0.0000 0.0000
# 5 0.0000 0.0000 0.0000 0.0000 29.1719 0.0000
# 6 0.0000 0.0000 0.0000 0.0000 0.0000 -6.2316
#
#
#
# Elastic Compliance Matrix: (Units=1/GPa)
#
#
# Indices 1 2 3 4 5 6 
#
# 1 0.016089 -0.006376 -0.002270 0.000000 0.000000 0.000000
# 2 -0.006376 0.013507 -0.005329 0.000000 0.000000 0.000000
# 3 -0.002270 -0.005329 0.022266 0.000000 0.000000 0.000000
# 4 0.000000 0.000000 0.000000 0.051525 0.000000 0.000000
# 5 0.000000 0.000000 0.000000 0.000000 0.034280 0.000000
# 6 0.000000 0.000000 0.000000 0.000000 0.000000 -0.160472
#
#
# Mechanical properties :
#
#
# Convention : Reuss Voigt Hill
#
# Bulk Modulus (GPa) = 41.81750 49.18505 45.50127
# Shear Modulus (GPa) = 381.26437 18.37285 199.81861
#
# Velocity S-wave (km/s) = 14.37383 3.15535 10.40584
# Velocity P-wave (km/s) = 17.26664 6.31889 13.00125
#
# Compressibility (1/GPa) = 0.02391343
#
# Stress axis : x y z
#
# Youngs Moduli (GPa) = 62.15319 74.03842 44.91059
#
# Poissons Ratio (x) = 0.47208 0.10193
# Poissons Ratio (y) = 0.39630 0.23931
# Poissons Ratio (z) = 0.14106 0.39452
#
# Static dielectric constant tensor:
#      x y z
#    x 3.420570 0.000000 0.000000 
#    y 0.000000 3.689600 0.000000 
#    z 0.000000 0.000000 3.121580 
# 
# 
# High freq. dielectric constant tensor:
#      x y z
#    x 1.708610 0.000000 0.000000 
#    y 0.000000 1.730710 0.000000 
#    z 0.000000 0.000000 1.693930 
# 
# From -- ./inp_files/30643.got.cif
#   From: 2010.03.12/outbox.cif.g09.slc.cpg/sg53_16_cif.got.tgz:30643.got - 2010.04.16 14:36:59.
