data_PCOD8217792
_publ_section_title
;
Structure prediction by ZEFSAII (Michael W. Deem and Ramdas Pophale) SiO2 
 PCOD8217792
Probable space group: P M N A
;
_chemical_formula_sum "Si O2"
_cell_formula_units_Z 64
_cell_length_a 9.142573
_cell_length_b 15.597923
_cell_length_c 28.923554
_cell_angle_alpha 90.000000
_cell_angle_beta 90.000000
_cell_angle_gamma 90.000000
_cell_volume 4124.647747
_symmetry_space_group_name_H-M "P M N A"
_symmetry_group_IT_number 53
_symmetry_cell_setting 'orthorhombic'
loop_
_space_group_symop_operation_xyz
x,y,z
1/2-x,-y,1/2+z
x,-y,-z
1/2-x,y,1/2-z
-x,-y,-z
1/2+x,y,1/2-z
-x,y,z
1/2+x,-y,1/2+z
loop_
_atom_site_type_symbol
_atom_site_label
_atom_site_fract_x
_atom_site_fract_y
_atom_site_fract_z
Si Si1 0.166091 0.499827 0.796689
Si Si2 0.326713 0.903302 0.049876
Si Si3 0.171911 0.313664 0.799424
Si Si4 0.828039 0.830399 0.355609
Si Si5 0.173349 0.905125 0.551173
Si Si6 0.172743 0.832015 0.645987
Si Si7 0.328133 0.685936 0.700549
Si Si8 0.329753 0.998759 0.201695
O O1 0.250000 0.501118 0.750000
O O2 0.201459 0.409075 0.821824
O O3 0.199474 0.590533 0.822135
O O4 0.000000 0.498880 0.781257
O O5 0.500000 0.910678 0.052623
O O6 0.274689 0.841255 0.091162
O O7 0.261914 0.998940 0.056934
O O8 0.278649 0.867506 0.999177
O O9 0.250000 0.302648 0.750000
O O10 0.237274 0.248033 0.835781
O O11 0.000000 0.295765 0.792520
O O12 0.000000 0.810393 0.351819
O O13 0.786721 0.916920 0.328743
O O14 0.226956 0.845038 0.593032
O O15 0.000000 0.911791 0.554234
O O16 0.260484 0.751152 0.664354
O O17 0.217873 0.915731 0.674942
O O18 0.000000 0.814433 0.649298
O O19 0.250000 0.696270 0.750000
O O20 0.500000 0.704665 0.707335
O O21 0.250000 0.993130 0.250000
O O22 0.500000 0.000059 0.212193
#
# Coordination Sequence:
#
# PCOD8217792 Si02
#       8
#     8   8   8   8   8   8   8   8
#     4   8  16  30  46  62  83 110 143 181 220 259
#     4   8  13  24  44  66  86 111 145 184 221 256
#     4  10  19  31  46  65  88 116 147 181 219 260
#     4  10  18  29  44  65  90 116 147 181 215 256
#     4   8  13  24  44  66  86 111 145 184 221 256
#     4  10  18  29  44  65  90 116 147 181 215 256
#     4  10  19  31  46  65  88 116 147 181 219 260
#     4  10  20  30  39  55  85 121 150 174 203 244
#
# _framework density 15.516476000000001
#
# number of rings (size 3 to 8) (size 9 to 14) (size 15 to 20)
#    0.000    2.750    1.250    2.250    0.000    4.000 
#    0.000    0.000    0.000    0.750    0.000    2.625 
#    0.000    7.000    0.000    0.000    0.000    0.000 
#
# Total GULP energy -792839.578609 kJ/mol
# GULP energy per Si atom -12388.118416 kJ/mol
# Density = 1.548116 g / cm^3
# Si number density = 15.516476 Si / 1000 Ang^3
#
#
#
# Elastic Constant Matrix: (Units=GPa)
#
#
# Indices 1 2 3 4 5 6 
#
# 1 43.1478 41.2503 32.5440 0.0000 0.0000 0.0000
# 2 41.2503 107.5296 45.5975 0.0000 0.0000 0.0000
# 3 32.5440 45.5975 103.3659 0.0000 0.0000 0.0000
# 4 0.0000 0.0000 0.0000 -3.6342 0.0000 0.0000
# 5 0.0000 0.0000 0.0000 0.0000 15.8821 0.0000
# 6 0.0000 0.0000 0.0000 0.0000 0.0000 22.7728
#
#
#
# Elastic Compliance Matrix: (Units=1/GPa)
#
#
# Indices 1 2 3 4 5 6 
#
# 1 0.040605 -0.012493 -0.007273 0.000000 0.000000 0.000000
# 2 -0.012493 0.015283 -0.002809 0.000000 0.000000 0.000000
# 3 -0.007273 -0.002809 0.013203 0.000000 0.000000 0.000000
# 4 0.000000 0.000000 0.000000 -0.275163 0.000000 0.000000
# 5 0.000000 0.000000 0.000000 0.000000 0.062964 0.000000
# 6 0.000000 0.000000 0.000000 0.000000 0.000000 0.043912
#
#
# Mechanical properties :
#
#
# Convention : Reuss Voigt Hill
#
# Bulk Modulus (GPa) = 41.76689 54.75855 48.26272
# Shear Modulus (GPa) = -108.54310 15.98091 -46.28110
#
# Velocity S-wave (km/s) = -8.37289 3.21274 -5.46734
# Velocity P-wave (km/s) = 8.15460 7.00924 2.94687
#
# Compressibility (1/GPa) = 0.02394241
#
# Stress axis : x y z
#
# Youngs Moduli (GPa) = 24.62728 65.43152 75.73869
#
# Poissons Ratio (x) = 0.81742 0.55088
# Poissons Ratio (y) = 0.30766 0.21272
# Poissons Ratio (z) = 0.17912 0.18377
#
# Static dielectric constant tensor:
#      x y z
#    x 2.797100 0.000000 0.000000 
#    y 0.000000 3.538570 0.000000 
#    z 0.000000 0.000000 3.105910 
# 
# 
# High freq. dielectric constant tensor:
#      x y z
#    x 1.577810 0.000000 0.000000 
#    y 0.000000 1.591900 0.000000 
#    z 0.000000 0.000000 1.578310 
# 
# From -- ./inp_files/38395.got.cif
#   From: 2010.03.12/outbox.cif.g09.slc.cpg/sg53_20_cif.got.tgz:38395.got - 2010.04.16 14:36:59.
