data_PCOD8217400
_publ_section_title
;
Structure prediction by ZEFSAII (Michael W. Deem and Ramdas Pophale) SiO2 
 PCOD8217400
Probable space group: P N N A
;
_chemical_formula_sum "Si O2"
_cell_formula_units_Z 28
_cell_length_a 17.085875
_cell_length_b 7.731103
_cell_length_c 9.682416
_cell_angle_alpha 90.000000
_cell_angle_beta 90.000000
_cell_angle_gamma 90.000000
_cell_volume 1278.976080
_symmetry_space_group_name_H-M "P N N A"
_symmetry_group_IT_number 52
_symmetry_cell_setting 'orthorhombic'
loop_
_space_group_symop_operation_xyz
x,y,z
1/2-x,-y,z
x,1/2-y,1/2-z
1/2-x,1/2+y,1/2-z
-x,-y,-z
1/2+x,y,-z
-x,1/2+y,1/2+z
1/2+x,1/2-y,1/2+z
loop_
_atom_site_type_symbol
_atom_site_label
_atom_site_fract_x
_atom_site_fract_y
_atom_site_fract_z
Si Si1 0.643998 0.750000 0.750000
Si Si2 0.912875 0.250000 0.250000
Si Si3 0.636214 0.389589 0.148909
Si Si4 0.015159 0.696165 0.468024
Si Si5 0.250000 0.000000 0.417670
O O1 0.591328 0.682103 0.626050
O O2 0.699544 0.608046 0.812869
O O3 0.864062 0.429978 0.238155
O O4 0.966176 0.221483 0.384441
O O5 0.675613 0.250000 0.250000
O O6 0.551128 0.312962 0.104842
O O7 0.690178 0.395200 0.014307
O O8 0.000000 0.500000 0.500000
#
# Coordination Sequence:
#
# PCOD8217400 Si02
#       5
#     4   4   8   8   4
#     4  12  28  51  69 118 150 204 256 316 402 455
#     4  12  24  45  77 106 148 190 258 320 378 467
#     4  12  27  49  74 116 150 205 261 320 392 463
#     4  12  25  47  80 110 148 201 264 319 377 467
#     4  12  32  46  76 110 166 202 254 336 406 460
#
# _framework density 21.892513000000001
#
# number of rings (size 3 to 8) (size 9 to 14) (size 15 to 20)
#    0.000    0.000    7.143    0.857   10.000    0.000 
#    0.000    0.000    0.000    0.000    0.000    0.000 
#    0.000    0.000    0.000    0.000    0.000    0.000 
#
# Total GULP energy -346880.177330 kJ/mol
# GULP energy per Si atom -12388.577762 kJ/mol
# Density = 2.184268 g / cm^3
# Si number density = 21.892513 Si / 1000 Ang^3
#
#
#
# Elastic Constant Matrix: (Units=GPa)
#
#
# Indices 1 2 3 4 5 6 
#
# 1 136.5931 62.2602 74.7967 0.0000 0.0000 0.0000
# 2 62.2602 162.2571 57.7125 0.0000 0.0000 0.0000
# 3 74.7967 57.7125 170.7284 0.0000 0.0000 0.0000
# 4 0.0000 0.0000 0.0000 54.9812 0.0000 0.0000
# 5 0.0000 0.0000 0.0000 0.0000 103.4633 0.0000
# 6 0.0000 0.0000 0.0000 0.0000 0.0000 23.4880
#
#
#
# Elastic Compliance Matrix: (Units=1/GPa)
#
#
# Indices 1 2 3 4 5 6 
#
# 1 0.010610 -0.002748 -0.003719 0.000000 0.000000 0.000000
# 2 -0.002748 0.007717 -0.001405 0.000000 0.000000 0.000000
# 3 -0.003719 -0.001405 0.007962 0.000000 0.000000 0.000000
# 4 0.000000 0.000000 0.000000 0.018188 0.000000 0.000000
# 5 0.000000 0.000000 0.000000 0.000000 0.009665 0.000000
# 6 0.000000 0.000000 0.000000 0.000000 0.000000 0.042575
#
#
# Mechanical properties :
#
#
# Convention : Reuss Voigt Hill
#
# Bulk Modulus (GPa) = 94.83744 95.45750 95.14747
# Shear Modulus (GPa) = 43.11190 54.70711 48.90951
#
# Velocity S-wave (km/s) = 4.44244 5.00432 4.73173
# Velocity P-wave (km/s) = 8.35029 8.78000 8.56784
#
# Compressibility (1/GPa) = 0.01054436
#
# Stress axis : x y z
#
# Youngs Moduli (GPa) = 94.24639 129.57939 125.60346
#
# Poissons Ratio (x) = 0.35614 0.46717
# Poissons Ratio (y) = 0.25903 0.17643
# Poissons Ratio (z) = 0.35054 0.18201
#
# Static dielectric constant tensor:
#      x y z
#    x 4.786540 0.000000 0.000000 
#    y 0.000000 3.820820 0.000000 
#    z 0.000000 0.000000 4.325610 
# 
# 
# High freq. dielectric constant tensor:
#      x y z
#    x 1.857110 0.000000 0.000000 
#    y 0.000000 1.873930 0.000000 
#    z 0.000000 0.000000 1.888590 
# 
# From -- ./inp_files/11395.got.cif
#   From: 2010.06.25/outbox.cif.g09.slc.cpg/sg52_6_cif.got.tgz:11395.got - 2010.06.26 19:32:48.
