data_PCOD8217350
_publ_section_title
;
Structure prediction by ZEFSAII (Michael W. Deem and Ramdas Pophale) SiO2 
 PCOD8217350
Probable space group: P N N A
;
_chemical_formula_sum "Si O2"
_cell_formula_units_Z 28
_cell_length_a 7.781423
_cell_length_b 8.275899
_cell_length_c 21.132570
_cell_angle_alpha 90.000000
_cell_angle_beta 90.000000
_cell_angle_gamma 90.000000
_cell_volume 1360.900966
_symmetry_space_group_name_H-M "P N N A"
_symmetry_group_IT_number 52
_symmetry_cell_setting 'orthorhombic'
loop_
_space_group_symop_operation_xyz
x,y,z
1/2-x,-y,z
x,1/2-y,1/2-z
1/2-x,1/2+y,1/2-z
-x,-y,-z
1/2+x,y,-z
-x,1/2+y,1/2+z
1/2+x,1/2-y,1/2+z
loop_
_atom_site_type_symbol
_atom_site_label
_atom_site_fract_x
_atom_site_fract_y
_atom_site_fract_z
Si Si1 0.049263 0.339561 0.538939
Si Si2 0.709585 0.316455 0.924857
Si Si3 0.404753 0.870583 0.191819
Si Si4 0.750000 0.000000 0.142847
O O1 0.113637 0.199354 0.492014
O O2 0.191052 0.360262 0.593825
O O3 0.000000 0.500000 0.500000
O O4 0.882416 0.285292 0.575777
O O5 0.750000 0.500000 0.908903
O O6 0.594705 0.238426 0.870696
O O7 0.389028 0.750000 0.250000
O O8 0.592350 0.954318 0.189273
O O9 0.250000 0.000000 0.195308
#
# Coordination Sequence:
#
# PCOD8217350 Si02
#       4
#     8   8   8   4
#     4  12  20  40  72 102 140 180 224 284 355 416
#     4  12  23  40  67 108 144 177 227 290 350 418
#     4  12  26  48  71  96 136 189 236 284 345 414
#     4  12  24  44  74 102 136 178 238 278 348 416
#
# _framework density 20.574604000000001
#
# number of rings (size 3 to 8) (size 9 to 14) (size 15 to 20)
#    0.000    0.000    8.571    1.714    0.000    1.143 
#    5.143    0.000    0.000    0.000    0.000    0.000 
#    0.000    0.000    0.000    0.000    0.000    0.000 
#
# Total GULP energy -347172.890999 kJ/mol
# GULP energy per Si atom -12399.031821 kJ/mol
# Density = 2.052778 g / cm^3
# Si number density = 20.574604 Si / 1000 Ang^3
#
#
#
# Elastic Constant Matrix: (Units=GPa)
#
#
# Indices 1 2 3 4 5 6 
#
# 1 131.6875 40.5492 32.1948 0.0000 0.0000 0.0000
# 2 40.5492 106.4031 29.7213 0.0000 0.0000 0.0000
# 3 32.1948 29.7213 90.7348 0.0000 0.0000 0.0000
# 4 0.0000 0.0000 0.0000 33.1944 0.0000 0.0000
# 5 0.0000 0.0000 0.0000 0.0000 46.3836 0.0000
# 6 0.0000 0.0000 0.0000 0.0000 0.0000 17.3312
#
#
#
# Elastic Compliance Matrix: (Units=1/GPa)
#
#
# Indices 1 2 3 4 5 6 
#
# 1 0.009013 -0.002797 -0.002282 0.000000 0.000000 0.000000
# 2 -0.002797 0.011213 -0.002680 0.000000 0.000000 0.000000
# 3 -0.002282 -0.002680 0.012709 0.000000 0.000000 0.000000
# 4 0.000000 0.000000 0.000000 0.030126 0.000000 0.000000
# 5 0.000000 0.000000 0.000000 0.000000 0.021559 0.000000
# 6 0.000000 0.000000 0.000000 0.000000 0.000000 0.057699
#
#
# Mechanical properties :
#
#
# Convention : Reuss Voigt Hill
#
# Bulk Modulus (GPa) = 57.41935 59.30623 58.36279
# Shear Modulus (GPa) = 30.55429 34.47251 32.51340
#
# Velocity S-wave (km/s) = 3.85781 4.09771 3.97957
# Velocity P-wave (km/s) = 6.91463 7.16072 7.03875
#
# Compressibility (1/GPa) = 0.01741573
#
# Stress axis : x y z
#
# Youngs Moduli (GPa) = 110.95166 89.18232 78.68618
#
# Poissons Ratio (x) = 0.24948 0.17954
# Poissons Ratio (y) = 0.31038 0.21091
# Poissons Ratio (z) = 0.25316 0.23904
#
# Static dielectric constant tensor:
#      x y z
#    x 4.017540 0.000000 0.000000 
#    y 0.000000 3.498170 0.000000 
#    z 0.000000 0.000000 3.726380 
# 
# 
# High freq. dielectric constant tensor:
#      x y z
#    x 1.824970 0.000000 0.000000 
#    y 0.000000 1.793010 0.000000 
#    z 0.000000 0.000000 1.802320 
# 
# From -- ./inp_files/30638.got.cif
#   From: 2010.06.25/outbox.cif.g09.slc.cpg/sg52_16_cif.got.tgz:30638.got - 2010.06.26 19:32:48.
