data_PCOD8217313
_publ_section_title
;
Structure prediction by ZEFSAII (Michael W. Deem and Ramdas Pophale) SiO2 
 PCOD8217313
Probable space group: P N N A
;
_chemical_formula_sum "Si O2"
_cell_formula_units_Z 32
_cell_length_a 15.362259
_cell_length_b 4.979191
_cell_length_c 16.781691
_cell_angle_alpha 90.000000
_cell_angle_beta 90.000000
_cell_angle_gamma 90.000000
_cell_volume 1283.658760
_symmetry_space_group_name_H-M "P N N A"
_symmetry_group_IT_number 52
_symmetry_cell_setting 'orthorhombic'
loop_
_space_group_symop_operation_xyz
x,y,z
1/2-x,-y,z
x,1/2-y,1/2-z
1/2-x,1/2+y,1/2-z
-x,-y,-z
1/2+x,y,-z
-x,1/2+y,1/2+z
1/2+x,1/2-y,1/2+z
loop_
_atom_site_type_symbol
_atom_site_label
_atom_site_fract_x
_atom_site_fract_y
_atom_site_fract_z
Si Si1 0.163588 0.351110 0.339032
Si Si2 0.154192 0.488800 0.568735
Si Si3 0.987081 0.994224 0.197347
Si Si4 0.602021 0.988305 0.520832
O O1 0.250000 0.500000 0.372666
O O2 0.185324 0.250000 0.250000
O O3 0.081973 0.564722 0.342148
O O4 0.133025 0.094778 0.392486
O O5 0.250000 0.500000 0.606126
O O6 0.144055 0.182304 0.544282
O O7 0.084516 0.575464 0.633894
O O8 0.140066 0.688027 0.493011
O O9 0.006136 0.250000 0.250000
O O10 0.952595 0.750000 0.250000
O O11 0.500000 0.000000 0.500000
#
# Coordination Sequence:
#
# PCOD8217313 Si02
#       4
#     8   8   8   8
#     4  11  26  46  76 111 157 200 263 319 397 464
#     4  12  27  47  74 111 148 196 255 314 383 457
#     4  11  25  45  74 107 151 198 253 314 385 459
#     4  12  26  49  77 107 151 203 251 318 384 459
#
# _framework density 24.928742
#
# number of rings (size 3 to 8) (size 9 to 14) (size 15 to 20)
#    0.000    0.500    2.500    4.500    3.500    5.000 
#    0.000    0.000    0.000    0.000    0.000    0.000 
#    0.000    0.000    0.000    0.000    0.000    0.000 
#
# Total GULP energy -396795.354981 kJ/mol
# GULP energy per Si atom -12399.854843 kJ/mol
# Density = 2.487200 g / cm^3
# Si number density = 24.928742 Si / 1000 Ang^3
#
#
#
# Elastic Constant Matrix: (Units=GPa)
#
#
# Indices 1 2 3 4 5 6 
#
# 1 213.5090 31.5019 63.9705 0.0000 0.0000 0.0000
# 2 31.5019 89.5049 19.3347 0.0000 0.0000 0.0000
# 3 63.9705 19.3347 108.1349 0.0000 0.0000 0.0000
# 4 0.0000 0.0000 0.0000 34.8517 0.0000 0.0000
# 5 0.0000 0.0000 0.0000 0.0000 44.1006 0.0000
# 6 0.0000 0.0000 0.0000 0.0000 0.0000 43.5765
#
#
#
# Elastic Compliance Matrix: (Units=1/GPa)
#
#
# Indices 1 2 3 4 5 6 
#
# 1 0.005848 -0.001364 -0.003216 0.000000 0.000000 0.000000
# 2 -0.001364 0.011939 -0.001328 0.000000 0.000000 0.000000
# 3 -0.003216 -0.001328 0.011388 0.000000 0.000000 0.000000
# 4 0.000000 0.000000 0.000000 0.028693 0.000000 0.000000
# 5 0.000000 0.000000 0.000000 0.000000 0.022675 0.000000
# 6 0.000000 0.000000 0.000000 0.000000 0.000000 0.022948
#
#
# Mechanical properties :
#
#
# Convention : Reuss Voigt Hill
#
# Bulk Modulus (GPa) = 57.60349 71.19590 64.39969
# Shear Modulus (GPa) = 41.29020 44.26190 42.77605
#
# Velocity S-wave (km/s) = 4.07422 4.21828 4.14688
# Velocity P-wave (km/s) = 6.72977 7.23512 6.98701
#
# Compressibility (1/GPa) = 0.01736006
#
# Stress axis : x y z
#
# Youngs Moduli (GPa) = 170.98700 83.75625 87.81425
#
# Poissons Ratio (x) = 0.11422 0.28241
# Poissons Ratio (y) = 0.23317 0.11662
# Poissons Ratio (z) = 0.54989 0.11123
#
# Static dielectric constant tensor:
#      x y z
#    x 4.786320 0.000000 0.000000 
#    y 0.000000 4.349980 0.000000 
#    z 0.000000 0.000000 4.696670 
# 
# 
# High freq. dielectric constant tensor:
#      x y z
#    x 2.013280 0.000000 0.000000 
#    y 0.000000 1.998700 0.000000 
#    z 0.000000 0.000000 1.990960 
# 
# From -- ./inp_files/32704.got.cif
#   From: 2010.06.25/outbox.cif.g09.slc.cpg/sg52_17_cif.got.tgz:32704.got - 2010.06.26 19:32:48.
