data_PCOD8217430
_publ_section_title
;
Structure prediction by ZEFSAII (Michael W. Deem and Ramdas Pophale) SiO2 
 PCOD8217430
Probable space group: P N N A
;
_chemical_formula_sum "Si O2"
_cell_formula_units_Z 24
_cell_length_a 27.175159
_cell_length_b 7.777567
_cell_length_c 4.859762
_cell_angle_alpha 90.000000
_cell_angle_beta 90.000000
_cell_angle_gamma 90.000000
_cell_volume 1027.142870
_symmetry_space_group_name_H-M "P N N A"
_symmetry_group_IT_number 52
_symmetry_cell_setting 'orthorhombic'
loop_
_space_group_symop_operation_xyz
x,y,z
1/2-x,-y,z
x,1/2-y,1/2-z
1/2-x,1/2+y,1/2-z
-x,-y,-z
1/2+x,y,-z
-x,1/2+y,1/2+z
1/2+x,1/2-y,1/2+z
loop_
_atom_site_type_symbol
_atom_site_label
_atom_site_fract_x
_atom_site_fract_y
_atom_site_fract_z
Si Si1 0.794236 0.872848 0.500148
Si Si2 0.606483 0.557536 0.144233
Si Si3 0.449998 0.938280 0.137222
O O1 0.779236 0.750000 0.250000
O O2 0.750000 0.000000 0.574797
O O3 0.840974 0.992196 0.450971
O O4 0.807365 0.750000 0.750000
O O5 0.610640 0.750000 0.250000
O O6 0.567320 0.556710 0.892854
O O7 0.590549 0.435540 0.396692
O O8 0.458203 0.750000 0.250000
O O9 0.500000 0.000000 0.000000
#
# Coordination Sequence:
#
# PCOD8217430 Si02
#       3
#     8   8   8
#     4  12  26  47  73 104 140 182 229 285 347 414
#     4  12  26  46  72 104 140 183 233 288 346 412
#     4  12  26  47  71 102 141 185 233 287 347 412
#
# _framework density 23.365783
#
# number of rings (size 3 to 8) (size 9 to 14) (size 15 to 20)
#    0.000    0.000    0.000   11.000    0.000    5.333 
#    0.000    1.667    0.000    0.000    0.000    0.000 
#    0.000    0.000    0.000    0.000    0.000    0.000 
#
# Total GULP energy -297772.839272 kJ/mol
# GULP energy per Si atom -12407.201636 kJ/mol
# Density = 2.331260 g / cm^3
# Si number density = 23.365783 Si / 1000 Ang^3
#
#
#
# Elastic Constant Matrix: (Units=GPa)
#
#
# Indices 1 2 3 4 5 6 
#
# 1 163.7561 113.4414 78.0309 0.0000 0.0000 0.0000
# 2 113.4414 158.4592 79.9356 0.0000 0.0000 0.0000
# 3 78.0309 79.9356 181.2047 0.0000 0.0000 0.0000
# 4 0.0000 0.0000 0.0000 57.8922 0.0000 0.0000
# 5 0.0000 0.0000 0.0000 0.0000 49.9089 0.0000
# 6 0.0000 0.0000 0.0000 0.0000 0.0000 34.5975
#
#
#
# Elastic Compliance Matrix: (Units=1/GPa)
#
#
# Indices 1 2 3 4 5 6 
#
# 1 0.012583 -0.008071 -0.001858 0.000000 0.000000 0.000000
# 2 -0.008071 0.013294 -0.002389 0.000000 0.000000 0.000000
# 3 -0.001858 -0.002389 0.007373 0.000000 0.000000 0.000000
# 4 0.000000 0.000000 0.000000 0.017273 0.000000 0.000000
# 5 0.000000 0.000000 0.000000 0.000000 0.020037 0.000000
# 6 0.000000 0.000000 0.000000 0.000000 0.000000 0.028904
#
#
# Mechanical properties :
#
#
# Convention : Reuss Voigt Hill
#
# Bulk Modulus (GPa) = 116.09527 116.24843 116.17185
# Shear Modulus (GPa) = 39.37911 43.94720 41.66316
#
# Velocity S-wave (km/s) = 4.10973 4.34157 4.22724
# Velocity P-wave (km/s) = 8.50375 8.65978 8.58212
#
# Compressibility (1/GPa) = 0.00861362
#
# Stress axis : x y z
#
# Youngs Moduli (GPa) = 79.47071 75.22263 135.63691
#
# Poissons Ratio (x) = 0.60712 0.25205
# Poissons Ratio (y) = 0.64141 0.32401
# Poissons Ratio (z) = 0.14768 0.17969
#
# Static dielectric constant tensor:
#      x y z
#    x 4.273750 0.000000 0.000000 
#    y 0.000000 3.509940 0.000000 
#    z 0.000000 0.000000 5.344380 
# 
# 
# High freq. dielectric constant tensor:
#      x y z
#    x 1.935620 0.000000 0.000000 
#    y 0.000000 1.940490 0.000000 
#    z 0.000000 0.000000 1.951460 
# 
# From -- ./inp_files/4710.got.cif
#   From: 2010.06.25/outbox.cif.g09.slc.cpg/sg52_3_cif.got.tgz:4710.got - 2010.06.26 19:32:48.
