data_PCOD8217750
_publ_section_title
;
Structure prediction by ZEFSAII (Michael W. Deem and Ramdas Pophale) SiO2 
 PCOD8217750
Probable space group: P M N A
;
_chemical_formula_sum "Si O2"
_cell_formula_units_Z 56
_cell_length_a 9.263426
_cell_length_b 19.129865
_cell_length_c 18.189487
_cell_angle_alpha 90.000000
_cell_angle_beta 90.000000
_cell_angle_gamma 90.000000
_cell_volume 3223.324228
_symmetry_space_group_name_H-M "P M N A"
_symmetry_group_IT_number 53
_symmetry_cell_setting 'orthorhombic'
loop_
_space_group_symop_operation_xyz
x,y,z
1/2-x,-y,1/2+z
x,-y,-z
1/2-x,y,1/2-z
-x,-y,-z
1/2+x,y,1/2-z
-x,y,z
1/2+x,-y,1/2+z
loop_
_atom_site_type_symbol
_atom_site_label
_atom_site_fract_x
_atom_site_fract_y
_atom_site_fract_z
Si Si1 0.663707 0.943441 0.676675
Si Si2 0.168689 0.094849 0.827394
Si Si3 0.671658 0.573500 0.027997
Si Si4 0.830331 0.208211 0.172418
Si Si5 0.330759 0.641581 0.175958
Si Si6 0.664449 0.214696 0.899386
Si Si7 0.666327 0.711348 0.948560
O O1 0.750000 0.947048 0.750000
O O2 0.500000 0.941174 0.702507
O O3 0.698893 0.869635 0.636319
O O4 0.693310 0.017373 0.635156
O O5 0.250000 0.102501 0.750000
O O6 0.229726 0.150391 0.884836
O O7 0.000000 0.109626 0.814075
O O8 0.500000 0.571587 0.029967
O O9 0.719543 0.634140 0.971768
O O10 0.737121 0.500000 0.000000
O O11 0.725637 0.590851 0.110539
O O12 0.750000 0.214670 0.250000
O O13 0.766973 0.265596 0.118031
O O14 0.000000 0.222290 0.183658
O O15 0.250000 0.620114 0.250000
O O16 0.500000 0.631633 0.188574
O O17 0.295350 0.721381 0.154436
O O18 0.500000 0.191352 0.885360
O O19 0.686306 0.236576 0.983383
O O20 0.500000 0.710589 0.922800
#
# Coordination Sequence:
#
# PCOD8217750 Si02
#       7
#     8   8   8   8   8   8   8
#     4   8  16  29  44  64  89 119 156 197 238 280
#     4  10  18  28  44  66  92 123 160 199 238 279
#     4   8  15  31  54  74  95 128 162 189 228 283
#     4  10  19  33  53  73  94 122 158 199 242 285
#     4   9  17  29  47  71  96 124 158 193 228 271
#     4   9  18  31  45  65  95 127 158 192 232 280
#     4   9  18  33  52  73  96 122 156 196 235 281
#
# _framework density 17.373369
#
# number of rings (size 3 to 8) (size 9 to 14) (size 15 to 20)
#    0.000    3.000    0.000    3.000    0.000    3.429 
#    0.000    3.571    0.000    7.714    0.000    0.000 
#    0.000    0.000    0.000    0.000    0.000    0.000 
#
# Total GULP energy -693852.146937 kJ/mol
# GULP energy per Si atom -12390.216910 kJ/mol
# Density = 1.733383 g / cm^3
# Si number density = 17.373369 Si / 1000 Ang^3
#
#
#
# Elastic Constant Matrix: (Units=GPa)
#
#
# Indices 1 2 3 4 5 6 
#
# 1 69.7472 53.0733 45.2359 0.0000 0.0000 0.0000
# 2 53.0733 137.6562 69.0113 0.0000 0.0000 0.0000
# 3 45.2359 69.0113 89.4369 0.0000 0.0000 0.0000
# 4 0.0000 0.0000 0.0000 21.9451 0.0000 0.0000
# 5 0.0000 0.0000 0.0000 0.0000 29.1306 0.0000
# 6 0.0000 0.0000 0.0000 0.0000 0.0000 19.6161
#
#
#
# Elastic Compliance Matrix: (Units=1/GPa)
#
#
# Indices 1 2 3 4 5 6 
#
# 1 0.023279 -0.005011 -0.007908 0.000000 0.000000 0.000000
# 2 -0.005011 0.012926 -0.007440 0.000000 0.000000 0.000000
# 3 -0.007908 -0.007440 0.020921 0.000000 0.000000 0.000000
# 4 0.000000 0.000000 0.000000 0.045568 0.000000 0.000000
# 5 0.000000 0.000000 0.000000 0.000000 0.034328 0.000000
# 6 0.000000 0.000000 0.000000 0.000000 0.000000 0.050978
#
#
# Mechanical properties :
#
#
# Convention : Reuss Voigt Hill
#
# Bulk Modulus (GPa) = 60.93836 70.16460 65.55148
# Shear Modulus (GPa) = 21.35034 22.77301 22.06168
#
# Velocity S-wave (km/s) = 3.50939 3.62442 3.56737
# Velocity P-wave (km/s) = 7.18143 7.61507 7.40143
#
# Compressibility (1/GPa) = 0.01641002
#
# Stress axis : x y z
#
# Youngs Moduli (GPa) = 42.95672 77.36262 47.79815
#
# Poissons Ratio (x) = 0.38765 0.37798
# Poissons Ratio (y) = 0.21525 0.35560
# Poissons Ratio (z) = 0.33969 0.57555
#
# Static dielectric constant tensor:
#      x y z
#    x 3.068880 0.000000 0.000000 
#    y 0.000000 3.684850 0.000000 
#    z 0.000000 0.000000 2.923950 
# 
# 
# High freq. dielectric constant tensor:
#      x y z
#    x 1.661230 0.000000 0.000000 
#    y 0.000000 1.675650 0.000000 
#    z 0.000000 0.000000 1.645210 
# 
# From -- ./inp_files/20589.got.cif
#   From: 2010.03.12/outbox.cif.g09.slc.cpg/sg53_11_cif.got.tgz:20589.got - 2010.04.16 14:36:59.
