data_PCOD8217909
_publ_section_title
;
Structure prediction by ZEFSAII (Michael W. Deem and Ramdas Pophale) SiO2 
 PCOD8217909
Probable space group: P M N A
;
_chemical_formula_sum "Si O2"
_cell_formula_units_Z 48
_cell_length_a 9.101452
_cell_length_b 11.888466
_cell_length_c 25.190821
_cell_angle_alpha 90.000000
_cell_angle_beta 90.000000
_cell_angle_gamma 90.000000
_cell_volume 2725.704838
_symmetry_space_group_name_H-M "P M N A"
_symmetry_group_IT_number 53
_symmetry_cell_setting 'orthorhombic'
loop_
_space_group_symop_operation_xyz
x,y,z
1/2-x,-y,1/2+z
x,-y,-z
1/2-x,y,1/2-z
-x,-y,-z
1/2+x,y,1/2-z
-x,y,z
1/2+x,-y,1/2+z
loop_
_atom_site_type_symbol
_atom_site_label
_atom_site_fract_x
_atom_site_fract_y
_atom_site_fract_z
Si Si1 0.174416 0.473884 0.559735
Si Si2 0.172112 0.849247 0.804706
Si Si3 0.663207 0.685222 0.874027
Si Si4 0.168866 0.751246 0.064389
Si Si5 0.167918 0.014414 0.898040
Si Si6 0.163677 0.858227 0.531113
O O1 0.231457 0.500000 0.500000
O O2 0.226534 0.570726 0.600273
O O3 0.241731 0.358395 0.582069
O O4 0.000000 0.462927 0.558801
O O5 0.250000 0.878691 0.750000
O O6 0.230359 0.730170 0.827683
O O7 0.212612 0.952630 0.843745
O O8 0.000000 0.837708 0.795191
O O9 0.500000 0.664356 0.850301
O O10 0.653048 0.777848 0.918921
O O11 0.000000 0.717205 0.056887
O O12 0.187180 0.850681 0.108288
O O13 0.228687 0.797808 0.009225
O O14 0.269191 0.976365 0.947937
O O15 0.000000 0.983526 0.912567
O O16 0.000000 0.877605 0.507292
#
# Coordination Sequence:
#
# PCOD8217909 Si02
#       6
#     8   8   8   8   8   8
#     4  10  19  34  51  71 104 142 178 214 248 291
#     4  10  20  36  58  79 100 126 163 212 265 312
#     4   9  18  33  52  74 103 135 170 212 255 297
#     4  11  21  31  46  70 104 141 175 207 249 302
#     4   9  20  35  48  70 103 134 165 209 257 304
#     4  10  18  30  48  71 100 136 174 210 248 296
#
# _framework density 17.610123000000002
#
# number of rings (size 3 to 8) (size 9 to 14) (size 15 to 20)
#    0.000    2.167    1.667    2.000    0.000    5.667 
#    0.000    0.000    0.000    1.000    0.000    4.667 
#    0.000    0.000    0.000    0.000    0.000    0.000 
#
# Total GULP energy -595126.855718 kJ/mol
# GULP energy per Si atom -12398.476161 kJ/mol
# Density = 1.757004 g / cm^3
# Si number density = 17.610123 Si / 1000 Ang^3
#
#
#
# Elastic Constant Matrix: (Units=GPa)
#
#
# Indices 1 2 3 4 5 6 
#
# 1 62.7565 36.4446 35.1991 0.0000 0.0000 0.0000
# 2 36.4446 109.6877 25.1708 0.0000 0.0000 0.0000
# 3 35.1991 25.1708 67.0929 0.0000 0.0000 0.0000
# 4 0.0000 0.0000 0.0000 15.4241 0.0000 0.0000
# 5 0.0000 0.0000 0.0000 0.0000 23.7658 0.0000
# 6 0.0000 0.0000 0.0000 0.0000 0.0000 28.0266
#
#
#
# Elastic Compliance Matrix: (Units=1/GPa)
#
#
# Indices 1 2 3 4 5 6 
#
# 1 0.025705 -0.005959 -0.011250 0.000000 0.000000 0.000000
# 2 -0.005959 0.011357 -0.001134 0.000000 0.000000 0.000000
# 3 -0.011250 -0.001134 0.021233 0.000000 0.000000 0.000000
# 4 0.000000 0.000000 0.000000 0.064834 0.000000 0.000000
# 5 0.000000 0.000000 0.000000 0.000000 0.042077 0.000000
# 6 0.000000 0.000000 0.000000 0.000000 0.000000 0.035680
#
#
# Mechanical properties :
#
#
# Convention : Reuss Voigt Hill
#
# Bulk Modulus (GPa) = 46.28034 48.12956 47.20495
# Shear Modulus (GPa) = 20.42681 22.95812 21.69247
#
# Velocity S-wave (km/s) = 3.40949 3.61458 3.51353
# Velocity P-wave (km/s) = 6.46816 6.69404 6.58207
#
# Compressibility (1/GPa) = 0.02160745
#
# Stress axis : x y z
#
# Youngs Moduli (GPa) = 38.90244 88.05087 47.09755
#
# Poissons Ratio (x) = 0.52471 0.52986
# Poissons Ratio (y) = 0.23182 0.05343
# Poissons Ratio (z) = 0.43766 0.09989
#
# Static dielectric constant tensor:
#      x y z
#    x 3.481850 0.000000 0.000000 
#    y 0.000000 3.471590 0.000000 
#    z 0.000000 0.000000 3.007940 
# 
# 
# High freq. dielectric constant tensor:
#      x y z
#    x 1.688960 0.000000 0.000000 
#    y 0.000000 1.685500 0.000000 
#    z 0.000000 0.000000 1.642520 
# 
# From -- ./inp_files/33865.got.cif
#   From: 2010.03.12/outbox.cif.g09.slc.cpg/sg53_17_cif.got.tgz:33865.got - 2010.04.16 14:36:59.
