data_PCOD8217567
_publ_section_title
;
Structure prediction by ZEFSAII (Michael W. Deem and Ramdas Pophale) SiO2 
 PCOD8217567
Probable space group: P M N A
;
_chemical_formula_sum "Si O2"
_cell_formula_units_Z 64
_cell_length_a 26.490612
_cell_length_b 10.184811
_cell_length_c 16.652406
_cell_angle_alpha 90.000000
_cell_angle_beta 90.000000
_cell_angle_gamma 90.000000
_cell_volume 4492.850387
_symmetry_space_group_name_H-M "P M N A"
_symmetry_group_IT_number 53
_symmetry_cell_setting 'orthorhombic'
loop_
_space_group_symop_operation_xyz
x,y,z
1/2-x,-y,1/2+z
x,-y,-z
1/2-x,y,1/2-z
-x,-y,-z
1/2+x,y,1/2-z
-x,y,z
1/2+x,-y,1/2+z
loop_
_atom_site_type_symbol
_atom_site_label
_atom_site_fract_x
_atom_site_fract_y
_atom_site_fract_z
Si Si1 0.299044 0.276623 0.695022
Si Si2 0.353030 0.287951 0.849687
Si Si3 0.941497 0.364333 0.543688
Si Si4 0.743083 0.881687 0.942460
Si Si5 0.056391 0.116975 0.437712
Si Si6 0.257827 0.369406 0.949045
Si Si7 0.852219 0.025718 0.347808
Si Si8 0.701362 0.011866 0.304154
O O1 0.250000 0.270476 0.750000
O O2 0.344146 0.324850 0.755062
O O3 0.287600 0.367659 0.617384
O O4 0.312147 0.131869 0.660245
O O5 0.407532 0.343352 0.876720
O O6 0.311482 0.358226 0.905122
O O7 0.348752 0.130908 0.861764
O O8 0.928688 0.500000 0.500000
O O9 0.927829 0.251538 0.480268
O O10 0.000000 0.357036 0.570689
O O11 0.687345 0.902534 0.906204
O O12 0.786247 0.883329 0.873298
O O13 0.747742 0.745881 0.987225
O O14 0.756554 0.000000 0.000000
O O15 0.092937 0.085326 0.364128
O O16 0.000000 0.126890 0.402615
O O17 0.061437 0.000000 0.500000
O O18 0.254019 0.500000 0.000000
O O19 0.842849 0.062766 0.254544
O O20 0.750000 0.989202 0.250000
#
# Coordination Sequence:
#
# PCOD8217567 Si02
#       8
#     8   8   8   8   8   8   8   8
#     4   8  15  28  42  57  80 108 139 170 204 245
#     4  10  17  29  45  60  81 115 143 166 206 252
#     4  10  20  31  42  62  89 114 141 171 200 238
#     4  11  16  27  44  59  79 108 141 172 205 243
#     4  10  18  28  43  63  85 108 138 173 206 235
#     4  11  20  28  40  63  86 110 142 172 204 244
#     4  10  17  27  44  63  83 107 144 176 205 241
#     4   8  15  26  41  61  79 104 139 176 206 238
#
# _framework density 14.244854999999999
#
# number of rings (size 3 to 8) (size 9 to 14) (size 15 to 20)
#    0.000    2.250    3.750    3.000    0.000    0.000 
#    0.000    6.875    0.000    0.000    0.000    0.000 
#    0.000    2.000    0.000    0.125    0.000    0.125 
#
# Total GULP energy -793110.163732 kJ/mol
# GULP energy per Si atom -12392.346308 kJ/mol
# Density = 1.421243 g / cm^3
# Si number density = 14.244855 Si / 1000 Ang^3
#
#
#
# Elastic Constant Matrix: (Units=GPa)
#
#
# Indices 1 2 3 4 5 6 
#
# 1 75.4041 25.1546 49.0110 0.0000 0.0000 0.0000
# 2 25.1546 88.0861 45.5295 0.0000 0.0000 0.0000
# 3 49.0110 45.5295 88.7990 0.0000 0.0000 0.0000
# 4 0.0000 0.0000 0.0000 4.6873 0.0000 0.0000
# 5 0.0000 0.0000 0.0000 0.0000 30.0940 0.0000
# 6 0.0000 0.0000 0.0000 0.0000 0.0000 14.8139
#
#
#
# Elastic Compliance Matrix: (Units=1/GPa)
#
#
# Indices 1 2 3 4 5 6 
#
# 1 0.020681 -0.000008 -0.011410 0.000000 0.000000 0.000000
# 2 -0.000008 0.015446 -0.007915 0.000000 0.000000 0.000000
# 3 -0.011410 -0.007915 0.021617 0.000000 0.000000 0.000000
# 4 0.000000 0.000000 0.000000 0.213341 0.000000 0.000000
# 5 0.000000 0.000000 0.000000 0.000000 0.033229 0.000000
# 6 0.000000 0.000000 0.000000 0.000000 0.000000 0.067504
#
#
# Mechanical properties :
#
#
# Convention : Reuss Voigt Hill
#
# Bulk Modulus (GPa) = 52.41829 54.63104 53.52467
# Shear Modulus (GPa) = 11.99488 18.75865 15.37676
#
# Velocity S-wave (km/s) = 2.90496 3.63281 3.28908
# Velocity P-wave (km/s) = 6.93755 7.48539 7.21667
#
# Compressibility (1/GPa) = 0.01907731
#
# Stress axis : x y z
#
# Youngs Moduli (GPa) = 48.35344 64.74193 46.25907
#
# Poissons Ratio (x) = 0.00053 0.52783
# Poissons Ratio (y) = 0.00039 0.36614
# Poissons Ratio (z) = 0.55173 0.51244
#
# Static dielectric constant tensor:
#      x y z
#    x 2.911750 0.000000 0.000000 
#    y 0.000000 4.683520 0.000000 
#    z 0.000000 0.000000 2.940820 
# 
# 
# High freq. dielectric constant tensor:
#      x y z
#    x 1.517110 0.000000 0.000000 
#    y 0.000000 1.536540 0.000000 
#    z 0.000000 0.000000 1.532540 
# 
# From -- ./inp_files/29743.got.cif
#   From: 2010.03.12/outbox.cif.g09.slc.cpg/sg53_15_cif.got.tgz:29743.got - 2010.04.16 14:36:59.
