data_PCOD8217509
_publ_section_title
;
Structure prediction by ZEFSAII (Michael W. Deem and Ramdas Pophale) SiO2 
 PCOD8217509
Probable space group: P M N A
;
_chemical_formula_sum "Si O2"
_cell_formula_units_Z 64
_cell_length_a 9.294442
_cell_length_b 20.110209
_cell_length_c 22.764435
_cell_angle_alpha 90.000000
_cell_angle_beta 90.000000
_cell_angle_gamma 90.000000
_cell_volume 4254.972735
_symmetry_space_group_name_H-M "P M N A"
_symmetry_group_IT_number 53
_symmetry_cell_setting 'orthorhombic'
loop_
_space_group_symop_operation_xyz
x,y,z
1/2-x,-y,1/2+z
x,-y,-z
1/2-x,y,1/2-z
-x,-y,-z
1/2+x,y,1/2-z
-x,y,z
1/2+x,-y,1/2+z
loop_
_atom_site_type_symbol
_atom_site_label
_atom_site_fract_x
_atom_site_fract_y
_atom_site_fract_z
Si Si1 0.333682 0.889824 0.594287
Si Si2 0.166780 0.856032 0.478681
Si Si3 0.839129 0.411008 0.947658
Si Si4 0.164124 0.706967 0.478755
Si Si5 0.840895 0.029863 0.935006
Si Si6 0.829792 0.324123 0.388683
Si Si7 0.663403 0.552582 0.583524
Si Si8 0.669573 0.781316 0.689467
O O1 0.500000 0.884603 0.574070
O O2 0.237833 0.860653 0.542344
O O3 0.304341 0.848464 0.652758
O O4 0.295174 0.967861 0.606873
O O5 0.191335 0.781336 0.454885
O O6 0.233248 0.907570 0.431329
O O7 0.000000 0.872697 0.486154
O O8 0.786128 0.475332 0.910155
O O9 0.000000 0.393462 0.928302
O O10 0.746130 0.344857 0.936517
O O11 0.831964 0.428818 0.015641
O O12 0.211755 0.703101 0.546902
O O13 0.000000 0.685731 0.474565
O O14 0.000000 0.055804 0.918602
O O15 0.837808 0.000000 0.000000
O O16 0.773524 0.400050 0.381346
O O17 0.742939 0.280987 0.341988
O O18 0.000000 0.320876 0.376079
O O19 0.500000 0.561531 0.607167
O O20 0.750000 0.793674 0.750000
O O21 0.500000 0.767130 0.698470
#
# Coordination Sequence:
#
# PCOD8217509 Si02
#       8
#     8   8   8   8   8   8   8   8
#     4   9  18  31  44  56  74 102 133 166 205 246
#     4  10  17  25  38  59  83 106 133 166 201 237
#     4   8  14  23  36  53  74 101 134 165 193 229
#     4   9  17  25  35  54  82 108 133 165 198 233
#     4   8  15  27  40  56  76  99 131 164 195 240
#     4  10  18  29  42  57  76 103 135 168 204 244
#     4   8  14  25  38  54  74  98 131 168 199 231
#     4  11  22  34  47  61  78 103 135 175 216 250
#
# _framework density 15.041225000000001
#
# number of rings (size 3 to 8) (size 9 to 14) (size 15 to 20)
#    0.000    2.875    1.250    2.625    0.000    4.750 
#    0.000    2.500    0.000    0.000    0.000    0.000 
#    0.000    0.000    0.000    1.125    0.000   17.500 
#
# Total GULP energy -793108.876027 kJ/mol
# GULP energy per Si atom -12392.326188 kJ/mol
# Density = 1.500699 g / cm^3
# Si number density = 15.041225 Si / 1000 Ang^3
#
#
#
# Elastic Constant Matrix: (Units=GPa)
#
#
# Indices 1 2 3 4 5 6 
#
# 1 88.4738 67.4990 28.3478 0.0000 0.0000 0.0000
# 2 67.4990 128.4668 38.4306 0.0000 0.0000 0.0000
# 3 28.3478 38.4306 33.9472 0.0000 0.0000 0.0000
# 4 0.0000 0.0000 0.0000 12.8569 0.0000 0.0000
# 5 0.0000 0.0000 0.0000 0.0000 14.9938 0.0000
# 6 0.0000 0.0000 0.0000 0.0000 0.0000 29.0445
#
#
#
# Elastic Compliance Matrix: (Units=1/GPa)
#
#
# Indices 1 2 3 4 5 6 
#
# 1 0.019982 -0.008327 -0.007259 0.000000 0.000000 0.000000
# 2 -0.008327 0.015241 -0.010300 0.000000 0.000000 0.000000
# 3 -0.007259 -0.010300 0.047179 0.000000 0.000000 0.000000
# 4 0.000000 0.000000 0.000000 0.077779 0.000000 0.000000
# 5 0.000000 0.000000 0.000000 0.000000 0.066694 0.000000
# 6 0.000000 0.000000 0.000000 0.000000 0.000000 0.034430
#
#
# Mechanical properties :
#
#
# Convention : Reuss Voigt Hill
#
# Bulk Modulus (GPa) = 32.64799 57.71584 45.18191
# Shear Modulus (GPa) = 15.46622 19.15308 17.30965
#
# Velocity S-wave (km/s) = 3.21012 3.57231 3.39604
# Velocity P-wave (km/s) = 5.95757 7.44783 6.74399
#
# Compressibility (1/GPa) = 0.03062976
#
# Stress axis : x y z
#
# Youngs Moduli (GPa) = 50.04588 65.61439 21.19602
#
# Poissons Ratio (x) = 0.54639 0.15385
# Poissons Ratio (y) = 0.41675 0.21831
# Poissons Ratio (z) = 0.36326 0.67580
#
# Static dielectric constant tensor:
#      x y z
#    x 3.012680 0.000000 0.000000 
#    y 0.000000 3.374620 0.000000 
#    z 0.000000 0.000000 2.406370 
# 
# 
# High freq. dielectric constant tensor:
#      x y z
#    x 1.585200 0.000000 0.000000 
#    y 0.000000 1.591420 0.000000 
#    z 0.000000 0.000000 1.496470 
# 
# From -- ./inp_files/31328.got.cif
#   From: 2010.03.12/outbox.cif.g09.slc.cpg/sg53_16_cif.got.tgz:31328.got - 2010.04.16 14:36:59.
