data_PCOD8217218
_publ_section_title
;
Structure prediction by ZEFSAII (Michael W. Deem and Ramdas Pophale) SiO2 
 PCOD8217218
Probable space group: P N N A
;
_chemical_formula_sum "Si O2"
_cell_formula_units_Z 40
_cell_length_a 9.354869
_cell_length_b 13.812446
_cell_length_c 14.564503
_cell_angle_alpha 90.000000
_cell_angle_beta 90.000000
_cell_angle_gamma 90.000000
_cell_volume 1881.932198
_symmetry_space_group_name_H-M "P N N A"
_symmetry_group_IT_number 52
_symmetry_cell_setting 'orthorhombic'
loop_
_space_group_symop_operation_xyz
x,y,z
1/2-x,-y,z
x,1/2-y,1/2-z
1/2-x,1/2+y,1/2-z
-x,-y,-z
1/2+x,y,-z
-x,1/2+y,1/2+z
1/2+x,1/2-y,1/2+z
loop_
_atom_site_type_symbol
_atom_site_label
_atom_site_fract_x
_atom_site_fract_y
_atom_site_fract_z
Si Si1 0.370497 0.937628 0.960088
Si Si2 0.909640 0.522881 0.139796
Si Si3 0.494051 0.157456 0.205835
Si Si4 0.983419 0.655659 0.973004
Si Si5 0.775145 0.219810 0.927096
O O1 0.427932 0.859836 0.889669
O O2 0.250000 0.000000 0.907672
O O3 0.279671 0.883577 0.037797
O O4 0.500000 0.000000 0.000000
O O5 0.750000 0.500000 0.173782
O O6 0.969682 0.422656 0.102055
O O7 0.002798 0.564592 0.226124
O O8 0.913378 0.603477 0.060735
O O9 0.574288 0.250000 0.250000
O O10 0.336974 0.195519 0.174443
O O11 0.861220 0.711681 0.917840
O O12 0.109139 0.728048 0.005426
#
# Coordination Sequence:
#
# PCOD8217218 Si02
#       5
#     8   8   8   8   8
#     4  12  24  46  73  96 137 192 232 279 354 430
#     4  11  23  43  72 109 145 183 239 297 352 430
#     4  12  25  45  70 102 141 179 237 298 347 413
#     4  11  23  43  74 105 141 193 230 286 371 425
#     4  12  22  46  73  99 143 187 239 291 356 430
#
# _framework density 21.254750999999999
#
# number of rings (size 3 to 8) (size 9 to 14) (size 15 to 20)
#    0.000    0.400    8.000    0.600    0.000    0.000 
#    7.200    0.000    0.000    0.000    0.000    0.000 
#    0.000    0.000    0.000    0.000    0.000    0.000 
#
# Total GULP energy -495689.424003 kJ/mol
# GULP energy per Si atom -12392.235600 kJ/mol
# Density = 2.120637 g / cm^3
# Si number density = 21.254751 Si / 1000 Ang^3
#
#
#
# Elastic Constant Matrix: (Units=GPa)
#
#
# Indices 1 2 3 4 5 6 
#
# 1 133.2472 72.5997 46.7497 0.0000 0.0000 0.0000
# 2 72.5997 130.7026 53.2546 0.0000 0.0000 0.0000
# 3 46.7497 53.2546 102.7922 0.0000 0.0000 0.0000
# 4 0.0000 0.0000 0.0000 53.8416 0.0000 0.0000
# 5 0.0000 0.0000 0.0000 0.0000 24.7673 0.0000
# 6 0.0000 0.0000 0.0000 0.0000 0.0000 44.2911
#
#
#
# Elastic Compliance Matrix: (Units=1/GPa)
#
#
# Indices 1 2 3 4 5 6 
#
# 1 0.011200 -0.005255 -0.002371 0.000000 0.000000 0.000000
# 2 -0.005255 0.012164 -0.003912 0.000000 0.000000 0.000000
# 3 -0.002371 -0.003912 0.012833 0.000000 0.000000 0.000000
# 4 0.000000 0.000000 0.000000 0.018573 0.000000 0.000000
# 5 0.000000 0.000000 0.000000 0.000000 0.040376 0.000000
# 6 0.000000 0.000000 0.000000 0.000000 0.000000 0.022578
#
#
# Mechanical properties :
#
#
# Convention : Reuss Voigt Hill
#
# Bulk Modulus (GPa) = 76.21325 79.10555 77.65940
# Shear Modulus (GPa) = 34.44155 37.52254 35.98205
#
# Velocity S-wave (km/s) = 4.02981 4.20619 4.11894
# Velocity P-wave (km/s) = 7.58863 7.80308 7.69660
#
# Compressibility (1/GPa) = 0.01312108
#
# Stress axis : x y z
#
# Youngs Moduli (GPa) = 89.28619 82.21165 77.92137
#
# Poissons Ratio (x) = 0.43202 0.18477
# Poissons Ratio (y) = 0.46919 0.30482
# Poissons Ratio (z) = 0.21172 0.32160
#
# Static dielectric constant tensor:
#      x y z
#    x 4.052440 0.000000 0.000000 
#    y 0.000000 4.177960 0.000000 
#    z 0.000000 0.000000 3.852330 
# 
# 
# High freq. dielectric constant tensor:
#      x y z
#    x 1.835120 0.000000 0.000000 
#    y 0.000000 1.857830 0.000000 
#    z 0.000000 0.000000 1.818130 
# 
# From -- ./inp_files/24400.got.cif
#   From: 2010.06.25/outbox.cif.g09.slc.cpg/sg52_13_cif.got.tgz:24400.got - 2010.06.26 19:32:48.
