data_PCOD8217510
_publ_section_title
;
Structure prediction by ZEFSAII (Michael W. Deem and Ramdas Pophale) SiO2 
 PCOD8217510
Probable space group: P M N A
;
_chemical_formula_sum "Si O2"
_cell_formula_units_Z 64
_cell_length_a 9.225619
_cell_length_b 13.125819
_cell_length_c 32.460569
_cell_angle_alpha 90.000000
_cell_angle_beta 90.000000
_cell_angle_gamma 90.000000
_cell_volume 3930.773818
_symmetry_space_group_name_H-M "P M N A"
_symmetry_group_IT_number 53
_symmetry_cell_setting 'orthorhombic'
loop_
_space_group_symop_operation_xyz
x,y,z
1/2-x,-y,1/2+z
x,-y,-z
1/2-x,y,1/2-z
-x,-y,-z
1/2+x,y,1/2-z
-x,y,z
1/2+x,-y,1/2+z
loop_
_atom_site_type_symbol
_atom_site_label
_atom_site_fract_x
_atom_site_fract_y
_atom_site_fract_z
Si Si1 0.831077 0.078178 0.037119
Si Si2 0.161535 0.049633 0.129073
Si Si3 0.660043 0.267609 0.002973
Si Si4 0.837950 0.717768 0.711551
Si Si5 0.658272 0.413024 0.075221
Si Si6 0.162638 0.575616 0.038884
Si Si7 0.161242 0.709652 0.864437
Si Si8 0.335410 0.960524 0.790903
O O1 0.784569 0.028811 0.081686
O O2 0.732797 0.175689 0.028027
O O3 0.000000 0.111215 0.039970
O O4 0.805033 0.000000 0.000000
O O5 0.156487 0.169803 0.134624
O O6 0.262359 0.002740 0.165595
O O7 0.000000 0.004032 0.135089
O O8 0.500000 0.233279 0.986198
O O9 0.632842 0.367148 0.030355
O O10 0.769125 0.311336 0.968270
O O11 0.750000 0.676028 0.750000
O O12 0.758243 0.669000 0.672794
O O13 0.837159 0.839302 0.709973
O O14 0.000000 0.675112 0.713610
O O15 0.500000 0.425019 0.096915
O O16 0.737705 0.522262 0.073666
O O17 0.763544 0.330717 0.095107
O O18 0.000000 0.593334 0.055633
O O19 0.155745 0.500000 0.000000
O O20 0.000000 0.664734 0.860421
O O21 0.250000 0.000588 0.750000
O O22 0.500000 0.002913 0.789509
#
# Coordination Sequence:
#
# PCOD8217510 Si02
#       8
#     8   8   8   8   8   8   8   8
#     4  10  20  33  47  62  82 113 152 188 220 257
#     4   9  17  28  41  57  79 107 140 178 214 250
#     4  10  19  30  44  60  81 106 136 175 216 254
#     4   9  16  25  35  50  73 101 134 168 202 243
#     4  10  18  27  40  60  83 105 133 170 212 253
#     4   9  17  28  43  60  79 103 132 166 206 250
#     4  10  17  25  39  56  76 105 138 172 210 249
#     4   9  16  25  39  57  77 101 131 167 208 254
#
# _framework density 16.281782
#
# number of rings (size 3 to 8) (size 9 to 14) (size 15 to 20)
#    0.000    2.500    1.250    2.250    0.000    6.750 
#    0.000    0.000    0.000    0.000    0.000    0.000 
#    0.000    0.000    0.000    1.125    0.000   16.500 
#
# Total GULP energy -792883.899439 kJ/mol
# GULP energy per Si atom -12388.810929 kJ/mol
# Density = 1.624472 g / cm^3
# Si number density = 16.281782 Si / 1000 Ang^3
#
#
#
# Elastic Constant Matrix: (Units=GPa)
#
#
# Indices 1 2 3 4 5 6 
#
# 1 141.1660 18.8630 45.7400 0.0000 0.0000 0.0000
# 2 18.8630 19.6421 16.7804 0.0000 0.0000 0.0000
# 3 45.7400 16.7804 69.4900 0.0000 0.0000 0.0000
# 4 0.0000 0.0000 0.0000 7.0268 0.0000 0.0000
# 5 0.0000 0.0000 0.0000 0.0000 28.1935 0.0000
# 6 0.0000 0.0000 0.0000 0.0000 0.0000 8.8767
#
#
#
# Elastic Compliance Matrix: (Units=1/GPa)
#
#
# Indices 1 2 3 4 5 6 
#
# 1 0.009334 -0.004680 -0.005013 0.000000 0.000000 0.000000
# 2 -0.004680 0.066491 -0.012975 0.000000 0.000000 0.000000
# 3 -0.005013 -0.012975 0.020824 0.000000 0.000000 0.000000
# 4 0.000000 0.000000 0.000000 0.142312 0.000000 0.000000
# 5 0.000000 0.000000 0.000000 0.000000 0.035469 0.000000
# 6 0.000000 0.000000 0.000000 0.000000 0.000000 0.112654
#
#
# Mechanical properties :
#
#
# Convention : Reuss Voigt Hill
#
# Bulk Modulus (GPa) = 19.48948 43.67388 31.58168
# Shear Modulus (GPa) = 11.12285 18.74706 14.93495
#
# Velocity S-wave (km/s) = 2.61654 3.39693 3.03195
# Velocity P-wave (km/s) = 4.59614 6.50135 5.62992
#
# Compressibility (1/GPa) = 0.05130972
#
# Stress axis : x y z
#
# Youngs Moduli (GPa) = 107.13862 15.03972 48.02202
#
# Poissons Ratio (x) = 0.07039 0.24076
# Poissons Ratio (y) = 0.50146 0.62310
# Poissons Ratio (z) = 0.53713 0.19514
#
# Static dielectric constant tensor:
#      x y z
#    x 3.501510 0.000000 0.000000 
#    y 0.000000 2.482580 0.000000 
#    z 0.000000 0.000000 3.705320 
# 
# 
# High freq. dielectric constant tensor:
#      x y z
#    x 1.650770 0.000000 0.000000 
#    y 0.000000 1.550290 0.000000 
#    z 0.000000 0.000000 1.608720 
# 
# From -- ./inp_files/38426.got.cif
#   From: 2010.03.12/outbox.cif.g09.slc.cpg/sg53_20_cif.got.tgz:38426.got - 2010.04.16 14:36:59.
