data_PCOD8217086
_publ_section_title
;
Structure prediction by ZEFSAII (Michael W. Deem and Ramdas Pophale) SiO2 
 PCOD8217086
Probable space group: P N N A
;
_chemical_formula_sum "Si O2"
_cell_formula_units_Z 44
_cell_length_a 12.565908
_cell_length_b 9.563935
_cell_length_c 16.101395
_cell_angle_alpha 90.000000
_cell_angle_beta 90.000000
_cell_angle_gamma 90.000000
_cell_volume 1935.058040
_symmetry_space_group_name_H-M "P N N A"
_symmetry_group_IT_number 52
_symmetry_cell_setting 'orthorhombic'
loop_
_space_group_symop_operation_xyz
x,y,z
1/2-x,-y,z
x,1/2-y,1/2-z
1/2-x,1/2+y,1/2-z
-x,-y,-z
1/2+x,y,-z
-x,1/2+y,1/2+z
1/2+x,1/2-y,1/2+z
loop_
_atom_site_type_symbol
_atom_site_label
_atom_site_fract_x
_atom_site_fract_y
_atom_site_fract_z
Si Si1 0.579303 0.133083 0.492301
Si Si2 0.022275 0.652692 0.169005
Si Si3 0.957361 0.125764 0.055953
Si Si4 0.750000 0.000000 0.845782
Si Si5 0.712416 0.764713 0.553612
Si Si6 0.039478 0.091886 0.227026
O O1 0.569524 0.192371 0.397715
O O2 0.543071 0.251085 0.556035
O O3 0.704248 0.119038 0.517245
O O4 0.500000 0.000000 0.500000
O O5 0.018029 0.750000 0.250000
O O6 0.133580 0.659637 0.118218
O O7 0.995247 0.491757 0.193466
O O8 0.953291 0.079408 0.152472
O O9 0.846939 0.189957 0.023763
O O10 0.000000 0.000000 0.000000
O O11 0.769629 0.861959 0.899747
O O12 0.856289 0.004388 0.791075
O O13 0.068608 0.250000 0.250000
#
# Coordination Sequence:
#
# PCOD8217086 Si02
#       6
#     8   8   8   4   8   8
#     4  11  24  43  64  97 139 185 224 286 363 437
#     4  11  24  43  67 101 138 175 234 303 359 418
#     4  11  21  42  66  92 132 183 236 278 353 444
#     4  12  22  38  66 100 128 174 230 292 354 420
#     4  11  23  43  69  96 135 185 239 286 354 440
#     4  12  25  39  63 101 140 171 229 301 365 410
#
# _framework density 22.738336
#
# number of rings (size 3 to 8) (size 9 to 14) (size 15 to 20)
#    0.000    0.727    5.455    2.182    2.545    2.909 
#    0.000    0.909    0.000    2.182    0.000    0.000 
#    0.000    0.000    0.000    0.000    0.000    0.000 
#
# Total GULP energy -545090.960300 kJ/mol
# GULP energy per Si atom -12388.430916 kJ/mol
# Density = 2.268658 g / cm^3
# Si number density = 22.738336 Si / 1000 Ang^3
#
#
#
# Elastic Constant Matrix: (Units=GPa)
#
#
# Indices 1 2 3 4 5 6 
#
# 1 68.5627 33.7192 50.5557 0.0000 0.0000 0.0000
# 2 33.7192 123.7959 33.8807 0.0000 0.0000 0.0000
# 3 50.5557 33.8807 130.0105 0.0000 0.0000 0.0000
# 4 0.0000 0.0000 0.0000 41.5206 0.0000 0.0000
# 5 0.0000 0.0000 0.0000 0.0000 28.8694 0.0000
# 6 0.0000 0.0000 0.0000 0.0000 0.0000 37.7005
#
#
#
# Elastic Compliance Matrix: (Units=1/GPa)
#
#
# Indices 1 2 3 4 5 6 
#
# 1 0.022108 -0.003951 -0.007567 0.000000 0.000000 0.000000
# 2 -0.003951 0.009404 -0.000914 0.000000 0.000000 0.000000
# 3 -0.007567 -0.000914 0.010873 0.000000 0.000000 0.000000
# 4 0.000000 0.000000 0.000000 0.024084 0.000000 0.000000
# 5 0.000000 0.000000 0.000000 0.000000 0.034639 0.000000
# 6 0.000000 0.000000 0.000000 0.000000 0.000000 0.026525
#
#
# Mechanical properties :
#
#
# Convention : Reuss Voigt Hill
#
# Bulk Modulus (GPa) = 57.07820 62.07558 59.57689
# Shear Modulus (GPa) = 31.57809 35.23236 33.40522
#
# Velocity S-wave (km/s) = 3.73065 3.94060 3.83706
# Velocity P-wave (km/s) = 6.61163 6.93280 6.77412
#
# Compressibility (1/GPa) = 0.01751982
#
# Stress axis : x y z
#
# Youngs Moduli (GPa) = 45.23247 106.33594 91.97419
#
# Poissons Ratio (x) = 0.42010 0.69600
# Poissons Ratio (y) = 0.17870 0.08411
# Poissons Ratio (z) = 0.34229 0.09724
#
# Static dielectric constant tensor:
#      x y z
#    x 3.765380 0.000000 0.000000 
#    y 0.000000 4.142600 0.000000 
#    z 0.000000 0.000000 4.432230 
# 
# 
# High freq. dielectric constant tensor:
#      x y z
#    x 1.862120 0.000000 0.000000 
#    y 0.000000 1.916670 0.000000 
#    z 0.000000 0.000000 1.908360 
# 
# From -- ./inp_files/32976.got.cif
#   From: 2010.06.25/outbox.cif.g09.slc.cpg/sg52_17_cif.got.tgz:32976.got - 2010.06.26 19:32:48.
