data_PCOD8217167
_publ_section_title
;
Structure prediction by ZEFSAII (Michael W. Deem and Ramdas Pophale) SiO2 
 PCOD8217167
Probable space group: P N N A
;
_chemical_formula_sum "Si O2"
_cell_formula_units_Z 52
_cell_length_a 13.384598
_cell_length_b 16.930088
_cell_length_c 9.961117
_cell_angle_alpha 90.000000
_cell_angle_beta 90.000000
_cell_angle_gamma 90.000000
_cell_volume 2257.213238
_symmetry_space_group_name_H-M "P N N A"
_symmetry_group_IT_number 52
_symmetry_cell_setting 'orthorhombic'
loop_
_space_group_symop_operation_xyz
x,y,z
1/2-x,-y,z
x,1/2-y,1/2-z
1/2-x,1/2+y,1/2-z
-x,-y,-z
1/2+x,y,-z
-x,1/2+y,1/2+z
1/2+x,1/2-y,1/2+z
loop_
_atom_site_type_symbol
_atom_site_label
_atom_site_fract_x
_atom_site_fract_y
_atom_site_fract_z
Si Si1 0.765001 0.305141 0.371005
Si Si2 0.529276 0.622955 0.375772
Si Si3 0.418552 0.250000 0.250000
Si Si4 0.052997 0.375410 0.645915
Si Si5 0.250000 0.000000 0.402456
Si Si6 0.909418 0.750000 0.750000
Si Si7 0.248435 0.826616 0.412864
Si Si8 0.528216 0.499527 0.841570
O O1 0.799970 0.250000 0.250000
O O2 0.853713 0.365070 0.408477
O O3 0.670065 0.359179 0.339419
O O4 0.736822 0.245572 0.488194
O O5 0.475315 0.581397 0.504644
O O6 0.478618 0.708860 0.360917
O O7 0.518258 0.574965 0.237104
O O8 0.489644 0.294426 0.355463
O O9 0.353280 0.185205 0.329582
O O10 0.022788 0.424491 0.776397
O O11 0.251252 0.085048 0.481920
O O12 0.352032 0.000430 0.316063
O O13 0.842289 0.820347 0.687320
O O14 0.500000 0.500000 0.000000
#
# Coordination Sequence:
#
# PCOD8217167 Si02
#       8
#     8   8   4   8   4   4   8   8
#     4  12  27  40  76 109 149 194 247 317 383 438
#     4  12  26  48  73 109 151 200 255 317 381 458
#     4  11  22  43  76 102 148 193 256 305 370 460
#     4  12  26  48  73 109 151 200 255 317 381 458
#     4  12  26  46  82 106 152 200 264 294 386 462
#     4  11  22  43  76 102 148 193 256 305 370 460
#     4  11  24  45  72 113 141 203 254 303 371 456
#     4  12  31  49  75 110 155 199 249 328 388 456
#
# _framework density 23.037255999999999
#
# number of rings (size 3 to 8) (size 9 to 14) (size 15 to 20)
#    0.000    0.308    7.692    0.462    4.308    3.077 
#    0.000    0.000    0.000    0.000    0.000    0.000 
#    0.000    0.000    0.000    0.000    0.000    0.000 
#
# Total GULP energy -644548.464183 kJ/mol
# GULP energy per Si atom -12395.162773 kJ/mol
# Density = 2.298482 g / cm^3
# Si number density = 23.037256 Si / 1000 Ang^3
#
#
#
# Elastic Constant Matrix: (Units=GPa)
#
#
# Indices 1 2 3 4 5 6 
#
# 1 159.7716 51.8507 25.1277 0.0000 0.0000 0.0000
# 2 51.8507 118.5673 32.1492 0.0000 0.0000 0.0000
# 3 25.1277 32.1492 121.6602 0.0000 0.0000 0.0000
# 4 0.0000 0.0000 0.0000 42.1843 0.0000 0.0000
# 5 0.0000 0.0000 0.0000 0.0000 30.7280 0.0000
# 6 0.0000 0.0000 0.0000 0.0000 0.0000 11.4419
#
#
#
# Elastic Compliance Matrix: (Units=1/GPa)
#
#
# Indices 1 2 3 4 5 6 
#
# 1 0.007352 -0.003020 -0.000721 0.000000 0.000000 0.000000
# 2 -0.003020 0.010325 -0.002105 0.000000 0.000000 0.000000
# 3 -0.000721 -0.002105 0.008925 0.000000 0.000000 0.000000
# 4 0.000000 0.000000 0.000000 0.023705 0.000000 0.000000
# 5 0.000000 0.000000 0.000000 0.000000 0.032544 0.000000
# 6 0.000000 0.000000 0.000000 0.000000 0.000000 0.087398
#
#
# Mechanical properties :
#
#
# Convention : Reuss Voigt Hill
#
# Bulk Modulus (GPa) = 67.06053 68.69493 67.87773
# Shear Modulus (GPa) = 26.75074 36.26228 31.50651
#
# Velocity S-wave (km/s) = 3.41133 3.97176 3.70216
# Velocity P-wave (km/s) = 6.68498 7.13561 6.91397
#
# Compressibility (1/GPa) = 0.01491190
#
# Stress axis : x y z
#
# Youngs Moduli (GPa) = 136.01198 96.84898 112.04938
#
# Poissons Ratio (x) = 0.29247 0.08074
# Poissons Ratio (y) = 0.41074 0.23584
# Poissons Ratio (z) = 0.09800 0.20385
#
# Static dielectric constant tensor:
#      x y z
#    x 4.270440 0.000000 0.000000 
#    y 0.000000 4.067310 0.000000 
#    z 0.000000 0.000000 4.313490 
# 
# 
# High freq. dielectric constant tensor:
#      x y z
#    x 1.929930 0.000000 0.000000 
#    y 0.000000 1.909610 0.000000 
#    z 0.000000 0.000000 1.893650 
# 
# From -- ./inp_files/10771.got.cif
#   From: 2010.06.25/outbox.cif.g09.slc.cpg/sg52_6_cif.got.tgz:10771.got - 2010.06.26 19:32:48.
