data_PCOD8217871
_publ_section_title
;
Structure prediction by ZEFSAII (Michael W. Deem and Ramdas Pophale) SiO2 
 PCOD8217871
Probable space group: P M N A
;
_chemical_formula_sum "Si O2"
_cell_formula_units_Z 64
_cell_length_a 9.059736
_cell_length_b 14.555195
_cell_length_c 24.046307
_cell_angle_alpha 90.000000
_cell_angle_beta 90.000000
_cell_angle_gamma 90.000000
_cell_volume 3170.895708
_symmetry_space_group_name_H-M "P M N A"
_symmetry_group_IT_number 53
_symmetry_cell_setting 'orthorhombic'
loop_
_space_group_symop_operation_xyz
x,y,z
1/2-x,-y,1/2+z
x,-y,-z
1/2-x,y,1/2-z
-x,-y,-z
1/2+x,y,1/2-z
-x,y,z
1/2+x,-y,1/2+z
loop_
_atom_site_type_symbol
_atom_site_label
_atom_site_fract_x
_atom_site_fract_y
_atom_site_fract_z
Si Si1 0.173953 0.984860 0.806381
Si Si2 0.831932 0.145448 0.640839
Si Si3 0.833200 0.872452 0.601474
Si Si4 0.327833 0.528348 0.807073
Si Si5 0.832659 0.846097 0.481599
Si Si6 0.670449 0.655778 0.905794
Si Si7 0.828096 0.645380 0.375295
Si Si8 0.173039 0.659545 0.015431
O O1 0.250000 0.948691 0.750000
O O2 0.226092 0.088906 0.818497
O O3 0.000000 0.982095 0.798678
O O4 0.219029 0.920305 0.857570
O O5 0.817911 0.102576 0.577907
O O6 0.781503 0.251640 0.642651
O O7 0.000000 0.134858 0.661910
O O8 0.808426 0.907735 0.537188
O O9 0.803956 0.763783 0.603472
O O10 0.000000 0.896207 0.620735
O O11 0.250000 0.551856 0.750000
O O12 0.500000 0.540846 0.797463
O O13 0.269625 0.601221 0.852358
O O14 0.289247 0.424441 0.825794
O O15 0.711544 0.766878 0.481867
O O16 0.000000 0.803573 0.485302
O O17 0.500000 0.632442 0.915868
O O18 0.759202 0.617759 0.959062
O O19 0.740984 0.611584 0.429952
O O20 0.000000 0.643212 0.390411
O O21 0.000000 0.643536 0.015030
#
# Coordination Sequence:
#
# PCOD8217871 Si02
#       8
#     8   8   8   8   8   8   8   8
#     4  12  26  41  56  77 107 144 188 234 275 320
#     4   9  18  36  60  84 111 144 181 220 267 325
#     4   9  18  36  60  84 111 144 181 220 267 325
#     4  10  22  39  58  81 109 144 188 232 273 324
#     4   8  16  33  58  85 114 146 176 211 267 337
#     4   9  19  37  59  82 112 149 182 217 271 334
#     4   9  19  37  59  82 112 149 182 217 271 334
#     4  10  18  29  52  85 116 144 180 227 271 315
#
# _framework density 20.18357
#
# number of rings (size 3 to 8) (size 9 to 14) (size 15 to 20)
#    0.000    2.500    0.000    3.750    0.000    7.000 
#    0.000    7.500    0.000    0.000    0.000    0.000 
#    0.000    0.000    0.000    0.000    0.000    0.000 
#
# Total GULP energy -793385.457335 kJ/mol
# GULP energy per Si atom -12396.647771 kJ/mol
# Density = 2.013763 g / cm^3
# Si number density = 20.183570 Si / 1000 Ang^3
#
#
#
# Elastic Constant Matrix: (Units=GPa)
#
#
# Indices 1 2 3 4 5 6 
#
# 1 86.4406 12.0607 33.4302 0.0000 0.0000 0.0000
# 2 12.0607 24.0836 -0.9202 0.0000 0.0000 0.0000
# 3 33.4302 -0.9202 83.8010 0.0000 0.0000 0.0000
# 4 0.0000 0.0000 0.0000 31.6254 0.0000 0.0000
# 5 0.0000 0.0000 0.0000 0.0000 35.8700 0.0000
# 6 0.0000 0.0000 0.0000 0.0000 0.0000 20.3149
#
#
#
# Elastic Compliance Matrix: (Units=1/GPa)
#
#
# Indices 1 2 3 4 5 6 
#
# 1 0.014995 -0.007741 -0.006067 0.000000 0.000000 0.000000
# 2 -0.007741 0.045536 0.003588 0.000000 0.000000 0.000000
# 3 -0.006067 0.003588 0.014393 0.000000 0.000000 0.000000
# 4 0.000000 0.000000 0.000000 0.031620 0.000000 0.000000
# 5 0.000000 0.000000 0.000000 0.000000 0.027878 0.000000
# 6 0.000000 0.000000 0.000000 0.000000 0.000000 0.049225
#
#
# Mechanical properties :
#
#
# Convention : Reuss Voigt Hill
#
# Bulk Modulus (GPa) = 18.35408 31.49630 24.92519
# Shear Modulus (GPa) = 22.49738 27.54569 25.02153
#
# Velocity S-wave (km/s) = 3.34224 3.69827 3.52475
# Velocity P-wave (km/s) = 4.89974 5.82023 5.37971
#
# Compressibility (1/GPa) = 0.05448381
#
# Stress axis : x y z
#
# Youngs Moduli (GPa) = 66.68871 21.96072 69.47987
#
# Poissons Ratio (x) = 0.17000 0.42153
# Poissons Ratio (y) = 0.51624 -0.24930
# Poissons Ratio (z) = 0.40459 -0.07880
#
# Static dielectric constant tensor:
#      x y z
#    x 3.398860 0.000000 0.000000 
#    y 0.000000 3.505300 0.000000 
#    z 0.000000 0.000000 3.847320 
# 
# 
# High freq. dielectric constant tensor:
#      x y z
#    x 1.768310 0.000000 0.000000 
#    y 0.000000 1.773320 0.000000 
#    z 0.000000 0.000000 1.795940 
# 
# From -- ./inp_files/34197.got.cif
#   From: 2010.03.12/outbox.cif.g09.slc.cpg/sg53_18_cif.got.tgz:34197.got - 2010.04.16 14:36:59.
