data_PCOD8217468
_publ_section_title
;
Structure prediction by ZEFSAII (Michael W. Deem and Ramdas Pophale) SiO2 
 PCOD8217468
Probable space group: P M N A
;
_chemical_formula_sum "Si O2"
_cell_formula_units_Z 56
_cell_length_a 9.017004
_cell_length_b 13.913945
_cell_length_c 28.027021
_cell_angle_alpha 90.000000
_cell_angle_beta 90.000000
_cell_angle_gamma 90.000000
_cell_volume 3516.328848
_symmetry_space_group_name_H-M "P M N A"
_symmetry_group_IT_number 53
_symmetry_cell_setting 'orthorhombic'
loop_
_space_group_symop_operation_xyz
x,y,z
1/2-x,-y,1/2+z
x,-y,-z
1/2-x,y,1/2-z
-x,-y,-z
1/2+x,y,1/2-z
-x,y,z
1/2+x,-y,1/2+z
loop_
_atom_site_type_symbol
_atom_site_label
_atom_site_fract_x
_atom_site_fract_y
_atom_site_fract_z
Si Si1 0.675440 0.710986 0.033917
Si Si2 0.673811 0.490221 0.298953
Si Si3 0.673733 0.731291 0.700602
Si Si4 0.667791 0.798226 0.888776
Si Si5 0.823062 0.102431 0.483908
Si Si6 0.675573 0.427830 0.887036
Si Si7 0.667046 0.604134 0.945021
O O1 0.500000 0.712449 0.025156
O O2 0.712769 0.674537 0.087353
O O3 0.735176 0.818293 0.022456
O O4 0.743622 0.636314 0.994845
O O5 0.750000 0.520042 0.250000
O O6 0.500000 0.506257 0.294272
O O7 0.712404 0.379654 0.311805
O O8 0.738522 0.564541 0.337531
O O9 0.750000 0.761833 0.750000
O O10 0.500000 0.746764 0.706454
O O11 0.732069 0.801576 0.658723
O O12 0.500000 0.826791 0.874824
O O13 0.729384 0.870113 0.930116
O O14 0.673085 0.690636 0.907926
O O15 0.000000 0.099607 0.484040
O O16 0.755931 0.000000 0.500000
O O17 0.500000 0.439807 0.877803
O O18 0.742641 0.511146 0.921369
O O19 0.500000 0.572646 0.956160
#
# Coordination Sequence:
#
# PCOD8217468 Si02
#       7
#     8   8   8   8   8   8   8
#     4   8  14  22  36  61  86 112 145 174 204 247
#     4  10  20  31  42  58  83 115 149 179 212 252
#     4  10  19  29  42  60  85 115 146 178 211 253
#     4   9  15  25  42  63  86 115 147 176 211 251
#     4   8  14  25  42  66  93 115 141 180 218 253
#     4  10  16  24  41  61  84 113 145 178 209 242
#     4   8  13  21  35  57  84 111 141 173 200 233
#
# _framework density 15.925701
#
# number of rings (size 3 to 8) (size 9 to 14) (size 15 to 20)
#    0.000    3.000    1.429    3.000    0.000    2.857 
#    0.000    0.000    0.000    5.571    0.000    1.000 
#    0.000    0.000    0.000    0.000    0.000    0.000 
#
# Total GULP energy -693856.139917 kJ/mol
# GULP energy per Si atom -12390.288213 kJ/mol
# Density = 1.588945 g / cm^3
# Si number density = 15.925701 Si / 1000 Ang^3
#
#
#
# Elastic Constant Matrix: (Units=GPa)
#
#
# Indices 1 2 3 4 5 6 
#
# 1 43.3883 21.5334 43.5302 0.0000 0.0000 0.0000
# 2 21.5334 78.9631 62.2632 0.0000 0.0000 0.0000
# 3 43.5302 62.2632 131.1699 0.0000 0.0000 0.0000
# 4 0.0000 0.0000 0.0000 20.5226 0.0000 0.0000
# 5 0.0000 0.0000 0.0000 0.0000 21.8607 0.0000
# 6 0.0000 0.0000 0.0000 0.0000 0.0000 4.5576
#
#
#
# Elastic Compliance Matrix: (Units=1/GPa)
#
#
# Indices 1 2 3 4 5 6 
#
# 1 0.034570 -0.000609 -0.011183 0.000000 0.000000 0.000000
# 2 -0.000609 0.020250 -0.009410 0.000000 0.000000 0.000000
# 3 -0.011183 -0.009410 0.015802 0.000000 0.000000 0.000000
# 4 0.000000 0.000000 0.000000 0.048727 0.000000 0.000000
# 5 0.000000 0.000000 0.000000 0.000000 0.045744 0.000000
# 6 0.000000 0.000000 0.000000 0.000000 0.000000 0.219413
#
#
# Mechanical properties :
#
#
# Convention : Reuss Voigt Hill
#
# Bulk Modulus (GPa) = 35.43995 56.46388 45.95191
# Shear Modulus (GPa) = 11.45957 17.80115 14.63036
#
# Velocity S-wave (km/s) = 2.68538 3.34692 3.03423
# Velocity P-wave (km/s) = 5.64948 7.10404 6.41810
#
# Compressibility (1/GPa) = 0.02821674
#
# Stress axis : x y z
#
# Youngs Moduli (GPa) = 28.92690 49.38210 63.28412
#
# Poissons Ratio (x) = 0.03008 0.70772
# Poissons Ratio (y) = 0.01762 0.59551
# Poissons Ratio (z) = 0.32350 0.46469
#
# Static dielectric constant tensor:
#      x y z
#    x 2.632730 0.000000 0.000000 
#    y 0.000000 2.970820 0.000000 
#    z 0.000000 0.000000 3.084770 
# 
# 
# High freq. dielectric constant tensor:
#      x y z
#    x 1.570500 0.000000 0.000000 
#    y 0.000000 1.572720 0.000000 
#    z 0.000000 0.000000 1.614870 
# 
# From -- ./inp_files/38382.got.cif
#   From: 2010.03.12/outbox.cif.g09.slc.cpg/sg53_20_cif.got.tgz:38382.got - 2010.04.16 14:36:59.
