data_PCOD8217706
_publ_section_title
;
Structure prediction by ZEFSAII (Michael W. Deem and Ramdas Pophale) SiO2 
 PCOD8217706
Probable space group: P M N A
;
_chemical_formula_sum "Si O2"
_cell_formula_units_Z 64
_cell_length_a 8.976457
_cell_length_b 23.301736
_cell_length_c 17.747530
_cell_angle_alpha 90.000000
_cell_angle_beta 90.000000
_cell_angle_gamma 90.000000
_cell_volume 3712.198162
_symmetry_space_group_name_H-M "P M N A"
_symmetry_group_IT_number 53
_symmetry_cell_setting 'orthorhombic'
loop_
_space_group_symop_operation_xyz
x,y,z
1/2-x,-y,1/2+z
x,-y,-z
1/2-x,y,1/2-z
-x,-y,-z
1/2+x,y,1/2-z
-x,y,z
1/2+x,-y,1/2+z
loop_
_atom_site_type_symbol
_atom_site_label
_atom_site_fract_x
_atom_site_fract_y
_atom_site_fract_z
Si Si1 0.176992 0.255597 0.027036
Si Si2 0.667828 0.038066 0.926059
Si Si3 0.172099 0.314345 0.176122
Si Si4 0.323483 0.630786 0.457795
Si Si5 0.323530 0.548309 0.329316
Si Si6 0.826522 0.569068 0.896307
Si Si7 0.823888 0.127142 0.022926
Si Si8 0.823016 0.053997 0.169388
O O1 0.238033 0.278857 0.106426
O O2 0.239762 0.191827 0.015039
O O3 0.000000 0.252338 0.028418
O O4 0.230981 0.302584 0.964351
O O5 0.500000 0.051007 0.897751
O O6 0.758034 0.007105 0.858759
O O7 0.750224 0.095962 0.951336
O O8 0.664446 0.000000 0.000000
O O9 0.250000 0.290725 0.250000
O O10 0.202389 0.382178 0.166195
O O11 0.000000 0.301186 0.184453
O O12 0.500000 0.630645 0.469356
O O13 0.276729 0.603678 0.378539
O O14 0.256036 0.590713 0.524614
O O15 0.250000 0.558802 0.250000
O O16 0.500000 0.543342 0.319679
O O17 0.255911 0.490764 0.367873
O O18 0.000000 0.557893 0.909003
O O19 0.781120 0.101395 0.105415
O O20 0.000000 0.122927 0.012473
O O21 0.750000 0.070903 0.250000
O O22 0.000000 0.048954 0.179689
#
# Coordination Sequence:
#
# PCOD8217706 Si02
#       8
#     8   8   8   8   8   8   8   8
#     4   8  15  28  45  64  85 114 154 191 218 251
#     4   9  17  30  48  69  93 120 150 184 220 258
#     4   9  16  26  40  59  86 117 146 180 221 265
#     4   8  14  26  45  65  83 110 152 192 219 254
#     4  10  18  27  43  66  88 110 139 181 231 276
#     4   8  14  25  42  63  84 109 146 186 220 262
#     4   9  17  30  48  68  90 119 155 190 223 263
#     4  10  19  30  46  70  99 126 149 178 220 267
#
# _framework density 17.240459999999999
#
# number of rings (size 3 to 8) (size 9 to 14) (size 15 to 20)
#    0.000    3.125    0.000    3.000    0.000    4.000 
#    0.000    0.625    0.000    6.000    0.000    1.750 
#    0.000    0.000    0.000    0.000    0.000    0.000 
#
# Total GULP energy -793014.553132 kJ/mol
# GULP energy per Si atom -12390.852393 kJ/mol
# Density = 1.720122 g / cm^3
# Si number density = 17.240460 Si / 1000 Ang^3
#
#
#
# Elastic Constant Matrix: (Units=GPa)
#
#
# Indices 1 2 3 4 5 6 
#
# 1 38.3956 27.9188 23.8214 0.0000 0.0000 0.0000
# 2 27.9188 144.5707 59.1208 0.0000 0.0000 0.0000
# 3 23.8214 59.1208 83.6787 0.0000 0.0000 0.0000
# 4 0.0000 0.0000 0.0000 15.5288 0.0000 0.0000
# 5 0.0000 0.0000 0.0000 0.0000 27.0728 0.0000
# 6 0.0000 0.0000 0.0000 0.0000 0.0000 11.8350
#
#
#
# Elastic Compliance Matrix: (Units=1/GPa)
#
#
# Indices 1 2 3 4 5 6 
#
# 1 0.032875 -0.003546 -0.006853 0.000000 0.000000 0.000000
# 2 -0.003546 0.010110 -0.006134 0.000000 0.000000 0.000000
# 3 -0.006853 -0.006134 0.018235 0.000000 0.000000 0.000000
# 4 0.000000 0.000000 0.000000 0.064396 0.000000 0.000000
# 5 0.000000 0.000000 0.000000 0.000000 0.036937 0.000000
# 6 0.000000 0.000000 0.000000 0.000000 0.000000 0.084495
#
#
# Mechanical properties :
#
#
# Convention : Reuss Voigt Hill
#
# Bulk Modulus (GPa) = 35.51874 54.26301 44.89087
# Shear Modulus (GPa) = 17.27117 21.27293 19.27205
#
# Velocity S-wave (km/s) = 3.16853 3.51650 3.34704
# Velocity P-wave (km/s) = 5.83376 6.93038 6.40558
#
# Compressibility (1/GPa) = 0.02815415
#
# Stress axis : x y z
#
# Youngs Moduli (GPa) = 30.41820 98.91134 54.83982
#
# Poissons Ratio (x) = 0.35075 0.37584
# Poissons Ratio (y) = 0.10786 0.33636
# Poissons Ratio (z) = 0.20847 0.60667
#
# Static dielectric constant tensor:
#      x y z
#    x 2.883960 0.000000 0.000000 
#    y 0.000000 3.481820 0.000000 
#    z 0.000000 0.000000 3.183870 
# 
# 
# High freq. dielectric constant tensor:
#      x y z
#    x 1.627970 0.000000 0.000000 
#    y 0.000000 1.662430 0.000000 
#    z 0.000000 0.000000 1.651590 
# 
# From -- ./inp_files/27049.got.cif
#   From: 2010.03.12/outbox.cif.g09.slc.cpg/sg53_14_cif.got.tgz:27049.got - 2010.04.16 14:36:59.
