data_PCOD8217470
_publ_section_title
;
Structure prediction by ZEFSAII (Michael W. Deem and Ramdas Pophale) SiO2 
 PCOD8217470
Probable space group: P M N A
;
_chemical_formula_sum "Si O2"
_cell_formula_units_Z 56
_cell_length_a 9.634993
_cell_length_b 14.222700
_cell_length_c 26.640333
_cell_angle_alpha 90.000000
_cell_angle_beta 90.000000
_cell_angle_gamma 90.000000
_cell_volume 3650.674415
_symmetry_space_group_name_H-M "P M N A"
_symmetry_group_IT_number 53
_symmetry_cell_setting 'orthorhombic'
loop_
_space_group_symop_operation_xyz
x,y,z
1/2-x,-y,1/2+z
x,-y,-z
1/2-x,y,1/2-z
-x,-y,-z
1/2+x,y,1/2-z
-x,y,z
1/2+x,-y,1/2+z
loop_
_atom_site_type_symbol
_atom_site_label
_atom_site_fract_x
_atom_site_fract_y
_atom_site_fract_z
Si Si1 0.839892 0.416486 0.931958
Si Si2 0.836829 0.014878 0.385090
Si Si3 0.663678 0.121311 0.800355
Si Si4 0.160678 0.372473 0.044814
Si Si5 0.163746 0.798802 0.566033
Si Si6 0.345253 0.719747 0.122502
Si Si7 0.844230 0.128486 0.537653
O O1 0.813786 0.527717 0.928675
O O2 0.755917 0.368363 0.886481
O O3 0.000000 0.392384 0.923619
O O4 0.792914 0.378480 0.986608
O O5 0.805373 0.126304 0.389073
O O6 0.000000 0.993107 0.387610
O O7 0.784940 0.969471 0.332869
O O8 0.771364 0.959034 0.433207
O O9 0.750000 0.120377 0.750000
O O10 0.500000 0.115967 0.788610
O O11 0.700637 0.217096 0.830099
O O12 0.253325 0.297388 0.075376
O O13 0.000000 0.343551 0.048650
O O14 0.226672 0.845318 0.515166
O O15 0.000000 0.775871 0.562359
O O16 0.500000 0.680491 0.131511
O O17 0.340695 0.781125 0.072651
O O18 0.000000 0.099143 0.523437
#
# Coordination Sequence:
#
# PCOD8217470 Si02
#       7
#     8   8   8   8   8   8   8
#     4   9  17  29  42  57  83 122 154 174 209 257
#     4   8  15  26  41  62  87 112 141 177 214 253
#     4   9  18  32  48  67  90 113 139 177 222 265
#     4   9  18  29  39  56  88 123 150 177 209 248
#     4  10  16  24  42  64  83 113 152 181 207 246
#     4   9  16  27  44  66  88 109 142 186 219 247
#     4   8  13  22  37  60  86 111 139 172 208 246
#
# _framework density 15.339632999999999
#
# number of rings (size 3 to 8) (size 9 to 14) (size 15 to 20)
#    0.000    3.143    1.429    3.000    0.000    2.857 
#    0.000    2.143    0.000    2.571    0.000    1.000 
#    0.000    2.286    0.000    0.000    0.000    0.000 
#
# Total GULP energy -693866.093973 kJ/mol
# GULP energy per Si atom -12390.465964 kJ/mol
# Density = 1.530472 g / cm^3
# Si number density = 15.339633 Si / 1000 Ang^3
#
#
#
# Elastic Constant Matrix: (Units=GPa)
#
#
# Indices 1 2 3 4 5 6 
#
# 1 50.2146 50.8223 33.2973 0.0000 0.0000 0.0000
# 2 50.8223 103.2156 43.1286 0.0000 0.0000 0.0000
# 3 33.2973 43.1286 73.2100 0.0000 0.0000 0.0000
# 4 0.0000 0.0000 0.0000 15.6654 0.0000 0.0000
# 5 0.0000 0.0000 0.0000 0.0000 20.9441 0.0000
# 6 0.0000 0.0000 0.0000 0.0000 0.0000 18.2177
#
#
#
# Elastic Compliance Matrix: (Units=1/GPa)
#
#
# Indices 1 2 3 4 5 6 
#
# 1 0.044337 -0.017782 -0.009690 0.000000 0.000000 0.000000
# 2 -0.017782 0.019984 -0.003685 0.000000 0.000000 0.000000
# 3 -0.009690 -0.003685 0.020237 0.000000 0.000000 0.000000
# 4 0.000000 0.000000 0.000000 0.063835 0.000000 0.000000
# 5 0.000000 0.000000 0.000000 0.000000 0.047746 0.000000
# 6 0.000000 0.000000 0.000000 0.000000 0.000000 0.054892
#
#
# Mechanical properties :
#
#
# Convention : Reuss Voigt Hill
#
# Bulk Modulus (GPa) = 44.95502 53.45962 49.20732
# Shear Modulus (GPa) = 15.58793 17.59157 16.58975
#
# Velocity S-wave (km/s) = 3.19123 3.39013 3.29218
# Velocity P-wave (km/s) = 6.55352 7.08874 6.82638
#
# Compressibility (1/GPa) = 0.02224445
#
# Stress axis : x y z
#
# Youngs Moduli (GPa) = 22.55430 50.03973 49.41376
#
# Poissons Ratio (x) = 0.88983 0.47881
# Poissons Ratio (y) = 0.40107 0.18209
# Poissons Ratio (z) = 0.21855 0.18440
#
# Static dielectric constant tensor:
#      x y z
#    x 2.675510 0.000000 0.000000 
#    y 0.000000 2.947900 0.000000 
#    z 0.000000 0.000000 2.684580 
# 
# 
# High freq. dielectric constant tensor:
#      x y z
#    x 1.559240 0.000000 0.000000 
#    y 0.000000 1.588200 0.000000 
#    z 0.000000 0.000000 1.551230 
# 
# From -- ./inp_files/38345.got.cif
#   From: 2010.03.12/outbox.cif.g09.slc.cpg/sg53_20_cif.got.tgz:38345.got - 2010.04.16 14:36:59.
