data_PCOD8217764
_publ_section_title
;
Structure prediction by ZEFSAII (Michael W. Deem and Ramdas Pophale) SiO2 
 PCOD8217764
Probable space group: P M N A
;
_chemical_formula_sum "Si O2"
_cell_formula_units_Z 64
_cell_length_a 8.810188
_cell_length_b 21.740704
_cell_length_c 18.241494
_cell_angle_alpha 90.000000
_cell_angle_beta 90.000000
_cell_angle_gamma 90.000000
_cell_volume 3493.970097
_symmetry_space_group_name_H-M "P M N A"
_symmetry_group_IT_number 53
_symmetry_cell_setting 'orthorhombic'
loop_
_space_group_symop_operation_xyz
x,y,z
1/2-x,-y,1/2+z
x,-y,-z
1/2-x,y,1/2-z
-x,-y,-z
1/2+x,y,1/2-z
-x,y,z
1/2+x,-y,1/2+z
loop_
_atom_site_type_symbol
_atom_site_label
_atom_site_fract_x
_atom_site_fract_y
_atom_site_fract_z
Si Si1 0.174341 0.316769 0.042858
Si Si2 0.674907 0.743534 0.390019
Si Si3 0.319201 0.435400 0.534539
Si Si4 0.176365 0.879996 0.917489
Si Si5 0.167695 0.000836 0.587129
Si Si6 0.819573 0.623922 0.327009
Si Si7 0.321398 0.237056 0.327584
Si Si8 0.679220 0.135350 0.926117
O O1 0.250037 0.286375 0.114682
O O2 0.000000 0.327210 0.060994
O O3 0.194214 0.269753 0.975961
O O4 0.243406 0.383143 0.021431
O O5 0.500000 0.740777 0.365190
O O6 0.766599 0.693520 0.343323
O O7 0.741351 0.811771 0.377346
O O8 0.270264 0.500000 0.500000
O O9 0.500000 0.429881 0.545920
O O10 0.240799 0.424615 0.612809
O O11 0.218602 0.831550 0.854269
O O12 0.000000 0.877672 0.938052
O O13 0.218845 0.947514 0.885646
O O14 0.268574 0.862737 0.989821
O O15 0.223038 0.069302 0.610451
O O16 0.000000 0.987496 0.619317
O O17 0.160326 0.000000 0.500000
O O18 0.750000 0.602362 0.250000
O O19 0.000000 0.621565 0.324189
O O20 0.250000 0.251093 0.250000
O O21 0.500000 0.245485 0.321780
O O22 0.500000 0.145622 0.924962
#
# Coordination Sequence:
#
# PCOD8217764 Si02
#       8
#     8   8   8   8   8   8   8   8
#     4   8  15  31  51  72 103 134 168 214 260 308
#     4  10  18  32  54  78 105 138 174 219 269 316
#     4   9  18  35  61  88 113 148 185 219 268 317
#     4  10  18  29  45  65  92 127 170 220 270 322
#     4   8  16  28  41  63  95 126 158 205 261 316
#     4  11  22  37  57  84 116 149 185 223 268 320
#     4  10  20  33  47  68  96 133 175 221 271 317
#     4  10  18  28  45  72 102 130 165 211 267 325
#
# _framework density 18.317271999999999
#
# number of rings (size 3 to 8) (size 9 to 14) (size 15 to 20)
#    0.000    2.500    1.250    3.750    0.000    4.000 
#    0.000    1.250    0.000    2.250    0.000    1.750 
#    0.000    0.000    0.000    0.000    0.000    0.000 
#
# Total GULP energy -793294.107499 kJ/mol
# GULP energy per Si atom -12395.220430 kJ/mol
# Density = 1.827558 g / cm^3
# Si number density = 18.317272 Si / 1000 Ang^3
#
#
#
# Elastic Constant Matrix: (Units=GPa)
#
#
# Indices 1 2 3 4 5 6 
#
# 1 79.6359 47.5018 37.2691 0.0000 0.0000 0.0000
# 2 47.5018 144.5622 52.5946 0.0000 0.0000 0.0000
# 3 37.2691 52.5946 97.3377 0.0000 0.0000 0.0000
# 4 0.0000 0.0000 0.0000 11.7268 0.0000 0.0000
# 5 0.0000 0.0000 0.0000 0.0000 23.8678 0.0000
# 6 0.0000 0.0000 0.0000 0.0000 0.0000 25.6265
#
#
#
# Elastic Compliance Matrix: (Units=1/GPa)
#
#
# Indices 1 2 3 4 5 6 
#
# 1 0.016972 -0.003999 -0.004338 0.000000 0.000000 0.000000
# 2 -0.003999 0.009552 -0.003630 0.000000 0.000000 0.000000
# 3 -0.004338 -0.003630 0.013896 0.000000 0.000000 0.000000
# 4 0.000000 0.000000 0.000000 0.085275 0.000000 0.000000
# 5 0.000000 0.000000 0.000000 0.000000 0.041898 0.000000
# 6 0.000000 0.000000 0.000000 0.000000 0.000000 0.039022
#
#
# Mechanical properties :
#
#
# Convention : Reuss Voigt Hill
#
# Bulk Modulus (GPa) = 60.65454 66.25186 63.45320
# Shear Modulus (GPa) = 21.18247 24.52224 22.85235
#
# Velocity S-wave (km/s) = 3.40431 3.66286 3.53595
# Velocity P-wave (km/s) = 6.97407 7.35774 7.16847
#
# Compressibility (1/GPa) = 0.01648681
#
# Stress axis : x y z
#
# Youngs Moduli (GPa) = 58.91897 104.68825 71.96352
#
# Poissons Ratio (x) = 0.41863 0.31216
# Poissons Ratio (y) = 0.23561 0.26125
# Poissons Ratio (z) = 0.25558 0.38004
#
# Static dielectric constant tensor:
#      x y z
#    x 3.272900 0.000000 0.000000 
#    y 0.000000 3.711910 0.000000 
#    z 0.000000 0.000000 3.232630 
# 
# 
# High freq. dielectric constant tensor:
#      x y z
#    x 1.700660 0.000000 0.000000 
#    y 0.000000 1.717210 0.000000 
#    z 0.000000 0.000000 1.674480 
# 
# From -- ./inp_files/26914.got.cif
#   From: 2010.03.12/outbox.cif.g09.slc.cpg/sg53_14_cif.got.tgz:26914.got - 2010.04.16 14:36:59.
