data_PCOD8217030
_publ_section_title
;
Structure prediction by ZEFSAII (Michael W. Deem and Ramdas Pophale) SiO2 
 PCOD8217030
Probable space group: P N N A
;
_chemical_formula_sum "Si O2"
_cell_formula_units_Z 40
_cell_length_a 10.094520
_cell_length_b 18.028623
_cell_length_c 10.689622
_cell_angle_alpha 90.000000
_cell_angle_beta 90.000000
_cell_angle_gamma 90.000000
_cell_volume 1945.407466
_symmetry_space_group_name_H-M "P N N A"
_symmetry_group_IT_number 52
_symmetry_cell_setting 'orthorhombic'
loop_
_space_group_symop_operation_xyz
x,y,z
1/2-x,-y,z
x,1/2-y,1/2-z
1/2-x,1/2+y,1/2-z
-x,-y,-z
1/2+x,y,-z
-x,1/2+y,1/2+z
1/2+x,1/2-y,1/2+z
loop_
_atom_site_type_symbol
_atom_site_label
_atom_site_fract_x
_atom_site_fract_y
_atom_site_fract_z
Si Si1 0.099280 0.163191 0.243345
Si Si2 0.359528 0.413027 0.638501
Si Si3 0.898890 0.929721 0.252635
Si Si4 0.175562 0.926105 0.144561
Si Si5 0.873454 0.551462 0.974023
O O1 0.118003 0.250000 0.250000
O O2 0.219277 0.139561 0.153164
O O3 0.104942 0.117431 0.373816
O O4 0.959648 0.152014 0.173597
O O5 0.206636 0.388601 0.661602
O O6 0.394950 0.482141 0.727427
O O7 0.378151 0.437055 0.495347
O O8 0.848913 0.909731 0.392069
O O9 0.050140 0.904903 0.231250
O O10 0.250000 0.000000 0.191964
O O11 0.750000 0.500000 0.932326
O O12 0.000000 0.500000 0.000000
#
# Coordination Sequence:
#
# PCOD8217030 Si02
#       5
#     8   8   8   8   8
#     4  12  27  45  61  98 139 181 218 276 355 402
#     4  11  21  40  67  97 131 164 217 284 331 392
#     4  11  20  37  69 105 120 164 234 280 325 387
#     4  12  21  40  71  97 132 172 225 278 332 409
#     4  12  21  41  70  94 129 170 226 282 322 398
#
# _framework density 20.561243999999999
#
# number of rings (size 3 to 8) (size 9 to 14) (size 15 to 20)
#    0.000    0.400    8.000    3.600    0.000    0.000 
#   10.800    1.000    0.000    0.000    0.000    0.000 
#    0.000    0.000    0.000    0.000    0.000    0.000 
#
# Total GULP energy -495872.371576 kJ/mol
# GULP energy per Si atom -12396.809289 kJ/mol
# Density = 2.051445 g / cm^3
# Si number density = 20.561244 Si / 1000 Ang^3
#
#
#
# Elastic Constant Matrix: (Units=GPa)
#
#
# Indices 1 2 3 4 5 6 
#
# 1 159.1135 57.6741 21.5143 0.0000 0.0000 0.0000
# 2 57.6741 113.0056 30.8904 0.0000 0.0000 0.0000
# 3 21.5143 30.8904 113.1807 0.0000 0.0000 0.0000
# 4 0.0000 0.0000 0.0000 15.7909 0.0000 0.0000
# 5 0.0000 0.0000 0.0000 0.0000 33.2270 0.0000
# 6 0.0000 0.0000 0.0000 0.0000 0.0000 20.9483
#
#
#
# Elastic Compliance Matrix: (Units=1/GPa)
#
#
# Indices 1 2 3 4 5 6 
#
# 1 0.007730 -0.003829 -0.000424 0.000000 0.000000 0.000000
# 2 -0.003829 0.011459 -0.002400 0.000000 0.000000 0.000000
# 3 -0.000424 -0.002400 0.009571 0.000000 0.000000 0.000000
# 4 0.000000 0.000000 0.000000 0.063328 0.000000 0.000000
# 5 0.000000 0.000000 0.000000 0.000000 0.030096 0.000000
# 6 0.000000 0.000000 0.000000 0.000000 0.000000 0.047737
#
#
# Mechanical properties :
#
#
# Convention : Reuss Voigt Hill
#
# Bulk Modulus (GPa) = 64.70773 67.27305 65.99039
# Shear Modulus (GPa) = 26.54227 32.34130 29.44179
#
# Velocity S-wave (km/s) = 3.59679 3.97031 3.78816
# Velocity P-wave (km/s) = 6.98486 7.33534 7.16225
#
# Compressibility (1/GPa) = 0.01545410
#
# Stress axis : x y z
#
# Youngs Moduli (GPa) = 129.36301 87.26466 104.48192
#
# Poissons Ratio (x) = 0.33416 0.04433
# Poissons Ratio (y) = 0.49536 0.25073
# Poissons Ratio (z) = 0.05489 0.20941
#
# Static dielectric constant tensor:
#      x y z
#    x 4.265020 0.000000 0.000000 
#    y 0.000000 3.194800 0.000000 
#    z 0.000000 0.000000 4.074150 
# 
# 
# High freq. dielectric constant tensor:
#      x y z
#    x 1.833370 0.000000 0.000000 
#    y 0.000000 1.737860 0.000000 
#    z 0.000000 0.000000 1.824050 
# 
# From -- ./inp_files/16655.got.cif
#   From: 2010.06.25/outbox.cif.g09.slc.cpg/sg52_9_cif.got.tgz:16655.got - 2010.06.26 19:32:48.
