data_PCOD8217265
_publ_section_title
;
Structure prediction by ZEFSAII (Michael W. Deem and Ramdas Pophale) SiO2 
 PCOD8217265
Probable space group: P N N A
;
_chemical_formula_sum "Si O2"
_cell_formula_units_Z 48
_cell_length_a 10.214756
_cell_length_b 13.755327
_cell_length_c 14.984284
_cell_angle_alpha 90.000000
_cell_angle_beta 90.000000
_cell_angle_gamma 90.000000
_cell_volume 2105.401422
_symmetry_space_group_name_H-M "P N N A"
_symmetry_group_IT_number 52
_symmetry_cell_setting 'orthorhombic'
loop_
_space_group_symop_operation_xyz
x,y,z
1/2-x,-y,z
x,1/2-y,1/2-z
1/2-x,1/2+y,1/2-z
-x,-y,-z
1/2+x,y,-z
-x,1/2+y,1/2+z
1/2+x,1/2-y,1/2+z
loop_
_atom_site_type_symbol
_atom_site_label
_atom_site_fract_x
_atom_site_fract_y
_atom_site_fract_z
Si Si1 0.105568 0.380523 0.375381
Si Si2 0.866509 0.066424 0.427818
Si Si3 0.548898 0.602830 0.892859
Si Si4 0.884061 0.397936 0.687032
Si Si5 0.596164 0.297829 0.428455
Si Si6 0.644320 0.732875 0.343444
O O1 0.107498 0.494320 0.353031
O O2 0.249827 0.343610 0.344667
O O3 0.073127 0.351557 0.477734
O O4 0.984048 0.332665 0.323806
O O5 0.839284 0.102987 0.530258
O O6 0.898655 0.162187 0.374228
O O7 0.750000 0.000000 0.390472
O O8 0.994414 0.004366 0.407646
O O9 0.609429 0.611542 0.794324
O O10 0.439460 0.683186 0.922736
O O11 0.007834 0.343636 0.648097
O O12 0.749657 0.316029 0.408974
O O13 0.717995 0.750000 0.250000
#
# Coordination Sequence:
#
# PCOD8217265 Si02
#       6
#     8   8   8   8   8   8
#     4  11  26  47  69 103 144 189 244 296 371 436
#     4  11  24  43  73 103 148 189 237 302 374 437
#     4  11  24  45  71 107 144 190 241 302 368 439
#     4  11  26  47  73 105 141 192 243 299 365 442
#     4  12  24  46  71 103 142 189 237 302 364 437
#     4  12  25  45  71 106 140 186 243 299 362 437
#
# _framework density 22.798504000000001
#
# number of rings (size 3 to 8) (size 9 to 14) (size 15 to 20)
#    0.000    0.667    3.333    4.000    2.333    3.333 
#    0.000    0.000    0.000    0.000    0.000    0.000 
#    0.000    0.000    0.000    0.000    0.000    0.000 
#
# Total GULP energy -594696.069055 kJ/mol
# GULP energy per Si atom -12389.501439 kJ/mol
# Density = 2.274661 g / cm^3
# Si number density = 22.798504 Si / 1000 Ang^3
#
#
#
# Elastic Constant Matrix: (Units=GPa)
#
#
# Indices 1 2 3 4 5 6 
#
# 1 108.2620 47.8249 13.3593 0.0000 0.0000 0.0000
# 2 47.8249 83.2518 15.2402 0.0000 0.0000 0.0000
# 3 13.3593 15.2402 110.9044 0.0000 0.0000 0.0000
# 4 0.0000 0.0000 0.0000 187.2814 0.0000 0.0000
# 5 0.0000 0.0000 0.0000 0.0000 31.7392 0.0000
# 6 0.0000 0.0000 0.0000 0.0000 0.0000 22.1644
#
#
#
# Elastic Compliance Matrix: (Units=1/GPa)
#
#
# Indices 1 2 3 4 5 6 
#
# 1 0.012408 -0.007031 -0.000528 0.000000 0.000000 0.000000
# 2 -0.007031 0.016306 -0.001394 0.000000 0.000000 0.000000
# 3 -0.000528 -0.001394 0.009272 0.000000 0.000000 0.000000
# 4 0.000000 0.000000 0.000000 0.005340 0.000000 0.000000
# 5 0.000000 0.000000 0.000000 0.000000 0.031507 0.000000
# 6 0.000000 0.000000 0.000000 0.000000 0.000000 0.045117
#
#
# Mechanical properties :
#
#
# Convention : Reuss Voigt Hill
#
# Bulk Modulus (GPa) = 49.80268 50.58523 50.19395
# Shear Modulus (GPa) = 34.59015 63.30326 48.94671
#
# Velocity S-wave (km/s) = 3.89937 5.27510 4.63852
# Velocity P-wave (km/s) = 6.49350 7.70314 7.12404
#
# Compressibility (1/GPa) = 0.02007924
#
# Stress axis : x y z
#
# Youngs Moduli (GPa) = 80.59234 61.32680 107.85209
#
# Poissons Ratio (x) = 0.43120 0.05699
# Poissons Ratio (y) = 0.56666 0.15032
# Poissons Ratio (z) = 0.04259 0.08548
#
# Static dielectric constant tensor:
#      x y z
#    x 4.072980 0.000000 0.000000 
#    y 0.000000 4.238690 0.000000 
#    z 0.000000 0.000000 4.397720 
# 
# 
# High freq. dielectric constant tensor:
#      x y z
#    x 1.900220 0.000000 0.000000 
#    y 0.000000 1.907430 0.000000 
#    z 0.000000 0.000000 1.911750 
# 
# From -- ./inp_files/26074.got.cif
#   From: 2010.06.25/outbox.cif.g09.slc.cpg/sg52_14_cif.got.tgz:26074.got - 2010.06.26 19:32:48.
