data_PCOD8217941
_publ_section_title
;
Structure prediction by ZEFSAII (Michael W. Deem and Ramdas Pophale) SiO2 
 PCOD8217941
Probable space group: P M N A
;
_chemical_formula_sum "Si O2"
_cell_formula_units_Z 40
_cell_length_a 8.672119
_cell_length_b 25.584969
_cell_length_c 9.966596
_cell_angle_alpha 90.000000
_cell_angle_beta 90.000000
_cell_angle_gamma 90.000000
_cell_volume 2211.347415
_symmetry_space_group_name_H-M "P M N A"
_symmetry_group_IT_number 53
_symmetry_cell_setting 'orthorhombic'
loop_
_space_group_symop_operation_xyz
x,y,z
1/2-x,-y,1/2+z
x,-y,-z
1/2-x,y,1/2-z
-x,-y,-z
1/2+x,y,1/2-z
-x,y,z
1/2+x,-y,1/2+z
loop_
_atom_site_type_symbol
_atom_site_label
_atom_site_fract_x
_atom_site_fract_y
_atom_site_fract_z
Si Si1 0.682552 0.960141 0.389972
Si Si2 0.681782 0.157570 0.609582
Si Si3 0.318334 0.545564 0.602982
Si Si4 0.816770 0.348464 0.398467
Si Si5 0.682964 0.242660 0.397482
O O1 0.750000 0.979563 0.250000
O O2 0.500000 0.962624 0.383258
O O3 0.739278 0.901257 0.422914
O O4 0.748668 0.000000 0.500000
O O5 0.750000 0.177581 0.750000
O O6 0.500000 0.159529 0.622928
O O7 0.738701 0.194900 0.490162
O O8 0.274767 0.500000 0.500000
O O9 0.250000 0.533082 0.750000
O O10 0.500000 0.552910 0.618899
O O11 0.245747 0.598007 0.535730
O O12 0.750000 0.348632 0.250000
O O13 0.750226 0.295715 0.466057
O O14 0.000000 0.347442 0.400265
O O15 0.750000 0.232909 0.250000
O O16 0.500000 0.247029 0.387959
#
# Coordination Sequence:
#
# PCOD8217941 Si02
#       5
#     8   8   8   8   8
#     4   9  18  33  51  72  99 129 163 202 244 291
#     4   9  19  34  51  71  98 132 164 199 245 294
#     4  10  20  34  53  76 102 132 165 202 245 291
#     4  10  18  30  50  73  98 129 164 201 244 290
#     4  10  19  32  50  73  99 126 162 204 244 288
#
# _framework density 18.088519999999999
#
# number of rings (size 3 to 8) (size 9 to 14) (size 15 to 20)
#    0.000    2.400    0.000    5.400    0.000    4.400 
#    0.000    1.000    0.000    0.000    0.000    0.000 
#    0.000    0.000    0.000    0.000    0.000    0.000 
#
# Total GULP energy -495865.123324 kJ/mol
# GULP energy per Si atom -12396.628083 kJ/mol
# Density = 1.804735 g / cm^3
# Si number density = 18.088520 Si / 1000 Ang^3
#
#
#
# Elastic Constant Matrix: (Units=GPa)
#
#
# Indices 1 2 3 4 5 6 
#
# 1 77.7194 50.6694 38.0523 0.0000 0.0000 0.0000
# 2 50.6694 157.4436 92.5852 0.0000 0.0000 0.0000
# 3 38.0523 92.5852 106.5102 0.0000 0.0000 0.0000
# 4 0.0000 0.0000 0.0000 33.1694 0.0000 0.0000
# 5 0.0000 0.0000 0.0000 0.0000 27.3022 0.0000
# 6 0.0000 0.0000 0.0000 0.0000 0.0000 23.8781
#
#
#
# Elastic Compliance Matrix: (Units=1/GPa)
#
#
# Indices 1 2 3 4 5 6 
#
# 1 0.016638 -0.003803 -0.002638 0.000000 0.000000 0.000000
# 2 -0.003803 0.013863 -0.010691 0.000000 0.000000 0.000000
# 3 -0.002638 -0.010691 0.019625 0.000000 0.000000 0.000000
# 4 0.000000 0.000000 0.000000 0.030148 0.000000 0.000000
# 5 0.000000 0.000000 0.000000 0.000000 0.036627 0.000000
# 6 0.000000 0.000000 0.000000 0.000000 0.000000 0.041879
#
#
# Mechanical properties :
#
#
# Convention : Reuss Voigt Hill
#
# Bulk Modulus (GPa) = 63.05225 78.25412 70.65318
# Shear Modulus (GPa) = 25.21019 27.56104 26.38561
#
# Velocity S-wave (km/s) = 3.73730 3.90766 3.82343
# Velocity P-wave (km/s) = 7.31823 7.98220 7.65741
#
# Compressibility (1/GPa) = 0.01585986
#
# Stress axis : x y z
#
# Youngs Moduli (GPa) = 60.10348 72.13679 50.95537
#
# Poissons Ratio (x) = 0.27434 0.13444
# Poissons Ratio (y) = 0.22858 0.54479
# Poissons Ratio (z) = 0.15857 0.77125
#
# Static dielectric constant tensor:
#      x y z
#    x 3.330480 0.000000 0.000000 
#    y 0.000000 4.211700 0.000000 
#    z 0.000000 0.000000 3.177430 
# 
# 
# High freq. dielectric constant tensor:
#      x y z
#    x 1.707680 0.000000 0.000000 
#    y 0.000000 1.718300 0.000000 
#    z 0.000000 0.000000 1.671540 
# 
# From -- ./inp_files/6444.got.cif
#   From: 2010.03.12/outbox.cif.g09.slc.cpg/sg53_4_cif.got.tgz:6444.got - 2010.04.16 14:36:59.
