data_PCOD8217907
_publ_section_title
;
Structure prediction by ZEFSAII (Michael W. Deem and Ramdas Pophale) SiO2 
 PCOD8217907
Probable space group: P M N A
;
_chemical_formula_sum "Si O2"
_cell_formula_units_Z 64
_cell_length_a 9.090566
_cell_length_b 16.786994
_cell_length_c 26.705558
_cell_angle_alpha 90.000000
_cell_angle_beta 90.000000
_cell_angle_gamma 90.000000
_cell_volume 4075.355662
_symmetry_space_group_name_H-M "P M N A"
_symmetry_group_IT_number 53
_symmetry_cell_setting 'orthorhombic'
loop_
_space_group_symop_operation_xyz
x,y,z
1/2-x,-y,1/2+z
x,-y,-z
1/2-x,y,1/2-z
-x,-y,-z
1/2+x,y,1/2-z
-x,y,z
1/2+x,-y,1/2+z
loop_
_atom_site_type_symbol
_atom_site_label
_atom_site_fract_x
_atom_site_fract_y
_atom_site_fract_z
Si Si1 0.329412 0.329319 0.963641
Si Si2 0.169088 0.368353 0.424627
Si Si3 0.825671 0.903906 0.802525
Si Si4 0.671413 0.791074 0.874516
Si Si5 0.165173 0.969579 0.114588
Si Si6 0.166131 0.519764 0.058249
Si Si7 0.672293 0.849832 0.056208
Si Si8 0.168124 0.887639 0.957366
O O1 0.500000 0.348589 0.958269
O O2 0.244184 0.395892 0.931409
O O3 0.290250 0.243607 0.940312
O O4 0.281043 0.330934 0.021963
O O5 0.194806 0.303902 0.380587
O O6 0.259511 0.447770 0.410950
O O7 0.000000 0.393581 0.428053
O O8 0.750000 0.920248 0.750000
O O9 0.761001 0.822831 0.826587
O O10 0.000000 0.893357 0.796922
O O11 0.784676 0.978897 0.837455
O O12 0.500000 0.812400 0.868207
O O13 0.730276 0.829663 0.925189
O O14 0.274486 0.894384 0.107022
O O15 0.000000 0.937385 0.122788
O O16 0.172050 0.024280 0.065340
O O17 0.000000 0.527002 0.076664
O O18 0.180387 0.500000 0.000000
O O19 0.500000 0.863800 0.047161
O O20 0.765496 0.890712 0.012443
O O21 0.000000 0.855772 0.958108
#
# Coordination Sequence:
#
# PCOD8217907 Si02
#       8
#     8   8   8   8   8   8   8   8
#     4   9  17  29  40  56  85 121 156 188 225 262
#     4   9  16  28  43  59  86 120 151 186 224 263
#     4  10  21  37  54  71  92 118 148 186 234 279
#     4  10  18  30  48  70  92 118 155 190 227 274
#     4   9  20  34  45  63  88 116 148 184 230 276
#     4   9  17  26  38  59  82 112 155 191 220 257
#     4  11  20  29  43  64  88 119 158 193 225 267
#     4  10  19  30  43  60  89 123 153 188 229 268
#
# _framework density 15.704151
#
# number of rings (size 3 to 8) (size 9 to 14) (size 15 to 20)
#    0.000    2.375    1.250    3.000    0.000    8.000 
#    0.000    0.000    0.000    0.000    0.000    0.000 
#    0.000    1.000    0.000    7.000    0.000    5.125 
#
# Total GULP energy -793496.800230 kJ/mol
# GULP energy per Si atom -12398.387504 kJ/mol
# Density = 1.566841 g / cm^3
# Si number density = 15.704151 Si / 1000 Ang^3
#
#
#
# Elastic Constant Matrix: (Units=GPa)
#
#
# Indices 1 2 3 4 5 6 
#
# 1 95.2585 62.6362 38.7818 0.0000 0.0000 0.0000
# 2 62.6362 109.4722 44.6541 0.0000 0.0000 0.0000
# 3 38.7818 44.6541 59.2894 0.0000 0.0000 0.0000
# 4 0.0000 0.0000 0.0000 11.3711 0.0000 0.0000
# 5 0.0000 0.0000 0.0000 0.0000 18.4171 0.0000
# 6 0.0000 0.0000 0.0000 0.0000 0.0000 26.9757
#
#
#
# Elastic Compliance Matrix: (Units=1/GPa)
#
#
# Indices 1 2 3 4 5 6 
#
# 1 0.018130 -0.007991 -0.005841 0.000000 0.000000 0.000000
# 2 -0.007991 0.016708 -0.007356 0.000000 0.000000 0.000000
# 3 -0.005841 -0.007356 0.026227 0.000000 0.000000 0.000000
# 4 0.000000 0.000000 0.000000 0.087942 0.000000 0.000000
# 5 0.000000 0.000000 0.000000 0.000000 0.054297 0.000000
# 6 0.000000 0.000000 0.000000 0.000000 0.000000 0.037070
#
#
# Mechanical properties :
#
#
# Convention : Reuss Voigt Hill
#
# Bulk Modulus (GPa) = 53.50752 61.79604 57.65178
# Shear Modulus (GPa) = 17.30221 19.21598 18.25910
#
# Velocity S-wave (km/s) = 3.32288 3.50183 3.41353
# Velocity P-wave (km/s) = 6.99058 7.46900 7.23375
#
# Compressibility (1/GPa) = 0.01868896
#
# Stress axis : x y z
#
# Youngs Moduli (GPa) = 55.15743 59.85299 38.12811
#
# Poissons Ratio (x) = 0.47828 0.22269
# Poissons Ratio (y) = 0.44076 0.28049
# Poissons Ratio (z) = 0.32215 0.44031
#
# Static dielectric constant tensor:
#      x y z
#    x 3.082240 0.000000 0.000000 
#    y 0.000000 3.028480 0.000000 
#    z 0.000000 0.000000 2.597130 
# 
# 
# High freq. dielectric constant tensor:
#      x y z
#    x 1.617110 0.000000 0.000000 
#    y 0.000000 1.602450 0.000000 
#    z 0.000000 0.000000 1.543900 
# 
# From -- ./inp_files/36480.got.cif
#   From: 2010.03.12/outbox.cif.g09.slc.cpg/sg53_19_cif.got.tgz:36480.got - 2010.04.16 14:36:59.
