data_PCOD8217460
_publ_section_title
;
Structure prediction by ZEFSAII (Michael W. Deem and Ramdas Pophale) SiO2 
 PCOD8217460
Probable space group: P M N A
;
_chemical_formula_sum "Si O2"
_cell_formula_units_Z 64
_cell_length_a 8.869336
_cell_length_b 20.581898
_cell_length_c 19.489468
_cell_angle_alpha 90.000000
_cell_angle_beta 90.000000
_cell_angle_gamma 90.000000
_cell_volume 3557.758900
_symmetry_space_group_name_H-M "P M N A"
_symmetry_group_IT_number 53
_symmetry_cell_setting 'orthorhombic'
loop_
_space_group_symop_operation_xyz
x,y,z
1/2-x,-y,1/2+z
x,-y,-z
1/2-x,y,1/2-z
-x,-y,-z
1/2+x,y,1/2-z
-x,y,z
1/2+x,-y,1/2+z
loop_
_atom_site_type_symbol
_atom_site_label
_atom_site_fract_x
_atom_site_fract_y
_atom_site_fract_z
Si Si1 0.170600 0.805424 0.417355
Si Si2 0.320982 0.065074 0.577588
Si Si3 0.172450 0.671654 0.920027
Si Si4 0.332863 0.798689 0.919302
Si Si5 0.823760 0.575002 0.680118
Si Si6 0.175298 0.325888 0.918882
Si Si7 0.322377 0.425968 0.820618
Si Si8 0.178086 0.938794 0.571201
O O1 0.256789 0.868970 0.387952
O O2 0.173436 0.806411 0.499166
O O3 0.254813 0.741096 0.390462
O O4 0.000000 0.805361 0.389351
O O5 0.500000 0.062978 0.585801
O O6 0.272614 0.064266 0.498634
O O7 0.244378 0.000893 0.613130
O O8 0.217887 0.743704 0.893342
O O9 0.270344 0.616672 0.884227
O O10 0.000000 0.660016 0.901019
O O11 0.204394 0.666397 0.000464
O O12 0.500000 0.776969 0.896284
O O13 0.293914 0.870421 0.888455
O O14 0.750000 0.601451 0.750000
O O15 0.776483 0.500662 0.666681
O O16 0.000000 0.582536 0.688634
O O17 0.256687 0.386219 0.883858
O O18 0.000000 0.326421 0.900798
O O19 0.250000 0.400448 0.750000
O O20 0.500000 0.416181 0.816536
O O21 0.000000 0.947309 0.555671
#
# Coordination Sequence:
#
# PCOD8217460 Si02
#       8
#     8   8   8   8   8   8   8   8
#     4   9  16  27  41  58  85 121 158 196 238 286
#     4  10  16  21  32  52  79 113 153 195 237 283
#     4  10  20  32  49  73 101 131 163 200 245 292
#     4   8  15  26  40  58  84 119 157 196 238 283
#     4  10  21  37  56  75  98 127 162 201 243 291
#     4  10  20  33  50  74 102 131 163 202 244 291
#     4  10  21  37  56  76  98 128 162 200 244 291
#     4   9  15  23  34  50  76 114 156 194 234 283
#
# _framework density 17.988852000000001
#
# number of rings (size 3 to 8) (size 9 to 14) (size 15 to 20)
#    0.000    2.500    0.000    4.875    0.000    7.000 
#    0.000    2.500    0.000    0.000    0.000    0.000 
#    0.000    1.000    0.000    5.500    0.000    8.875 
#
# Total GULP energy -793314.070177 kJ/mol
# GULP energy per Si atom -12395.532347 kJ/mol
# Density = 1.794791 g / cm^3
# Si number density = 17.988852 Si / 1000 Ang^3
#
#
#
# Elastic Constant Matrix: (Units=GPa)
#
#
# Indices 1 2 3 4 5 6 
#
# 1 106.9794 61.2847 26.0519 0.0000 0.0000 0.0000
# 2 61.2847 134.6263 35.6401 0.0000 0.0000 0.0000
# 3 26.0519 35.6401 26.4160 0.0000 0.0000 0.0000
# 4 0.0000 0.0000 0.0000 1.4254 0.0000 0.0000
# 5 0.0000 0.0000 0.0000 0.0000 20.6425 0.0000
# 6 0.0000 0.0000 0.0000 0.0000 0.0000 35.0926
#
#
#
# Elastic Compliance Matrix: (Units=1/GPa)
#
#
# Indices 1 2 3 4 5 6 
#
# 1 0.013625 -0.004115 -0.007886 0.000000 0.000000 0.000000
# 2 -0.004115 0.012798 -0.013209 0.000000 0.000000 0.000000
# 3 -0.007886 -0.013209 0.063454 0.000000 0.000000 0.000000
# 4 0.000000 0.000000 0.000000 0.701571 0.000000 0.000000
# 5 0.000000 0.000000 0.000000 0.000000 0.048444 0.000000
# 6 0.000000 0.000000 0.000000 0.000000 0.000000 0.028496
#
#
# Mechanical properties :
#
#
# Convention : Reuss Voigt Hill
#
# Bulk Modulus (GPa) = 25.34307 57.10832 41.22569
# Shear Modulus (GPa) = 5.36504 21.10176 13.23340
#
# Velocity S-wave (km/s) = 1.72884 3.42869 2.71522
# Velocity P-wave (km/s) = 4.25488 6.89130 5.72687
#
# Compressibility (1/GPa) = 0.03945852
#
# Stress axis : x y z
#
# Youngs Moduli (GPa) = 73.39348 78.13783 15.75954
#
# Poissons Ratio (x) = 0.32153 0.12427
# Poissons Ratio (y) = 0.30201 0.20816
# Poissons Ratio (z) = 0.57876 1.03209
#
# Static dielectric constant tensor:
#      x y z
#    x 3.442120 0.000000 0.000000 
#    y 0.000000 3.943380 0.000000 
#    z 0.000000 0.000000 2.708010 
# 
# 
# High freq. dielectric constant tensor:
#      x y z
#    x 1.712850 0.000000 0.000000 
#    y 0.000000 1.720710 0.000000 
#    z 0.000000 0.000000 1.619460 
# 
# From -- ./inp_files/26967.got.cif
#   From: 2010.03.12/outbox.cif.g09.slc.cpg/sg53_14_cif.got.tgz:26967.got - 2010.04.16 14:36:59.
