data_PCOD8217962
_publ_section_title
;
Structure prediction by ZEFSAII (Michael W. Deem and Ramdas Pophale) SiO2 
 PCOD8217962
Probable space group: P M N A
;
_chemical_formula_sum "Si O2"
_cell_formula_units_Z 64
_cell_length_a 8.807316
_cell_length_b 14.776425
_cell_length_c 27.644908
_cell_angle_alpha 90.000000
_cell_angle_beta 90.000000
_cell_angle_gamma 90.000000
_cell_volume 3597.726139
_symmetry_space_group_name_H-M "P M N A"
_symmetry_group_IT_number 53
_symmetry_cell_setting 'orthorhombic'
loop_
_space_group_symop_operation_xyz
x,y,z
1/2-x,-y,1/2+z
x,-y,-z
1/2-x,y,1/2-z
-x,-y,-z
1/2+x,y,1/2-z
-x,y,z
1/2+x,-y,1/2+z
loop_
_atom_site_type_symbol
_atom_site_label
_atom_site_fract_x
_atom_site_fract_y
_atom_site_fract_z
Si Si1 0.176725 0.161724 0.967468
Si Si2 0.320442 0.343102 0.698829
Si Si3 0.321428 0.850730 0.575430
Si Si4 0.824681 0.535716 0.109900
Si Si5 0.179988 0.153628 0.698464
Si Si6 0.678008 0.653250 0.030400
Si Si7 0.175705 0.651816 0.928192
Si Si8 0.322157 0.031231 0.619564
O O1 0.258273 0.252356 0.949091
O O2 0.211098 0.081361 0.930797
O O3 0.000000 0.184652 0.970255
O O4 0.239668 0.135210 0.020650
O O5 0.250000 0.371821 0.750000
O O6 0.500000 0.330554 0.704340
O O7 0.276459 0.421851 0.661174
O O8 0.249699 0.248704 0.680208
O O9 0.500000 0.865186 0.574490
O O10 0.274287 0.749831 0.593649
O O11 0.260278 0.928464 0.611636
O O12 0.725453 0.574407 0.066636
O O13 0.795449 0.427111 0.111225
O O14 0.000000 0.557921 0.099112
O O15 0.250000 0.127651 0.750000
O O16 0.222971 0.074226 0.661825
O O17 0.000000 0.162927 0.702753
O O18 0.500000 0.659450 0.028512
O O19 0.735992 0.629351 0.977085
O O20 0.000000 0.657643 0.942918
O O21 0.500000 0.036634 0.633454
#
# Coordination Sequence:
#
# PCOD8217962 Si02
#       8
#     8   8   8   8   8   8   8   8
#     4   9  17  30  48  70  99 134 167 196 232 285
#     4  10  20  35  54  76 100 125 155 193 240 290
#     4   8  15  29  50  73  96 127 167 204 233 270
#     4  10  20  33  51  72  95 128 167 200 234 287
#     4  11  22  36  53  74 100 128 158 194 241 292
#     4  11  21  30  44  70 102 132 163 202 246 285
#     4   9  18  34  52  69  94 131 170 202 234 278
#     4  10  18  30  51  76  99 126 163 203 241 283
#
# _framework density 17.789014999999999
#
# number of rings (size 3 to 8) (size 9 to 14) (size 15 to 20)
#    0.000    2.250    0.000    5.625    0.000    8.000 
#    0.000    2.500    0.000    4.500    0.000    1.750 
#    0.000    0.000    0.000    0.000    0.000    0.000 
#
# Total GULP energy -793452.879382 kJ/mol
# GULP energy per Si atom -12397.701240 kJ/mol
# Density = 1.774853 g / cm^3
# Si number density = 17.789015 Si / 1000 Ang^3
#
#
#
# Elastic Constant Matrix: (Units=GPa)
#
#
# Indices 1 2 3 4 5 6 
#
# 1 76.0354 44.6341 36.6493 0.0000 0.0000 0.0000
# 2 44.6341 149.1925 76.1958 0.0000 0.0000 0.0000
# 3 36.6493 76.1958 84.0191 0.0000 0.0000 0.0000
# 4 0.0000 0.0000 0.0000 32.6883 0.0000 0.0000
# 5 0.0000 0.0000 0.0000 0.0000 22.6117 0.0000
# 6 0.0000 0.0000 0.0000 0.0000 0.0000 11.6282
#
#
#
# Elastic Compliance Matrix: (Units=1/GPa)
#
#
# Indices 1 2 3 4 5 6 
#
# 1 0.017115 -0.002436 -0.005257 0.000000 0.000000 0.000000
# 2 -0.002436 0.012832 -0.010575 0.000000 0.000000 0.000000
# 3 -0.005257 -0.010575 0.023785 0.000000 0.000000 0.000000
# 4 0.000000 0.000000 0.000000 0.030592 0.000000 0.000000
# 5 0.000000 0.000000 0.000000 0.000000 0.044225 0.000000
# 6 0.000000 0.000000 0.000000 0.000000 0.000000 0.085998
#
#
# Mechanical properties :
#
#
# Convention : Reuss Voigt Hill
#
# Bulk Modulus (GPa) = 58.14621 69.35615 63.75118
# Shear Modulus (GPa) = 19.46921 23.50349 21.48635
#
# Velocity S-wave (km/s) = 3.31184 3.63882 3.47917
# Velocity P-wave (km/s) = 6.88345 7.53177 7.21490
#
# Compressibility (1/GPa) = 0.01719803
#
# Stress axis : x y z
#
# Youngs Moduli (GPa) = 58.42704 77.92834 42.04246
#
# Poissons Ratio (x) = 0.18980 0.22101
# Poissons Ratio (y) = 0.14230 0.44460
# Poissons Ratio (z) = 0.30715 0.82409
#
# Static dielectric constant tensor:
#      x y z
#    x 3.142870 0.000000 0.000000 
#    y 0.000000 3.568730 0.000000 
#    z 0.000000 0.000000 3.178370 
# 
# 
# High freq. dielectric constant tensor:
#      x y z
#    x 1.674050 0.000000 0.000000 
#    y 0.000000 1.694050 0.000000 
#    z 0.000000 0.000000 1.664850 
# 
# From -- ./inp_files/38505.got.cif
#   From: 2010.03.12/outbox.cif.g09.slc.cpg/sg53_20_cif.got.tgz:38505.got - 2010.04.16 14:36:59.
