data_PCOD8217499
_publ_section_title
;
Structure prediction by ZEFSAII (Michael W. Deem and Ramdas Pophale) SiO2 
 PCOD8217499
Probable space group: P M N A
;
_chemical_formula_sum "Si O2"
_cell_formula_units_Z 56
_cell_length_a 9.075420
_cell_length_b 17.866525
_cell_length_c 20.147343
_cell_angle_alpha 90.000000
_cell_angle_beta 90.000000
_cell_angle_gamma 90.000000
_cell_volume 3266.815477
_symmetry_space_group_name_H-M "P M N A"
_symmetry_group_IT_number 53
_symmetry_cell_setting 'orthorhombic'
loop_
_space_group_symop_operation_xyz
x,y,z
1/2-x,-y,1/2+z
x,-y,-z
1/2-x,y,1/2-z
-x,-y,-z
1/2+x,y,1/2-z
-x,y,z
1/2+x,-y,1/2+z
loop_
_atom_site_type_symbol
_atom_site_label
_atom_site_fract_x
_atom_site_fract_y
_atom_site_fract_z
Si Si1 0.672062 0.926020 0.182472
Si Si2 0.332751 0.202098 0.611775
Si Si3 0.827722 0.040711 0.433067
Si Si4 0.827218 0.661663 0.554594
Si Si5 0.830278 0.638452 0.080528
Si Si6 0.163490 0.478738 0.077386
Si Si7 0.327772 0.190478 0.456398
O O1 0.750000 0.950316 0.250000
O O2 0.500000 0.920527 0.195380
O O3 0.725606 0.844801 0.158381
O O4 0.712617 0.987671 0.128047
O O5 0.500000 0.176725 0.625937
O O6 0.310261 0.290492 0.629501
O O7 0.292671 0.189224 0.534756
O O8 0.738496 0.116796 0.422760
O O9 0.000000 0.059655 0.436828
O O10 0.774655 0.000000 0.500000
O O11 0.785161 0.647599 0.478641
O O12 0.773658 0.588734 0.596742
O O13 0.748106 0.737806 0.578598
O O14 0.000000 0.671107 0.563603
O O15 0.800496 0.557647 0.115791
O O16 0.000000 0.640213 0.052444
O O17 0.000000 0.450978 0.095761
O O18 0.174376 0.500000 0.000000
O O19 0.500000 0.194263 0.441924
#
# Coordination Sequence:
#
# PCOD8217499 Si02
#       7
#     8   8   8   8   8   8   8
#     4  11  23  37  53  72  99 131 161 201 249 298
#     4   9  17  30  47  68  93 122 161 200 239 287
#     4  10  20  35  53  74  99 124 159 206 255 296
#     4  10  17  23  35  57  88 121 155 195 238 281
#     4   8  15  26  39  57  83 119 157 194 233 280
#     4   8  13  23  36  51  80 119 156 190 231 280
#     4  10  19  30  47  69  93 124 162 201 242 294
#
# _framework density 17.142074999999998
#
# number of rings (size 3 to 8) (size 9 to 14) (size 15 to 20)
#    0.000    2.571    1.429    3.857    0.000    6.286 
#    0.000    0.000    0.000    0.000    0.000    0.000 
#    0.000    1.143    0.000    8.286    0.000    6.429 
#
# Total GULP energy -694036.328125 kJ/mol
# GULP energy per Si atom -12393.505859 kJ/mol
# Density = 1.710306 g / cm^3
# Si number density = 17.142075 Si / 1000 Ang^3
#
#
#
# Elastic Constant Matrix: (Units=GPa)
#
#
# Indices 1 2 3 4 5 6 
#
# 1 98.5352 74.3886 32.3518 0.0000 0.0000 0.0000
# 2 74.3886 167.2485 39.3510 0.0000 0.0000 0.0000
# 3 32.3518 39.3510 51.6926 0.0000 0.0000 0.0000
# 4 0.0000 0.0000 0.0000 10.2894 0.0000 0.0000
# 5 0.0000 0.0000 0.0000 0.0000 15.1012 0.0000
# 6 0.0000 0.0000 0.0000 0.0000 0.0000 31.7501
#
#
#
# Elastic Compliance Matrix: (Units=1/GPa)
#
#
# Indices 1 2 3 4 5 6 
#
# 1 0.016597 -0.006015 -0.005808 0.000000 0.000000 0.000000
# 2 -0.006015 0.009464 -0.003440 0.000000 0.000000 0.000000
# 3 -0.005808 -0.003440 0.025598 0.000000 0.000000 0.000000
# 4 0.000000 0.000000 0.000000 0.097187 0.000000 0.000000
# 5 0.000000 0.000000 0.000000 0.000000 0.066220 0.000000
# 6 0.000000 0.000000 0.000000 0.000000 0.000000 0.031496
#
#
# Mechanical properties :
#
#
# Convention : Reuss Voigt Hill
#
# Bulk Modulus (GPa) = 47.31878 67.73989 57.52933
# Shear Modulus (GPa) = 17.59738 22.85378 20.22558
#
# Velocity S-wave (km/s) = 3.20747 3.65526 3.43866
# Velocity P-wave (km/s) = 6.43281 7.57741 7.02845
#
# Compressibility (1/GPa) = 0.02113326
#
# Stress axis : x y z
#
# Youngs Moduli (GPa) = 60.25234 105.66385 39.06487
#
# Poissons Ratio (x) = 0.63561 0.22688
# Poissons Ratio (y) = 0.36244 0.13437
# Poissons Ratio (z) = 0.34994 0.36345
#
# Static dielectric constant tensor:
#      x y z
#    x 3.145290 0.000000 0.000000 
#    y 0.000000 3.772920 0.000000 
#    z 0.000000 0.000000 2.595750 
# 
# 
# High freq. dielectric constant tensor:
#      x y z
#    x 1.664620 0.000000 0.000000 
#    y 0.000000 1.688700 0.000000 
#    z 0.000000 0.000000 1.577170 
# 
# From -- ./inp_files/30977.got.cif
#   From: 2010.03.12/outbox.cif.g09.slc.cpg/sg53_16_cif.got.tgz:30977.got - 2010.04.16 14:36:59.
