data_PCOD8217913
_publ_section_title
;
Structure prediction by ZEFSAII (Michael W. Deem and Ramdas Pophale) SiO2 
 PCOD8217913
Probable space group: P M N A
;
_chemical_formula_sum "Si O2"
_cell_formula_units_Z 48
_cell_length_a 9.062827
_cell_length_b 11.931684
_cell_length_c 25.073758
_cell_angle_alpha 90.000000
_cell_angle_beta 90.000000
_cell_angle_gamma 90.000000
_cell_volume 2711.345503
_symmetry_space_group_name_H-M "P M N A"
_symmetry_group_IT_number 53
_symmetry_cell_setting 'orthorhombic'
loop_
_space_group_symop_operation_xyz
x,y,z
1/2-x,-y,1/2+z
x,-y,-z
1/2-x,y,1/2-z
-x,-y,-z
1/2+x,y,1/2-z
-x,y,z
1/2+x,-y,1/2+z
loop_
_atom_site_type_symbol
_atom_site_label
_atom_site_fract_x
_atom_site_fract_y
_atom_site_fract_z
Si Si1 0.328263 0.233208 0.590807
Si Si2 0.169507 0.874121 0.196320
Si Si3 0.827175 0.869740 0.805986
Si Si4 0.173900 0.627936 0.497724
Si Si5 0.326549 0.784248 0.905545
Si Si6 0.160296 0.992209 0.939931
O O1 0.500000 0.252093 0.578170
O O2 0.297049 0.227371 0.654569
O O3 0.238722 0.324255 0.557519
O O4 0.272425 0.111018 0.574928
O O5 0.250000 0.841261 0.250000
O O6 0.000000 0.876943 0.211375
O O7 0.210499 0.001173 0.175536
O O8 0.750000 0.844545 0.750000
O O9 0.761729 0.781518 0.849410
O O10 0.000000 0.847629 0.799093
O O11 0.226240 0.500000 0.500000
O O12 0.228008 0.689335 0.552162
O O13 0.000000 0.640002 0.493203
O O14 0.500000 0.773670 0.894343
O O15 0.287791 0.902167 0.932001
O O16 0.000000 0.967130 0.909654
O O17 0.114788 0.000000 0.000000
#
# Coordination Sequence:
#
# PCOD8217913 Si02
#       6
#     8   8   8   8   8   8
#     4  10  19  33  53  77 105 137 174 213 258 313
#     4   9  18  31  48  74 108 141 169 202 247 305
#     4  10  19  33  51  76 111 145 173 208 255 308
#     4  10  23  40  54  73 103 138 177 223 270 310
#     4  11  21  32  51  77 105 139 177 215 259 316
#     4  10  18  30  48  73 107 140 166 206 265 318
#
# _framework density 17.703388
#
# number of rings (size 3 to 8) (size 9 to 14) (size 15 to 20)
#    0.000    2.000    3.333    1.000    0.000    3.333 
#    0.000    0.000    0.000    1.000    0.000    2.333 
#    0.000    0.000    0.000    0.000    0.000    0.000 
#
# Total GULP energy -594643.518142 kJ/mol
# GULP energy per Si atom -12388.406628 kJ/mol
# Density = 1.766309 g / cm^3
# Si number density = 17.703388 Si / 1000 Ang^3
#
#
#
# Elastic Constant Matrix: (Units=GPa)
#
#
# Indices 1 2 3 4 5 6 
#
# 1 62.0663 33.7093 51.3789 0.0000 0.0000 0.0000
# 2 33.7093 96.4037 57.9333 0.0000 0.0000 0.0000
# 3 51.3789 57.9333 127.3853 0.0000 0.0000 0.0000
# 4 0.0000 0.0000 0.0000 13.5381 0.0000 0.0000
# 5 0.0000 0.0000 0.0000 0.0000 34.4997 0.0000
# 6 0.0000 0.0000 0.0000 0.0000 0.0000 19.5362
#
#
#
# Elastic Compliance Matrix: (Units=1/GPa)
#
#
# Indices 1 2 3 4 5 6 
#
# 1 0.025115 -0.003708 -0.008444 0.000000 0.000000 0.000000
# 2 -0.003708 0.014822 -0.005245 0.000000 0.000000 0.000000
# 3 -0.008444 -0.005245 0.013641 0.000000 0.000000 0.000000
# 4 0.000000 0.000000 0.000000 0.073865 0.000000 0.000000
# 5 0.000000 0.000000 0.000000 0.000000 0.028986 0.000000
# 6 0.000000 0.000000 0.000000 0.000000 0.000000 0.051187
#
#
# Mechanical properties :
#
#
# Convention : Reuss Voigt Hill
#
# Bulk Modulus (GPa) = 53.23435 63.54425 58.38930
# Shear Modulus (GPa) = 20.10686 23.03705 21.57195
#
# Velocity S-wave (km/s) = 3.37376 3.61124 3.49452
# Velocity P-wave (km/s) = 6.73141 7.30478 7.02395
#
# Compressibility (1/GPa) = 0.01878486
#
# Stress axis : x y z
#
# Youngs Moduli (GPa) = 39.81640 67.46896 73.30728
#
# Poissons Ratio (x) = 0.25017 0.61897
# Poissons Ratio (y) = 0.14764 0.38451
# Poissons Ratio (z) = 0.33619 0.35389
#
# Static dielectric constant tensor:
#      x y z
#    x 3.160620 0.000000 0.000000 
#    y 0.000000 3.007690 0.000000 
#    z 0.000000 0.000000 3.506430 
# 
# 
# High freq. dielectric constant tensor:
#      x y z
#    x 1.683480 0.000000 0.000000 
#    y 0.000000 1.637420 0.000000 
#    z 0.000000 0.000000 1.704690 
# 
# From -- ./inp_files/36150.got.cif
#   From: 2010.03.12/outbox.cif.g09.slc.cpg/sg53_19_cif.got.tgz:36150.got - 2010.04.16 14:36:59.
