data_PCOD8217691
_publ_section_title
;
Structure prediction by ZEFSAII (Michael W. Deem and Ramdas Pophale) SiO2 
 PCOD8217691
Probable space group: P M N A
;
_chemical_formula_sum "Si O2"
_cell_formula_units_Z 64
_cell_length_a 8.991779
_cell_length_b 17.189674
_cell_length_c 26.947757
_cell_angle_alpha 90.000000
_cell_angle_beta 90.000000
_cell_angle_gamma 90.000000
_cell_volume 4165.200263
_symmetry_space_group_name_H-M "P M N A"
_symmetry_group_IT_number 53
_symmetry_cell_setting 'orthorhombic'
loop_
_space_group_symop_operation_xyz
x,y,z
1/2-x,-y,1/2+z
x,-y,-z
1/2-x,y,1/2-z
-x,-y,-z
1/2+x,y,1/2-z
-x,y,z
1/2+x,-y,1/2+z
loop_
_atom_site_type_symbol
_atom_site_label
_atom_site_fract_x
_atom_site_fract_y
_atom_site_fract_z
Si Si1 0.823145 0.145978 0.577768
Si Si2 0.176690 0.584157 0.196774
Si Si3 0.832198 0.720923 0.126075
Si Si4 0.169737 0.402647 0.956279
Si Si5 0.823553 0.820972 0.532243
Si Si6 0.336585 0.018469 0.057836
Si Si7 0.828873 0.487518 0.382852
Si Si8 0.328390 0.349026 0.052195
O O1 0.762635 0.199929 0.622350
O O2 0.768003 0.180307 0.524835
O O3 0.000000 0.145186 0.580623
O O4 0.759141 0.056941 0.583849
O O5 0.250000 0.582031 0.250000
O O6 0.227559 0.663736 0.169407
O O7 0.232589 0.509746 0.165352
O O8 0.000000 0.578898 0.200700
O O9 0.819616 0.677425 0.073729
O O10 0.000000 0.745063 0.138207
O O11 0.274266 0.466436 0.931133
O O12 0.000000 0.433171 0.956933
O O13 0.225201 0.389789 0.011706
O O14 0.755074 0.896559 0.561972
O O15 0.777130 0.740781 0.559420
O O16 0.000000 0.832553 0.531924
O O17 0.500000 0.025661 0.081769
O O18 0.351214 0.000000 0.000000
O O19 0.810432 0.395637 0.395879
O O20 0.000000 0.508599 0.372161
O O21 0.500000 0.351474 0.033950
#
# Coordination Sequence:
#
# PCOD8217691 Si02
#       8
#     8   8   8   8   8   8   8   8
#     4   9  14  22  40  60  79 109 148 180 205 240
#     4  10  21  37  53  67  84 108 137 172 218 263
#     4   9  18  29  41  61  86 110 137 172 214 256
#     4  10  19  29  40  56  83 117 149 180 216 252
#     4   8  13  22  36  56  83 113 146 182 212 236
#     4   7  11  19  33  55  79 106 143 181 208 232
#     4  10  20  31  44  63  85 109 142 178 214 259
#     4  10  18  27  41  61  84 114 149 182 214 249
#
# _framework density 15.365408
#
# number of rings (size 3 to 8) (size 9 to 14) (size 15 to 20)
#    0.000    2.875    1.250    3.750    0.000    5.000 
#    0.000    0.000    0.000    4.125    0.000    0.000 
#    0.000    1.000    0.000    4.250    0.000    2.750 
#
# Total GULP energy -792837.306682 kJ/mol
# GULP energy per Si atom -12388.082917 kJ/mol
# Density = 1.533044 g / cm^3
# Si number density = 15.365408 Si / 1000 Ang^3
#
#
#
# Elastic Constant Matrix: (Units=GPa)
#
#
# Indices 1 2 3 4 5 6 
#
# 1 46.4356 31.5807 25.8490 0.0000 0.0000 0.0000
# 2 31.5807 122.5696 50.0643 0.0000 0.0000 0.0000
# 3 25.8490 50.0643 69.3230 0.0000 0.0000 0.0000
# 4 0.0000 0.0000 0.0000 12.3468 0.0000 0.0000
# 5 0.0000 0.0000 0.0000 0.0000 18.5790 0.0000
# 6 0.0000 0.0000 0.0000 0.0000 0.0000 10.4205
#
#
#
# Elastic Compliance Matrix: (Units=1/GPa)
#
#
# Indices 1 2 3 4 5 6 
#
# 1 0.028680 -0.004286 -0.007599 0.000000 0.000000 0.000000
# 2 -0.004286 0.012213 -0.007222 0.000000 0.000000 0.000000
# 3 -0.007599 -0.007222 0.022474 0.000000 0.000000 0.000000
# 4 0.000000 0.000000 0.000000 0.080992 0.000000 0.000000
# 5 0.000000 0.000000 0.000000 0.000000 0.053824 0.000000
# 6 0.000000 0.000000 0.000000 0.000000 0.000000 0.095965
#
#
# Mechanical properties :
#
#
# Convention : Reuss Voigt Hill
#
# Bulk Modulus (GPa) = 39.75540 50.36846 45.06193
# Shear Modulus (GPa) = 14.67369 16.99154 15.83262
#
# Velocity S-wave (km/s) = 3.09363 3.32901 3.21348
# Velocity P-wave (km/s) = 6.22015 6.90130 6.56956
#
# Compressibility (1/GPa) = 0.02515381
#
# Stress axis : x y z
#
# Youngs Moduli (GPa) = 34.86745 81.88232 44.49531
#
# Poissons Ratio (x) = 0.35092 0.33812
# Poissons Ratio (y) = 0.14943 0.32134
# Poissons Ratio (z) = 0.26496 0.59134
#
# Static dielectric constant tensor:
#      x y z
#    x 2.776190 0.000000 0.000000 
#    y 0.000000 3.365550 0.000000 
#    z 0.000000 0.000000 2.550690 
# 
# 
# High freq. dielectric constant tensor:
#      x y z
#    x 1.572410 0.000000 0.000000 
#    y 0.000000 1.599660 0.000000 
#    z 0.000000 0.000000 1.530160 
# 
# From -- ./inp_files/34582.got.cif
#   From: 2010.03.12/outbox.cif.g09.slc.cpg/sg53_18_cif.got.tgz:34582.got - 2010.04.16 14:36:59.
