data_PCOD8217388
_publ_section_title
;
Structure prediction by ZEFSAII (Michael W. Deem and Ramdas Pophale) SiO2 
 PCOD8217388
Probable space group: P N N A
;
_chemical_formula_sum "Si O2"
_cell_formula_units_Z 32
_cell_length_a 8.633332
_cell_length_b 32.525538
_cell_length_c 5.031597
_cell_angle_alpha 90.000000
_cell_angle_beta 90.000000
_cell_angle_gamma 90.000000
_cell_volume 1412.891397
_symmetry_space_group_name_H-M "P N N A"
_symmetry_group_IT_number 52
_symmetry_cell_setting 'orthorhombic'
loop_
_space_group_symop_operation_xyz
x,y,z
1/2-x,-y,z
x,1/2-y,1/2-z
1/2-x,1/2+y,1/2-z
-x,-y,-z
1/2+x,y,-z
-x,1/2+y,1/2+z
1/2+x,1/2-y,1/2+z
loop_
_atom_site_type_symbol
_atom_site_label
_atom_site_fract_x
_atom_site_fract_y
_atom_site_fract_z
Si Si1 0.464638 0.297018 0.208307
Si Si2 0.631378 0.328362 0.706115
Si Si3 0.868286 0.577715 0.779353
Si Si4 0.702742 0.953488 0.224110
O O1 0.416084 0.250000 0.250000
O O2 0.595996 0.311005 0.414495
O O3 0.313936 0.325115 0.242887
O O4 0.533191 0.301976 0.915092
O O5 0.582101 0.375710 0.722157
O O6 0.742459 0.561021 0.571900
O O7 0.019287 0.549366 0.762573
O O8 0.793376 0.575659 0.070541
O O9 0.750000 0.000000 0.278232
#
# Coordination Sequence:
#
# PCOD8217388 Si02
#       4
#     8   8   8   8
#     4  12  24  42  64  92 124 162 208 260 316 378
#     4  12  25  43  66  94 127 168 211 262 318 379
#     4  12  24  43  65  94 129 168 213 262 317 379
#     4  12  24  42  66  96 130 170 214 264 318 378
#
# _framework density 22.648591
#
# number of rings (size 3 to 8) (size 9 to 14) (size 15 to 20)
#    0.000    0.000    0.000   12.000    0.000    0.000 
#    0.000    0.000    0.000    0.000    0.000    0.000 
#    0.000    0.000    0.000    0.000    0.000    0.000 
#
# Total GULP energy -397247.304317 kJ/mol
# GULP energy per Si atom -12413.978260 kJ/mol
# Density = 2.259704 g / cm^3
# Si number density = 22.648591 Si / 1000 Ang^3
#
#
#
# Elastic Constant Matrix: (Units=GPa)
#
#
# Indices 1 2 3 4 5 6 
#
# 1 99.6494 -13.4616 19.7924 0.0000 0.0000 0.0000
# 2 -13.4616 99.2537 15.8579 0.0000 0.0000 0.0000
# 3 19.7924 15.8579 83.0877 0.0000 0.0000 0.0000
# 4 0.0000 0.0000 0.0000 28.2279 0.0000 0.0000
# 5 0.0000 0.0000 0.0000 0.0000 26.8671 0.0000
# 6 0.0000 0.0000 0.0000 0.0000 0.0000 35.9407
#
#
#
# Elastic Compliance Matrix: (Units=1/GPa)
#
#
# Indices 1 2 3 4 5 6 
#
# 1 0.010888 0.001951 -0.002966 0.000000 0.000000 0.000000
# 2 0.001951 0.010742 -0.002515 0.000000 0.000000 0.000000
# 3 -0.002966 -0.002515 0.013222 0.000000 0.000000 0.000000
# 4 0.000000 0.000000 0.000000 0.035426 0.000000 0.000000
# 5 0.000000 0.000000 0.000000 0.000000 0.037220 0.000000
# 6 0.000000 0.000000 0.000000 0.000000 0.000000 0.027824
#
#
# Mechanical properties :
#
#
# Convention : Reuss Voigt Hill
#
# Bulk Modulus (GPa) = 35.98274 36.26315 36.12294
# Shear Modulus (GPa) = 32.97177 35.52728 34.24953
#
# Velocity S-wave (km/s) = 3.81963 3.96489 3.89294
# Velocity P-wave (km/s) = 5.94766 6.08329 6.01586
#
# Compressibility (1/GPa) = 0.02779110
#
# Stress axis : x y z
#
# Youngs Moduli (GPa) = 91.84626 93.09662 75.63191
#
# Poissons Ratio (x) = -0.18159 0.22431
# Poissons Ratio (y) = -0.17915 0.19019
# Poissons Ratio (z) = 0.27240 0.23411
#
# Static dielectric constant tensor:
#      x y z
#    x 3.985140 0.000000 0.000000 
#    y 0.000000 4.094980 0.000000 
#    z 0.000000 0.000000 4.243350 
# 
# 
# High freq. dielectric constant tensor:
#      x y z
#    x 1.902140 0.000000 0.000000 
#    y 0.000000 1.904380 0.000000 
#    z 0.000000 0.000000 1.908710 
# 
# From -- ./inp_files/400.got.cif
#   From: 2010.06.25/outbox.cif.g09.slc.cpg/sg52_1_cif.got.tgz:400.got - 2010.06.26 19:32:48.
