data_PCOD8217582
_publ_section_title
;
Structure prediction by ZEFSAII (Michael W. Deem and Ramdas Pophale) SiO2 
 PCOD8217582
Probable space group: P M N A
;
_chemical_formula_sum "Si O2"
_cell_formula_units_Z 32
_cell_length_a 8.446909
_cell_length_b 11.621068
_cell_length_c 17.791938
_cell_angle_alpha 90.000000
_cell_angle_beta 90.000000
_cell_angle_gamma 90.000000
_cell_volume 1746.494066
_symmetry_space_group_name_H-M "P M N A"
_symmetry_group_IT_number 53
_symmetry_cell_setting 'orthorhombic'
loop_
_space_group_symop_operation_xyz
x,y,z
1/2-x,-y,1/2+z
x,-y,-z
1/2-x,y,1/2-z
-x,-y,-z
1/2+x,y,1/2-z
-x,y,z
1/2+x,-y,1/2+z
loop_
_atom_site_type_symbol
_atom_site_label
_atom_site_fract_x
_atom_site_fract_y
_atom_site_fract_z
Si Si1 0.816108 0.662148 0.547736
Si Si2 0.185805 0.873407 0.024290
Si Si3 0.813933 0.762554 0.326933
Si Si4 0.315030 0.446116 0.600950
O O1 0.737030 0.788340 0.543717
O O2 0.788108 0.603310 0.467485
O O3 0.735629 0.580273 0.611792
O O4 0.000000 0.675609 0.565650
O O5 0.269856 0.842481 0.102598
O O6 0.000000 0.863926 0.037583
O O7 0.239329 0.000000 0.000000
O O8 0.750000 0.820701 0.250000
O O9 0.730553 0.635875 0.329764
O O10 0.000000 0.746731 0.323974
O O11 0.500000 0.437587 0.582321
#
# Coordination Sequence:
#
# PCOD8217582 Si02
#       4
#     8   8   8   8
#     4  10  17  27  45  70  98 126 159 199 245 292
#     4  10  20  34  52  75 103 136 176 218 259 304
#     4  11  21  34  52  75 103 133 169 211 260 313
#     4  10  17  28  46  69  97 126 158 196 244 295
#
# _framework density 18.322420000000001
#
# number of rings (size 3 to 8) (size 9 to 14) (size 15 to 20)
#    0.000    1.750    0.000   12.000    0.000    2.000 
#    0.000    0.000    0.000    1.500    0.000    3.500 
#    0.000    0.000    0.000    0.000    0.000    0.000 
#
# Total GULP energy -396609.872488 kJ/mol
# GULP energy per Si atom -12394.058515 kJ/mol
# Density = 1.828072 g / cm^3
# Si number density = 18.322420 Si / 1000 Ang^3
#
#
#
# Elastic Constant Matrix: (Units=GPa)
#
#
# Indices 1 2 3 4 5 6 
#
# 1 100.0018 42.6590 26.7074 0.0000 0.0000 0.0000
# 2 42.6590 148.2321 38.5309 0.0000 0.0000 0.0000
# 3 26.7074 38.5309 60.6478 0.0000 0.0000 0.0000
# 4 0.0000 0.0000 0.0000 15.5476 0.0000 0.0000
# 5 0.0000 0.0000 0.0000 0.0000 19.7533 0.0000
# 6 0.0000 0.0000 0.0000 0.0000 0.0000 27.8714
#
#
#
# Elastic Compliance Matrix: (Units=1/GPa)
#
#
# Indices 1 2 3 4 5 6 
#
# 1 0.012062 -0.002504 -0.003721 0.000000 0.000000 0.000000
# 2 -0.002504 0.008600 -0.004361 0.000000 0.000000 0.000000
# 3 -0.003721 -0.004361 0.020898 0.000000 0.000000 0.000000
# 4 0.000000 0.000000 0.000000 0.064319 0.000000 0.000000
# 5 0.000000 0.000000 0.000000 0.000000 0.050624 0.000000
# 6 0.000000 0.000000 0.000000 0.000000 0.000000 0.035879
#
#
# Mechanical properties :
#
#
# Convention : Reuss Voigt Hill
#
# Bulk Modulus (GPa) = 49.04864 58.29735 53.67300
# Shear Modulus (GPa) = 22.69113 26.03343 24.36228
#
# Velocity S-wave (km/s) = 3.52296 3.77351 3.65038
# Velocity P-wave (km/s) = 6.58606 7.13249 6.86471
#
# Compressibility (1/GPa) = 0.02038792
#
# Stress axis : x y z
#
# Youngs Moduli (GPa) = 82.90723 116.27261 47.85145
#
# Poissons Ratio (x) = 0.29115 0.17804
# Poissons Ratio (y) = 0.20760 0.20870
# Poissons Ratio (z) = 0.30847 0.50711
#
# Static dielectric constant tensor:
#      x y z
#    x 3.400400 0.000000 0.000000 
#    y 0.000000 3.928540 0.000000 
#    z 0.000000 0.000000 3.262850 
# 
# 
# High freq. dielectric constant tensor:
#      x y z
#    x 1.732180 0.000000 0.000000 
#    y 0.000000 1.706540 0.000000 
#    z 0.000000 0.000000 1.661680 
# 
# From -- ./inp_files/25751.got.cif
#   From: 2010.03.12/outbox.cif.g09.slc.cpg/sg53_13_cif.got.tgz:25751.got - 2010.04.16 14:36:59.
