data_PCOD8217915
_publ_section_title
;
Structure prediction by ZEFSAII (Michael W. Deem and Ramdas Pophale) SiO2 
 PCOD8217915
Probable space group: P M N A
;
_chemical_formula_sum "Si O2"
_cell_formula_units_Z 48
_cell_length_a 9.169948
_cell_length_b 11.826937
_cell_length_c 25.011610
_cell_angle_alpha 90.000000
_cell_angle_beta 90.000000
_cell_angle_gamma 90.000000
_cell_volume 2712.569065
_symmetry_space_group_name_H-M "P M N A"
_symmetry_group_IT_number 53
_symmetry_cell_setting 'orthorhombic'
loop_
_space_group_symop_operation_xyz
x,y,z
1/2-x,-y,1/2+z
x,-y,-z
1/2-x,y,1/2-z
-x,-y,-z
1/2+x,y,1/2-z
-x,y,z
1/2+x,-y,1/2+z
loop_
_atom_site_type_symbol
_atom_site_label
_atom_site_fract_x
_atom_site_fract_y
_atom_site_fract_z
Si Si1 0.170792 0.227924 0.598681
Si Si2 0.172831 0.858701 0.194510
Si Si3 0.830920 0.882476 0.803221
Si Si4 0.170525 0.631190 0.503512
Si Si5 0.169230 0.776026 0.912036
Si Si6 0.344243 0.983395 0.939651
O O1 0.264662 0.236177 0.653178
O O2 0.227734 0.310400 0.551290
O O3 0.208477 0.101425 0.582749
O O4 0.000000 0.250078 0.609986
O O5 0.250000 0.829802 0.250000
O O6 0.000000 0.843014 0.199504
O O7 0.214006 0.989596 0.178711
O O8 0.750000 0.843135 0.750000
O O9 0.793074 0.789375 0.848902
O O10 0.000000 0.881788 0.789716
O O11 0.207877 0.500000 0.500000
O O12 0.244503 0.677005 0.557724
O O13 0.000000 0.655954 0.509521
O O14 0.000000 0.753853 0.921598
O O15 0.212995 0.895754 0.936534
O O16 0.500000 0.944136 0.912417
O O17 0.384209 0.000000 0.000000
#
# Coordination Sequence:
#
# PCOD8217915 Si02
#       6
#     8   8   8   8   8   8
#     4  10  19  32  52  77 105 138 175 217 260 309
#     4  10  19  32  49  75 110 144 175 208 255 311
#     4   9  19  32  47  73 107 141 172 205 249 307
#     4  10  22  40  58  76 101 138 183 223 263 315
#     4  11  21  33  51  78 111 138 171 217 265 316
#     4  10  18  30  48  74 106 139 174 208 255 317
#
# _framework density 17.695402000000001
#
# number of rings (size 3 to 8) (size 9 to 14) (size 15 to 20)
#    0.000    2.000    3.333    1.000    0.000    3.333 
#    0.000    0.000    0.000    1.000    0.000    2.333 
#    0.000    0.000    0.000    0.000    0.000    0.000 
#
# Total GULP energy -594727.991225 kJ/mol
# GULP energy per Si atom -12390.166484 kJ/mol
# Density = 1.765513 g / cm^3
# Si number density = 17.695402 Si / 1000 Ang^3
#
#
#
# Elastic Constant Matrix: (Units=GPa)
#
#
# Indices 1 2 3 4 5 6 
#
# 1 66.4479 42.0303 63.2295 0.0000 0.0000 0.0000
# 2 42.0303 73.5957 56.5214 0.0000 0.0000 0.0000
# 3 63.2295 56.5214 133.7531 0.0000 0.0000 0.0000
# 4 0.0000 0.0000 0.0000 12.7554 0.0000 0.0000
# 5 0.0000 0.0000 0.0000 0.0000 32.5144 0.0000
# 6 0.0000 0.0000 0.0000 0.0000 0.0000 15.7174
#
#
#
# Elastic Compliance Matrix: (Units=1/GPa)
#
#
# Indices 1 2 3 4 5 6 
#
# 1 0.031406 -0.009673 -0.010759 0.000000 0.000000 0.000000
# 2 -0.009673 0.023095 -0.005187 0.000000 0.000000 0.000000
# 3 -0.010759 -0.005187 0.014754 0.000000 0.000000 0.000000
# 4 0.000000 0.000000 0.000000 0.078398 0.000000 0.000000
# 5 0.000000 0.000000 0.000000 0.000000 0.030756 0.000000
# 6 0.000000 0.000000 0.000000 0.000000 0.000000 0.063624
#
#
# Mechanical properties :
#
#
# Convention : Reuss Voigt Hill
#
# Bulk Modulus (GPa) = 55.49997 66.37323 60.93660
# Shear Modulus (GPa) = 16.70695 19.66512 18.18603
#
# Velocity S-wave (km/s) = 3.07602 3.33725 3.20930
# Velocity P-wave (km/s) = 6.63687 7.24154 6.94579
#
# Compressibility (1/GPa) = 0.01801803
#
# Stress axis : x y z
#
# Youngs Moduli (GPa) = 31.84155 43.29850 67.77597
#
# Poissons Ratio (x) = 0.41882 0.72919
# Poissons Ratio (y) = 0.30800 0.35156
# Poissons Ratio (z) = 0.34258 0.22459
#
# Static dielectric constant tensor:
#      x y z
#    x 3.305960 0.000000 0.000000 
#    y 0.000000 2.988180 0.000000 
#    z 0.000000 0.000000 3.476770 
# 
# 
# High freq. dielectric constant tensor:
#      x y z
#    x 1.687810 0.000000 0.000000 
#    y 0.000000 1.638270 0.000000 
#    z 0.000000 0.000000 1.693620 
# 
# From -- ./inp_files/33848.got.cif
#   From: 2010.03.12/outbox.cif.g09.slc.cpg/sg53_17_cif.got.tgz:33848.got - 2010.04.16 14:36:59.
