data_PCOD8217257
_publ_section_title
;
Structure prediction by ZEFSAII (Michael W. Deem and Ramdas Pophale) SiO2 
 PCOD8217257
Probable space group: P N N A
;
_chemical_formula_sum "Si O2"
_cell_formula_units_Z 56
_cell_length_a 13.989790
_cell_length_b 12.093513
_cell_length_c 15.069043
_cell_angle_alpha 90.000000
_cell_angle_beta 90.000000
_cell_angle_gamma 90.000000
_cell_volume 2549.466697
_symmetry_space_group_name_H-M "P N N A"
_symmetry_group_IT_number 52
_symmetry_cell_setting 'orthorhombic'
loop_
_space_group_symop_operation_xyz
x,y,z
1/2-x,-y,z
x,1/2-y,1/2-z
1/2-x,1/2+y,1/2-z
-x,-y,-z
1/2+x,y,-z
-x,1/2+y,1/2+z
1/2+x,1/2-y,1/2+z
loop_
_atom_site_type_symbol
_atom_site_label
_atom_site_fract_x
_atom_site_fract_y
_atom_site_fract_z
Si Si1 0.981186 0.971201 0.101662
Si Si2 0.361139 0.898188 0.513302
Si Si3 0.796937 0.160552 0.625949
Si Si4 0.877347 0.186007 0.163456
Si Si5 0.337805 0.787058 0.845057
Si Si6 0.316352 0.095995 0.176603
Si Si7 0.426420 0.133923 0.525014
O O1 0.940959 0.076942 0.153818
O O2 0.904289 0.874026 0.105379
O O3 0.075656 0.927371 0.149076
O O4 0.000000 0.000000 0.000000
O O5 0.284224 0.896203 0.434272
O O6 0.328032 0.819204 0.592106
O O7 0.460079 0.866199 0.465897
O O8 0.374614 0.020202 0.556472
O O9 0.807782 0.095970 0.717428
O O10 0.774540 0.289968 0.638689
O O11 0.899715 0.151542 0.578102
O O12 0.915499 0.250000 0.250000
O O13 0.765352 0.156462 0.172124
O O14 0.886204 0.263581 0.078637
O O15 0.381357 0.750000 0.750000
O O16 0.250000 0.000000 0.136363
#
# Coordination Sequence:
#
# PCOD8217257 Si02
#       7
#     8   8   8   8   8   8   8
#     4  12  28  47  74 106 147 188 243 303 371 443
#     4  11  24  42  75 100 142 180 240 296 355 428
#     4  11  24  47  70 103 143 186 244 297 357 441
#     4  11  26  45  70 103 142 184 236 296 365 441
#     4  11  26  45  73 105 141 190 235 300 367 439
#     4  11  27  44  72 102 145 192 238 294 364 432
#     4  11  24  43  70 105 136 187 239 294 363 422
#
# _framework density 21.965378000000001
#
# number of rings (size 3 to 8) (size 9 to 14) (size 15 to 20)
#    0.000    0.857    1.429    4.286   10.000    2.286 
#    0.000    0.000    0.000    0.000    0.000    0.000 
#    0.000    0.000    0.000    0.000    0.000    0.000 
#
# Total GULP energy -694621.773502 kJ/mol
# GULP energy per Si atom -12403.960241 kJ/mol
# Density = 2.191538 g / cm^3
# Si number density = 21.965378 Si / 1000 Ang^3
#
#
#
# Elastic Constant Matrix: (Units=GPa)
#
#
# Indices 1 2 3 4 5 6 
#
# 1 97.5577 27.6114 32.3476 0.0000 0.0000 0.0000
# 2 27.6114 86.6695 15.8234 0.0000 0.0000 0.0000
# 3 32.3476 15.8234 95.9904 0.0000 0.0000 0.0000
# 4 0.0000 0.0000 0.0000 35.3241 0.0000 0.0000
# 5 0.0000 0.0000 0.0000 0.0000 28.6805 0.0000
# 6 0.0000 0.0000 0.0000 0.0000 0.0000 40.5556
#
#
#
# Elastic Compliance Matrix: (Units=1/GPa)
#
#
# Indices 1 2 3 4 5 6 
#
# 1 0.012384 -0.003282 -0.003632 0.000000 0.000000 0.000000
# 2 -0.003282 0.012766 -0.000998 0.000000 0.000000 0.000000
# 3 -0.003632 -0.000998 0.011806 0.000000 0.000000 0.000000
# 4 0.000000 0.000000 0.000000 0.028309 0.000000 0.000000
# 5 0.000000 0.000000 0.000000 0.000000 0.034867 0.000000
# 6 0.000000 0.000000 0.000000 0.000000 0.000000 0.024657
#
#
# Mechanical properties :
#
#
# Convention : Reuss Voigt Hill
#
# Bulk Modulus (GPa) = 47.32444 47.97583 47.65014
# Shear Modulus (GPa) = 33.86203 34.54107 34.20155
#
# Velocity S-wave (km/s) = 3.93059 3.96981 3.95025
# Velocity P-wave (km/s) = 6.49548 6.54992 6.52276
#
# Compressibility (1/GPa) = 0.02113073
#
# Stress axis : x y z
#
# Youngs Moduli (GPa) = 80.75222 78.33321 84.70094
#
# Poissons Ratio (x) = 0.25710 0.30764
# Poissons Ratio (y) = 0.26503 0.08456
# Poissons Ratio (z) = 0.29330 0.07821
#
# Static dielectric constant tensor:
#      x y z
#    x 4.035580 0.000000 0.000000 
#    y 0.000000 4.191200 0.000000 
#    z 0.000000 0.000000 3.967020 
# 
# 
# High freq. dielectric constant tensor:
#      x y z
#    x 1.872780 0.000000 0.000000 
#    y 0.000000 1.882220 0.000000 
#    z 0.000000 0.000000 1.863640 
# 
# From -- ./inp_files/27270.got.cif
#   From: 2010.06.25/outbox.cif.g09.slc.cpg/sg52_14_cif.got.tgz:27270.got - 2010.06.26 19:32:48.
