data_PCOD8217345
_publ_section_title
;
Structure prediction by ZEFSAII (Michael W. Deem and Ramdas Pophale) SiO2 
 PCOD8217345
Probable space group: P N N A
;
_chemical_formula_sum "Si O2"
_cell_formula_units_Z 24
_cell_length_a 13.275783
_cell_length_b 5.061996
_cell_length_c 13.466105
_cell_angle_alpha 90.000000
_cell_angle_beta 90.000000
_cell_angle_gamma 90.000000
_cell_volume 904.948656
_symmetry_space_group_name_H-M "P N N A"
_symmetry_group_IT_number 52
_symmetry_cell_setting 'orthorhombic'
loop_
_space_group_symop_operation_xyz
x,y,z
1/2-x,-y,z
x,1/2-y,1/2-z
1/2-x,1/2+y,1/2-z
-x,-y,-z
1/2+x,y,-z
-x,1/2+y,1/2+z
1/2+x,1/2-y,1/2+z
loop_
_atom_site_type_symbol
_atom_site_label
_atom_site_fract_x
_atom_site_fract_y
_atom_site_fract_z
Si Si1 0.145021 0.152492 0.046809
Si Si2 0.250000 0.000000 0.315218
Si Si3 0.818364 0.250000 0.250000
Si Si4 0.540244 0.097405 0.145866
O O1 0.157588 0.413997 0.114240
O O2 0.250000 0.000000 0.031575
O O3 0.098148 0.251500 0.942762
O O4 0.071551 0.963986 0.109737
O O5 0.214557 0.750000 0.250000
O O6 0.750000 0.500000 0.217043
O O7 0.892243 0.331797 0.340531
O O8 0.539460 0.250000 0.250000
#
# Coordination Sequence:
#
# PCOD8217345 Si02
#       4
#     8   4   4   8
#     4  11  28  52  89 130 170 231 292 356 440 531
#     4  12  28  54  90 122 172 228 286 362 434 506
#     4  12  26  50  84 118 170 230 282 352 438 510
#     4  11  28  53  88 129 177 226 289 362 438 526
#
# _framework density 26.520838999999999
#
# number of rings (size 3 to 8) (size 9 to 14) (size 15 to 20)
#    0.000    0.667    3.333    1.000    7.000    5.333 
#    3.000    6.667    0.000    2.000    0.000    0.000 
#    0.000    0.000    0.000    0.000    0.000    0.000 
#
# Total GULP energy -297481.072918 kJ/mol
# GULP energy per Si atom -12395.044705 kJ/mol
# Density = 2.646048 g / cm^3
# Si number density = 26.520839 Si / 1000 Ang^3
#
#
#
# Elastic Constant Matrix: (Units=GPa)
#
#
# Indices 1 2 3 4 5 6 
#
# 1 187.8641 57.4947 90.6946 0.0000 0.0000 0.0000
# 2 57.4947 142.4178 87.0906 0.0000 0.0000 0.0000
# 3 90.6946 87.0906 259.1740 0.0000 0.0000 0.0000
# 4 0.0000 0.0000 0.0000 36.8937 0.0000 0.0000
# 5 0.0000 0.0000 0.0000 0.0000 67.8517 0.0000
# 6 0.0000 0.0000 0.0000 0.0000 0.0000 27.5501
#
#
#
# Elastic Compliance Matrix: (Units=1/GPa)
#
#
# Indices 1 2 3 4 5 6 
#
# 1 0.006681 -0.001595 -0.001802 0.000000 0.000000 0.000000
# 2 -0.001595 0.009219 -0.002539 0.000000 0.000000 0.000000
# 3 -0.001802 -0.002539 0.005342 0.000000 0.000000 0.000000
# 4 0.000000 0.000000 0.000000 0.027105 0.000000 0.000000
# 5 0.000000 0.000000 0.000000 0.000000 0.014738 0.000000
# 6 0.000000 0.000000 0.000000 0.000000 0.000000 0.036297
#
#
# Mechanical properties :
#
#
# Convention : Reuss Voigt Hill
#
# Bulk Modulus (GPa) = 106.73922 117.77953 112.25938
# Shear Modulus (GPa) = 43.71448 50.07085 46.89266
#
# Velocity S-wave (km/s) = 4.06434 4.34980 4.20949
# Velocity P-wave (km/s) = 7.89682 8.35071 8.12693
#
# Compressibility (1/GPa) = 0.00936863
#
# Stress axis : x y z
#
# Youngs Moduli (GPa) = 149.67527 108.47698 187.18522
#
# Poissons Ratio (x) = 0.17305 0.33729
# Poissons Ratio (y) = 0.23878 0.47535
# Poissons Ratio (z) = 0.26970 0.27547
#
# Static dielectric constant tensor:
#      x y z
#    x 5.076180 0.000000 0.000000 
#    y 0.000000 4.797670 0.000000 
#    z 0.000000 0.000000 5.161410 
# 
# 
# High freq. dielectric constant tensor:
#      x y z
#    x 2.083090 0.000000 0.000000 
#    y 0.000000 2.049620 0.000000 
#    z 0.000000 0.000000 2.080120 
# 
# From -- ./inp_files/26502.got.cif
#   From: 2010.06.25/outbox.cif.g09.slc.cpg/sg52_14_cif.got.tgz:26502.got - 2010.06.26 19:32:48.
