data_PCOD8217327
_publ_section_title
;
Structure prediction by ZEFSAII (Michael W. Deem and Ramdas Pophale) SiO2 
 PCOD8217327
Probable space group: P N N A
;
_chemical_formula_sum "Si O2"
_cell_formula_units_Z 60
_cell_length_a 17.531916
_cell_length_b 8.576261
_cell_length_c 17.546972
_cell_angle_alpha 90.000000
_cell_angle_beta 90.000000
_cell_angle_gamma 90.000000
_cell_volume 2638.332660
_symmetry_space_group_name_H-M "P N N A"
_symmetry_group_IT_number 52
_symmetry_cell_setting 'orthorhombic'
loop_
_space_group_symop_operation_xyz
x,y,z
1/2-x,-y,z
x,1/2-y,1/2-z
1/2-x,1/2+y,1/2-z
-x,-y,-z
1/2+x,y,-z
-x,1/2+y,1/2+z
1/2+x,1/2-y,1/2+z
loop_
_atom_site_type_symbol
_atom_site_label
_atom_site_fract_x
_atom_site_fract_y
_atom_site_fract_z
Si Si1 0.124437 0.207820 0.622465
Si Si2 0.184068 0.286732 0.468005
Si Si3 0.159567 0.019036 0.763300
Si Si4 0.529625 0.634791 0.945131
Si Si5 0.147087 0.626603 0.448713
Si Si6 0.046857 0.750000 0.750000
Si Si7 0.089616 0.109816 0.339981
Si Si8 0.171819 0.921120 0.214534
O O1 0.174878 0.188095 0.545807
O O2 0.135839 0.058632 0.676449
O O3 0.144346 0.354616 0.673045
O O4 0.038310 0.226564 0.594677
O O5 0.154231 0.460445 0.490337
O O6 0.272671 0.282029 0.447325
O O7 0.136674 0.222940 0.395926
O O8 0.250000 0.000000 0.765067
O O9 0.105754 0.874711 0.786143
O O10 0.582917 0.763142 0.987909
O O11 0.579847 0.555172 0.880626
O O12 0.500000 0.500000 0.000000
O O13 0.120919 0.598632 0.361107
O O14 0.991900 0.815033 0.682784
O O15 0.135582 0.059208 0.265180
O O16 0.183309 0.750000 0.250000
O O17 0.250000 0.000000 0.186381
#
# Coordination Sequence:
#
# PCOD8217327 Si02
#       8
#     8   8   8   8   8   4   8   8
#     4  11  26  48  74  98 147 181 240 309 370 427
#     4  11  25  49  70 113 145 194 243 298 366 446
#     4  11  27  51  75 106 134 188 246 310 379 430
#     4  12  26  48  68 104 146 195 241 297 367 436
#     4  11  26  44  72 106 149 194 244 289 370 435
#     4  12  26  44  76 108 144 182 250 306 364 448
#     4  12  26  42  72 109 147 195 239 292 359 438
#     4  12  24  42  70 108 157 201 241 294 350 438
#
# _framework density 22.741634999999999
#
# number of rings (size 3 to 8) (size 9 to 14) (size 15 to 20)
#    0.000    0.533    5.333    2.400    6.533    2.667 
#    0.000    0.000    0.000    0.000    0.000    0.000 
#    0.000    0.000    0.000    0.000    0.000    0.000 
#
# Total GULP energy -743736.297079 kJ/mol
# GULP energy per Si atom -12395.604951 kJ/mol
# Density = 2.268987 g / cm^3
# Si number density = 22.741635 Si / 1000 Ang^3
#
#
#
# Elastic Constant Matrix: (Units=GPa)
#
#
# Indices 1 2 3 4 5 6 
#
# 1 152.3362 56.7988 35.7491 0.0000 0.0000 0.0000
# 2 56.7988 86.3212 19.0764 0.0000 0.0000 0.0000
# 3 35.7491 19.0764 85.0627 0.0000 0.0000 0.0000
# 4 0.0000 0.0000 0.0000 29.0233 0.0000 0.0000
# 5 0.0000 0.0000 0.0000 0.0000 40.6166 0.0000
# 6 0.0000 0.0000 0.0000 0.0000 0.0000 48.1662
#
#
#
# Elastic Compliance Matrix: (Units=1/GPa)
#
#
# Indices 1 2 3 4 5 6 
#
# 1 0.009233 -0.005490 -0.002649 0.000000 0.000000 0.000000
# 2 -0.005490 0.015453 -0.001158 0.000000 0.000000 0.000000
# 3 -0.002649 -0.001158 0.013129 0.000000 0.000000 0.000000
# 4 0.000000 0.000000 0.000000 0.034455 0.000000 0.000000
# 5 0.000000 0.000000 0.000000 0.000000 0.024620 0.000000
# 6 0.000000 0.000000 0.000000 0.000000 0.000000 0.020761
#
#
# Mechanical properties :
#
#
# Convention : Reuss Voigt Hill
#
# Bulk Modulus (GPa) = 52.02795 60.77432 56.40114
# Shear Modulus (GPa) = 35.04999 37.70095 36.37547
#
# Velocity S-wave (km/s) = 3.93010 4.07602 4.00373
# Velocity P-wave (km/s) = 6.59710 6.99527 6.79910
#
# Compressibility (1/GPa) = 0.01922044
#
# Stress axis : x y z
#
# Youngs Moduli (GPa) = 108.30717 64.71285 76.16635
#
# Poissons Ratio (x) = 0.35526 0.20178
# Poissons Ratio (y) = 0.59459 0.08823
# Poissons Ratio (z) = 0.28692 0.07496
#
# Static dielectric constant tensor:
#      x y z
#    x 4.031240 0.000000 0.000000 
#    y 0.000000 4.301680 0.000000 
#    z 0.000000 0.000000 4.218540 
# 
# 
# High freq. dielectric constant tensor:
#      x y z
#    x 1.901730 0.000000 0.000000 
#    y 0.000000 1.907450 0.000000 
#    z 0.000000 0.000000 1.896820 
# 
# From -- ./inp_files/33766.got.cif
#   From: 2010.06.25/outbox.cif.g09.slc.cpg/sg52_17_cif.got.tgz:33766.got - 2010.06.26 19:32:48.
