data_PCOD8217333
_publ_section_title
;
Structure prediction by ZEFSAII (Michael W. Deem and Ramdas Pophale) SiO2 
 PCOD8217333
Probable space group: P N N A
;
_chemical_formula_sum "Si O2"
_cell_formula_units_Z 48
_cell_length_a 11.343988
_cell_length_b 11.902763
_cell_length_c 15.963645
_cell_angle_alpha 90.000000
_cell_angle_beta 90.000000
_cell_angle_gamma 90.000000
_cell_volume 2155.487984
_symmetry_space_group_name_H-M "P N N A"
_symmetry_group_IT_number 52
_symmetry_cell_setting 'orthorhombic'
loop_
_space_group_symop_operation_xyz
x,y,z
1/2-x,-y,z
x,1/2-y,1/2-z
1/2-x,1/2+y,1/2-z
-x,-y,-z
1/2+x,y,-z
-x,1/2+y,1/2+z
1/2+x,1/2-y,1/2+z
loop_
_atom_site_type_symbol
_atom_site_label
_atom_site_fract_x
_atom_site_fract_y
_atom_site_fract_z
Si Si1 0.064209 0.976594 0.710529
Si Si2 0.688037 0.750000 0.750000
Si Si3 0.669833 0.103132 0.622777
Si Si4 0.773306 0.669411 0.180089
Si Si5 0.533638 0.598726 0.635271
Si Si6 0.658982 0.286258 0.477464
Si Si7 0.750000 0.500000 0.555564
O O1 0.137416 0.068876 0.659226
O O2 0.048666 0.025541 0.803880
O O3 0.145577 0.866246 0.715752
O O4 0.947629 0.953093 0.658511
O O5 0.768406 0.840529 0.702925
O O6 0.604298 0.695666 0.681647
O O7 0.637487 0.195416 0.551826
O O8 0.750000 0.000000 0.587386
O O9 0.832305 0.750000 0.250000
O O10 0.759175 0.731474 0.092680
O O11 0.461625 0.660317 0.560513
O O12 0.627864 0.505868 0.605814
O O13 0.744666 0.385722 0.504414
#
# Coordination Sequence:
#
# PCOD8217333 Si02
#       7
#     8   4   8   8   8   8   4
#     4  11  26  45  77 106 144 202 253 307 373 455
#     4  12  24  50  74 106 148 198 248 310 378 460
#     4  12  28  47  77 113 151 196 257 317 381 460
#     4  11  26  48  70 107 151 197 253 309 374 459
#     4  12  24  49  75 107 149 201 253 309 384 450
#     4  12  29  46  75 110 152 199 248 321 389 447
#     4  12  28  48  74 110 152 190 252 324 378 456
#
# _framework density 22.268739
#
# number of rings (size 3 to 8) (size 9 to 14) (size 15 to 20)
#    0.000    0.333    5.000    2.500    8.167    0.667 
#    0.000    0.000    0.000    0.000    0.000    0.000 
#    0.000    0.000    0.000    0.000    0.000    0.000 
#
# Total GULP energy -595133.719821 kJ/mol
# GULP energy per Si atom -12398.619163 kJ/mol
# Density = 2.221805 g / cm^3
# Si number density = 22.268739 Si / 1000 Ang^3
#
#
#
# Elastic Constant Matrix: (Units=GPa)
#
#
# Indices 1 2 3 4 5 6 
#
# 1 127.2484 53.1416 37.1586 0.0000 0.0000 0.0000
# 2 53.1416 128.8484 53.4098 0.0000 0.0000 0.0000
# 3 37.1586 53.4098 97.3858 0.0000 0.0000 0.0000
# 4 0.0000 0.0000 0.0000 43.3850 0.0000 0.0000
# 5 0.0000 0.0000 0.0000 0.0000 27.6161 0.0000
# 6 0.0000 0.0000 0.0000 0.0000 0.0000 28.5029
#
#
#
# Elastic Compliance Matrix: (Units=1/GPa)
#
#
# Indices 1 2 3 4 5 6 
#
# 1 0.009776 -0.003217 -0.001966 0.000000 0.000000 0.000000
# 2 -0.003217 0.011103 -0.004862 0.000000 0.000000 0.000000
# 3 -0.001966 -0.004862 0.013685 0.000000 0.000000 0.000000
# 4 0.000000 0.000000 0.000000 0.023049 0.000000 0.000000
# 5 0.000000 0.000000 0.000000 0.000000 0.036211 0.000000
# 6 0.000000 0.000000 0.000000 0.000000 0.000000 0.035084
#
#
# Mechanical properties :
#
#
# Convention : Reuss Voigt Hill
#
# Bulk Modulus (GPa) = 69.08605 71.21139 70.14872
# Shear Modulus (GPa) = 32.50478 33.88563 33.19521
#
# Velocity S-wave (km/s) = 3.82469 3.90509 3.86510
# Velocity P-wave (km/s) = 7.11305 7.23744 7.17552
#
# Compressibility (1/GPa) = 0.01447470
#
# Stress axis : x y z
#
# Youngs Moduli (GPa) = 102.28856 90.06358 73.07315
#
# Poissons Ratio (x) = 0.28975 0.14365
# Poissons Ratio (y) = 0.32908 0.35527
# Poissons Ratio (z) = 0.20108 0.43788
#
# Static dielectric constant tensor:
#      x y z
#    x 4.085040 0.000000 0.000000 
#    y 0.000000 4.313680 0.000000 
#    z 0.000000 0.000000 4.186920 
# 
# 
# High freq. dielectric constant tensor:
#      x y z
#    x 1.884300 0.000000 0.000000 
#    y 0.000000 1.899630 0.000000 
#    z 0.000000 0.000000 1.873820 
# 
# From -- ./inp_files/32263.got.cif
#   From: 2010.06.25/outbox.cif.g09.slc.cpg/sg52_17_cif.got.tgz:32263.got - 2010.06.26 19:32:48.
