data_PCOD8217392
_publ_section_title
;
Structure prediction by ZEFSAII (Michael W. Deem and Ramdas Pophale) SiO2 
 PCOD8217392
Probable space group: P N N A
;
_chemical_formula_sum "Si O2"
_cell_formula_units_Z 32
_cell_length_a 27.289847
_cell_length_b 4.943821
_cell_length_c 10.373785
_cell_angle_alpha 90.000000
_cell_angle_beta 90.000000
_cell_angle_gamma 90.000000
_cell_volume 1399.590808
_symmetry_space_group_name_H-M "P N N A"
_symmetry_group_IT_number 52
_symmetry_cell_setting 'orthorhombic'
loop_
_space_group_symop_operation_xyz
x,y,z
1/2-x,-y,z
x,1/2-y,1/2-z
1/2-x,1/2+y,1/2-z
-x,-y,-z
1/2+x,y,-z
-x,1/2+y,1/2+z
1/2+x,1/2-y,1/2+z
loop_
_atom_site_type_symbol
_atom_site_label
_atom_site_fract_x
_atom_site_fract_y
_atom_site_fract_z
Si Si1 0.595456 0.883586 0.510385
Si Si2 0.783016 0.750000 0.250000
Si Si3 0.250000 0.000000 0.172872
Si Si4 0.472967 0.250000 0.250000
Si Si5 0.038817 0.750000 0.750000
Si Si6 0.338669 0.612516 0.499124
O O1 0.558112 0.837921 0.626515
O O2 0.570822 0.847794 0.371039
O O3 0.641497 0.687345 0.520673
O O4 0.616827 0.183797 0.528694
O O5 0.750000 0.500000 0.200319
O O6 0.819233 0.644230 0.357820
O O7 0.273942 0.250000 0.250000
O O8 0.207488 0.149882 0.093566
O O9 0.505967 0.499851 0.296436
#
# Coordination Sequence:
#
# PCOD8217392 Si02
#       6
#     8   4   4   4   4   8
#     4  12  26  44  73 104 139 181 233 292 343 427
#     4  12  24  44  68  98 134 186 238 286 344 404
#     4  12  28  46  70 100 148 196 234 288 346 418
#     4  12  26  45  72 104 138 182 230 290 359 426
#     4  12  24  49  72 102 140 182 226 288 369 424
#     4  12  26  46  69 104 140 184 237 285 347 408
#
# _framework density 22.863824999999999
#
# number of rings (size 3 to 8) (size 9 to 14) (size 15 to 20)
#    0.000    0.000    1.250    9.000    7.000    0.000 
#    0.000    0.000    0.000    0.000    0.000    0.000 
#    0.000    0.000    0.000    0.000    0.000    0.000 
#
# Total GULP energy -396989.904212 kJ/mol
# GULP energy per Si atom -12405.934507 kJ/mol
# Density = 2.281179 g / cm^3
# Si number density = 22.863825 Si / 1000 Ang^3
#
#
#
# Elastic Constant Matrix: (Units=GPa)
#
#
# Indices 1 2 3 4 5 6 
#
# 1 110.8328 26.9556 46.3662 0.0000 0.0000 0.0000
# 2 26.9556 94.5891 14.6569 0.0000 0.0000 0.0000
# 3 46.3662 14.6569 127.8928 0.0000 0.0000 0.0000
# 4 0.0000 0.0000 0.0000 16.3420 0.0000 0.0000
# 5 0.0000 0.0000 0.0000 0.0000 1.3476 0.0000
# 6 0.0000 0.0000 0.0000 0.0000 0.0000 37.4400
#
#
#
# Elastic Compliance Matrix: (Units=1/GPa)
#
#
# Indices 1 2 3 4 5 6 
#
# 1 0.011238 -0.002618 -0.003774 0.000000 0.000000 0.000000
# 2 -0.002618 0.011373 -0.000354 0.000000 0.000000 0.000000
# 3 -0.003774 -0.000354 0.009228 0.000000 0.000000 0.000000
# 4 0.000000 0.000000 0.000000 0.061192 0.000000 0.000000
# 5 0.000000 0.000000 0.000000 0.000000 0.742055 0.000000
# 6 0.000000 0.000000 0.000000 0.000000 0.000000 0.026709
#
#
# Mechanical properties :
#
#
# Convention : Reuss Voigt Hill
#
# Bulk Modulus (GPa) = 54.50673 56.58579 55.54626
# Shear Modulus (GPa) = 5.67277 27.38165 16.52721
#
# Velocity S-wave (km/s) = 1.57686 3.46439 2.69151
# Velocity P-wave (km/s) = 5.21601 6.38791 5.83148
#
# Compressibility (1/GPa) = 0.01834636
#
# Stress axis : x y z
#
# Youngs Moduli (GPa) = 88.98204 87.92791 108.36601
#
# Poissons Ratio (x) = 0.23018 0.40901
# Poissons Ratio (y) = 0.23294 0.03840
# Poissons Ratio (z) = 0.33584 0.03116
#
# Static dielectric constant tensor:
#      x y z
#    x 4.216450 0.000000 0.000000 
#    y 0.000000 4.095670 0.000000 
#    z 0.000000 0.000000 4.066360 
# 
# 
# High freq. dielectric constant tensor:
#      x y z
#    x 1.916740 0.000000 0.000000 
#    y 0.000000 1.923080 0.000000 
#    z 0.000000 0.000000 1.912380 
# 
# From -- ./inp_files/15321.got.cif
#   From: 2010.06.25/outbox.cif.g09.slc.cpg/sg52_8_cif.got.tgz:15321.got - 2010.06.26 19:32:48.
