data_PCOD8217087
_publ_section_title
;
Structure prediction by ZEFSAII (Michael W. Deem and Ramdas Pophale) SiO2 
 PCOD8217087
Probable space group: P N N A
;
_chemical_formula_sum "Si O2"
_cell_formula_units_Z 32
_cell_length_a 32.296143
_cell_length_b 9.442600
_cell_length_c 4.954255
_cell_angle_alpha 90.000000
_cell_angle_beta 90.000000
_cell_angle_gamma 90.000000
_cell_volume 1510.847424
_symmetry_space_group_name_H-M "P N N A"
_symmetry_group_IT_number 52
_symmetry_cell_setting 'orthorhombic'
loop_
_space_group_symop_operation_xyz
x,y,z
1/2-x,-y,z
x,1/2-y,1/2-z
1/2-x,1/2+y,1/2-z
-x,-y,-z
1/2+x,y,-z
-x,1/2+y,1/2+z
1/2+x,1/2-y,1/2+z
loop_
_atom_site_type_symbol
_atom_site_label
_atom_site_fract_x
_atom_site_fract_y
_atom_site_fract_z
Si Si1 0.727460 0.349398 0.515705
Si Si2 0.914373 0.512643 0.133942
Si Si3 0.133994 0.401769 0.344616
Si Si4 0.976957 0.750000 0.250000
Si Si5 0.531156 0.750000 0.250000
O O1 0.750000 0.500000 0.459379
O O2 0.748342 0.250000 0.750000
O O3 0.683135 0.397681 0.627863
O O4 0.724729 0.250000 0.250000
O O5 0.884621 0.549227 0.377417
O O6 0.949490 0.630957 0.107705
O O7 0.938546 0.368788 0.146171
O O8 0.883158 0.492875 0.882588
O O9 0.116665 0.250000 0.250000
O O10 0.004492 0.690777 0.497653
#
# Coordination Sequence:
#
# PCOD8217087 Si02
#       5
#     8   8   8   4   4
#     4  11  24  45  73 105 140 176 226 276 333 406
#     4  12  23  41  65  91 126 168 219 268 324 389
#     4  11  21  42  68  92 125 175 220 254 315 399
#     4  12  22  42  64  88 123 174 221 264 330 402
#     4  12  26  40  58  98 129 162 213 288 338 370
#
# _framework density 21.180167000000001
#
# number of rings (size 3 to 8) (size 9 to 14) (size 15 to 20)
#    0.000    0.500    2.500    8.250    0.000    0.000 
#    6.750    0.000    0.000    0.000    0.000    0.000 
#    0.000    0.000    0.000    0.000    0.000    0.000 
#
# Total GULP energy -396625.508381 kJ/mol
# GULP energy per Si atom -12394.547137 kJ/mol
# Density = 2.113196 g / cm^3
# Si number density = 21.180167 Si / 1000 Ang^3
#
#
#
# Elastic Constant Matrix: (Units=GPa)
#
#
# Indices 1 2 3 4 5 6 
#
# 1 107.5072 59.9066 60.4182 0.0000 0.0000 0.0000
# 2 59.9066 117.7201 38.8412 0.0000 0.0000 0.0000
# 3 60.4182 38.8412 205.2240 0.0000 0.0000 0.0000
# 4 0.0000 0.0000 0.0000 38.7472 0.0000 0.0000
# 5 0.0000 0.0000 0.0000 0.0000 19.8124 0.0000
# 6 0.0000 0.0000 0.0000 0.0000 0.0000 31.1029
#
#
#
# Elastic Compliance Matrix: (Units=1/GPa)
#
#
# Indices 1 2 3 4 5 6 
#
# 1 0.014613 -0.006418 -0.003087 0.000000 0.000000 0.000000
# 2 -0.006418 0.011879 -0.000359 0.000000 0.000000 0.000000
# 3 -0.003087 -0.000359 0.005850 0.000000 0.000000 0.000000
# 4 0.000000 0.000000 0.000000 0.025808 0.000000 0.000000
# 5 0.000000 0.000000 0.000000 0.000000 0.050473 0.000000
# 6 0.000000 0.000000 0.000000 0.000000 0.000000 0.032151
#
#
# Mechanical properties :
#
#
# Convention : Reuss Voigt Hill
#
# Bulk Modulus (GPa) = 79.27982 83.19815 81.23898
# Shear Modulus (GPa) = 30.35688 36.01818 33.18753
#
# Velocity S-wave (km/s) = 3.78996 4.12826 3.96272
# Velocity P-wave (km/s) = 7.52756 7.87971 7.70565
#
# Compressibility (1/GPa) = 0.01261355
#
# Stress axis : x y z
#
# Youngs Moduli (GPa) = 68.43220 84.18174 170.95199
#
# Poissons Ratio (x) = 0.54026 0.52781
# Poissons Ratio (y) = 0.43918 0.06135
# Poissons Ratio (z) = 0.21128 0.03021
#
# Static dielectric constant tensor:
#      x y z
#    x 3.881500 0.000000 0.000000 
#    y 0.000000 3.779270 0.000000 
#    z 0.000000 0.000000 4.057760 
# 
# 
# High freq. dielectric constant tensor:
#      x y z
#    x 1.832990 0.000000 0.000000 
#    y 0.000000 1.821370 0.000000 
#    z 0.000000 0.000000 1.853030 
# 
# From -- ./inp_files/6245.got.cif
#   From: 2010.06.25/outbox.cif.g09.slc.cpg/sg52_4_cif.got.tgz:6245.got - 2010.06.26 19:32:48.
