data_PCOD8217434
_publ_section_title
;
Structure prediction by ZEFSAII (Michael W. Deem and Ramdas Pophale) SiO2 
 PCOD8217434
Probable space group: P N N A
;
_chemical_formula_sum "Si O2"
_cell_formula_units_Z 20
_cell_length_a 22.081118
_cell_length_b 4.828960
_cell_length_c 7.910434
_cell_angle_alpha 90.000000
_cell_angle_beta 90.000000
_cell_angle_gamma 90.000000
_cell_volume 843.480366
_symmetry_space_group_name_H-M "P N N A"
_symmetry_group_IT_number 52
_symmetry_cell_setting 'orthorhombic'
loop_
_space_group_symop_operation_xyz
x,y,z
1/2-x,-y,z
x,1/2-y,1/2-z
1/2-x,1/2+y,1/2-z
-x,-y,-z
1/2+x,y,-z
-x,1/2+y,1/2+z
1/2+x,1/2-y,1/2+z
loop_
_atom_site_type_symbol
_atom_site_label
_atom_site_fract_x
_atom_site_fract_y
_atom_site_fract_z
Si Si1 0.560720 0.643655 0.937377
Si Si2 0.870138 0.649902 0.440705
Si Si3 0.250000 0.000000 0.128398
O O1 0.551033 0.750000 0.750000
O O2 0.500000 0.500000 0.000000
O O3 0.612328 0.408730 0.940426
O O4 0.579689 0.905290 0.053204
O O5 0.864768 0.750000 0.250000
O O6 0.806223 0.542534 0.504926
O O7 0.266409 0.250000 0.250000
#
# Coordination Sequence:
#
# PCOD8217434 Si02
#       3
#     8   8   4
#     4  12  26  48  73 103 142 188 236 289 352 422
#     4  12  27  47  72 106 143 185 235 293 352 417
#     4  12  26  48  74 102 140 188 236 288 350 420
#
# _framework density 23.711282000000001
#
# number of rings (size 3 to 8) (size 9 to 14) (size 15 to 20)
#    0.000    0.000    0.000   10.800    0.000    8.000 
#    0.000    2.000    0.000    0.000    0.000    0.000 
#    0.000    0.000    0.000    0.000    0.000    0.000 
#
# Total GULP energy -248149.335592 kJ/mol
# GULP energy per Si atom -12407.466780 kJ/mol
# Density = 2.365731 g / cm^3
# Si number density = 23.711282 Si / 1000 Ang^3
#
#
#
# Elastic Constant Matrix: (Units=GPa)
#
#
# Indices 1 2 3 4 5 6 
#
# 1 146.9822 80.7063 122.9886 0.0000 0.0000 0.0000
# 2 80.7063 200.5095 105.7898 0.0000 0.0000 0.0000
# 3 122.9886 105.7898 190.5552 0.0000 0.0000 0.0000
# 4 0.0000 0.0000 0.0000 54.7524 0.0000 0.0000
# 5 0.0000 0.0000 0.0000 0.0000 0.9242 0.0000
# 6 0.0000 0.0000 0.0000 0.0000 0.0000 52.5014
#
#
#
# Elastic Compliance Matrix: (Units=1/GPa)
#
#
# Indices 1 2 3 4 5 6 
#
# 1 0.015035 -0.001318 -0.008972 0.000000 0.000000 0.000000
# 2 -0.001318 0.007169 -0.003129 0.000000 0.000000 0.000000
# 3 -0.008972 -0.003129 0.012776 0.000000 0.000000 0.000000
# 4 0.000000 0.000000 0.000000 0.018264 0.000000 0.000000
# 5 0.000000 0.000000 0.000000 0.000000 1.082028 0.000000
# 6 0.000000 0.000000 0.000000 0.000000 0.000000 0.019047
#
#
# Mechanical properties :
#
#
# Convention : Reuss Voigt Hill
#
# Bulk Modulus (GPa) = 122.83696 128.55736 125.69716
# Shear Modulus (GPa) = 4.22343 36.87308 20.54826
#
# Velocity S-wave (km/s) = 1.33606 3.94774 2.94701
# Velocity P-wave (km/s) = 7.36871 8.66689 8.04403
#
# Compressibility (1/GPa) = 0.00814087
#
# Stress axis : x y z
#
# Youngs Moduli (GPa) = 66.51333 139.49408 78.27262
#
# Poissons Ratio (x) = 0.18383 0.70227
# Poissons Ratio (y) = 0.08765 0.24494
# Poissons Ratio (z) = 0.59676 0.43652
#
# Static dielectric constant tensor:
#      x y z
#    x 4.384350 0.000000 0.000000 
#    y 0.000000 5.370380 0.000000 
#    z 0.000000 0.000000 4.166800 
# 
# 
# High freq. dielectric constant tensor:
#      x y z
#    x 1.952480 0.000000 0.000000 
#    y 0.000000 1.972030 0.000000 
#    z 0.000000 0.000000 1.948790 
# 
# From -- ./inp_files/11175.got.cif
#   From: 2010.06.25/outbox.cif.g09.slc.cpg/sg52_6_cif.got.tgz:11175.got - 2010.06.26 19:32:48.
