data_PCOD8217594
_publ_section_title
;
Structure prediction by ZEFSAII (Michael W. Deem and Ramdas Pophale) SiO2 
 PCOD8217594
Probable space group: P M N A
;
_chemical_formula_sum "Si O2"
_cell_formula_units_Z 40
_cell_length_a 8.680313
_cell_length_b 7.235273
_cell_length_c 29.499099
_cell_angle_alpha 90.000000
_cell_angle_beta 90.000000
_cell_angle_gamma 90.000000
_cell_volume 1852.674224
_symmetry_space_group_name_H-M "P M N A"
_symmetry_group_IT_number 53
_symmetry_cell_setting 'orthorhombic'
loop_
_space_group_symop_operation_xyz
x,y,z
1/2-x,-y,1/2+z
x,-y,-z
1/2-x,y,1/2-z
-x,-y,-z
1/2+x,y,1/2-z
-x,y,z
1/2+x,-y,1/2+z
loop_
_atom_site_type_symbol
_atom_site_label
_atom_site_fract_x
_atom_site_fract_y
_atom_site_fract_z
Si Si1 0.323020 0.791253 0.864749
Si Si2 0.179134 0.290504 0.462491
Si Si3 0.319738 0.313423 0.551092
Si Si4 0.320304 0.929047 0.297450
Si Si5 0.179976 0.637818 0.356822
O O1 0.500000 0.831065 0.851382
O O2 0.295112 0.838225 0.918245
O O3 0.280112 0.578114 0.855333
O O4 0.211951 0.915118 0.834821
O O5 0.235990 0.198616 0.509956
O O6 0.282092 0.471622 0.455554
O O7 0.000000 0.348000 0.465318
O O8 0.500000 0.274178 0.549074
O O9 0.255579 0.256007 0.600252
O O10 0.250000 0.994838 0.250000
O O11 0.500000 0.900787 0.291762
O O12 0.245702 0.733480 0.311742
O O13 0.000000 0.672351 0.360324
#
# Coordination Sequence:
#
# PCOD8217594 Si02
#       5
#     8   8   8   8   8
#     4   9  20  39  63  89 118 155 196 240 290 345
#     4   9  16  29  51  80 116 158 198 235 283 341
#     4  10  17  27  49  83 120 155 194 238 285 340
#     4  12  26  43  64  88 117 151 191 244 299 353
#     4  10  21  40  64  88 119 157 198 242 291 349
#
# _framework density 21.590413000000002
#
# number of rings (size 3 to 8) (size 9 to 14) (size 15 to 20)
#    0.000    2.000    0.000    7.200    0.000    5.600 
#    0.000    1.000    0.000    6.000    0.000    0.000 
#    0.000    0.000    0.000    0.000    0.000    0.000 
#
# Total GULP energy -495897.810160 kJ/mol
# GULP energy per Si atom -12397.445254 kJ/mol
# Density = 2.154127 g / cm^3
# Si number density = 21.590413 Si / 1000 Ang^3
#
#
#
# Elastic Constant Matrix: (Units=GPa)
#
#
# Indices 1 2 3 4 5 6 
#
# 1 122.3077 14.8947 35.1512 0.0000 0.0000 0.0000
# 2 14.8947 31.1244 10.3147 0.0000 0.0000 0.0000
# 3 35.1512 10.3147 108.2664 0.0000 0.0000 0.0000
# 4 0.0000 0.0000 0.0000 25.8411 0.0000 0.0000
# 5 0.0000 0.0000 0.0000 0.0000 37.8541 0.0000
# 6 0.0000 0.0000 0.0000 0.0000 0.0000 25.3250
#
#
#
# Elastic Compliance Matrix: (Units=1/GPa)
#
#
# Indices 1 2 3 4 5 6 
#
# 1 0.009392 -0.003598 -0.002707 0.000000 0.000000 0.000000
# 2 -0.003598 0.034555 -0.002124 0.000000 0.000000 0.000000
# 3 -0.002707 -0.002124 0.010318 0.000000 0.000000 0.000000
# 4 0.000000 0.000000 0.000000 0.038698 0.000000 0.000000
# 5 0.000000 0.000000 0.000000 0.000000 0.026417 0.000000
# 6 0.000000 0.000000 0.000000 0.000000 0.000000 0.039487
#
#
# Mechanical properties :
#
#
# Convention : Reuss Voigt Hill
#
# Bulk Modulus (GPa) = 26.73234 42.49106 34.61170
# Shear Modulus (GPa) = 26.56859 31.22658 28.89758
#
# Velocity S-wave (km/s) = 3.51176 3.80717 3.66245
# Velocity P-wave (km/s) = 5.37138 6.24895 5.82671
#
# Compressibility (1/GPa) = 0.03740788
#
# Stress axis : x y z
#
# Youngs Moduli (GPa) = 106.47243 28.93960 96.92174
#
# Poissons Ratio (x) = 0.10411 0.26233
# Poissons Ratio (y) = 0.38305 0.20586
# Poissons Ratio (z) = 0.28818 0.06147
#
# Static dielectric constant tensor:
#      x y z
#    x 3.750170 0.000000 0.000000 
#    y 0.000000 3.526040 0.000000 
#    z 0.000000 0.000000 4.478190 
# 
# 
# High freq. dielectric constant tensor:
#      x y z
#    x 1.848480 0.000000 0.000000 
#    y 0.000000 1.819690 0.000000 
#    z 0.000000 0.000000 1.861630 
# 
# From -- ./inp_files/36041.got.cif
#   From: 2010.03.12/outbox.cif.g09.slc.cpg/sg53_19_cif.got.tgz:36041.got - 2010.04.16 14:36:59.
