data_PCOD8217814
_publ_section_title
;
Structure prediction by ZEFSAII (Michael W. Deem and Ramdas Pophale) SiO2 
 PCOD8217814
Probable space group: P M N A
;
_chemical_formula_sum "Si O2"
_cell_formula_units_Z 48
_cell_length_a 8.736898
_cell_length_b 13.783460
_cell_length_c 23.924389
_cell_angle_alpha 90.000000
_cell_angle_beta 90.000000
_cell_angle_gamma 90.000000
_cell_volume 2881.086988
_symmetry_space_group_name_H-M "P M N A"
_symmetry_group_IT_number 53
_symmetry_cell_setting 'orthorhombic'
loop_
_space_group_symop_operation_xyz
x,y,z
1/2-x,-y,1/2+z
x,-y,-z
1/2-x,y,1/2-z
-x,-y,-z
1/2+x,y,1/2-z
-x,y,z
1/2+x,-y,1/2+z
loop_
_atom_site_type_symbol
_atom_site_label
_atom_site_fract_x
_atom_site_fract_y
_atom_site_fract_z
Si Si1 0.180238 0.636163 0.307656
Si Si2 0.680694 0.645733 0.522445
Si Si3 0.681078 0.539768 0.412999
Si Si4 0.682055 0.862738 0.526580
Si Si5 0.680011 0.144106 0.807486
Si Si6 0.818534 0.959776 0.419554
O O1 0.250000 0.596879 0.250000
O O2 0.235108 0.565603 0.356199
O O3 0.237922 0.746192 0.318974
O O4 0.000000 0.631941 0.303326
O O5 0.500000 0.646050 0.517381
O O6 0.742242 0.610977 0.461987
O O7 0.729363 0.570291 0.570752
O O8 0.740479 0.753085 0.537084
O O9 0.500000 0.549144 0.404646
O O10 0.500000 0.873153 0.531908
O O11 0.733006 0.893781 0.464820
O O12 0.764159 0.929209 0.573141
O O13 0.750000 0.102940 0.750000
O O14 0.500000 0.142077 0.800911
O O15 0.733181 0.076215 0.858514
O O16 0.000000 0.951110 0.428520
#
# Coordination Sequence:
#
# PCOD8217814 Si02
#       6
#     8   8   8   8   8   8
#     4  10  19  31  46  68  93 119 149 184 223 267
#     4   8  16  29  47  69  93 119 150 183 222 266
#     4   9  16  30  49  68  91 121 150 183 223 265
#     4  10  18  29  46  69  92 120 154 185 216 264
#     4   9  19  32  47  66  91 119 149 183 224 268
#     4  10  19  31  45  66  94 122 148 184 229 268
#
# _framework density 16.660378999999999
#
# number of rings (size 3 to 8) (size 9 to 14) (size 15 to 20)
#    0.000    2.667    0.000    4.500    0.000    2.000 
#    0.000    4.167    0.000    1.000    0.000    2.333 
#    0.000    0.000    0.000    0.000    0.000    0.000 
#
# Total GULP energy -595099.971923 kJ/mol
# GULP energy per Si atom -12397.916082 kJ/mol
# Density = 1.662246 g / cm^3
# Si number density = 16.660379 Si / 1000 Ang^3
#
#
#
# Elastic Constant Matrix: (Units=GPa)
#
#
# Indices 1 2 3 4 5 6 
#
# 1 39.2024 22.3933 29.0180 0.0000 0.0000 0.0000
# 2 22.3933 126.9472 69.7939 0.0000 0.0000 0.0000
# 3 29.0180 69.7939 139.5518 0.0000 0.0000 0.0000
# 4 0.0000 0.0000 0.0000 24.3535 0.0000 0.0000
# 5 0.0000 0.0000 0.0000 0.0000 28.7995 0.0000
# 6 0.0000 0.0000 0.0000 0.0000 0.0000 10.4325
#
#
#
# Elastic Compliance Matrix: (Units=1/GPa)
#
#
# Indices 1 2 3 4 5 6 
#
# 1 0.030775 -0.002635 -0.005081 0.000000 0.000000 0.000000
# 2 -0.002635 0.011090 -0.004999 0.000000 0.000000 0.000000
# 3 -0.005081 -0.004999 0.010722 0.000000 0.000000 0.000000
# 4 0.000000 0.000000 0.000000 0.041062 0.000000 0.000000
# 5 0.000000 0.000000 0.000000 0.000000 0.034723 0.000000
# 6 0.000000 0.000000 0.000000 0.000000 0.000000 0.095854
#
#
# Mechanical properties :
#
#
# Convention : Reuss Voigt Hill
#
# Bulk Modulus (GPa) = 36.82204 60.90130 48.86167
# Shear Modulus (GPa) = 19.32671 25.01686 22.17179
#
# Velocity S-wave (km/s) = 3.40963 3.87922 3.65198
# Velocity P-wave (km/s) = 6.13599 7.52984 6.86836
#
# Compressibility (1/GPa) = 0.02715765
#
# Stress axis : x y z
#
# Youngs Moduli (GPa) = 32.49373 90.16886 93.26262
#
# Poissons Ratio (x) = 0.23759 0.47391
# Poissons Ratio (y) = 0.08562 0.46619
# Poissons Ratio (z) = 0.16512 0.45073
#
# Static dielectric constant tensor:
#      x y z
#    x 2.992910 0.000000 0.000000 
#    y 0.000000 3.462950 0.000000 
#    z 0.000000 0.000000 3.099700 
# 
# 
# High freq. dielectric constant tensor:
#      x y z
#    x 1.635200 0.000000 0.000000 
#    y 0.000000 1.634750 0.000000 
#    z 0.000000 0.000000 1.632920 
# 
# From -- ./inp_files/30505.got.cif
#   From: 2010.03.12/outbox.cif.g09.slc.cpg/sg53_16_cif.got.tgz:30505.got - 2010.04.16 14:36:59.
