data_PCOD8217833
_publ_section_title
;
Structure prediction by ZEFSAII (Michael W. Deem and Ramdas Pophale) SiO2 
 PCOD8217833
Probable space group: P M N A
;
_chemical_formula_sum "Si O2"
_cell_formula_units_Z 44
_cell_length_a 12.789969
_cell_length_b 8.589101
_cell_length_c 23.991441
_cell_angle_alpha 90.000000
_cell_angle_beta 90.000000
_cell_angle_gamma 90.000000
_cell_volume 2635.563809
_symmetry_space_group_name_H-M "P M N A"
_symmetry_group_IT_number 53
_symmetry_cell_setting 'orthorhombic'
loop_
_space_group_symop_operation_xyz
x,y,z
1/2-x,-y,1/2+z
x,-y,-z
1/2-x,y,1/2-z
-x,-y,-z
1/2+x,y,1/2-z
-x,y,z
1/2+x,-y,1/2+z
loop_
_atom_site_type_symbol
_atom_site_label
_atom_site_fract_x
_atom_site_fract_y
_atom_site_fract_z
Si Si1 0.376451 0.570148 0.940709
Si Si2 0.881496 0.427123 0.222552
Si Si3 0.250000 0.851193 0.750000
Si Si4 0.623059 0.926329 0.169835
Si Si5 0.304745 0.578241 0.170635
Si Si6 0.377422 0.919064 0.945528
O O1 0.500000 0.561046 0.931629
O O2 0.323408 0.467338 0.893030
O O3 0.332019 0.745749 0.936749
O O4 0.343604 0.500000 0.000000
O O5 0.829696 0.256989 0.214571
O O6 0.875279 0.472337 0.288121
O O7 0.817428 0.553087 0.185958
O O8 0.000000 0.424687 0.201472
O O9 0.318360 0.954333 0.790800
O O10 0.500000 0.933887 0.182571
O O11 0.666679 0.756110 0.181091
O O12 0.647978 0.971748 0.106475
O O13 0.500000 0.899339 0.955421
O O14 0.326674 0.000000 0.000000
#
# Coordination Sequence:
#
# PCOD8217833 Si02
#       6
#     8   8   4   8   8   8
#     4  10  18  29  47  71 100 131 163 199 241 292
#     4  10  20  35  52  69  95 128 167 210 244 284
#     4  10  20  32  48  72  96 128 166 198 246 292
#     4  11  20  31  48  72 104 131 157 197 241 291
#     4  10  20  32  50  73  97 129 165 197 245 297
#     4   9  17  28  43  66  96 128 157 189 234 284
#
# _framework density 16.694721000000001
#
# number of rings (size 3 to 8) (size 9 to 14) (size 15 to 20)
#    0.000    2.182    0.000    6.545    0.000    4.364 
#    0.000    0.909    0.000    0.545    0.000    0.000 
#    0.000    8.727    0.000    0.000    0.000    0.000 
#
# Total GULP energy -545582.200584 kJ/mol
# GULP energy per Si atom -12399.595468 kJ/mol
# Density = 1.665672 g / cm^3
# Si number density = 16.694721 Si / 1000 Ang^3
#
#
#
# Elastic Constant Matrix: (Units=GPa)
#
#
# Indices 1 2 3 4 5 6 
#
# 1 106.1587 48.3709 46.6711 0.0000 0.0000 0.0000
# 2 48.3709 123.6020 41.2836 0.0000 0.0000 0.0000
# 3 46.6711 41.2836 98.5224 0.0000 0.0000 0.0000
# 4 0.0000 0.0000 0.0000 61.7481 0.0000 0.0000
# 5 0.0000 0.0000 0.0000 0.0000 15.3762 0.0000
# 6 0.0000 0.0000 0.0000 0.0000 0.0000 21.5748
#
#
#
# Elastic Compliance Matrix: (Units=1/GPa)
#
#
# Indices 1 2 3 4 5 6 
#
# 1 0.013117 -0.003555 -0.004724 0.000000 0.000000 0.000000
# 2 -0.003555 0.010371 -0.002661 0.000000 0.000000 0.000000
# 3 -0.004724 -0.002661 0.013503 0.000000 0.000000 0.000000
# 4 0.000000 0.000000 0.000000 0.016195 0.000000 0.000000
# 5 0.000000 0.000000 0.000000 0.000000 0.065036 0.000000
# 6 0.000000 0.000000 0.000000 0.000000 0.000000 0.046350
#
#
# Mechanical properties :
#
#
# Convention : Reuss Voigt Hill
#
# Bulk Modulus (GPa) = 66.18454 66.77049 66.47752
# Shear Modulus (GPa) = 26.11125 32.53699 29.32412
#
# Velocity S-wave (km/s) = 3.95909 4.41947 4.19560
# Velocity P-wave (km/s) = 7.78648 8.13167 7.96094
#
# Compressibility (1/GPa) = 0.01510927
#
# Stress axis : x y z
#
# Youngs Moduli (GPa) = 76.23964 96.42479 74.05852
#
# Poissons Ratio (x) = 0.34282 0.34983
# Poissons Ratio (y) = 0.27106 0.19710
# Poissons Ratio (z) = 0.36013 0.25663
#
# Static dielectric constant tensor:
#      x y z
#    x 2.895200 0.000000 0.000000 
#    y 0.000000 3.355130 0.000000 
#    z 0.000000 0.000000 3.183900 
# 
# 
# High freq. dielectric constant tensor:
#      x y z
#    x 1.603840 0.000000 0.000000 
#    y 0.000000 1.663240 0.000000 
#    z 0.000000 0.000000 1.640820 
# 
# From -- ./inp_files/34900.got.cif
#   From: 2010.03.12/outbox.cif.g09.slc.cpg/sg53_18_cif.got.tgz:34900.got - 2010.04.16 14:36:59.
