data_PCOD8217887
_publ_section_title
;
Structure prediction by ZEFSAII (Michael W. Deem and Ramdas Pophale) SiO2 
 PCOD8217887
Probable space group: P M N A
;
_chemical_formula_sum "Si O2"
_cell_formula_units_Z 64
_cell_length_a 9.220473
_cell_length_b 19.499538
_cell_length_c 19.865132
_cell_angle_alpha 90.000000
_cell_angle_beta 90.000000
_cell_angle_gamma 90.000000
_cell_volume 3571.650686
_symmetry_space_group_name_H-M "P M N A"
_symmetry_group_IT_number 53
_symmetry_cell_setting 'orthorhombic'
loop_
_space_group_symop_operation_xyz
x,y,z
1/2-x,-y,1/2+z
x,-y,-z
1/2-x,y,1/2-z
-x,-y,-z
1/2+x,y,1/2-z
-x,y,z
1/2+x,-y,1/2+z
loop_
_atom_site_type_symbol
_atom_site_label
_atom_site_fract_x
_atom_site_fract_y
_atom_site_fract_z
Si Si1 0.670274 0.950861 0.181985
Si Si2 0.168487 0.657572 0.527694
Si Si3 0.834993 0.263779 0.815845
Si Si4 0.332484 0.391845 0.601403
Si Si5 0.169897 0.812640 0.550516
Si Si6 0.672077 0.146730 0.582474
Si Si7 0.339587 0.518397 0.921617
Si Si8 0.166656 0.888951 0.684266
O O1 0.750000 0.925623 0.250000
O O2 0.500000 0.931797 0.186058
O O3 0.746750 0.915878 0.118472
O O4 0.694756 0.031211 0.171176
O O5 0.260337 0.646372 0.460980
O O6 0.202889 0.731779 0.558093
O O7 0.207739 0.598631 0.583363
O O8 0.000000 0.649757 0.507518
O O9 0.750000 0.241831 0.750000
O O10 0.807498 0.343306 0.834113
O O11 0.788190 0.216449 0.878251
O O12 0.000000 0.249829 0.797836
O O13 0.500000 0.401205 0.584139
O O14 0.266918 0.466932 0.617887
O O15 0.264898 0.846589 0.492145
O O16 0.221900 0.847341 0.619548
O O17 0.000000 0.826281 0.535907
O O18 0.500000 0.132914 0.579462
O O19 0.500000 0.507738 0.891360
O O20 0.335992 0.500000 0.000000
O O21 0.250000 0.862526 0.750000
O O22 0.000000 0.873220 0.697875
#
# Coordination Sequence:
#
# PCOD8217887 Si02
#       8
#     8   8   8   8   8   8   8   8
#     4  10  20  36  56  78 105 140 178 219 260 309
#     4   9  17  30  49  73 101 132 167 205 251 304
#     4  10  22  35  48  69 100 137 177 216 257 307
#     4  10  18  30  46  69  99 129 166 214 258 299
#     4  10  20  35  56  80 106 140 174 214 264 314
#     4  11  22  36  52  77 109 139 175 220 263 313
#     4   8  15  27  44  69  96 126 165 204 244 298
#     4   9  20  38  59  81 105 133 173 216 262 319
#
# _framework density 17.918885
#
# number of rings (size 3 to 8) (size 9 to 14) (size 15 to 20)
#    0.000    2.375    1.250    2.250    0.000    6.750 
#    0.000    2.500    0.000    0.750    0.000    3.500 
#    0.000    0.000    0.000    0.000    0.000    0.000 
#
# Total GULP energy -793514.491476 kJ/mol
# GULP energy per Si atom -12398.663929 kJ/mol
# Density = 1.787810 g / cm^3
# Si number density = 17.918885 Si / 1000 Ang^3
#
#
#
# Elastic Constant Matrix: (Units=GPa)
#
#
# Indices 1 2 3 4 5 6 
#
# 1 90.9465 50.4501 60.2654 0.0000 0.0000 0.0000
# 2 50.4501 93.3257 60.3005 0.0000 0.0000 0.0000
# 3 60.2654 60.3005 114.3362 0.0000 0.0000 0.0000
# 4 0.0000 0.0000 0.0000 12.4581 0.0000 0.0000
# 5 0.0000 0.0000 0.0000 0.0000 28.1254 0.0000
# 6 0.0000 0.0000 0.0000 0.0000 0.0000 26.4155
#
#
#
# Elastic Compliance Matrix: (Units=1/GPa)
#
#
# Indices 1 2 3 4 5 6 
#
# 1 0.018685 -0.005669 -0.006859 0.000000 0.000000 0.000000
# 2 -0.005669 0.017974 -0.006491 0.000000 0.000000 0.000000
# 3 -0.006859 -0.006491 0.015785 0.000000 0.000000 0.000000
# 4 0.000000 0.000000 0.000000 0.080269 0.000000 0.000000
# 5 0.000000 0.000000 0.000000 0.000000 0.035555 0.000000
# 6 0.000000 0.000000 0.000000 0.000000 0.000000 0.037857
#
#
# Mechanical properties :
#
#
# Convention : Reuss Voigt Hill
#
# Bulk Modulus (GPa) = 69.41808 71.18226 70.30017
# Shear Modulus (GPa) = 20.08308 21.90596 20.99452
#
# Velocity S-wave (km/s) = 3.35143 3.50023 3.42664
# Velocity P-wave (km/s) = 7.33488 7.49309 7.41441
#
# Compressibility (1/GPa) = 0.01440547
#
# Stress axis : x y z
#
# Youngs Moduli (GPa) = 53.51784 55.63595 63.35171
#
# Poissons Ratio (x) = 0.31541 0.43453
# Poissons Ratio (y) = 0.30340 0.41123
# Poissons Ratio (z) = 0.36708 0.36115
#
# Static dielectric constant tensor:
#      x y z
#    x 3.359900 0.000000 0.000000 
#    y 0.000000 3.648610 0.000000 
#    z 0.000000 0.000000 3.023070 
# 
# 
# High freq. dielectric constant tensor:
#      x y z
#    x 1.697260 0.000000 0.000000 
#    y 0.000000 1.703690 0.000000 
#    z 0.000000 0.000000 1.660400 
# 
# From -- ./inp_files/26964.got.cif
#   From: 2010.03.12/outbox.cif.g09.slc.cpg/sg53_14_cif.got.tgz:26964.got - 2010.04.16 14:36:59.
