data_PCOD8217552
_publ_section_title
;
Structure prediction by ZEFSAII (Michael W. Deem and Ramdas Pophale) SiO2 
 PCOD8217552
Probable space group: P M N A
;
_chemical_formula_sum "Si O2"
_cell_formula_units_Z 48
_cell_length_a 29.235853
_cell_length_b 8.872192
_cell_length_c 9.636430
_cell_angle_alpha 90.000000
_cell_angle_beta 90.000000
_cell_angle_gamma 90.000000
_cell_volume 2499.556006
_symmetry_space_group_name_H-M "P M N A"
_symmetry_group_IT_number 53
_symmetry_cell_setting 'orthorhombic'
loop_
_space_group_symop_operation_xyz
x,y,z
1/2-x,-y,1/2+z
x,-y,-z
1/2-x,y,1/2-z
-x,-y,-z
1/2+x,y,1/2-z
-x,y,z
1/2+x,-y,1/2+z
loop_
_atom_site_type_symbol
_atom_site_label
_atom_site_fract_x
_atom_site_fract_y
_atom_site_fract_z
Si Si1 0.947630 0.357742 0.697308
Si Si2 0.860613 0.198499 0.773637
Si Si3 0.271372 0.143876 0.599138
Si Si4 0.870276 0.900634 0.637158
Si Si5 0.551261 0.692396 0.872986
Si Si6 0.688574 0.322414 0.988554
O O1 0.911889 0.266399 0.797881
O O2 0.940155 0.314134 0.537545
O O3 0.938247 0.536131 0.706000
O O4 0.000000 0.320812 0.743394
O O5 0.822312 0.219161 0.893532
O O6 0.844141 0.282785 0.637434
O O7 0.858688 0.016804 0.759083
O O8 0.250000 0.099830 0.750000
O O9 0.240773 0.275287 0.533070
O O10 0.269845 0.000000 0.500000
O O11 0.916636 0.821361 0.687203
O O12 0.831290 0.771693 0.620053
O O13 0.877524 0.000000 0.500000
O O14 0.500000 0.742752 0.841597
O O15 0.685536 0.500000 0.000000
#
# Coordination Sequence:
#
# PCOD8217552 Si02
#       6
#     8   8   8   8   8   8
#     4   9  16  27  44  68 102 140 177 218 266 316
#     4  10  19  31  48  73 102 139 174 213 266 321
#     4  10  21  39  58  78 107 142 181 225 271 323
#     4  10  17  26  44  70 101 137 168 209 266 312
#     4   9  16  25  41  70 105 141 175 214 266 320
#     4  10  18  31  50  72 100 132 173 217 267 318
#
# _framework density 19.203410999999999
#
# number of rings (size 3 to 8) (size 9 to 14) (size 15 to 20)
#    0.000    2.333    3.333    4.500    0.000    1.000 
#    0.000    9.167    0.000    0.500    0.000    0.000 
#    0.000    3.333    0.000    0.000    0.000    0.000 
#
# Total GULP energy -594672.873206 kJ/mol
# GULP energy per Si atom -12389.018192 kJ/mol
# Density = 1.915970 g / cm^3
# Si number density = 19.203411 Si / 1000 Ang^3
#
#
#
# Elastic Constant Matrix: (Units=GPa)
#
#
# Indices 1 2 3 4 5 6 
#
# 1 166.8897 81.6350 24.1632 0.0000 0.0000 0.0000
# 2 81.6350 143.0009 19.0217 0.0000 0.0000 0.0000
# 3 24.1632 19.0217 17.2420 0.0000 0.0000 0.0000
# 4 0.0000 0.0000 0.0000 5.8337 0.0000 0.0000
# 5 0.0000 0.0000 0.0000 0.0000 9.3322 0.0000
# 6 0.0000 0.0000 0.0000 0.0000 0.0000 36.1852
#
#
#
# Elastic Compliance Matrix: (Units=1/GPa)
#
#
# Indices 1 2 3 4 5 6 
#
# 1 0.009237 -0.004162 -0.008354 0.000000 0.000000 0.000000
# 2 -0.004162 0.010071 -0.005278 0.000000 0.000000 0.000000
# 3 -0.008354 -0.005278 0.075527 0.000000 0.000000 0.000000
# 4 0.000000 0.000000 0.000000 0.171417 0.000000 0.000000
# 5 0.000000 0.000000 0.000000 0.000000 0.107155 0.000000
# 6 0.000000 0.000000 0.000000 0.000000 0.000000 0.027636
#
#
# Mechanical properties :
#
#
# Convention : Reuss Voigt Hill
#
# Bulk Modulus (GPa) = 16.87794 64.08580 40.48187
# Shear Modulus (GPa) = 10.95577 23.75775 17.35676
#
# Velocity S-wave (km/s) = 2.39113 3.52115 3.00965
# Velocity P-wave (km/s) = 4.05357 7.06936 5.76226
#
# Compressibility (1/GPa) = 0.05924894
#
# Stress axis : x y z
#
# Youngs Moduli (GPa) = 108.25527 99.29441 13.24022
#
# Poissons Ratio (x) = 0.41328 0.11060
# Poissons Ratio (y) = 0.45058 0.06988
# Poissons Ratio (z) = 0.90433 0.52404
#
# Static dielectric constant tensor:
#      x y z
#    x 4.007130 0.000000 0.000000 
#    y 0.000000 3.636190 0.000000 
#    z 0.000000 0.000000 2.907180 
# 
# 
# High freq. dielectric constant tensor:
#      x y z
#    x 1.767970 0.000000 0.000000 
#    y 0.000000 1.750610 0.000000 
#    z 0.000000 0.000000 1.665490 
# 
# From -- ./inp_files/18699.got.cif
#   From: 2010.03.12/outbox.cif.g09.slc.cpg/sg53_10_cif.got.tgz:18699.got - 2010.04.16 14:36:59.
