data_PCOD8217684
_publ_section_title
;
Structure prediction by ZEFSAII (Michael W. Deem and Ramdas Pophale) SiO2 
 PCOD8217684
Probable space group: P M N A
;
_chemical_formula_sum "Si O2"
_cell_formula_units_Z 56
_cell_length_a 8.960146
_cell_length_b 14.046687
_cell_length_c 27.999124
_cell_angle_alpha 90.000000
_cell_angle_beta 90.000000
_cell_angle_gamma 90.000000
_cell_volume 3523.980004
_symmetry_space_group_name_H-M "P M N A"
_symmetry_group_IT_number 53
_symmetry_cell_setting 'orthorhombic'
loop_
_space_group_symop_operation_xyz
x,y,z
1/2-x,-y,1/2+z
x,-y,-z
1/2-x,y,1/2-z
-x,-y,-z
1/2+x,y,1/2-z
-x,y,z
1/2+x,-y,1/2+z
loop_
_atom_site_type_symbol
_atom_site_label
_atom_site_fract_x
_atom_site_fract_y
_atom_site_fract_z
Si Si1 0.826256 0.725397 0.961656
Si Si2 0.678479 0.472088 0.701676
Si Si3 0.673304 0.615787 0.444158
Si Si4 0.823388 0.895885 0.488606
Si Si5 0.676681 0.568859 0.605409
Si Si6 0.672073 0.785490 0.101859
Si Si7 0.325104 0.267412 0.796943
O O1 0.769828 0.673989 0.912558
O O2 0.000000 0.752944 0.960129
O O3 0.793179 0.645746 0.001813
O O4 0.736318 0.821647 0.971998
O O5 0.750000 0.514964 0.750000
O O6 0.500000 0.464840 0.705767
O O7 0.728222 0.543645 0.659103
O O8 0.745444 0.367700 0.692308
O O9 0.500000 0.619686 0.432455
O O10 0.736205 0.510959 0.431945
O O11 0.747566 0.687113 0.407332
O O12 0.769651 0.867347 0.434685
O O13 0.000000 0.897310 0.493126
O O14 0.756873 0.000000 0.500000
O O15 0.500000 0.570094 0.602442
O O16 0.500000 0.769607 0.090466
O O17 0.698124 0.805881 0.158388
O O18 0.250000 0.220186 0.750000
O O19 0.500000 0.285948 0.787808
#
# Coordination Sequence:
#
# PCOD8217684 Si02
#       7
#     8   8   8   8   8   8   8
#     4   9  17  28  44  65  86 109 142 178 208 247
#     4  10  18  28  41  58  84 117 152 180 208 244
#     4   9  15  25  41  60  85 116 145 169 200 246
#     4   9  18  33  49  64  86 113 140 174 220 268
#     4   9  16  26  41  61  86 116 145 174 209 246
#     4   9  17  28  42  62  86 113 143 175 212 252
#     4  10  18  27  40  59  85 114 145 177 208 245
#
# _framework density 15.891123
#
# number of rings (size 3 to 8) (size 9 to 14) (size 15 to 20)
#    0.000    2.714    1.429    2.143    0.000    2.571 
#    0.000    2.143    0.000    3.429    0.000    1.000 
#    0.000    6.857    0.000    0.000    0.000    0.000 
#
# Total GULP energy -693735.451582 kJ/mol
# GULP energy per Si atom -12388.133064 kJ/mol
# Density = 1.585495 g / cm^3
# Si number density = 15.891123 Si / 1000 Ang^3
#
#
#
# Elastic Constant Matrix: (Units=GPa)
#
#
# Indices 1 2 3 4 5 6 
#
# 1 34.0707 18.6688 25.9052 0.0000 0.0000 0.0000
# 2 18.6688 96.1284 57.8041 0.0000 0.0000 0.0000
# 3 25.9052 57.8041 103.5619 0.0000 0.0000 0.0000
# 4 0.0000 0.0000 0.0000 3.0111 0.0000 0.0000
# 5 0.0000 0.0000 0.0000 0.0000 7.4590 0.0000
# 6 0.0000 0.0000 0.0000 0.0000 0.0000 -13.3782
#
#
#
# Elastic Compliance Matrix: (Units=1/GPa)
#
#
# Indices 1 2 3 4 5 6 
#
# 1 0.036612 -0.002413 -0.007811 0.000000 0.000000 0.000000
# 2 -0.002413 0.015817 -0.008225 0.000000 0.000000 0.000000
# 3 -0.007811 -0.008225 0.016201 0.000000 0.000000 0.000000
# 4 0.000000 0.000000 0.000000 0.332104 0.000000 0.000000
# 5 0.000000 0.000000 0.000000 0.000000 0.134066 0.000000
# 6 0.000000 0.000000 0.000000 0.000000 0.000000 -0.074748
#
#
# Mechanical properties :
#
#
# Convention : Reuss Voigt Hill
#
# Bulk Modulus (GPa) = 31.51446 48.72413 40.11929
# Shear Modulus (GPa) = 9.85168 8.17725 9.01446
#
# Velocity S-wave (km/s) = 2.49258 2.27090 2.38431
# Velocity P-wave (km/s) = 5.30645 6.13219 5.73420
#
# Compressibility (1/GPa) = 0.03173146
#
# Stress axis : x y z
#
# Youngs Moduli (GPa) = 27.31321 63.22231 61.72540
#
# Poissons Ratio (x) = 0.15257 0.48216
# Poissons Ratio (y) = 0.06591 0.50768
# Poissons Ratio (z) = 0.21335 0.52000
#
# Static dielectric constant tensor:
#      x y z
#    x 2.927460 0.000000 0.000000 
#    y 0.000000 3.097420 0.000000 
#    z 0.000000 0.000000 2.436140 
# 
# 
# High freq. dielectric constant tensor:
#      x y z
#    x 1.601170 0.000000 0.000000 
#    y 0.000000 1.566790 0.000000 
#    z 0.000000 0.000000 1.615530 
# 
# From -- ./inp_files/38319.got.cif
#   From: 2010.03.12/outbox.cif.g09.slc.cpg/sg53_20_cif.got.tgz:38319.got - 2010.04.16 14:36:59.
