data_PCOD8217416
_publ_section_title
;
Structure prediction by ZEFSAII (Michael W. Deem and Ramdas Pophale) SiO2 
 PCOD8217416
Probable space group: P N N A
;
_chemical_formula_sum "Si O2"
_cell_formula_units_Z 24
_cell_length_a 27.174266
_cell_length_b 4.901525
_cell_length_c 7.762180
_cell_angle_alpha 90.000000
_cell_angle_beta 90.000000
_cell_angle_gamma 90.000000
_cell_volume 1033.886236
_symmetry_space_group_name_H-M "P N N A"
_symmetry_group_IT_number 52
_symmetry_cell_setting 'orthorhombic'
loop_
_space_group_symop_operation_xyz
x,y,z
1/2-x,-y,z
x,1/2-y,1/2-z
1/2-x,1/2+y,1/2-z
-x,-y,-z
1/2+x,y,-z
-x,1/2+y,1/2+z
1/2+x,1/2-y,1/2+z
loop_
_atom_site_type_symbol
_atom_site_label
_atom_site_fract_x
_atom_site_fract_y
_atom_site_fract_z
Si Si1 0.644807 0.143330 0.441838
Si Si2 0.200412 0.859800 0.058922
Si Si3 0.545885 0.003175 0.625344
O O1 0.637974 0.250000 0.250000
O O2 0.659459 0.401519 0.560939
O O3 0.685197 0.899747 0.442348
O O4 0.594499 0.017527 0.510081
O O5 0.208980 0.750000 0.250000
O O6 0.250000 0.000000 0.985248
O O7 0.549367 0.750000 0.750000
O O8 0.538468 0.250000 0.750000
O O9 0.500000 0.000000 0.500000
#
# Coordination Sequence:
#
# PCOD8217416 Si02
#       3
#     8   8   8
#     4  12  26  45  70 102 139 179 227 282 341 404
#     4  12  25  45  71  99 135 181 230 281 340 406
#     4  12  26  46  73 103 139 180 228 281 342 408
#
# _framework density 23.213387000000001
#
# number of rings (size 3 to 8) (size 9 to 14) (size 15 to 20)
#    0.000    0.000    0.000   12.000    0.000    5.333 
#    0.000    1.667    0.000    0.000    0.000    0.000 
#    0.000    0.000    0.000    0.000    0.000    0.000 
#
# Total GULP energy -297712.655893 kJ/mol
# GULP energy per Si atom -12404.693996 kJ/mol
# Density = 2.316055 g / cm^3
# Si number density = 23.213387 Si / 1000 Ang^3
#
#
#
# Elastic Constant Matrix: (Units=GPa)
#
#
# Indices 1 2 3 4 5 6 
#
# 1 140.4818 77.4892 87.6222 0.0000 0.0000 0.0000
# 2 77.4892 211.6316 87.4433 0.0000 0.0000 0.0000
# 3 87.6222 87.4433 148.2983 0.0000 0.0000 0.0000
# 4 0.0000 0.0000 0.0000 51.5777 0.0000 0.0000
# 5 0.0000 0.0000 0.0000 0.0000 40.9818 0.0000
# 6 0.0000 0.0000 0.0000 0.0000 0.0000 45.8399
#
#
#
# Elastic Compliance Matrix: (Units=1/GPa)
#
#
# Indices 1 2 3 4 5 6 
#
# 1 0.011828 -0.001908 -0.005864 0.000000 0.000000 0.000000
# 2 -0.001908 0.006555 -0.002738 0.000000 0.000000 0.000000
# 3 -0.005864 -0.002738 0.011822 0.000000 0.000000 0.000000
# 4 0.000000 0.000000 0.000000 0.019388 0.000000 0.000000
# 5 0.000000 0.000000 0.000000 0.000000 0.024401 0.000000
# 6 0.000000 0.000000 0.000000 0.000000 0.000000 0.021815
#
#
# Mechanical properties :
#
#
# Convention : Reuss Voigt Hill
#
# Bulk Modulus (GPa) = 108.85776 111.72455 110.29116
# Shear Modulus (GPa) = 41.70479 44.20369 42.95424
#
# Velocity S-wave (km/s) = 4.24321 4.36849 4.30630
# Velocity P-wave (km/s) = 8.42631 8.58363 8.50533
#
# Compressibility (1/GPa) = 0.00918630
#
# Stress axis : x y z
#
# Youngs Moduli (GPa) = 84.54430 152.55401 84.58866
#
# Poissons Ratio (x) = 0.29110 0.49599
# Poissons Ratio (y) = 0.16132 0.23158
# Poissons Ratio (z) = 0.49573 0.41765
#
# Static dielectric constant tensor:
#      x y z
#    x 4.564280 0.000000 0.000000 
#    y 0.000000 4.742360 0.000000 
#    z 0.000000 0.000000 4.113180 
# 
# 
# High freq. dielectric constant tensor:
#      x y z
#    x 1.925900 0.000000 0.000000 
#    y 0.000000 1.951550 0.000000 
#    z 0.000000 0.000000 1.922110 
# 
# From -- ./inp_files/14592.got.cif
#   From: 2010.06.25/outbox.cif.g09.slc.cpg/sg52_8_cif.got.tgz:14592.got - 2010.06.26 19:32:48.
