data_PCOD8217491
_publ_section_title
;
Structure prediction by ZEFSAII (Michael W. Deem and Ramdas Pophale) SiO2 
 PCOD8217491
Probable space group: P M N A
;
_chemical_formula_sum "Si O2"
_cell_formula_units_Z 40
_cell_length_a 23.742484
_cell_length_b 10.056492
_cell_length_c 9.050636
_cell_angle_alpha 90.000000
_cell_angle_beta 90.000000
_cell_angle_gamma 90.000000
_cell_volume 2160.985064
_symmetry_space_group_name_H-M "P M N A"
_symmetry_group_IT_number 53
_symmetry_cell_setting 'orthorhombic'
loop_
_space_group_symop_operation_xyz
x,y,z
1/2-x,-y,1/2+z
x,-y,-z
1/2-x,y,1/2-z
-x,-y,-z
1/2+x,y,1/2-z
-x,y,z
1/2+x,-y,1/2+z
loop_
_atom_site_type_symbol
_atom_site_label
_atom_site_fract_x
_atom_site_fract_y
_atom_site_fract_z
Si Si1 0.276104 0.373648 0.910920
Si Si2 0.621976 0.696243 0.564606
Si Si3 0.773932 0.134736 0.089287
Si Si4 0.000000 0.473407 0.670902
Si Si5 0.879382 0.431343 0.762266
Si Si6 0.000000 0.351983 0.078088
O O1 0.250000 0.365668 0.750000
O O2 0.342930 0.394500 0.882313
O O3 0.251374 0.500000 0.000000
O O4 0.264574 0.243181 0.006815
O O5 0.660909 0.820360 0.607019
O O6 0.643824 0.648072 0.404562
O O7 0.626705 0.586709 0.694283
O O8 0.555840 0.732879 0.540775
O O9 0.750000 0.107093 0.250000
O O10 0.771572 0.000000 0.000000
O O11 0.000000 0.500000 0.500000
O O12 0.944045 0.393728 0.722979
O O13 0.000000 0.618459 0.747065
O O14 0.000000 0.500000 0.000000
#
# Coordination Sequence:
#
# PCOD8217491 Si02
#       6
#     8   8   8   4   8   4
#     4  12  22  35  58  88 118 155 197 246 296 354
#     4  10  18  36  60  88 118 154 196 242 292 360
#     4  12  27  44  60  84 118 161 206 253 306 361
#     4  10  18  28  48  90 131 150 185 240 301 346
#     4  10  18  32  57  88 122 153 191 239 295 345
#     4  10  16  34  59  86 120 154 187 236 296 355
#
# _framework density 18.510076999999999
#
# number of rings (size 3 to 8) (size 9 to 14) (size 15 to 20)
#    0.000    1.200    6.000    4.200    0.000    1.600 
#    0.000    0.500    0.000    0.000    0.000    1.400 
#    0.000    0.000    0.000    0.000    0.000    0.000 
#
# Total GULP energy -495756.730811 kJ/mol
# GULP energy per Si atom -12393.918270 kJ/mol
# Density = 1.846795 g / cm^3
# Si number density = 18.510077 Si / 1000 Ang^3
#
#
#
# Elastic Constant Matrix: (Units=GPa)
#
#
# Indices 1 2 3 4 5 6 
#
# 1 133.0622 55.9953 45.0441 0.0000 0.0000 0.0000
# 2 55.9953 105.3190 48.2604 0.0000 0.0000 0.0000
# 3 45.0441 48.2604 118.1007 0.0000 0.0000 0.0000
# 4 0.0000 0.0000 0.0000 29.1497 0.0000 0.0000
# 5 0.0000 0.0000 0.0000 0.0000 74.8492 0.0000
# 6 0.0000 0.0000 0.0000 0.0000 0.0000 5.0788
#
#
#
# Elastic Compliance Matrix: (Units=1/GPa)
#
#
# Indices 1 2 3 4 5 6 
#
# 1 0.010063 -0.004419 -0.002032 0.000000 0.000000 0.000000
# 2 -0.004419 0.013623 -0.003881 0.000000 0.000000 0.000000
# 3 -0.002032 -0.003881 0.010829 0.000000 0.000000 0.000000
# 4 0.000000 0.000000 0.000000 0.034306 0.000000 0.000000
# 5 0.000000 0.000000 0.000000 0.000000 0.013360 0.000000
# 6 0.000000 0.000000 0.000000 0.000000 0.000000 0.196896
#
#
# Mechanical properties :
#
#
# Convention : Reuss Voigt Hill
#
# Bulk Modulus (GPa) = 72.20686 72.78682 72.49684
# Shear Modulus (GPa) = 16.42802 35.62769 26.02785
#
# Velocity S-wave (km/s) = 2.98236 4.39198 3.75393
# Velocity P-wave (km/s) = 7.13817 8.07016 7.61843
#
# Compressibility (1/GPa) = 0.01384910
#
# Stress axis : x y z
#
# Youngs Moduli (GPa) = 99.37595 73.40546 92.34816
#
# Poissons Ratio (x) = 0.32437 0.18768
# Poissons Ratio (y) = 0.43913 0.35845
# Poissons Ratio (z) = 0.20196 0.28492
#
# Static dielectric constant tensor:
#      x y z
#    x 3.852810 0.000000 0.000000 
#    y 0.000000 2.920850 0.000000 
#    z 0.000000 0.000000 3.656030 
# 
# 
# High freq. dielectric constant tensor:
#      x y z
#    x 1.742840 0.000000 0.000000 
#    y 0.000000 1.650850 0.000000 
#    z 0.000000 0.000000 1.734190 
# 
# From -- ./inp_files/12347.got.cif
#   From: 2010.03.12/outbox.cif.g09.slc.cpg/sg53_7_cif.got.tgz:12347.got - 2010.04.16 14:36:59.
