data_PCOD8217834
_publ_section_title
;
Structure prediction by ZEFSAII (Michael W. Deem and Ramdas Pophale) SiO2 
 PCOD8217834
Probable space group: P M N A
;
_chemical_formula_sum "Si O2"
_cell_formula_units_Z 56
_cell_length_a 8.809289
_cell_length_b 15.270130
_cell_length_c 23.679096
_cell_angle_alpha 90.000000
_cell_angle_beta 90.000000
_cell_angle_gamma 90.000000
_cell_volume 3185.288036
_symmetry_space_group_name_H-M "P M N A"
_symmetry_group_IT_number 53
_symmetry_cell_setting 'orthorhombic'
loop_
_space_group_symop_operation_xyz
x,y,z
1/2-x,-y,1/2+z
x,-y,-z
1/2-x,y,1/2-z
-x,-y,-z
1/2+x,y,1/2-z
-x,y,z
1/2+x,-y,1/2+z
loop_
_atom_site_type_symbol
_atom_site_label
_atom_site_fract_x
_atom_site_fract_y
_atom_site_fract_z
Si Si1 0.325065 0.643510 0.606961
Si Si2 0.678801 0.821712 0.430818
Si Si3 0.820085 0.822109 0.938710
Si Si4 0.830623 0.000077 0.433227
Si Si5 0.181765 0.506555 0.189137
Si Si6 0.679275 0.661047 0.121079
Si Si7 0.162391 0.401063 0.500565
O O1 0.500000 0.641563 0.620683
O O2 0.268819 0.745073 0.605306
O O3 0.251153 0.574875 0.651272
O O4 0.296054 0.613427 0.543450
O O5 0.500000 0.812314 0.425120
O O6 0.731794 0.800856 0.496020
O O7 0.728062 0.919333 0.412865
O O8 0.757231 0.759836 0.383530
O O9 0.000000 0.835233 0.939299
O O10 0.743959 0.908942 0.913492
O O11 0.000000 0.992053 0.407706
O O12 0.837121 0.000000 0.500000
O O13 0.250000 0.488543 0.250000
O O14 0.239874 0.601267 0.168079
O O15 0.000000 0.508184 0.190457
O O16 0.500000 0.661489 0.132988
O O17 0.727523 0.621137 0.061457
O O18 0.116694 0.500000 0.500000
O O19 0.000000 0.350891 0.487870
#
# Coordination Sequence:
#
# PCOD8217834 Si02
#       7
#     8   8   8   8   8   8   8
#     4  10  20  33  51  74 100 133 171 210 251 302
#     4  10  18  29  47  71 102 138 172 205 248 301
#     4   9  17  29  45  69 101 135 170 205 247 301
#     4   9  17  28  42  65 100 138 172 204 244 297
#     4  11  24  40  56  73  98 133 174 217 260 304
#     4  11  21  33  51  75 104 135 170 210 253 303
#     4  10  19  30  46  72 103 133 163 202 252 302
#
# _framework density 17.580826999999999
#
# number of rings (size 3 to 8) (size 9 to 14) (size 15 to 20)
#    0.000    2.000    2.857    1.714    0.000    4.286 
#    0.000    0.000    0.000    0.000    0.000    1.000 
#    0.000    2.286    0.000    0.000    0.000    0.000 
#
# Total GULP energy -693758.130737 kJ/mol
# GULP energy per Si atom -12388.538049 kJ/mol
# Density = 1.754081 g / cm^3
# Si number density = 17.580827 Si / 1000 Ang^3
#
#
#
# Elastic Constant Matrix: (Units=GPa)
#
#
# Indices 1 2 3 4 5 6 
#
# 1 61.7061 42.6233 20.2490 0.0000 0.0000 0.0000
# 2 42.6233 120.3910 31.7138 0.0000 0.0000 0.0000
# 3 20.2490 31.7138 53.6175 0.0000 0.0000 0.0000
# 4 0.0000 0.0000 0.0000 11.0441 0.0000 0.0000
# 5 0.0000 0.0000 0.0000 0.0000 20.7943 0.0000
# 6 0.0000 0.0000 0.0000 0.0000 0.0000 27.2861
#
#
#
# Elastic Compliance Matrix: (Units=1/GPa)
#
#
# Indices 1 2 3 4 5 6 
#
# 1 0.022313 -0.006728 -0.004447 0.000000 0.000000 0.000000
# 2 -0.006728 0.011868 -0.004479 0.000000 0.000000 0.000000
# 3 -0.004447 -0.004479 0.022979 0.000000 0.000000 0.000000
# 4 0.000000 0.000000 0.000000 0.090546 0.000000 0.000000
# 5 0.000000 0.000000 0.000000 0.000000 0.048090 0.000000
# 6 0.000000 0.000000 0.000000 0.000000 0.000000 0.036649
#
#
# Mechanical properties :
#
#
# Convention : Reuss Voigt Hill
#
# Bulk Modulus (GPa) = 38.68165 47.20967 42.94566
# Shear Modulus (GPa) = 18.35740 21.23347 19.79544
#
# Velocity S-wave (km/s) = 3.23487 3.47906 3.35918
# Velocity P-wave (km/s) = 6.00020 6.56123 6.28698
#
# Compressibility (1/GPa) = 0.02585205
#
# Stress axis : x y z
#
# Youngs Moduli (GPa) = 44.81785 84.25929 43.51757
#
# Poissons Ratio (x) = 0.56691 0.19352
# Poissons Ratio (y) = 0.30154 0.19491
# Poissons Ratio (z) = 0.19930 0.37739
#
# Static dielectric constant tensor:
#      x y z
#    x 3.279320 0.000000 0.000000 
#    y 0.000000 3.610850 0.000000 
#    z 0.000000 0.000000 2.876450 
# 
# 
# High freq. dielectric constant tensor:
#      x y z
#    x 1.687130 0.000000 0.000000 
#    y 0.000000 1.694640 0.000000 
#    z 0.000000 0.000000 1.615760 
# 
# From -- ./inp_files/30727.got.cif
#   From: 2010.03.12/outbox.cif.g09.slc.cpg/sg53_16_cif.got.tgz:30727.got - 2010.04.16 14:36:59.
