data_PCOD8217780
_publ_section_title
;
Structure prediction by ZEFSAII (Michael W. Deem and Ramdas Pophale) SiO2 
 PCOD8217780
Probable space group: P M N A
;
_chemical_formula_sum "Si O2"
_cell_formula_units_Z 64
_cell_length_a 11.622784
_cell_length_b 11.269997
_cell_length_c 27.140207
_cell_angle_alpha 90.000000
_cell_angle_beta 90.000000
_cell_angle_gamma 90.000000
_cell_volume 3555.061540
_symmetry_space_group_name_H-M "P M N A"
_symmetry_group_IT_number 53
_symmetry_cell_setting 'orthorhombic'
loop_
_space_group_symop_operation_xyz
x,y,z
1/2-x,-y,1/2+z
x,-y,-z
1/2-x,y,1/2-z
-x,-y,-z
1/2+x,y,1/2-z
-x,y,z
1/2+x,-y,1/2+z
loop_
_atom_site_type_symbol
_atom_site_label
_atom_site_fract_x
_atom_site_fract_y
_atom_site_fract_z
Si Si1 0.633798 0.143384 0.585004
Si Si2 0.372544 0.810806 0.720863
Si Si3 0.629159 0.222070 0.479545
Si Si4 0.373644 0.295732 0.130816
Si Si5 0.704866 0.563011 0.699552
Si Si6 0.787044 0.564367 0.546072
Si Si7 0.869368 0.405616 0.886292
Si Si8 0.197335 0.098573 0.118608
O O1 0.500000 0.107131 0.589533
O O2 0.672522 0.149816 0.527613
O O3 0.658770 0.265935 0.613756
O O4 0.711348 0.042774 0.611586
O O5 0.250000 0.841047 0.750000
O O6 0.500000 0.845259 0.745090
O O7 0.382193 0.669518 0.712388
O O8 0.372712 0.876928 0.668415
O O9 0.500000 0.262063 0.490816
O O10 0.698450 0.342091 0.475510
O O11 0.631529 0.145677 0.429784
O O12 0.500000 0.273126 0.151196
O O13 0.308838 0.374035 0.170748
O O14 0.379786 0.368384 0.079585
O O15 0.318900 0.166210 0.122408
O O16 0.750000 0.503389 0.750000
O O17 0.645526 0.459077 0.668469
O O18 0.849542 0.500000 0.500000
O O19 0.717042 0.468753 0.577088
O O20 0.000000 0.427414 0.903832
#
# Coordination Sequence:
#
# PCOD8217780 Si02
#       8
#     8   8   8   8   8   8   8   8
#     4  10  19  30  48  74 105 139 167 197 244 309
#     4  10  20  34  54  80 105 133 172 221 274 318
#     4  10  18  28  48  76 104 135 166 201 253 309
#     4   9  20  35  52  74  95 128 175 216 260 304
#     4   9  19  33  53  77 101 130 163 214 266 313
#     4  10  18  30  48  73 103 133 162 206 250 303
#     4  10  19  30  48  77 108 135 162 198 253 315
#     4  10  20  33  51  72 103 134 170 218 256 302
#
# _framework density 18.002502
#
# number of rings (size 3 to 8) (size 9 to 14) (size 15 to 20)
#    0.000    2.250    1.250    3.000    0.000    6.750 
#    0.000    0.625    0.000    9.000    0.000    0.000 
#    0.000    0.000    0.000    0.000    0.000    0.000 
#
# Total GULP energy -792924.846557 kJ/mol
# GULP energy per Si atom -12389.450727 kJ/mol
# Density = 1.796153 g / cm^3
# Si number density = 18.002502 Si / 1000 Ang^3
#
#
#
# Elastic Constant Matrix: (Units=GPa)
#
#
# Indices 1 2 3 4 5 6 
#
# 1 84.9070 24.0034 11.0756 0.0000 0.0000 0.0000
# 2 24.0034 97.0699 36.2800 0.0000 0.0000 0.0000
# 3 11.0756 36.2800 96.3990 0.0000 0.0000 0.0000
# 4 0.0000 0.0000 0.0000 19.9136 0.0000 0.0000
# 5 0.0000 0.0000 0.0000 0.0000 10.5959 0.0000
# 6 0.0000 0.0000 0.0000 0.0000 0.0000 1.7915
#
#
#
# Elastic Compliance Matrix: (Units=1/GPa)
#
#
# Indices 1 2 3 4 5 6 
#
# 1 0.012671 -0.003013 -0.000322 0.000000 0.000000 0.000000
# 2 -0.003013 0.012705 -0.004435 0.000000 0.000000 0.000000
# 3 -0.000322 -0.004435 0.012080 0.000000 0.000000 0.000000
# 4 0.000000 0.000000 0.000000 0.050217 0.000000 0.000000
# 5 0.000000 0.000000 0.000000 0.000000 0.094376 0.000000
# 6 0.000000 0.000000 0.000000 0.000000 0.000000 0.558206
#
#
# Mechanical properties :
#
#
# Convention : Reuss Voigt Hill
#
# Bulk Modulus (GPa) = 45.63005 46.78818 46.20911
# Shear Modulus (GPa) = 6.55222 20.26133 13.40678
#
# Velocity S-wave (km/s) = 1.90985 3.35845 2.73191
# Velocity P-wave (km/s) = 5.50135 6.40977 5.97286
#
# Compressibility (1/GPa) = 0.02191538
#
# Stress axis : x y z
#
# Youngs Moduli (GPa) = 78.91797 78.71165 82.78321
#
# Poissons Ratio (x) = 0.23716 0.02665
# Poissons Ratio (y) = 0.23779 0.36716
# Poissons Ratio (z) = 0.02540 0.34910
#
# Static dielectric constant tensor:
#      x y z
#    x 3.070670 0.000000 0.000000 
#    y 0.000000 3.308970 0.000000 
#    z 0.000000 0.000000 3.610390 
# 
# 
# High freq. dielectric constant tensor:
#      x y z
#    x 1.670920 0.000000 0.000000 
#    y 0.000000 1.680650 0.000000 
#    z 0.000000 0.000000 1.707550 
# 
# From -- ./inp_files/36850.got.cif
#   From: 2010.03.12/outbox.cif.g09.slc.cpg/sg53_19_cif.got.tgz:36850.got - 2010.04.16 14:36:59.
