data_PCOD8217364
_publ_section_title
;
Structure prediction by ZEFSAII (Michael W. Deem and Ramdas Pophale) SiO2 
 PCOD8217364
Probable space group: P N N A
;
_chemical_formula_sum "Si O2"
_cell_formula_units_Z 24
_cell_length_a 16.674132
_cell_length_b 13.178254
_cell_length_c 4.914120
_cell_angle_alpha 90.000000
_cell_angle_beta 90.000000
_cell_angle_gamma 90.000000
_cell_volume 1079.808811
_symmetry_space_group_name_H-M "P N N A"
_symmetry_group_IT_number 52
_symmetry_cell_setting 'orthorhombic'
loop_
_space_group_symop_operation_xyz
x,y,z
1/2-x,-y,z
x,1/2-y,1/2-z
1/2-x,1/2+y,1/2-z
-x,-y,-z
1/2+x,y,-z
-x,1/2+y,1/2+z
1/2+x,1/2-y,1/2+z
loop_
_atom_site_type_symbol
_atom_site_label
_atom_site_fract_x
_atom_site_fract_y
_atom_site_fract_z
Si Si1 0.331797 0.956372 0.872798
Si Si2 0.358343 0.250000 0.250000
Si Si3 0.759891 0.750000 0.250000
Si Si4 0.083283 0.535252 0.127283
O O1 0.321634 0.843425 0.758872
O O2 0.250000 0.000000 0.002077
O O3 0.351955 0.026266 0.613120
O O4 0.397792 0.963021 0.113148
O O5 0.298570 0.258038 0.498217
O O6 0.416437 0.347925 0.227679
O O7 0.000000 0.500000 0.000000
#
# Coordination Sequence:
#
# PCOD8217364 Si02
#       4
#     8   4   4   8
#     4  12  23  45  70 105 135 186 241 291 344 425
#     4  12  22  43  68 101 136 192 230 288 372 411
#     4  12  24  39  76 103 134 180 246 296 342 421
#     4  12  26  44  70 103 148 184 231 295 362 429
#
# _framework density 22.226154999999999
#
# number of rings (size 3 to 8) (size 9 to 14) (size 15 to 20)
#    0.000    0.000    6.667    4.000    0.000    1.333 
#    0.000    3.333    0.000    0.000    0.000    0.000 
#    0.000    0.000    0.000    0.000    0.000    0.000 
#
# Total GULP energy -297639.285840 kJ/mol
# GULP energy per Si atom -12401.636910 kJ/mol
# Density = 2.217557 g / cm^3
# Si number density = 22.226155 Si / 1000 Ang^3
#
#
#
# Elastic Constant Matrix: (Units=GPa)
#
#
# Indices 1 2 3 4 5 6 
#
# 1 94.6633 85.3322 43.7416 0.0000 0.0000 0.0000
# 2 85.3322 173.0189 61.6892 0.0000 0.0000 0.0000
# 3 43.7416 61.6892 158.2373 0.0000 0.0000 0.0000
# 4 0.0000 0.0000 0.0000 34.0295 0.0000 0.0000
# 5 0.0000 0.0000 0.0000 0.0000 50.2543 0.0000
# 6 0.0000 0.0000 0.0000 0.0000 0.0000 36.5697
#
#
#
# Elastic Compliance Matrix: (Units=1/GPa)
#
#
# Indices 1 2 3 4 5 6 
#
# 1 0.019502 -0.008939 -0.001906 0.000000 0.000000 0.000000
# 2 -0.008939 0.010810 -0.001743 0.000000 0.000000 0.000000
# 3 -0.001906 -0.001743 0.007526 0.000000 0.000000 0.000000
# 4 0.000000 0.000000 0.000000 0.029386 0.000000 0.000000
# 5 0.000000 0.000000 0.000000 0.000000 0.019899 0.000000
# 6 0.000000 0.000000 0.000000 0.000000 0.000000 0.027345
#
#
# Mechanical properties :
#
#
# Convention : Reuss Voigt Hill
#
# Bulk Modulus (GPa) = 78.97827 89.71617 84.34722
# Shear Modulus (GPa) = 34.75470 39.84780 37.30125
#
# Velocity S-wave (km/s) = 3.95864 4.23878 4.10110
# Velocity P-wave (km/s) = 7.51701 8.02553 7.77543
#
# Compressibility (1/GPa) = 0.01266171
#
# Stress axis : x y z
#
# Youngs Moduli (GPa) = 51.27622 92.50832 132.86942
#
# Poissons Ratio (x) = 0.82691 0.25328
# Poissons Ratio (y) = 0.45835 0.23163
# Poissons Ratio (z) = 0.09774 0.16127
#
# Static dielectric constant tensor:
#      x y z
#    x 3.286330 0.000000 0.000000 
#    y 0.000000 4.352830 0.000000 
#    z 0.000000 0.000000 4.237280 
# 
# 
# High freq. dielectric constant tensor:
#      x y z
#    x 1.860390 0.000000 0.000000 
#    y 0.000000 1.883480 0.000000 
#    z 0.000000 0.000000 1.899610 
# 
# From -- ./inp_files/2861.got.cif
#   From: 2010.06.25/outbox.cif.g09.slc.cpg/sg52_2_cif.got.tgz:2861.got - 2010.06.26 19:32:48.
