data_PCOD8217012
_publ_section_title
;
Structure prediction by ZEFSAII (Michael W. Deem and Ramdas Pophale) SiO2 
 PCOD8217012
Probable space group: P N N A
;
_chemical_formula_sum "Si O2"
_cell_formula_units_Z 64
_cell_length_a 9.511292
_cell_length_b 14.100939
_cell_length_c 26.766556
_cell_angle_alpha 90.000000
_cell_angle_beta 90.000000
_cell_angle_gamma 90.000000
_cell_volume 3589.880927
_symmetry_space_group_name_H-M "P N N A"
_symmetry_group_IT_number 52
_symmetry_cell_setting 'orthorhombic'
loop_
_space_group_symop_operation_xyz
x,y,z
1/2-x,-y,z
x,1/2-y,1/2-z
1/2-x,1/2+y,1/2-z
-x,-y,-z
1/2+x,y,-z
-x,1/2+y,1/2+z
1/2+x,1/2-y,1/2+z
loop_
_atom_site_type_symbol
_atom_site_label
_atom_site_fract_x
_atom_site_fract_y
_atom_site_fract_z
Si Si1 0.411303 0.808762 0.199943
Si Si2 0.420511 0.315925 0.297485
Si Si3 0.742344 0.114829 0.439478
Si Si4 0.016541 0.827600 0.378522
Si Si5 0.091859 0.508495 0.711729
Si Si6 0.257260 0.888093 0.448054
Si Si7 0.996685 0.665695 0.883816
Si Si8 0.406840 0.998954 0.674331
O O1 0.454294 0.750000 0.250000
O O2 0.246749 0.834896 0.202057
O O3 0.445120 0.752212 0.149504
O O4 0.504611 0.902420 0.191375
O O5 0.459476 0.250000 0.250000
O O6 0.474098 0.272560 0.350220
O O7 0.502298 0.414129 0.295219
O O8 0.591583 0.156461 0.423900
O O9 0.777395 0.146401 0.496085
O O10 0.843232 0.172967 0.402224
O O11 0.750000 0.000000 0.435871
O O12 0.164833 0.844040 0.404208
O O13 0.980398 0.898072 0.332884
O O14 0.250000 0.500000 0.687748
O O15 0.112260 0.529809 0.769496
O O16 0.411276 0.849817 0.434806
O O17 0.250000 0.000000 0.445408
O O18 0.984839 0.571492 0.850544
O O19 0.250000 0.000000 0.649071
#
# Coordination Sequence:
#
# PCOD8217012 Si02
#       8
#     8   8   8   8   8   8   8   8
#     4  11  24  39  58  86 119 156 195 236 286 347
#     4  11  24  39  58  86 119 156 195 236 286 347
#     4  11  22  36  55  83 123 157 191 246 289 339
#     4  12  20  36  56  83 117 163 191 230 290 344
#     4  11  25  39  59  86 118 156 200 243 282 336
#     4  11  22  34  55  87 119 153 201 238 285 349
#     4  12  20  36  56  83 117 163 191 230 290 344
#     4  11  20  34  53  86 122 156 194 235 282 336
#
# _framework density 17.82789
#
# number of rings (size 3 to 8) (size 9 to 14) (size 15 to 20)
#    0.000    0.750    7.500    1.125    1.750    2.500 
#    2.250    0.000    0.000    0.000    0.000    5.250 
#    0.000    0.000    0.000    0.000    0.000    0.000 
#
# Total GULP energy -793125.286682 kJ/mol
# GULP energy per Si atom -12392.582604 kJ/mol
# Density = 1.778731 g / cm^3
# Si number density = 17.827890 Si / 1000 Ang^3
#
#
#
# Elastic Constant Matrix: (Units=GPa)
#
#
# Indices 1 2 3 4 5 6 
#
# 1 92.3404 50.2815 23.2947 0.0000 0.0000 0.0000
# 2 50.2815 96.7199 33.2203 0.0000 0.0000 0.0000
# 3 23.2947 33.2203 83.0320 0.0000 0.0000 0.0000
# 4 0.0000 0.0000 0.0000 20.7147 0.0000 0.0000
# 5 0.0000 0.0000 0.0000 0.0000 31.3466 0.0000
# 6 0.0000 0.0000 0.0000 0.0000 0.0000 31.4672
#
#
#
# Elastic Compliance Matrix: (Units=1/GPa)
#
#
# Indices 1 2 3 4 5 6 
#
# 1 0.015222 -0.007474 -0.001280 0.000000 0.000000 0.000000
# 2 -0.007474 0.015656 -0.004167 0.000000 0.000000 0.000000
# 3 -0.001280 -0.004167 0.014070 0.000000 0.000000 0.000000
# 4 0.000000 0.000000 0.000000 0.048275 0.000000 0.000000
# 5 0.000000 0.000000 0.000000 0.000000 0.031901 0.000000
# 6 0.000000 0.000000 0.000000 0.000000 0.000000 0.031779
#
#
# Mechanical properties :
#
#
# Convention : Reuss Voigt Hill
#
# Bulk Modulus (GPa) = 52.34064 53.96503 53.15283
# Shear Modulus (GPa) = 26.43913 27.72543 27.08228
#
# Velocity S-wave (km/s) = 3.85518 3.94784 3.90179
# Velocity P-wave (km/s) = 7.01706 7.14957 7.08362
#
# Compressibility (1/GPa) = 0.01910561
#
# Stress axis : x y z
#
# Youngs Moduli (GPa) = 65.69397 63.87460 71.07354
#
# Poissons Ratio (x) = 0.47738 0.09100
# Poissons Ratio (y) = 0.49098 0.29616
# Poissons Ratio (z) = 0.08412 0.26616
#
# Static dielectric constant tensor:
#      x y z
#    x 3.507980 0.000000 0.000000 
#    y 0.000000 3.047380 0.000000 
#    z 0.000000 0.000000 3.362250 
# 
# 
# High freq. dielectric constant tensor:
#      x y z
#    x 1.706820 0.000000 0.000000 
#    y 0.000000 1.657030 0.000000 
#    z 0.000000 0.000000 1.689200 
# 
# From -- ./inp_files/44620.got.cif
#   From: 2010.06.25/outbox.cif.g09.slc.cpg/sg52_23_cif.got.tgz:44620.got - 2010.06.26 19:32:48.
