data_PCOD8217162
_publ_section_title
;
Structure prediction by ZEFSAII (Michael W. Deem and Ramdas Pophale) SiO2 
 PCOD8217162
Probable space group: P N N A
;
_chemical_formula_sum "Si O2"
_cell_formula_units_Z 32
_cell_length_a 13.826394
_cell_length_b 8.538232
_cell_length_c 11.000774
_cell_angle_alpha 90.000000
_cell_angle_beta 90.000000
_cell_angle_gamma 90.000000
_cell_volume 1298.673930
_symmetry_space_group_name_H-M "P N N A"
_symmetry_group_IT_number 52
_symmetry_cell_setting 'orthorhombic'
loop_
_space_group_symop_operation_xyz
x,y,z
1/2-x,-y,z
x,1/2-y,1/2-z
1/2-x,1/2+y,1/2-z
-x,-y,-z
1/2+x,y,-z
-x,1/2+y,1/2+z
1/2+x,1/2-y,1/2+z
loop_
_atom_site_type_symbol
_atom_site_label
_atom_site_fract_x
_atom_site_fract_y
_atom_site_fract_z
Si Si1 0.487196 0.894239 0.883555
Si Si2 0.963082 0.892512 0.670823
Si Si3 0.775042 0.683223 0.379221
Si Si4 0.620124 0.843670 0.530414
O O1 0.389250 0.792478 0.897330
O O2 0.479484 0.993713 0.761466
O O3 0.579075 0.779476 0.871111
O O4 0.500000 0.000000 0.000000
O O5 0.916394 0.750000 0.750000
O O6 0.044290 0.829561 0.580397
O O7 0.879300 0.985026 0.594880
O O8 0.750000 0.500000 0.392830
O O9 0.739955 0.750000 0.250000
O O10 0.724771 0.789339 0.483397
#
# Coordination Sequence:
#
# PCOD8217162 Si02
#       4
#     8   8   8   8
#     4  12  23  43  74 100 143 192 234 304 376 436
#     4  11  22  43  70 103 147 198 240 301 377 436
#     4  12  24  42  70 108 142 187 256 312 363 444
#     4  11  24  42  72 104 143 191 250 305 365 432
#
# _framework density 24.640518
#
# number of rings (size 3 to 8) (size 9 to 14) (size 15 to 20)
#    0.000    0.500    5.000    4.500    0.000    2.000 
#    0.000    0.000   16.500    0.000    0.000    0.000 
#    0.000    0.000    0.000    0.000    0.000    0.000 
#
# Total GULP energy -396780.879837 kJ/mol
# GULP energy per Si atom -12399.402495 kJ/mol
# Density = 2.458444 g / cm^3
# Si number density = 24.640518 Si / 1000 Ang^3
#
#
#
# Elastic Constant Matrix: (Units=GPa)
#
#
# Indices 1 2 3 4 5 6 
#
# 1 109.6506 46.0193 28.9893 0.0000 0.0000 0.0000
# 2 46.0193 135.4822 62.3699 0.0000 0.0000 0.0000
# 3 28.9893 62.3699 96.9649 0.0000 0.0000 0.0000
# 4 0.0000 0.0000 0.0000 66.2821 0.0000 0.0000
# 5 0.0000 0.0000 0.0000 0.0000 22.4357 0.0000
# 6 0.0000 0.0000 0.0000 0.0000 0.0000 31.3629
#
#
#
# Elastic Compliance Matrix: (Units=1/GPa)
#
#
# Indices 1 2 3 4 5 6 
#
# 1 0.010738 -0.003082 -0.001228 0.000000 0.000000 0.000000
# 2 -0.003082 0.011371 -0.006392 0.000000 0.000000 0.000000
# 3 -0.001228 -0.006392 0.014792 0.000000 0.000000 0.000000
# 4 0.000000 0.000000 0.000000 0.015087 0.000000 0.000000
# 5 0.000000 0.000000 0.000000 0.000000 0.044572 0.000000
# 6 0.000000 0.000000 0.000000 0.000000 0.000000 0.031885
#
#
# Mechanical properties :
#
#
# Convention : Reuss Voigt Hill
#
# Bulk Modulus (GPa) = 64.53361 68.53941 66.53651
# Shear Modulus (GPa) = 32.25505 37.66407 34.95956
#
# Velocity S-wave (km/s) = 3.62197 3.91390 3.77076
# Velocity P-wave (km/s) = 6.61350 6.94989 6.78378
#
# Compressibility (1/GPa) = 0.01549580
#
# Stress axis : x y z
#
# Youngs Moduli (GPa) = 93.12686 87.94485 67.60485
#
# Poissons Ratio (x) = 0.27106 0.08301
# Poissons Ratio (y) = 0.28703 0.43216
# Poissons Ratio (z) = 0.11434 0.56218
#
# Static dielectric constant tensor:
#      x y z
#    x 4.166930 0.000000 0.000000 
#    y 0.000000 4.796700 0.000000 
#    z 0.000000 0.000000 4.784700 
# 
# 
# High freq. dielectric constant tensor:
#      x y z
#    x 1.942680 0.000000 0.000000 
#    y 0.000000 2.001070 0.000000 
#    z 0.000000 0.000000 1.995240 
# 
# From -- ./inp_files/18880.got.cif
#   From: 2010.06.25/outbox.cif.g09.slc.cpg/sg52_10_cif.got.tgz:18880.got - 2010.06.26 19:32:48.
