data_PCOD8217638
_publ_section_title
;
Structure prediction by ZEFSAII (Michael W. Deem and Ramdas Pophale) SiO2 
 PCOD8217638
Probable space group: P M N A
;
_chemical_formula_sum "Si O2"
_cell_formula_units_Z 64
_cell_length_a 16.892120
_cell_length_b 16.824206
_cell_length_c 12.060845
_cell_angle_alpha 90.000000
_cell_angle_beta 90.000000
_cell_angle_gamma 90.000000
_cell_volume 3427.650016
_symmetry_space_group_name_H-M "P M N A"
_symmetry_group_IT_number 53
_symmetry_cell_setting 'orthorhombic'
loop_
_space_group_symop_operation_xyz
x,y,z
1/2-x,-y,1/2+z
x,-y,-z
1/2-x,y,1/2-z
-x,-y,-z
1/2+x,y,1/2-z
-x,y,z
1/2+x,-y,1/2+z
loop_
_atom_site_type_symbol
_atom_site_label
_atom_site_fract_x
_atom_site_fract_y
_atom_site_fract_z
Si Si1 0.094071 0.607443 0.913601
Si Si2 0.151440 0.173980 0.566231
Si Si3 0.906272 0.709378 0.271828
Si Si4 0.665669 0.837182 0.392669
Si Si5 0.907238 0.874860 0.664423
Si Si6 0.090800 0.951306 0.270912
Si Si7 0.092784 0.217410 0.114272
Si Si8 0.593768 0.557271 0.345831
O O1 0.127318 0.692841 0.875985
O O2 0.124084 0.534466 0.833564
O O3 0.000000 0.609901 0.910691
O O4 0.125078 0.591902 0.037764
O O5 0.121948 0.261480 0.606713
O O6 0.240220 0.162120 0.606836
O O7 0.141981 0.164709 0.435194
O O8 0.097026 0.108644 0.626160
O O9 0.866714 0.763290 0.177401
O O10 0.878883 0.617326 0.252445
O O11 0.000000 0.718064 0.258997
O O12 0.638487 0.919850 0.336223
O O13 0.634470 0.832335 0.517590
O O14 0.886830 0.822916 0.770516
O O15 0.000000 0.873829 0.634683
O O16 0.876405 0.963724 0.688517
O O17 0.000000 0.960047 0.234350
O O18 0.000000 0.217434 0.088103
O O19 0.500000 0.555548 0.349742
#
# Coordination Sequence:
#
# PCOD8217638 Si02
#       8
#     8   8   8   8   8   8   8   8
#     4   8  13  24  45  78 111 129 158 215 270 310
#     4  11  22  36  51  77 107 144 180 213 257 319
#     4  10  17  30  55  81 107 136 175 224 264 303
#     4  11  21  34  51  82 107 135 170 219 283 316
#     4  10  22  39  57  76  99 142 186 215 258 315
#     4  10  20  38  60  77 100 130 177 231 265 306
#     4  10  19  34  55  79 108 138 173 220 268 316
#     4   8  13  22  45  81 108 127 162 215 269 306
#
# _framework density 18.671683999999999
#
# number of rings (size 3 to 8) (size 9 to 14) (size 15 to 20)
#    0.000    2.250    1.250    5.625    0.000    2.000 
#    6.750    1.875    0.000    0.750    9.750    4.375 
#    0.000    0.000    0.000    0.000    0.000    0.000 
#
# Total GULP energy -793260.424757 kJ/mol
# GULP energy per Si atom -12394.694137 kJ/mol
# Density = 1.862919 g / cm^3
# Si number density = 18.671684 Si / 1000 Ang^3
#
#
#
# Elastic Constant Matrix: (Units=GPa)
#
#
# Indices 1 2 3 4 5 6 
#
# 1 48.6752 10.1625 25.6385 0.0000 0.0000 0.0000
# 2 10.1625 118.4497 68.7271 0.0000 0.0000 0.0000
# 3 25.6385 68.7271 104.5435 0.0000 0.0000 0.0000
# 4 0.0000 0.0000 0.0000 30.2063 0.0000 0.0000
# 5 0.0000 0.0000 0.0000 0.0000 15.2001 0.0000
# 6 0.0000 0.0000 0.0000 0.0000 0.0000 2.7060
#
#
#
# Elastic Compliance Matrix: (Units=1/GPa)
#
#
# Indices 1 2 3 4 5 6 
#
# 1 0.023937 0.002186 -0.007308 0.000000 0.000000 0.000000
# 2 0.002186 0.013848 -0.009640 0.000000 0.000000 0.000000
# 3 -0.007308 -0.009640 0.017695 0.000000 0.000000 0.000000
# 4 0.000000 0.000000 0.000000 0.033106 0.000000 0.000000
# 5 0.000000 0.000000 0.000000 0.000000 0.065789 0.000000
# 6 0.000000 0.000000 0.000000 0.000000 0.000000 0.369550
#
#
# Mechanical properties :
#
#
# Convention : Reuss Voigt Hill
#
# Bulk Modulus (GPa) = 38.52457 53.41384 45.96920
# Shear Modulus (GPa) = 8.89522 20.76516 14.83019
#
# Velocity S-wave (km/s) = 2.18503 3.33846 2.82132
# Velocity P-wave (km/s) = 5.20031 6.59768 5.94023
#
# Compressibility (1/GPa) = 0.02595746
#
# Stress axis : x y z
#
# Youngs Moduli (GPa) = 41.77627 72.21183 56.51344
#
# Poissons Ratio (x) = -0.15788 0.41298
# Poissons Ratio (y) = -0.09134 0.54479
# Poissons Ratio (z) = 0.30529 0.69612
#
# Static dielectric constant tensor:
#      x y z
#    x 3.124380 0.000000 0.000000 
#    y 0.000000 3.913750 0.000000 
#    z 0.000000 0.000000 3.332400 
# 
# 
# High freq. dielectric constant tensor:
#      x y z
#    x 1.695030 0.000000 0.000000 
#    y 0.000000 1.731380 0.000000 
#    z 0.000000 0.000000 1.706700 
# 
# From -- ./inp_files/16248.got.cif
#   From: 2010.03.12/outbox.cif.g09.slc.cpg/sg53_9_cif.got.tgz:16248.got - 2010.04.16 14:36:59.
