data_PCOD8217850
_publ_section_title
;
Structure prediction by ZEFSAII (Michael W. Deem and Ramdas Pophale) SiO2 
 PCOD8217850
Probable space group: P M N A
;
_chemical_formula_sum "Si O2"
_cell_formula_units_Z 48
_cell_length_a 9.439836
_cell_length_b 13.821529
_cell_length_c 21.498201
_cell_angle_alpha 90.000000
_cell_angle_beta 90.000000
_cell_angle_gamma 90.000000
_cell_volume 2804.934070
_symmetry_space_group_name_H-M "P M N A"
_symmetry_group_IT_number 53
_symmetry_cell_setting 'orthorhombic'
loop_
_space_group_symop_operation_xyz
x,y,z
1/2-x,-y,1/2+z
x,-y,-z
1/2-x,y,1/2-z
-x,-y,-z
1/2+x,y,1/2-z
-x,y,z
1/2+x,-y,1/2+z
loop_
_atom_site_type_symbol
_atom_site_label
_atom_site_fract_x
_atom_site_fract_y
_atom_site_fract_z
Si Si1 0.657879 0.638730 0.081882
Si Si2 0.654927 0.530093 0.571732
Si Si3 0.653792 0.226317 0.801713
Si Si4 0.833531 0.924321 0.555055
Si Si5 0.833386 0.268710 0.026192
Si Si6 0.665887 0.990847 0.189591
O O1 0.500000 0.622195 0.053247
O O2 0.723823 0.535316 0.103460
O O3 0.644589 0.704821 0.140763
O O4 0.761517 0.695915 0.036838
O O5 0.652666 0.500000 0.500000
O O6 0.500000 0.508659 0.601359
O O7 0.688228 0.645019 0.577042
O O8 0.750000 0.276619 0.750000
O O9 0.500000 0.212405 0.771603
O O10 0.711859 0.120555 0.820128
O O11 0.742400 0.827867 0.548262
O O12 0.792475 0.961315 0.623789
O O13 0.000000 0.899919 0.549963
O O14 0.792948 0.000000 0.500000
O O15 0.000000 0.249847 0.014512
O O16 0.750000 0.033899 0.250000
O O17 0.500000 0.005252 0.202557
#
# Coordination Sequence:
#
# PCOD8217850 Si02
#       6
#     8   8   8   8   8   8
#     4  10  18  29  48  72  97 125 158 195 237 288
#     4   8  16  30  45  65  94 124 153 188 233 283
#     4   9  18  31  47  69  95 123 156 193 235 285
#     4  10  20  34  52  74 101 130 162 206 253 291
#     4  10  20  32  47  70  99 128 159 197 241 288
#     4   9  18  33  51  70  96 130 163 197 240 291
#
# _framework density 17.112701000000001
#
# number of rings (size 3 to 8) (size 9 to 14) (size 15 to 20)
#    0.000    2.667    0.000    3.000    0.000    8.667 
#    0.000    3.333    0.000    1.000    0.000    0.000 
#    0.000    0.000    0.000    0.000    0.000    0.000 
#
# Total GULP energy -594709.532370 kJ/mol
# GULP energy per Si atom -12389.781924 kJ/mol
# Density = 1.707375 g / cm^3
# Si number density = 17.112701 Si / 1000 Ang^3
#
#
#
# Elastic Constant Matrix: (Units=GPa)
#
#
# Indices 1 2 3 4 5 6 
#
# 1 104.8867 66.7146 47.3238 0.0000 0.0000 0.0000
# 2 66.7146 111.0933 40.7500 0.0000 0.0000 0.0000
# 3 47.3238 40.7500 81.3630 0.0000 0.0000 0.0000
# 4 0.0000 0.0000 0.0000 14.3235 0.0000 0.0000
# 5 0.0000 0.0000 0.0000 0.0000 23.4275 0.0000
# 6 0.0000 0.0000 0.0000 0.0000 0.0000 33.0301
#
#
#
# Elastic Compliance Matrix: (Units=1/GPa)
#
#
# Indices 1 2 3 4 5 6 
#
# 1 0.017556 -0.008327 -0.006041 0.000000 0.000000 0.000000
# 2 -0.008327 0.014977 -0.002658 0.000000 0.000000 0.000000
# 3 -0.006041 -0.002658 0.017135 0.000000 0.000000 0.000000
# 4 0.000000 0.000000 0.000000 0.069815 0.000000 0.000000
# 5 0.000000 0.000000 0.000000 0.000000 0.042685 0.000000
# 6 0.000000 0.000000 0.000000 0.000000 0.000000 0.030275
#
#
# Mechanical properties :
#
#
# Convention : Reuss Voigt Hill
#
# Bulk Modulus (GPa) = 64.03217 67.43553 65.73385
# Shear Modulus (GPa) = 21.57951 23.65987 22.61969
#
# Velocity S-wave (km/s) = 3.55494 3.72235 3.63961
# Velocity P-wave (km/s) = 7.37220 7.61359 7.49387
#
# Compressibility (1/GPa) = 0.01561715
#
# Stress axis : x y z
#
# Youngs Moduli (GPa) = 56.95973 66.76887 58.35935
#
# Poissons Ratio (x) = 0.55600 0.35253
# Poissons Ratio (y) = 0.47432 0.15510
# Poissons Ratio (z) = 0.34408 0.17745
#
# Static dielectric constant tensor:
#      x y z
#    x 3.726750 0.000000 0.000000 
#    y 0.000000 3.470900 0.000000 
#    z 0.000000 0.000000 2.987310 
# 
# 
# High freq. dielectric constant tensor:
#      x y z
#    x 1.672740 0.000000 0.000000 
#    y 0.000000 1.660120 0.000000 
#    z 0.000000 0.000000 1.625500 
# 
# From -- ./inp_files/30479.got.cif
#   From: 2010.03.12/outbox.cif.g09.slc.cpg/sg53_16_cif.got.tgz:30479.got - 2010.04.16 14:36:59.
