data_PCOD8217568
_publ_section_title
;
Structure prediction by ZEFSAII (Michael W. Deem and Ramdas Pophale) SiO2 
 PCOD8217568
Probable space group: P M N A
;
_chemical_formula_sum "Si O2"
_cell_formula_units_Z 64
_cell_length_a 8.991612
_cell_length_b 15.255077
_cell_length_c 30.187281
_cell_angle_alpha 90.000000
_cell_angle_beta 90.000000
_cell_angle_gamma 90.000000
_cell_volume 4140.720913
_symmetry_space_group_name_H-M "P M N A"
_symmetry_group_IT_number 53
_symmetry_cell_setting 'orthorhombic'
loop_
_space_group_symop_operation_xyz
x,y,z
1/2-x,-y,1/2+z
x,-y,-z
1/2-x,y,1/2-z
-x,-y,-z
1/2+x,y,1/2-z
-x,y,z
1/2+x,-y,1/2+z
loop_
_atom_site_type_symbol
_atom_site_label
_atom_site_fract_x
_atom_site_fract_y
_atom_site_fract_z
Si Si1 0.322601 0.401114 0.706471
Si Si2 0.672573 0.734655 0.551303
Si Si3 0.173923 0.730985 0.051445
Si Si4 0.326583 0.589185 0.790941
Si Si5 0.333146 0.905394 0.947173
Si Si6 0.831250 0.599475 0.611478
Si Si7 0.668407 0.903046 0.052384
Si Si8 0.825117 0.395562 0.617864
O O1 0.250000 0.354496 0.750000
O O2 0.500000 0.393208 0.707893
O O3 0.268891 0.500992 0.706295
O O4 0.259446 0.358042 0.661326
O O5 0.500000 0.742141 0.557720
O O6 0.715865 0.722067 0.500117
O O7 0.737498 0.824883 0.571665
O O8 0.727182 0.650831 0.578080
O O9 0.223869 0.826367 0.070026
O O10 0.266528 0.655741 0.075355
O O11 0.000000 0.718660 0.060357
O O12 0.250000 0.643649 0.750000
O O13 0.500000 0.568205 0.781381
O O14 0.310865 0.637266 0.838329
O O15 0.500000 0.891150 0.930071
O O16 0.275966 0.001150 0.930304
O O17 0.327277 0.904342 0.999769
O O18 0.787818 0.497457 0.610054
O O19 0.000000 0.612835 0.595710
O O20 0.500000 0.885055 0.068735
O O21 0.000000 0.381128 0.624421
#
# Coordination Sequence:
#
# PCOD8217568 Si02
#       8
#     8   8   8   8   8   8   8   8
#     4  10  17  27  44  64  85 108 135 172 216 259
#     4  10  20  30  42  61  86 115 147 180 216 254
#     4  10  20  31  42  61  87 115 145 180 218 255
#     4   9  16  27  43  63  83 106 137 174 216 259
#     4   8  14  26  44  62  81 105 137 174 214 256
#     4   9  19  32  44  59  82 113 149 182 213 250
#     4   8  14  26  44  63  80 105 138 173 213 257
#     4  10  20  33  46  61  82 113 151 185 215 252
#
# _framework density 15.456246
#
# number of rings (size 3 to 8) (size 9 to 14) (size 15 to 20)
#    0.000    2.750    0.000    4.875    0.000    5.500 
#    0.000    5.000    0.000    0.000    0.000    0.000 
#    0.000    1.000    0.000    5.250    0.000    5.000 
#
# Total GULP energy -793056.210551 kJ/mol
# GULP energy per Si atom -12391.503290 kJ/mol
# Density = 1.542107 g / cm^3
# Si number density = 15.456246 Si / 1000 Ang^3
#
#
#
# Elastic Constant Matrix: (Units=GPa)
#
#
# Indices 1 2 3 4 5 6 
#
# 1 92.4593 42.1782 50.5127 0.0000 0.0000 0.0000
# 2 42.1782 73.7605 44.7094 0.0000 0.0000 0.0000
# 3 50.5127 44.7094 65.6132 0.0000 0.0000 0.0000
# 4 0.0000 0.0000 0.0000 0.4508 0.0000 0.0000
# 5 0.0000 0.0000 0.0000 0.0000 26.1847 0.0000
# 6 0.0000 0.0000 0.0000 0.0000 0.0000 21.7897
#
#
#
# Elastic Compliance Matrix: (Units=1/GPa)
#
#
# Indices 1 2 3 4 5 6 
#
# 1 0.019164 -0.003434 -0.012413 0.000000 0.000000 0.000000
# 2 -0.003434 0.023713 -0.013514 0.000000 0.000000 0.000000
# 3 -0.012413 -0.013514 0.034006 0.000000 0.000000 0.000000
# 4 0.000000 0.000000 0.000000 2.218163 0.000000 0.000000
# 5 0.000000 0.000000 0.000000 0.000000 0.038190 0.000000
# 6 0.000000 0.000000 0.000000 0.000000 0.000000 0.045893
#
#
# Mechanical properties :
#
#
# Convention : Reuss Voigt Hill
#
# Bulk Modulus (GPa) = 55.06875 56.29264 55.68069
# Shear Modulus (GPa) = 2.04591 15.98056 9.01323
#
# Velocity S-wave (km/s) = 1.15176 3.21895 2.41746
# Velocity P-wave (km/s) = 6.12167 7.09333 6.62534
#
# Compressibility (1/GPa) = 0.01815912
#
# Stress axis : x y z
#
# Youngs Moduli (GPa) = 52.18147 42.17157 29.40652
#
# Poissons Ratio (x) = 0.14482 0.36503
# Poissons Ratio (y) = 0.17920 0.39741
# Poissons Ratio (z) = 0.64775 0.56992
#
# Static dielectric constant tensor:
#      x y z
#    x 3.066620 0.000000 0.000000 
#    y 0.000000 2.961760 0.000000 
#    z 0.000000 0.000000 3.180170 
# 
# 
# High freq. dielectric constant tensor:
#      x y z
#    x 1.604820 0.000000 0.000000 
#    y 0.000000 1.562110 0.000000 
#    z 0.000000 0.000000 1.568930 
# 
# From -- ./inp_files/38471.got.cif
#   From: 2010.03.12/outbox.cif.g09.slc.cpg/sg53_20_cif.got.tgz:38471.got - 2010.04.16 14:36:59.
