data_PCOD8217760
_publ_section_title
;
Structure prediction by ZEFSAII (Michael W. Deem and Ramdas Pophale) SiO2 
 PCOD8217760
Probable space group: P M N A
;
_chemical_formula_sum "Si O2"
_cell_formula_units_Z 48
_cell_length_a 9.274464
_cell_length_b 10.345987
_cell_length_c 29.511771
_cell_angle_alpha 90.000000
_cell_angle_beta 90.000000
_cell_angle_gamma 90.000000
_cell_volume 2831.757246
_symmetry_space_group_name_H-M "P M N A"
_symmetry_group_IT_number 53
_symmetry_cell_setting 'orthorhombic'
loop_
_space_group_symop_operation_xyz
x,y,z
1/2-x,-y,1/2+z
x,-y,-z
1/2-x,y,1/2-z
-x,-y,-z
1/2+x,y,1/2-z
-x,y,z
1/2+x,-y,1/2+z
loop_
_atom_site_type_symbol
_atom_site_label
_atom_site_fract_x
_atom_site_fract_y
_atom_site_fract_z
Si Si1 0.836874 0.526751 0.707261
Si Si2 0.341421 0.781284 0.208822
Si Si3 0.667506 0.138195 0.984150
Si Si4 0.168383 0.249309 0.610872
Si Si5 0.164411 0.626721 0.974885
Si Si6 0.665819 0.491768 0.380346
O O1 0.750000 0.585172 0.750000
O O2 0.839808 0.372947 0.710782
O O3 0.753128 0.568127 0.661783
O O4 0.000000 0.582041 0.706561
O O5 0.250000 0.841594 0.250000
O O6 0.500000 0.837423 0.216427
O O7 0.285117 0.819873 0.158382
O O8 0.500000 0.150267 0.995937
O O9 0.695031 0.151051 0.930284
O O10 0.745579 0.248690 0.012131
O O11 0.728893 0.000000 0.000000
O O12 0.264633 0.375066 0.602172
O O13 0.000000 0.291543 0.614433
O O14 0.174936 0.610765 0.920870
O O15 0.000000 0.647456 0.990829
O O16 0.227848 0.500000 0.000000
O O17 0.500000 0.517845 0.366090
#
# Coordination Sequence:
#
# PCOD8217760 Si02
#       6
#     8   8   8   8   8   8
#     4   9  16  26  40  62  94 127 159 193 241 293
#     4   8  14  23  36  57  85 116 147 182 226 278
#     4  10  21  35  51  72  97 128 167 209 254 303
#     4   9  17  29  44  64  93 125 156 195 245 294
#     4  10  20  34  50  72  99 129 166 205 247 296
#     4  10  18  28  45  68  95 125 162 203 243 290
#
# _framework density 16.950603999999998
#
# number of rings (size 3 to 8) (size 9 to 14) (size 15 to 20)
#    0.000    2.667    1.667    2.000    0.000    6.000 
#    0.000    0.000    0.000    0.000    0.000    1.167 
#    0.000    5.333    0.000    0.000    0.000    0.000 
#
# Total GULP energy -595029.853584 kJ/mol
# GULP energy per Si atom -12396.455283 kJ/mol
# Density = 1.691202 g / cm^3
# Si number density = 16.950604 Si / 1000 Ang^3
#
#
#
# Elastic Constant Matrix: (Units=GPa)
#
#
# Indices 1 2 3 4 5 6 
#
# 1 91.8627 37.1965 59.7237 0.0000 0.0000 0.0000
# 2 37.1965 72.2267 44.9343 0.0000 0.0000 0.0000
# 3 59.7237 44.9343 136.3627 0.0000 0.0000 0.0000
# 4 0.0000 0.0000 0.0000 12.7084 0.0000 0.0000
# 5 0.0000 0.0000 0.0000 0.0000 32.1691 0.0000
# 6 0.0000 0.0000 0.0000 0.0000 0.0000 14.6013
#
#
#
# Elastic Compliance Matrix: (Units=1/GPa)
#
#
# Indices 1 2 3 4 5 6 
#
# 1 0.016567 -0.005054 -0.005591 0.000000 0.000000 0.000000
# 2 -0.005054 0.018957 -0.004033 0.000000 0.000000 0.000000
# 3 -0.005591 -0.004033 0.011111 0.000000 0.000000 0.000000
# 4 0.000000 0.000000 0.000000 0.078688 0.000000 0.000000
# 5 0.000000 0.000000 0.000000 0.000000 0.031086 0.000000
# 6 0.000000 0.000000 0.000000 0.000000 0.000000 0.068487
#
#
# Mechanical properties :
#
#
# Convention : Reuss Voigt Hill
#
# Bulk Modulus (GPa) = 57.87159 64.90679 61.38919
# Shear Modulus (GPa) = 19.22994 22.46893 20.84944
#
# Velocity S-wave (km/s) = 3.37184 3.64476 3.51096
# Velocity P-wave (km/s) = 7.02670 7.48914 7.26160
#
# Compressibility (1/GPa) = 0.01727964
#
# Stress axis : x y z
#
# Youngs Moduli (GPa) = 60.36168 52.75022 90.00101
#
# Poissons Ratio (x) = 0.26659 0.50315
# Poissons Ratio (y) = 0.30506 0.36301
# Poissons Ratio (z) = 0.33745 0.21276
#
# Static dielectric constant tensor:
#      x y z
#    x 3.313620 0.000000 0.000000 
#    y 0.000000 2.609170 0.000000 
#    z 0.000000 0.000000 3.535180 
# 
# 
# High freq. dielectric constant tensor:
#      x y z
#    x 1.660020 0.000000 0.000000 
#    y 0.000000 1.579530 0.000000 
#    z 0.000000 0.000000 1.676210 
# 
# From -- ./inp_files/37902.got.cif
#   From: 2010.03.12/outbox.cif.g09.slc.cpg/sg53_19_cif.got.tgz:37902.got - 2010.04.16 14:36:59.
