data_PCOD8217207
_publ_section_title
;
Structure prediction by ZEFSAII (Michael W. Deem and Ramdas Pophale) SiO2 
 PCOD8217207
Probable space group: P N N A
;
_chemical_formula_sum "Si O2"
_cell_formula_units_Z 48
_cell_length_a 13.377914
_cell_length_b 26.252348
_cell_length_c 6.434839
_cell_angle_alpha 90.000000
_cell_angle_beta 90.000000
_cell_angle_gamma 90.000000
_cell_volume 2259.926099
_symmetry_space_group_name_H-M "P N N A"
_symmetry_group_IT_number 52
_symmetry_cell_setting 'orthorhombic'
loop_
_space_group_symop_operation_xyz
x,y,z
1/2-x,-y,z
x,1/2-y,1/2-z
1/2-x,1/2+y,1/2-z
-x,-y,-z
1/2+x,y,-z
-x,1/2+y,1/2+z
1/2+x,1/2-y,1/2+z
loop_
_atom_site_type_symbol
_atom_site_label
_atom_site_fract_x
_atom_site_fract_y
_atom_site_fract_z
Si Si1 0.196250 0.796851 0.585883
Si Si2 0.847172 0.527164 0.494865
Si Si3 0.157558 0.362713 0.671088
Si Si4 0.352423 0.802846 0.243635
Si Si5 0.023221 0.535773 0.811994
Si Si6 0.994965 0.358518 0.000951
O O1 0.192849 0.750000 0.750000
O O2 0.255338 0.845463 0.674978
O O3 0.253280 0.784791 0.371368
O O4 0.085502 0.813614 0.516329
O O5 0.750000 0.500000 0.594019
O O6 0.815924 0.579983 0.389822
O O7 0.887978 0.487304 0.324760
O O8 0.924422 0.540607 0.674057
O O9 0.168465 0.321979 0.486909
O O10 0.044592 0.361664 0.769948
O O11 0.416675 0.750000 0.250000
O O12 0.412504 0.848042 0.348901
O O13 0.054307 0.589370 0.915670
O O14 0.000000 0.500000 0.000000
#
# Coordination Sequence:
#
# PCOD8217207 Si02
#       6
#     8   8   8   8   8   8
#     4  11  24  43  67  99 126 169 224 271 327 397
#     4  11  24  42  67  96 128 175 220 271 338 393
#     4  11  23  44  67  94 134 173 216 272 333 395
#     4  11  23  44  65  92 134 167 215 278 324 392
#     4  11  23  43  64  96 136 165 221 277 320 406
#     4  11  24  42  67  96 131 173 217 268 338 394
#
# _framework density 21.239630999999999
#
# number of rings (size 3 to 8) (size 9 to 14) (size 15 to 20)
#    0.000    1.000    5.000    1.500    0.000    3.333 
#    3.000    0.000    0.000    0.000    0.000    0.000 
#    0.000    0.000    0.000    0.000    0.000    0.000 
#
# Total GULP energy -594895.044507 kJ/mol
# GULP energy per Si atom -12393.646761 kJ/mol
# Density = 2.119129 g / cm^3
# Si number density = 21.239631 Si / 1000 Ang^3
#
#
#
# Elastic Constant Matrix: (Units=GPa)
#
#
# Indices 1 2 3 4 5 6 
#
# 1 63.7700 36.5412 19.1812 0.0000 0.0000 0.0000
# 2 36.5412 133.4952 37.0649 0.0000 0.0000 0.0000
# 3 19.1812 37.0649 100.6481 0.0000 0.0000 0.0000
# 4 0.0000 0.0000 0.0000 42.3263 0.0000 0.0000
# 5 0.0000 0.0000 0.0000 0.0000 15.6799 0.0000
# 6 0.0000 0.0000 0.0000 0.0000 0.0000 34.2543
#
#
#
# Elastic Compliance Matrix: (Units=1/GPa)
#
#
# Indices 1 2 3 4 5 6 
#
# 1 0.018916 -0.004653 -0.001892 0.000000 0.000000 0.000000
# 2 -0.004653 0.009488 -0.002608 0.000000 0.000000 0.000000
# 3 -0.001892 -0.002608 0.011256 0.000000 0.000000 0.000000
# 4 0.000000 0.000000 0.000000 0.023626 0.000000 0.000000
# 5 0.000000 0.000000 0.000000 0.000000 0.063776 0.000000
# 6 0.000000 0.000000 0.000000 0.000000 0.000000 0.029193
#
#
# Mechanical properties :
#
#
# Convention : Reuss Voigt Hill
#
# Bulk Modulus (GPa) = 46.82200 53.72089 50.27145
# Shear Modulus (GPa) = 27.52100 32.12715 29.82407
#
# Velocity S-wave (km/s) = 3.60354 3.89344 3.75129
# Velocity P-wave (km/s) = 6.27746 6.74978 6.51790
#
# Compressibility (1/GPa) = 0.02135748
#
# Stress axis : x y z
#
# Youngs Moduli (GPa) = 52.86416 105.39106 88.83859
#
# Poissons Ratio (x) = 0.49036 0.16805
# Poissons Ratio (y) = 0.24596 0.23165
# Poissons Ratio (z) = 0.10000 0.27481
#
# Static dielectric constant tensor:
#      x y z
#    x 3.260010 0.000000 0.000000 
#    y 0.000000 3.682720 0.000000 
#    z 0.000000 0.000000 3.634130 
# 
# 
# High freq. dielectric constant tensor:
#      x y z
#    x 1.819060 0.000000 0.000000 
#    y 0.000000 1.853590 0.000000 
#    z 0.000000 0.000000 1.839040 
# 
# From -- ./inp_files/2462.got.cif
#   From: 2010.06.25/outbox.cif.g09.slc.cpg/sg52_2_cif.got.tgz:2462.got - 2010.06.26 19:32:48.
