data_PCOD8217236
_publ_section_title
;
Structure prediction by ZEFSAII (Michael W. Deem and Ramdas Pophale) SiO2 
 PCOD8217236
Probable space group: P N N A
;
_chemical_formula_sum "Si O2"
_cell_formula_units_Z 40
_cell_length_a 8.119539
_cell_length_b 13.199485
_cell_length_c 15.479406
_cell_angle_alpha 90.000000
_cell_angle_beta 90.000000
_cell_angle_gamma 90.000000
_cell_volume 1658.985729
_symmetry_space_group_name_H-M "P N N A"
_symmetry_group_IT_number 52
_symmetry_cell_setting 'orthorhombic'
loop_
_space_group_symop_operation_xyz
x,y,z
1/2-x,-y,z
x,1/2-y,1/2-z
1/2-x,1/2+y,1/2-z
-x,-y,-z
1/2+x,y,-z
-x,1/2+y,1/2+z
1/2+x,1/2-y,1/2+z
loop_
_atom_site_type_symbol
_atom_site_label
_atom_site_fract_x
_atom_site_fract_y
_atom_site_fract_z
Si Si1 0.951541 0.905537 0.057666
Si Si2 0.704967 0.395557 0.867102
Si Si3 0.200516 0.738921 0.505117
Si Si4 0.022474 0.370009 0.750686
Si Si5 0.642867 0.658136 0.183740
O O1 0.766295 0.873404 0.033233
O O2 0.983337 0.926883 0.158210
O O3 0.030882 0.794847 0.038406
O O4 0.000000 0.000000 0.000000
O O5 0.750000 0.500000 0.917839
O O6 0.528670 0.405892 0.817195
O O7 0.850450 0.389214 0.797014
O O8 0.697756 0.301269 0.932507
O O9 0.171825 0.807209 0.586744
O O10 0.050635 0.250000 0.750000
O O11 0.194724 0.409171 0.793525
O O12 0.613301 0.750000 0.250000
#
# Coordination Sequence:
#
# PCOD8217236 Si02
#       5
#     8   8   8   8   8
#     4  12  26  46  77 111 151 196 255 322 387 456
#     4  12  28  46  76 111 150 202 254 313 389 468
#     4  12  23  48  73 106 152 197 254 318 382 457
#     4  11  23  51  75 107 154 205 248 317 393 460
#     4  11  24  46  79 103 151 204 251 316 390 452
#
# _framework density 24.111118000000001
#
# number of rings (size 3 to 8) (size 9 to 14) (size 15 to 20)
#    0.000    0.400    8.000    1.200    0.000    4.800 
#    3.600    0.000    0.000    0.000    0.000    0.000 
#    0.000    0.000    0.000    0.000    0.000    0.000 
#
# Total GULP energy -495574.069145 kJ/mol
# GULP energy per Si atom -12389.351729 kJ/mol
# Density = 2.405624 g / cm^3
# Si number density = 24.111118 Si / 1000 Ang^3
#
#
#
# Elastic Constant Matrix: (Units=GPa)
#
#
# Indices 1 2 3 4 5 6 
#
# 1 175.0539 39.2540 73.4157 0.0000 0.0000 0.0000
# 2 39.2540 54.2996 24.2737 0.0000 0.0000 0.0000
# 3 73.4157 24.2737 155.7901 0.0000 0.0000 0.0000
# 4 0.0000 0.0000 0.0000 36.0741 0.0000 0.0000
# 5 0.0000 0.0000 0.0000 0.0000 30.2118 0.0000
# 6 0.0000 0.0000 0.0000 0.0000 0.0000 -22.7700
#
#
#
# Elastic Compliance Matrix: (Units=1/GPa)
#
#
# Indices 1 2 3 4 5 6 
#
# 1 0.007991 -0.004400 -0.003080 0.000000 0.000000 0.000000
# 2 -0.004400 0.022218 -0.001388 0.000000 0.000000 0.000000
# 3 -0.003080 -0.001388 0.008087 0.000000 0.000000 0.000000
# 4 0.000000 0.000000 0.000000 0.027721 0.000000 0.000000
# 5 0.000000 0.000000 0.000000 0.000000 0.033100 0.000000
# 6 0.000000 0.000000 0.000000 0.000000 0.000000 -0.043917
#
#
# Mechanical properties :
#
#
# Convention : Reuss Voigt Hill
#
# Bulk Modulus (GPa) = 48.64125 73.22559 60.93342
# Shear Modulus (GPa) = 62.66625 25.24988 43.95806
#
# Velocity S-wave (km/s) = 5.10363 3.23960 4.27446
# Velocity P-wave (km/s) = 7.41262 6.66554 7.04898
#
# Compressibility (1/GPa) = 0.02055868
#
# Stress axis : x y z
#
# Youngs Moduli (GPa) = 125.14192 45.00921 123.65943
#
# Poissons Ratio (x) = 0.19803 0.38089
# Poissons Ratio (y) = 0.55060 0.17168
# Poissons Ratio (z) = 0.38546 0.06249
#
# Static dielectric constant tensor:
#      x y z
#    x 4.974950 0.000000 0.000000 
#    y 0.000000 4.462860 0.000000 
#    z 0.000000 0.000000 5.693400 
# 
# 
# High freq. dielectric constant tensor:
#      x y z
#    x 1.987960 0.000000 0.000000 
#    y 0.000000 1.953330 0.000000 
#    z 0.000000 0.000000 1.950480 
# 
# From -- ./inp_files/24435.got.cif
#   From: 2010.06.25/outbox.cif.g09.slc.cpg/sg52_13_cif.got.tgz:24435.got - 2010.06.26 19:32:48.
