data_PCOD8217975
_publ_section_title
;
Structure prediction by ZEFSAII (Michael W. Deem and Ramdas Pophale) SiO2 
 PCOD8217975
Probable space group: P M N A
;
_chemical_formula_sum "Si O2"
_cell_formula_units_Z 64
_cell_length_a 8.880572
_cell_length_b 14.982941
_cell_length_c 23.986807
_cell_angle_alpha 90.000000
_cell_angle_beta 90.000000
_cell_angle_gamma 90.000000
_cell_volume 3191.614650
_symmetry_space_group_name_H-M "P M N A"
_symmetry_group_IT_number 53
_symmetry_cell_setting 'orthorhombic'
loop_
_space_group_symop_operation_xyz
x,y,z
1/2-x,-y,1/2+z
x,-y,-z
1/2-x,y,1/2-z
-x,-y,-z
1/2+x,y,1/2-z
-x,y,z
1/2+x,-y,1/2+z
loop_
_atom_site_type_symbol
_atom_site_label
_atom_site_fract_x
_atom_site_fract_y
_atom_site_fract_z
Si Si1 0.669067 0.870330 0.019980
Si Si2 0.677696 0.227644 0.808044
Si Si3 0.678631 0.612150 0.115702
Si Si4 0.327037 0.110323 0.409039
Si Si5 0.824111 0.690200 0.885044
Si Si6 0.678611 0.448198 0.190242
Si Si7 0.669822 0.337369 0.002721
Si Si8 0.327664 0.923960 0.369967
O O1 0.500000 0.903983 0.033424
O O2 0.670556 0.764603 0.015325
O O3 0.783809 0.897734 0.067668
O O4 0.723591 0.913505 0.962046
O O5 0.750000 0.255853 0.750000
O O6 0.500000 0.230265 0.801714
O O7 0.737517 0.298096 0.853949
O O8 0.726433 0.127713 0.825135
O O9 0.500000 0.615649 0.115698
O O10 0.736920 0.525646 0.148649
O O11 0.733180 0.608123 0.051076
O O12 0.500000 0.115237 0.429377
O O13 0.280529 0.205130 0.382487
O O14 0.304597 0.031256 0.363746
O O15 0.734919 0.645728 0.834141
O O16 0.000000 0.673830 0.876676
O O17 0.774805 0.646359 0.943886
O O18 0.750000 0.466406 0.250000
O O19 0.500000 0.447483 0.196153
O O20 0.500000 0.368091 0.018393
O O21 0.500000 0.897165 0.359353
#
# Coordination Sequence:
#
# PCOD8217975 Si02
#       8
#     8   8   8   8   8   8   8   8
#     4  10  18  30  52  82 116 151 189 231 275 330
#     4  11  22  39  58  82 114 151 192 237 285 342
#     4   9  19  37  61  86 117 150 186 228 281 345
#     4   9  20  36  54  78 113 151 190 233 282 334
#     4  10  21  39  59  84 117 151 190 241 287 336
#     4  11  23  41  64  87 111 146 189 237 287 342
#     4   9  17  34  57  84 118 156 189 224 279 345
#     4  11  21  34  53  79 111 151 192 232 280 333
#
# _framework density 20.052547000000001
#
# number of rings (size 3 to 8) (size 9 to 14) (size 15 to 20)
#    0.000    2.000    1.250    2.625    0.000    4.000 
#    0.000    6.250    0.000    0.000    0.000    0.000 
#    0.000    0.000    0.000    0.000    0.000    0.000 
#
# Total GULP energy -793638.487813 kJ/mol
# GULP energy per Si atom -12400.601372 kJ/mol
# Density = 2.000691 g / cm^3
# Si number density = 20.052547 Si / 1000 Ang^3
#
#
#
# Elastic Constant Matrix: (Units=GPa)
#
#
# Indices 1 2 3 4 5 6 
#
# 1 71.8989 25.1419 19.7305 0.0000 0.0000 0.0000
# 2 25.1419 62.3192 26.0142 0.0000 0.0000 0.0000
# 3 19.7305 26.0142 58.2216 0.0000 0.0000 0.0000
# 4 0.0000 0.0000 0.0000 27.9955 0.0000 0.0000
# 5 0.0000 0.0000 0.0000 0.0000 37.0653 0.0000
# 6 0.0000 0.0000 0.0000 0.0000 0.0000 21.5717
#
#
#
# Elastic Compliance Matrix: (Units=1/GPa)
#
#
# Indices 1 2 3 4 5 6 
#
# 1 0.016679 -0.005371 -0.003252 0.000000 0.000000 0.000000
# 2 -0.005371 0.021455 -0.007766 0.000000 0.000000 0.000000
# 3 -0.003252 -0.007766 0.021748 0.000000 0.000000 0.000000
# 4 0.000000 0.000000 0.000000 0.035720 0.000000 0.000000
# 5 0.000000 0.000000 0.000000 0.000000 0.026979 0.000000
# 6 0.000000 0.000000 0.000000 0.000000 0.000000 0.046357
#
#
# Mechanical properties :
#
#
# Convention : Reuss Voigt Hill
#
# Bulk Modulus (GPa) = 36.89684 37.13477 37.01580
# Shear Modulus (GPa) = 23.72443 25.43003 24.57723
#
# Velocity S-wave (km/s) = 3.44337 3.56500 3.50471
# Velocity P-wave (km/s) = 5.85227 5.95857 5.90566
#
# Compressibility (1/GPa) = 0.02710259
#
# Stress axis : x y z
#
# Youngs Moduli (GPa) = 59.95486 46.60846 45.98123
#
# Poissons Ratio (x) = 0.25035 0.14955
# Poissons Ratio (y) = 0.32204 0.35710
# Poissons Ratio (z) = 0.19499 0.36197
#
# Static dielectric constant tensor:
#      x y z
#    x 3.576440 0.000000 0.000000 
#    y 0.000000 3.819190 0.000000 
#    z 0.000000 0.000000 3.592550 
# 
# 
# High freq. dielectric constant tensor:
#      x y z
#    x 1.773980 0.000000 0.000000 
#    y 0.000000 1.788280 0.000000 
#    z 0.000000 0.000000 1.767890 
# 
# From -- ./inp_files/34297.got.cif
#   From: 2010.03.12/outbox.cif.g09.slc.cpg/sg53_18_cif.got.tgz:34297.got - 2010.04.16 14:36:59.
