data_PCOD8217639
_publ_section_title
;
Structure prediction by ZEFSAII (Michael W. Deem and Ramdas Pophale) SiO2 
 PCOD8217639
Probable space group: P M N A
;
_chemical_formula_sum "Si O2"
_cell_formula_units_Z 32
_cell_length_a 17.439173
_cell_length_b 9.724729
_cell_length_c 9.987056
_cell_angle_alpha 90.000000
_cell_angle_beta 90.000000
_cell_angle_gamma 90.000000
_cell_volume 1693.717125
_symmetry_space_group_name_H-M "P M N A"
_symmetry_group_IT_number 53
_symmetry_cell_setting 'orthorhombic'
loop_
_space_group_symop_operation_xyz
x,y,z
1/2-x,-y,1/2+z
x,-y,-z
1/2-x,y,1/2-z
-x,-y,-z
1/2+x,y,1/2-z
-x,y,z
1/2+x,-y,1/2+z
loop_
_atom_site_type_symbol
_atom_site_label
_atom_site_fract_x
_atom_site_fract_y
_atom_site_fract_z
Si Si1 0.085114 0.800760 0.408962
Si Si2 0.804202 0.136064 0.060347
Si Si3 0.637369 0.086767 0.170600
Si Si4 0.731989 0.373293 0.900655
O O1 0.080094 0.841774 0.566202
O O2 0.144638 0.677132 0.395377
O O3 0.000000 0.752662 0.364820
O O4 0.112001 0.927490 0.314473
O O5 0.721506 0.087514 0.108858
O O6 0.859124 0.170360 0.188237
O O7 0.793619 0.260149 0.954543
O O8 0.843792 0.000000 0.000000
O O9 0.750000 0.420462 0.750000
O O10 0.738520 0.500000 0.000000
#
# Coordination Sequence:
#
# PCOD8217639 Si02
#       4
#     8   8   8   8
#     4  10  19  34  57  85 118 150 190 237 286 350
#     4  10  17  30  55  82 113 144 190 246 286 320
#     4   9  16  28  54  84 113 145 186 233 287 335
#     4  11  24  38  59  87 115 152 200 242 286 345
#
# _framework density 18.893356000000001
#
# number of rings (size 3 to 8) (size 9 to 14) (size 15 to 20)
#    0.000    2.000    5.000    3.000    7.000    0.500 
#    0.000    0.000    0.000   14.250    0.000    0.000 
#    0.000    0.000    0.000    0.000    0.000    0.000 
#
# Total GULP energy -396430.482368 kJ/mol
# GULP energy per Si atom -12388.452574 kJ/mol
# Density = 1.885035 g / cm^3
# Si number density = 18.893356 Si / 1000 Ang^3
#
#
#
# Elastic Constant Matrix: (Units=GPa)
#
#
# Indices 1 2 3 4 5 6 
#
# 1 53.8152 26.0255 29.7157 0.0000 0.0000 0.0000
# 2 26.0255 100.0425 47.0309 0.0000 0.0000 0.0000
# 3 29.7157 47.0309 129.6832 0.0000 0.0000 0.0000
# 4 0.0000 0.0000 0.0000 29.9638 0.0000 0.0000
# 5 0.0000 0.0000 0.0000 0.0000 17.0441 0.0000
# 6 0.0000 0.0000 0.0000 0.0000 0.0000 7.8060
#
#
#
# Elastic Compliance Matrix: (Units=1/GPa)
#
#
# Indices 1 2 3 4 5 6 
#
# 1 0.022622 -0.004157 -0.003676 0.000000 0.000000 0.000000
# 2 -0.004157 0.012814 -0.003695 0.000000 0.000000 0.000000
# 3 -0.003676 -0.003695 0.009893 0.000000 0.000000 0.000000
# 4 0.000000 0.000000 0.000000 0.033374 0.000000 0.000000
# 5 0.000000 0.000000 0.000000 0.000000 0.058671 0.000000
# 6 0.000000 0.000000 0.000000 0.000000 0.000000 0.128107
#
#
# Mechanical properties :
#
#
# Convention : Reuss Voigt Hill
#
# Bulk Modulus (GPa) = 44.89466 54.34280 49.61873
# Shear Modulus (GPa) = 16.89411 23.01403 19.95407
#
# Velocity S-wave (km/s) = 2.99353 3.49392 3.25336
# Velocity P-wave (km/s) = 5.98014 6.71580 6.35862
#
# Compressibility (1/GPa) = 0.02227436
#
# Stress axis : x y z
#
# Youngs Moduli (GPa) = 44.20415 78.03956 101.07794
#
# Poissons Ratio (x) = 0.32440 0.37158
# Poissons Ratio (y) = 0.18375 0.37345
# Poissons Ratio (z) = 0.16250 0.28833
#
# Static dielectric constant tensor:
#      x y z
#    x 3.290870 0.000000 0.000000 
#    y 0.000000 3.242200 0.000000 
#    z 0.000000 0.000000 3.835440 
# 
# 
# High freq. dielectric constant tensor:
#      x y z
#    x 1.698280 0.000000 0.000000 
#    y 0.000000 1.705730 0.000000 
#    z 0.000000 0.000000 1.739410 
# 
# From -- ./inp_files/10448.got.cif
#   From: 2010.03.12/outbox.cif.g09.slc.cpg/sg53_6_cif.got.tgz:10448.got - 2010.04.16 14:36:59.
