data_PCOD8217359
_publ_section_title
;
Structure prediction by ZEFSAII (Michael W. Deem and Ramdas Pophale) SiO2 
 PCOD8217359
Probable space group: P N N A
;
_chemical_formula_sum "Si O2"
_cell_formula_units_Z 40
_cell_length_a 10.123348
_cell_length_b 19.438106
_cell_length_c 12.139403
_cell_angle_alpha 90.000000
_cell_angle_beta 90.000000
_cell_angle_gamma 90.000000
_cell_volume 2388.776081
_symmetry_space_group_name_H-M "P N N A"
_symmetry_group_IT_number 52
_symmetry_cell_setting 'orthorhombic'
loop_
_space_group_symop_operation_xyz
x,y,z
1/2-x,-y,z
x,1/2-y,1/2-z
1/2-x,1/2+y,1/2-z
-x,-y,-z
1/2+x,y,-z
-x,1/2+y,1/2+z
1/2+x,1/2-y,1/2+z
loop_
_atom_site_type_symbol
_atom_site_label
_atom_site_fract_x
_atom_site_fract_y
_atom_site_fract_z
Si Si1 0.216492 0.195159 0.405262
Si Si2 0.479549 0.805734 0.593143
Si Si3 0.125610 0.452501 0.505383
Si Si4 0.022927 0.152635 0.832621
Si Si5 0.780324 0.848935 0.835138
O O1 0.117265 0.166613 0.497965
O O2 0.368084 0.188373 0.445278
O O3 0.193917 0.149656 0.295818
O O4 0.181130 0.274289 0.381320
O O5 0.455309 0.851771 0.701454
O O6 0.442366 0.727777 0.622227
O O7 0.250000 0.500000 0.523728
O O8 0.118839 0.401745 0.609834
O O9 0.132836 0.407671 0.393215
O O10 0.000000 0.500000 0.500000
O O11 0.871908 0.134948 0.861676
#
# Coordination Sequence:
#
# PCOD8217359 Si02
#       5
#     8   8   8   8   8
#     4   9  17  32  55  76 104 134 165 220 259 304
#     4   9  17  32  55  76 104 133 164 221 262 299
#     4  12  22  34  54  74 106 143 171 210 248 308
#     4   9  18  34  51  75 106 137 171 206 263 306
#     4   9  18  34  51  75 106 138 172 203 266 305
#
# _framework density 16.744978
#
# number of rings (size 3 to 8) (size 9 to 14) (size 15 to 20)
#    0.000    2.400    4.000    2.400    0.000    0.000 
#    3.600    2.000    0.000    2.400    0.000    0.000 
#    0.000    0.000    0.000    0.000    0.000    0.000 
#
# Total GULP energy -495949.564356 kJ/mol
# GULP energy per Si atom -12398.739109 kJ/mol
# Density = 1.670687 g / cm^3
# Si number density = 16.744978 Si / 1000 Ang^3
#
#
#
# Elastic Constant Matrix: (Units=GPa)
#
#
# Indices 1 2 3 4 5 6 
#
# 1 92.5252 43.7805 62.7101 0.0000 0.0000 0.0000
# 2 43.7805 76.0259 42.6213 0.0000 0.0000 0.0000
# 3 62.7101 42.6213 113.3397 0.0000 0.0000 0.0000
# 4 0.0000 0.0000 0.0000 28.3889 0.0000 0.0000
# 5 0.0000 0.0000 0.0000 0.0000 35.9635 0.0000
# 6 0.0000 0.0000 0.0000 0.0000 0.0000 23.7326
#
#
#
# Elastic Compliance Matrix: (Units=1/GPa)
#
#
# Indices 1 2 3 4 5 6 
#
# 1 0.019597 -0.006597 -0.008362 0.000000 0.000000 0.000000
# 2 -0.006597 0.018888 -0.003453 0.000000 0.000000 0.000000
# 3 -0.008362 -0.003453 0.014748 0.000000 0.000000 0.000000
# 4 0.000000 0.000000 0.000000 0.035225 0.000000 0.000000
# 5 0.000000 0.000000 0.000000 0.000000 0.027806 0.000000
# 6 0.000000 0.000000 0.000000 0.000000 0.000000 0.042136
#
#
# Mechanical properties :
#
#
# Convention : Reuss Voigt Hill
#
# Bulk Modulus (GPa) = 60.94094 64.45719 62.69906
# Shear Modulus (GPa) = 24.91356 26.46892 25.69124
#
# Velocity S-wave (km/s) = 3.86142 3.98013 3.92122
# Velocity P-wave (km/s) = 7.50688 7.72650 7.61748
#
# Compressibility (1/GPa) = 0.01640933
#
# Stress axis : x y z
#
# Youngs Moduli (GPa) = 51.02832 52.94319 67.80577
#
# Poissons Ratio (x) = 0.34928 0.56699
# Poissons Ratio (y) = 0.33665 0.23411
# Poissons Ratio (z) = 0.42670 0.18279
#
# Static dielectric constant tensor:
#      x y z
#    x 2.974740 0.000000 0.000000 
#    y 0.000000 2.964490 0.000000 
#    z 0.000000 0.000000 3.190520 
# 
# 
# High freq. dielectric constant tensor:
#      x y z
#    x 1.639250 0.000000 0.000000 
#    y 0.000000 1.620510 0.000000 
#    z 0.000000 0.000000 1.646060 
# 
# From -- ./inp_files/8506.got.cif
#   From: 2010.06.25/outbox.cif.g09.slc.cpg/sg52_5_cif.got.tgz:8506.got - 2010.06.26 19:32:48.
