data_PCOD8217488
_publ_section_title
;
Structure prediction by ZEFSAII (Michael W. Deem and Ramdas Pophale) SiO2 
 PCOD8217488
Probable space group: P M N A
;
_chemical_formula_sum "Si O2"
_cell_formula_units_Z 24
_cell_length_a 7.829683
_cell_length_b 10.502277
_cell_length_c 16.073688
_cell_angle_alpha 90.000000
_cell_angle_beta 90.000000
_cell_angle_gamma 90.000000
_cell_volume 1321.731322
_symmetry_space_group_name_H-M "P M N A"
_symmetry_group_IT_number 53
_symmetry_cell_setting 'orthorhombic'
loop_
_space_group_symop_operation_xyz
x,y,z
1/2-x,-y,1/2+z
x,-y,-z
1/2-x,y,1/2-z
-x,-y,-z
1/2+x,y,1/2-z
-x,y,z
1/2+x,-y,1/2+z
loop_
_atom_site_type_symbol
_atom_site_label
_atom_site_fract_x
_atom_site_fract_y
_atom_site_fract_z
Si Si1 0.000000 0.878922 0.436794
Si Si2 0.300804 0.278632 0.344154
Si Si3 0.500000 0.368437 0.047111
Si Si4 0.682764 0.996174 0.401328
O O1 0.000000 0.744691 0.480770
O O2 0.830668 0.893801 0.378993
O O3 0.000000 0.000000 0.500000
O O4 0.250000 0.305376 0.250000
O O5 0.500000 0.313449 0.361226
O O6 0.174066 0.364000 0.399386
O O7 0.262879 0.132492 0.365845
O O8 0.500000 0.500000 0.000000
O O9 0.500000 0.954188 0.362344
O O10 0.662424 0.000000 0.500000
#
# Coordination Sequence:
#
# PCOD8217488 Si02
#       4
#     4   8   4   8
#     4  10  16  32  58  78 116 138 183 229 277 329
#     4  11  21  35  59  90 115 149 196 250 294 348
#     4  12  24  38  56  92 114 162 203 240 291 358
#     4   9  16  28  52  84 114 137 178 229 283 332
#
# _framework density 18.158000999999999
#
# number of rings (size 3 to 8) (size 9 to 14) (size 15 to 20)
#    0.000    1.667    8.333    0.000    0.000    0.667 
#    0.000    0.000    0.000    2.000    0.000    0.000 
#    0.000    0.000    0.000    0.000    0.000    0.000 
#
# Total GULP energy -297333.554813 kJ/mol
# GULP energy per Si atom -12388.898117 kJ/mol
# Density = 1.811667 g / cm^3
# Si number density = 18.158001 Si / 1000 Ang^3
#
#
#
# Elastic Constant Matrix: (Units=GPa)
#
#
# Indices 1 2 3 4 5 6 
#
# 1 193.2155 67.0582 54.7496 0.0000 0.0000 0.0000
# 2 67.0582 105.1234 49.9600 0.0000 0.0000 0.0000
# 3 54.7496 49.9600 62.0574 0.0000 0.0000 0.0000
# 4 0.0000 0.0000 0.0000 19.2826 0.0000 0.0000
# 5 0.0000 0.0000 0.0000 0.0000 24.7061 0.0000
# 6 0.0000 0.0000 0.0000 0.0000 0.0000 22.9077
#
#
#
# Elastic Compliance Matrix: (Units=1/GPa)
#
#
# Indices 1 2 3 4 5 6 
#
# 1 0.007311 -0.002589 -0.004366 0.000000 0.000000 0.000000
# 2 -0.002589 0.016324 -0.010858 0.000000 0.000000 0.000000
# 3 -0.004366 -0.010858 0.028708 0.000000 0.000000 0.000000
# 4 0.000000 0.000000 0.000000 0.051860 0.000000 0.000000
# 5 0.000000 0.000000 0.000000 0.000000 0.040476 0.000000
# 6 0.000000 0.000000 0.000000 0.000000 0.000000 0.043653
#
#
# Mechanical properties :
#
#
# Convention : Reuss Voigt Hill
#
# Bulk Modulus (GPa) = 59.81937 78.21464 69.01701
# Shear Modulus (GPa) = 21.78354 25.95452 23.86903
#
# Velocity S-wave (km/s) = 3.46738 3.78480 3.62956
# Velocity P-wave (km/s) = 7.00326 7.89098 7.46034
#
# Compressibility (1/GPa) = 0.01671699
#
# Stress axis : x y z
#
# Youngs Moduli (GPa) = 136.77566 61.25800 34.83407
#
# Poissons Ratio (x) = 0.15859 0.15209
# Poissons Ratio (y) = 0.35409 0.37823
# Poissons Ratio (z) = 0.59718 0.66515
#
# Static dielectric constant tensor:
#      x y z
#    x 6.171860 0.000000 0.000000 
#    y 0.000000 2.911650 0.000000 
#    z 0.000000 0.000000 3.053520 
# 
# 
# High freq. dielectric constant tensor:
#      x y z
#    x 1.748630 0.000000 0.000000 
#    y 0.000000 1.649600 0.000000 
#    z 0.000000 0.000000 1.674050 
# 
# From -- ./inp_files/19341.got.cif
#   From: 2010.03.12/outbox.cif.g09.slc.cpg/sg53_10_cif.got.tgz:19341.got - 2010.04.16 14:36:59.
