data_PCOD8217500
_publ_section_title
;
Structure prediction by ZEFSAII (Michael W. Deem and Ramdas Pophale) SiO2 
 PCOD8217500
Probable space group: P M N A
;
_chemical_formula_sum "Si O2"
_cell_formula_units_Z 64
_cell_length_a 9.083100
_cell_length_b 18.485903
_cell_length_c 26.622265
_cell_angle_alpha 90.000000
_cell_angle_beta 90.000000
_cell_angle_gamma 90.000000
_cell_volume 4470.126028
_symmetry_space_group_name_H-M "P M N A"
_symmetry_group_IT_number 53
_symmetry_cell_setting 'orthorhombic'
loop_
_space_group_symop_operation_xyz
x,y,z
1/2-x,-y,1/2+z
x,-y,-z
1/2-x,y,1/2-z
-x,-y,-z
1/2+x,y,1/2-z
-x,y,z
1/2+x,-y,1/2+z
loop_
_atom_site_type_symbol
_atom_site_label
_atom_site_fract_x
_atom_site_fract_y
_atom_site_fract_z
Si Si1 0.323601 0.094539 0.105193
Si Si2 0.339403 0.957590 0.051653
Si Si3 0.326140 0.406967 0.401129
Si Si4 0.824785 0.826880 0.505333
Si Si5 0.173915 0.335953 0.495059
Si Si6 0.326357 0.165162 0.301246
Si Si7 0.171655 0.668425 0.800269
Si Si8 0.662503 0.547906 0.450311
O O1 0.500000 0.096057 0.112594
O O2 0.274220 0.149711 0.061116
O O3 0.240795 0.116506 0.155262
O O4 0.264795 0.013006 0.091331
O O5 0.500000 0.938827 0.073781
O O6 0.257113 0.881542 0.037649
O O7 0.358965 0.000000 0.000000
O O8 0.500000 0.394591 0.409232
O O9 0.242980 0.360352 0.442722
O O10 0.273396 0.380449 0.346629
O O11 0.286932 0.492732 0.406085
O O12 0.772492 0.745637 0.493982
O O13 0.000000 0.834029 0.502754
O O14 0.226280 0.385408 0.541969
O O15 0.000000 0.341633 0.490290
O O16 0.250000 0.139802 0.250000
O O17 0.500000 0.152528 0.297367
O O18 0.287124 0.248721 0.312167
O O19 0.250000 0.640466 0.750000
O O20 0.000000 0.659076 0.791222
O O21 0.657820 0.500000 0.500000
O O22 0.500000 0.579446 0.438971
#
# Coordination Sequence:
#
# PCOD8217500 Si02
#       8
#     8   8   8   8   8   8   8   8
#     4   9  15  25  42  58  73  99 133 160 184 218
#     4   7  11  21  37  55  74  98 127 154 180 218
#     4   9  17  29  41  52  72 103 132 154 185 228
#     4   8  14  23  36  57  81 102 125 154 187 222
#     4  10  17  23  36  58  80 100 126 160 189 214
#     4  10  19  29  40  55  77 101 126 158 191 222
#     4   9  18  30  42  56  74  98 127 158 190 222
#     4   8  15  27  39  50  70 101 130 154 183 224
#
# _framework density 14.317269
#
# number of rings (size 3 to 8) (size 9 to 14) (size 15 to 20)
#    0.000    3.250    0.000    3.750    0.000    3.250 
#    0.000    0.625    0.000    4.875    0.000    0.000 
#    0.000    1.000    0.000    7.500    0.000    2.500 
#
# Total GULP energy -792884.985612 kJ/mol
# GULP energy per Si atom -12388.827900 kJ/mol
# Density = 1.428468 g / cm^3
# Si number density = 14.317269 Si / 1000 Ang^3
#
#
#
# Elastic Constant Matrix: (Units=GPa)
#
#
# Indices 1 2 3 4 5 6 
#
# 1 40.2394 37.2731 31.6654 0.0000 0.0000 0.0000
# 2 37.2731 117.3132 64.7816 0.0000 0.0000 0.0000
# 3 31.6654 64.7816 94.2897 0.0000 0.0000 0.0000
# 4 0.0000 0.0000 0.0000 26.6947 0.0000 0.0000
# 5 0.0000 0.0000 0.0000 0.0000 17.5223 0.0000
# 6 0.0000 0.0000 0.0000 0.0000 0.0000 7.1100
#
#
#
# Elastic Compliance Matrix: (Units=1/GPa)
#
#
# Indices 1 2 3 4 5 6 
#
# 1 0.038026 -0.008105 -0.007202 0.000000 0.000000 0.000000
# 2 -0.008105 0.015463 -0.007902 0.000000 0.000000 0.000000
# 3 -0.007202 -0.007902 0.018453 0.000000 0.000000 0.000000
# 4 0.000000 0.000000 0.000000 0.037461 0.000000 0.000000
# 5 0.000000 0.000000 0.000000 0.000000 0.057070 0.000000
# 6 0.000000 0.000000 0.000000 0.000000 0.000000 0.140648
#
#
# Mechanical properties :
#
#
# Convention : Reuss Voigt Hill
#
# Bulk Modulus (GPa) = 39.17750 57.69806 48.43778
# Shear Modulus (GPa) = 13.81042 18.14022 15.97532
#
# Velocity S-wave (km/s) = 3.10917 3.56338 3.34399
# Velocity P-wave (km/s) = 6.34921 7.57082 6.98677
#
# Compressibility (1/GPa) = 0.02552485
#
# Stress axis : x y z
#
# Youngs Moduli (GPa) = 26.29785 64.67177 54.19117
#
# Poissons Ratio (x) = 0.52414 0.39028
# Poissons Ratio (y) = 0.21314 0.42821
# Poissons Ratio (z) = 0.18940 0.51102
#
# Static dielectric constant tensor:
#      x y z
#    x 2.628090 0.000000 0.000000 
#    y 0.000000 3.112880 0.000000 
#    z 0.000000 0.000000 2.738740 
# 
# 
# High freq. dielectric constant tensor:
#      x y z
#    x 1.530100 0.000000 0.000000 
#    y 0.000000 1.541290 0.000000 
#    z 0.000000 0.000000 1.517520 
# 
# From -- ./inp_files/36538.got.cif
#   From: 2010.03.12/outbox.cif.g09.slc.cpg/sg53_19_cif.got.tgz:36538.got - 2010.04.16 14:36:59.
