data_PCOD8217964
_publ_section_title
;
Structure prediction by ZEFSAII (Michael W. Deem and Ramdas Pophale) SiO2 
 PCOD8217964
Probable space group: P M N A
;
_chemical_formula_sum "Si O2"
_cell_formula_units_Z 64
_cell_length_a 8.811550
_cell_length_b 15.226686
_cell_length_c 24.727743
_cell_angle_alpha 90.000000
_cell_angle_beta 90.000000
_cell_angle_gamma 90.000000
_cell_volume 3317.738712
_symmetry_space_group_name_H-M "P M N A"
_symmetry_group_IT_number 53
_symmetry_cell_setting 'orthorhombic'
loop_
_space_group_symop_operation_xyz
x,y,z
1/2-x,-y,1/2+z
x,-y,-z
1/2-x,y,1/2-z
-x,-y,-z
1/2+x,y,1/2-z
-x,y,z
1/2+x,-y,1/2+z
loop_
_atom_site_type_symbol
_atom_site_label
_atom_site_fract_x
_atom_site_fract_y
_atom_site_fract_z
Si Si1 0.678330 0.934155 0.805527
Si Si2 0.176306 0.263751 0.496632
Si Si3 0.818984 0.366187 0.193197
Si Si4 0.320473 0.133407 0.806512
Si Si5 0.819641 0.268371 0.887859
Si Si6 0.174987 0.540300 0.139862
Si Si7 0.662834 0.554634 0.948754
Si Si8 0.821752 0.780753 0.618488
O O1 0.750000 0.900683 0.750000
O O2 0.500000 0.929934 0.798639
O O3 0.736473 0.868807 0.852046
O O4 0.729668 0.033391 0.818971
O O5 0.276443 0.249596 0.549775
O O6 0.225981 0.353331 0.468318
O O7 0.210970 0.199381 0.445545
O O8 0.000000 0.261312 0.514221
O O9 0.750000 0.333607 0.250000
O O10 0.766181 0.468946 0.184221
O O11 0.759481 0.305564 0.143872
O O12 0.000000 0.359127 0.194810
O O13 0.250000 0.165505 0.750000
O O14 0.500000 0.144578 0.803678
O O15 0.254120 0.190987 0.854257
O O16 0.752914 0.361221 0.863451
O O17 0.000000 0.265586 0.883162
O O18 0.205032 0.494023 0.083085
O O19 0.000000 0.555689 0.148938
O O20 0.500000 0.564986 0.916560
O O21 0.620479 0.500000 0.000000
O O22 0.000000 0.765427 0.627319
#
# Coordination Sequence:
#
# PCOD8217964 Si02
#       8
#     8   8   8   8   8   8   8   8
#     4   9  19  36  60  87 111 140 180 227 279 334
#     4  10  20  34  54  82 115 150 188 228 274 329
#     4  11  23  37  52  75 109 147 186 228 278 332
#     4  10  21  40  64  87 111 140 179 229 283 336
#     4  11  23  38  57  83 114 149 191 234 278 328
#     4  10  22  36  51  74 106 143 185 229 274 322
#     4  10  18  30  51  77 104 139 186 229 269 316
#     4  10  20  36  58  84 114 147 184 226 274 332
#
# _framework density 19.290247000000001
#
# number of rings (size 3 to 8) (size 9 to 14) (size 15 to 20)
#    0.000    1.875    2.500    1.500    0.000    4.750 
#    0.000    1.875    0.000    3.750    0.000    0.000 
#    0.000    0.000    0.000    0.000    0.000    0.000 
#
# Total GULP energy -792905.428601 kJ/mol
# GULP energy per Si atom -12389.147322 kJ/mol
# Density = 1.924634 g / cm^3
# Si number density = 19.290247 Si / 1000 Ang^3
#
#
#
# Elastic Constant Matrix: (Units=GPa)
#
#
# Indices 1 2 3 4 5 6 
#
# 1 46.0950 27.3422 32.3465 0.0000 0.0000 0.0000
# 2 27.3422 95.0834 43.2227 0.0000 0.0000 0.0000
# 3 32.3465 43.2227 88.8271 0.0000 0.0000 0.0000
# 4 0.0000 0.0000 0.0000 0.7844 0.0000 0.0000
# 5 0.0000 0.0000 0.0000 0.0000 33.0807 0.0000
# 6 0.0000 0.0000 0.0000 0.0000 0.0000 22.1329
#
#
#
# Elastic Compliance Matrix: (Units=1/GPa)
#
#
# Indices 1 2 3 4 5 6 
#
# 1 0.030771 -0.004821 -0.008859 0.000000 0.000000 0.000000
# 2 -0.004821 0.014260 -0.005183 0.000000 0.000000 0.000000
# 3 -0.008859 -0.005183 0.017006 0.000000 0.000000 0.000000
# 4 0.000000 0.000000 0.000000 1.274809 0.000000 0.000000
# 5 0.000000 0.000000 0.000000 0.000000 0.030229 0.000000
# 6 0.000000 0.000000 0.000000 0.000000 0.000000 0.045182
#
#
# Mechanical properties :
#
#
# Convention : Reuss Voigt Hill
#
# Bulk Modulus (GPa) = 41.13624 48.42539 44.78081
# Shear Modulus (GPa) = 3.42915 19.67254 11.55085
#
# Velocity S-wave (km/s) = 1.33474 3.19692 2.44968
# Velocity P-wave (km/s) = 4.87304 6.22777 5.59159
#
# Compressibility (1/GPa) = 0.02430947
#
# Stress axis : x y z
#
# Youngs Moduli (GPa) = 32.49809 70.12851 58.80301
#
# Poissons Ratio (x) = 0.33811 0.52095
# Poissons Ratio (y) = 0.15668 0.30477
# Poissons Ratio (z) = 0.28791 0.36347
#
# Static dielectric constant tensor:
#      x y z
#    x 3.421170 0.000000 0.000000 
#    y 0.000000 3.783770 0.000000 
#    z 0.000000 0.000000 3.814150 
# 
# 
# High freq. dielectric constant tensor:
#      x y z
#    x 1.742930 0.000000 0.000000 
#    y 0.000000 1.747990 0.000000 
#    z 0.000000 0.000000 1.748760 
# 
# From -- ./inp_files/34263.got.cif
#   From: 2010.03.12/outbox.cif.g09.slc.cpg/sg53_18_cif.got.tgz:34263.got - 2010.04.16 14:36:59.
