data_PCOD8217238
_publ_section_title
;
Structure prediction by ZEFSAII (Michael W. Deem and Ramdas Pophale) SiO2 
 PCOD8217238
Probable space group: P N N A
;
_chemical_formula_sum "Si O2"
_cell_formula_units_Z 56
_cell_length_a 15.040753
_cell_length_b 19.210245
_cell_length_c 9.210410
_cell_angle_alpha 90.000000
_cell_angle_beta 90.000000
_cell_angle_gamma 90.000000
_cell_volume 2661.224091
_symmetry_space_group_name_H-M "P N N A"
_symmetry_group_IT_number 52
_symmetry_cell_setting 'orthorhombic'
loop_
_space_group_symop_operation_xyz
x,y,z
1/2-x,-y,z
x,1/2-y,1/2-z
1/2-x,1/2+y,1/2-z
-x,-y,-z
1/2+x,y,-z
-x,1/2+y,1/2+z
1/2+x,1/2-y,1/2+z
loop_
_atom_site_type_symbol
_atom_site_label
_atom_site_fract_x
_atom_site_fract_y
_atom_site_fract_z
Si Si1 0.592216 0.174107 0.256166
Si Si2 0.445398 0.161167 0.025584
Si Si3 0.805677 0.169972 0.729642
Si Si4 0.175415 0.446346 0.186975
Si Si5 0.979078 0.072169 0.245783
Si Si6 0.338721 0.963459 0.652831
Si Si7 0.553694 0.681688 0.002681
O O1 0.639868 0.250000 0.250000
O O2 0.538928 0.159696 0.109003
O O3 0.664687 0.114035 0.279556
O O4 0.526479 0.174134 0.391630
O O5 0.364881 0.144664 0.135108
O O6 0.434256 0.237472 0.952292
O O7 0.444739 0.100531 0.907322
O O8 0.781825 0.250000 0.750000
O O9 0.712481 0.130491 0.718518
O O10 0.857268 0.155577 0.578601
O O11 0.250000 0.500000 0.246583
O O12 0.081514 0.452287 0.269311
O O13 0.156136 0.460993 0.019556
O O14 0.966250 0.133961 0.360548
O O15 0.924662 0.003969 0.289496
O O16 0.250000 0.000000 0.709193
#
# Coordination Sequence:
#
# PCOD8217238 Si02
#       7
#     8   8   8   8   8   8   8
#     4   9  19  40  64  87 123 172 211 255 320 393
#     4   9  21  38  63  96 128 167 209 264 336 379
#     4   9  20  42  66  91 128 173 217 264 320 391
#     4  11  24  40  64  93 123 169 220 259 313 395
#     4  12  23  39  66  97 131 166 213 282 316 385
#     4  11  24  42  64  95 125 169 221 270 321 379
#     4   9  17  37  68  91 124 169 218 261 311 384
#
# _framework density 21.042947999999999
#
# number of rings (size 3 to 8) (size 9 to 14) (size 15 to 20)
#    0.000    2.000    1.429    4.286    4.000    1.714 
#    2.571    2.857    0.000    0.000    0.000    0.000 
#    0.000    0.000    0.000    0.000    0.000    0.000 
#
# Total GULP energy -694427.547592 kJ/mol
# GULP energy per Si atom -12400.491921 kJ/mol
# Density = 2.099505 g / cm^3
# Si number density = 21.042948 Si / 1000 Ang^3
#
#
#
# Elastic Constant Matrix: (Units=GPa)
#
#
# Indices 1 2 3 4 5 6 
#
# 1 116.8542 54.9467 12.9642 0.0000 0.0000 0.0000
# 2 54.9467 116.8749 32.9837 0.0000 0.0000 0.0000
# 3 12.9642 32.9837 69.5042 0.0000 0.0000 0.0000
# 4 0.0000 0.0000 0.0000 28.8229 0.0000 0.0000
# 5 0.0000 0.0000 0.0000 0.0000 8.7885 0.0000
# 6 0.0000 0.0000 0.0000 0.0000 0.0000 23.5859
#
#
#
# Elastic Compliance Matrix: (Units=1/GPa)
#
#
# Indices 1 2 3 4 5 6 
#
# 1 0.010999 -0.005302 0.000465 0.000000 0.000000 0.000000
# 2 -0.005302 0.012435 -0.004912 0.000000 0.000000 0.000000
# 3 0.000465 -0.004912 0.016632 0.000000 0.000000 0.000000
# 4 0.000000 0.000000 0.000000 0.034695 0.000000 0.000000
# 5 0.000000 0.000000 0.000000 0.000000 0.113785 0.000000
# 6 0.000000 0.000000 0.000000 0.000000 0.000000 0.042398
#
#
# Mechanical properties :
#
#
# Convention : Reuss Voigt Hill
#
# Bulk Modulus (GPa) = 48.62193 56.11361 52.36777
# Shear Modulus (GPa) = 19.43259 25.72871 22.58065
#
# Velocity S-wave (km/s) = 3.04217 3.50047 3.27934
# Velocity P-wave (km/s) = 5.95784 6.56215 6.26729
#
# Compressibility (1/GPa) = 0.02056685
#
# Stress axis : x y z
#
# Youngs Moduli (GPa) = 90.91467 80.41689 60.12479
#
# Poissons Ratio (x) = 0.42639 -0.02793
# Poissons Ratio (y) = 0.48205 0.29535
# Poissons Ratio (z) = -0.04224 0.39502
#
# Static dielectric constant tensor:
#      x y z
#    x 3.750780 0.000000 0.000000 
#    y 0.000000 4.129190 0.000000 
#    z 0.000000 0.000000 3.768700 
# 
# 
# High freq. dielectric constant tensor:
#      x y z
#    x 1.810560 0.000000 0.000000 
#    y 0.000000 1.839410 0.000000 
#    z 0.000000 0.000000 1.809610 
# 
# From -- ./inp_files/10780.got.cif
#   From: 2010.06.25/outbox.cif.g09.slc.cpg/sg52_6_cif.got.tgz:10780.got - 2010.06.26 19:32:48.
