data_PCOD8217424
_publ_section_title
;
Structure prediction by ZEFSAII (Michael W. Deem and Ramdas Pophale) SiO2 
 PCOD8217424
Probable space group: P N N A
;
_chemical_formula_sum "Si O2"
_cell_formula_units_Z 40
_cell_length_a 11.984998
_cell_length_b 8.107224
_cell_length_c 17.661613
_cell_angle_alpha 90.000000
_cell_angle_beta 90.000000
_cell_angle_gamma 90.000000
_cell_volume 1716.091747
_symmetry_space_group_name_H-M "P N N A"
_symmetry_group_IT_number 52
_symmetry_cell_setting 'orthorhombic'
loop_
_space_group_symop_operation_xyz
x,y,z
1/2-x,-y,z
x,1/2-y,1/2-z
1/2-x,1/2+y,1/2-z
-x,-y,-z
1/2+x,y,-z
-x,1/2+y,1/2+z
1/2+x,1/2-y,1/2+z
loop_
_atom_site_type_symbol
_atom_site_label
_atom_site_fract_x
_atom_site_fract_y
_atom_site_fract_z
Si Si1 0.353128 0.230422 0.515207
Si Si2 0.948346 0.570021 0.234485
Si Si3 0.750000 0.000000 0.921113
Si Si4 0.380025 0.006183 0.377333
Si Si5 0.474074 0.858326 0.127084
Si Si6 0.750000 0.500000 0.129046
O O1 0.265051 0.335157 0.468287
O O2 0.448206 0.349472 0.551560
O O3 0.405879 0.088274 0.459771
O O4 0.267718 0.158307 0.576336
O O5 0.897636 0.750000 0.250000
O O6 0.861245 0.491194 0.177309
O O7 0.064258 0.610366 0.190304
O O8 0.956953 0.441948 0.304496
O O9 0.635116 0.025640 0.875832
O O10 0.436996 0.829523 0.361608
O O11 0.250000 0.000000 0.362235
#
# Coordination Sequence:
#
# PCOD8217424 Si02
#       6
#     8   8   4   8   8   4
#     4  12  26  47  77 113 147 201 253 326 380 476
#     4  12  31  47  75 108 153 202 254 319 390 476
#     4  12  26  45  79 110 150 192 258 318 388 460
#     4  12  25  49  78 107 149 199 255 321 386 461
#     4  12  27  49  74 111 153 198 258 312 399 459
#     4  12  28  49  75 104 158 196 256 312 396 456
#
# _framework density 23.308776999999999
#
# number of rings (size 3 to 8) (size 9 to 14) (size 15 to 20)
#    0.000    0.000    5.000    3.000    9.800    0.000 
#    0.000    0.000    0.000    0.000    0.000    0.000 
#    0.000    0.000    0.000    0.000    0.000    0.000 
#
# Total GULP energy -495656.540099 kJ/mol
# GULP energy per Si atom -12391.413502 kJ/mol
# Density = 2.325573 g / cm^3
# Si number density = 23.308777 Si / 1000 Ang^3
#
#
#
# Elastic Constant Matrix: (Units=GPa)
#
#
# Indices 1 2 3 4 5 6 
#
# 1 87.7437 15.6316 31.7350 0.0000 0.0000 0.0000
# 2 15.6316 123.6951 52.5972 0.0000 0.0000 0.0000
# 3 31.7350 52.5972 114.6398 0.0000 0.0000 0.0000
# 4 0.0000 0.0000 0.0000 -3.6106 0.0000 0.0000
# 5 0.0000 0.0000 0.0000 0.0000 429.5699 0.0000
# 6 0.0000 0.0000 0.0000 0.0000 0.0000 42.3943
#
#
#
# Elastic Compliance Matrix: (Units=1/GPa)
#
#
# Indices 1 2 3 4 5 6 
#
# 1 0.012667 -0.000136 -0.003444 0.000000 0.000000 0.000000
# 2 -0.000136 0.010045 -0.004571 0.000000 0.000000 0.000000
# 3 -0.003444 -0.004571 0.011774 0.000000 0.000000 0.000000
# 4 0.000000 0.000000 0.000000 -0.276960 0.000000 0.000000
# 5 0.000000 0.000000 0.000000 0.000000 0.002328 0.000000
# 6 0.000000 0.000000 0.000000 0.000000 0.000000 0.023588
#
#
# Mechanical properties :
#
#
# Convention : Reuss Voigt Hill
#
# Bulk Modulus (GPa) = 54.99655 58.44515 56.72085
# Shear Modulus (GPa) = -25.74739 108.74503 41.49882
#
# Velocity S-wave (km/s) = -3.32719 6.83779 4.22405
# Velocity P-wave (km/s) = 2.98090 9.35250 6.94100
#
# Compressibility (1/GPa) = 0.01818296
#
# Stress axis : x y z
#
# Youngs Moduli (GPa) = 78.94722 99.54878 84.93608
#
# Poissons Ratio (x) = 0.01357 0.29251
# Poissons Ratio (y) = 0.01076 0.38825
# Poissons Ratio (z) = 0.27189 0.45505
#
# Static dielectric constant tensor:
#      x y z
#    x 4.480230 0.000000 0.000000 
#    y 0.000000 6.123800 0.000000 
#    z 0.000000 0.000000 4.316280 
# 
# 
# High freq. dielectric constant tensor:
#      x y z
#    x 1.930960 0.000000 0.000000 
#    y 0.000000 1.933560 0.000000 
#    z 0.000000 0.000000 1.923730 
# 
# From -- ./inp_files/32042.got.cif
#   From: 2010.06.25/outbox.cif.g09.slc.cpg/sg52_17_cif.got.tgz:32042.got - 2010.06.26 19:32:48.
