data_PCOD8217432
_publ_section_title
;
Structure prediction by ZEFSAII (Michael W. Deem and Ramdas Pophale) SiO2 
 PCOD8217432
Probable space group: P N N A
;
_chemical_formula_sum "Si O2"
_cell_formula_units_Z 28
_cell_length_a 9.156001
_cell_length_b 7.831280
_cell_length_c 16.032075
_cell_angle_alpha 90.000000
_cell_angle_beta 90.000000
_cell_angle_gamma 90.000000
_cell_volume 1149.551201
_symmetry_space_group_name_H-M "P N N A"
_symmetry_group_IT_number 52
_symmetry_cell_setting 'orthorhombic'
loop_
_space_group_symop_operation_xyz
x,y,z
1/2-x,-y,z
x,1/2-y,1/2-z
1/2-x,1/2+y,1/2-z
-x,-y,-z
1/2+x,y,-z
-x,1/2+y,1/2+z
1/2+x,1/2-y,1/2+z
loop_
_atom_site_type_symbol
_atom_site_label
_atom_site_fract_x
_atom_site_fract_y
_atom_site_fract_z
Si Si1 0.402683 0.944475 0.231941
Si Si2 0.424875 0.642895 0.447985
Si Si3 0.621306 0.250000 0.250000
Si Si4 0.719406 0.696261 0.081959
O O1 0.450501 0.750000 0.250000
O O2 0.369149 0.952905 0.133973
O O3 0.250000 0.000000 0.277080
O O4 0.525575 0.078300 0.261784
O O5 0.500000 0.500000 0.500000
O O6 0.544899 0.785047 0.423214
O O7 0.291367 0.720040 0.500165
O O8 0.719658 0.221167 0.167738
O O9 0.750000 0.500000 0.081715
#
# Coordination Sequence:
#
# PCOD8217432 Si02
#       4
#     8   8   4   8
#     4  12  26  47  75 110 153 199 254 314 382 452
#     4  12  26  48  76 106 150 199 245 308 382 448
#     4  12  28  48  76 116 152 202 254 320 382 452
#     4  12  28  48  78 111 152 197 259 313 378 453
#
# _framework density 24.357333000000001
#
# number of rings (size 3 to 8) (size 9 to 14) (size 15 to 20)
#    0.000    0.000    4.286    5.143    6.000    1.143 
#    0.000    0.000    0.000    0.000    0.000    0.000 
#    0.000    0.000    0.000    0.000    0.000    0.000 
#
# Total GULP energy -347196.388228 kJ/mol
# GULP energy per Si atom -12399.871008 kJ/mol
# Density = 2.430189 g / cm^3
# Si number density = 24.357333 Si / 1000 Ang^3
#
#
#
# Elastic Constant Matrix: (Units=GPa)
#
#
# Indices 1 2 3 4 5 6 
#
# 1 89.6824 -8.8987 2.7339 0.0000 0.0000 0.0000
# 2 -8.8987 108.7854 -18.3168 0.0000 0.0000 0.0000
# 3 2.7339 -18.3168 102.9915 0.0000 0.0000 0.0000
# 4 0.0000 0.0000 0.0000 39.4588 0.0000 0.0000
# 5 0.0000 0.0000 0.0000 0.0000 24.5545 0.0000
# 6 0.0000 0.0000 0.0000 0.0000 0.0000 49.7781
#
#
#
# Elastic Compliance Matrix: (Units=1/GPa)
#
#
# Indices 1 2 3 4 5 6 
#
# 1 0.011244 0.000896 -0.000139 0.000000 0.000000 0.000000
# 2 0.000896 0.009548 0.001674 0.000000 0.000000 0.000000
# 3 -0.000139 0.001674 0.010011 0.000000 0.000000 0.000000
# 4 0.000000 0.000000 0.000000 0.025343 0.000000 0.000000
# 5 0.000000 0.000000 0.000000 0.000000 0.040726 0.000000
# 6 0.000000 0.000000 0.000000 0.000000 0.000000 0.020089
#
#
# Mechanical properties :
#
#
# Convention : Reuss Voigt Hill
#
# Bulk Modulus (GPa) = 28.03851 28.05514 28.04682
# Shear Modulus (GPa) = 40.32730 44.48766 42.40748
#
# Velocity S-wave (km/s) = 4.07339 4.27835 4.17712
# Velocity P-wave (km/s) = 5.80169 5.99573 5.89951
#
# Compressibility (1/GPa) = 0.03566523
#
# Stress axis : x y z
#
# Youngs Moduli (GPa) = 88.93921 104.73803 99.89029
#
# Poissons Ratio (x) = -0.09388 0.01389
# Poissons Ratio (y) = -0.07972 -0.16724
# Poissons Ratio (z) = 0.01237 -0.17536
#
# Static dielectric constant tensor:
#      x y z
#    x 0.076620 0.000000 0.000000 
#    y 0.000000 4.548620 0.000000 
#    z 0.000000 0.000000 4.048550 
# 
# 
# High freq. dielectric constant tensor:
#      x y z
#    x 1.984460 0.000000 0.000000 
#    y 0.000000 1.976760 0.000000 
#    z 0.000000 0.000000 1.975130 
# 
# From -- ./inp_files/30672.got.cif
#   From: 2010.06.25/outbox.cif.g09.slc.cpg/sg52_16_cif.got.tgz:30672.got - 2010.06.26 19:32:48.
