data_PCOD8217075
_publ_section_title
;
Structure prediction by ZEFSAII (Michael W. Deem and Ramdas Pophale) SiO2 
 PCOD8217075
Probable space group: P N N A
;
_chemical_formula_sum "Si O2"
_cell_formula_units_Z 48
_cell_length_a 9.272344
_cell_length_b 14.739018
_cell_length_c 17.192321
_cell_angle_alpha 90.000000
_cell_angle_beta 90.000000
_cell_angle_gamma 90.000000
_cell_volume 2349.592764
_symmetry_space_group_name_H-M "P N N A"
_symmetry_group_IT_number 52
_symmetry_cell_setting 'orthorhombic'
loop_
_space_group_symop_operation_xyz
x,y,z
1/2-x,-y,z
x,1/2-y,1/2-z
1/2-x,1/2+y,1/2-z
-x,-y,-z
1/2+x,y,-z
-x,1/2+y,1/2+z
1/2+x,1/2-y,1/2+z
loop_
_atom_site_type_symbol
_atom_site_label
_atom_site_fract_x
_atom_site_fract_y
_atom_site_fract_z
Si Si1 0.269796 0.266849 0.432963
Si Si2 0.486386 0.079296 0.062923
Si Si3 0.587502 0.990778 0.773592
Si Si4 0.984368 0.683266 0.680483
Si Si5 0.715162 0.279914 0.401883
Si Si6 0.029325 0.682086 0.183571
O O1 0.382012 0.341480 0.466755
O O2 0.214282 0.226567 0.515024
O O3 0.352087 0.188408 0.385160
O O4 0.142966 0.313477 0.383212
O O5 0.407817 0.045895 0.139673
O O6 0.642498 0.121006 0.084646
O O7 0.500000 0.000000 0.000000
O O8 0.510197 0.920117 0.714993
O O9 0.750000 0.000000 0.742737
O O10 0.504020 0.085961 0.776741
O O11 0.947831 0.750000 0.750000
O O12 0.130827 0.706700 0.637027
O O13 0.626121 0.216448 0.343604
O O14 0.087932 0.750000 0.250000
#
# Coordination Sequence:
#
# PCOD8217075 Si02
#       6
#     8   8   8   8   8   8
#     4  11  21  41  65  93 134 174 218 271 326 401
#     4  11  23  37  63  97 136 166 209 259 348 416
#     4  12  22  40  67  93 124 175 223 268 313 398
#     4  12  25  40  64  98 130 169 227 273 330 396
#     4  11  24  41  61  97 140 171 204 279 346 389
#     4  11  21  43  65  90 131 179 219 259 327 399
#
# _framework density 20.429072000000001
#
# number of rings (size 3 to 8) (size 9 to 14) (size 15 to 20)
#    0.000    0.667    5.000    6.000    0.000    2.000 
#    0.000    0.833    0.000   11.000    0.000    0.000 
#    0.000    0.000    0.000    0.000    0.000    0.000 
#
# Total GULP energy -595127.792658 kJ/mol
# GULP energy per Si atom -12398.495680 kJ/mol
# Density = 2.038257 g / cm^3
# Si number density = 20.429072 Si / 1000 Ang^3
#
#
#
# Elastic Constant Matrix: (Units=GPa)
#
#
# Indices 1 2 3 4 5 6 
#
# 1 106.4558 29.5902 36.4156 0.0000 0.0000 0.0000
# 2 29.5902 96.1001 61.4741 0.0000 0.0000 0.0000
# 3 36.4156 61.4741 117.0987 0.0000 0.0000 0.0000
# 4 0.0000 0.0000 0.0000 44.9761 0.0000 0.0000
# 5 0.0000 0.0000 0.0000 0.0000 -47.6466 0.0000
# 6 0.0000 0.0000 0.0000 0.0000 0.0000 22.6734
#
#
#
# Elastic Compliance Matrix: (Units=1/GPa)
#
#
# Indices 1 2 3 4 5 6 
#
# 1 0.010705 -0.001757 -0.002407 0.000000 0.000000 0.000000
# 2 -0.001757 0.015955 -0.007830 0.000000 0.000000 0.000000
# 3 -0.002407 -0.007830 0.013399 0.000000 0.000000 0.000000
# 4 0.000000 0.000000 0.000000 0.022234 0.000000 0.000000
# 5 0.000000 0.000000 0.000000 0.000000 -0.020988 0.000000
# 6 0.000000 0.000000 0.000000 0.000000 0.000000 0.044105
#
#
# Mechanical properties :
#
#
# Convention : Reuss Voigt Hill
#
# Bulk Modulus (GPa) = 62.21800 63.84604 63.03202
# Shear Modulus (GPa) = 43.57122 16.81223 30.19173
#
# Velocity S-wave (km/s) = 4.62324 2.87183 3.84849
# Velocity P-wave (km/s) = 7.68250 6.50515 7.11821
#
# Compressibility (1/GPa) = 0.01607252
#
# Stress axis : x y z
#
# Youngs Moduli (GPa) = 93.41277 62.67468 74.63302
#
# Poissons Ratio (x) = 0.11009 0.17964
# Poissons Ratio (y) = 0.16408 0.58437
# Poissons Ratio (z) = 0.22484 0.49074
#
# Static dielectric constant tensor:
#      x y z
#    x 3.847090 0.000000 0.000000 
#    y 0.000000 3.476050 0.000000 
#    z 0.000000 0.000000 3.869210 
# 
# 
# High freq. dielectric constant tensor:
#      x y z
#    x 1.810080 0.000000 0.000000 
#    y 0.000000 1.767640 0.000000 
#    z 0.000000 0.000000 1.810990 
# 
# From -- ./inp_files/31254.got.cif
#   From: 2010.06.25/outbox.cif.g09.slc.cpg/sg52_16_cif.got.tgz:31254.got - 2010.06.26 19:32:48.
