data_PCOD8217134
_publ_section_title
;
Structure prediction by ZEFSAII (Michael W. Deem and Ramdas Pophale) SiO2 
 PCOD8217134
Probable space group: P N N A
;
_chemical_formula_sum "Si O2"
_cell_formula_units_Z 64
_cell_length_a 30.589947
_cell_length_b 8.637319
_cell_length_c 11.796701
_cell_angle_alpha 90.000000
_cell_angle_beta 90.000000
_cell_angle_gamma 90.000000
_cell_volume 3116.866893
_symmetry_space_group_name_H-M "P N N A"
_symmetry_group_IT_number 52
_symmetry_cell_setting 'orthorhombic'
loop_
_space_group_symop_operation_xyz
x,y,z
1/2-x,-y,z
x,1/2-y,1/2-z
1/2-x,1/2+y,1/2-z
-x,-y,-z
1/2+x,y,-z
-x,1/2+y,1/2+z
1/2+x,1/2-y,1/2+z
loop_
_atom_site_type_symbol
_atom_site_label
_atom_site_fract_x
_atom_site_fract_y
_atom_site_fract_z
Si Si1 0.376390 0.564591 0.874260
Si Si2 0.796007 0.067224 0.508227
Si Si3 0.705519 0.932686 0.980780
Si Si4 0.318169 0.925660 0.250600
Si Si5 0.546393 0.567794 0.529400
Si Si6 0.920582 0.925423 0.746450
Si Si7 0.875863 0.579544 0.393001
Si Si8 0.048074 0.933306 0.485532
O O1 0.373955 0.552474 0.740088
O O2 0.376547 0.738947 0.921578
O O3 0.334156 0.480080 0.923189
O O4 0.421458 0.482968 0.910025
O O5 0.794408 0.250236 0.509086
O O6 0.750000 0.000000 0.463329
O O7 0.805459 0.004848 0.632776
O O8 0.750000 0.000000 0.034667
O O9 0.665867 0.003822 0.049978
O O10 0.704126 0.978794 0.849227
O O11 0.300436 0.750000 0.250000
O O12 0.369527 0.927862 0.228606
O O13 0.500000 0.500000 0.500000
O O14 0.556072 0.526971 0.658894
O O15 0.580823 0.495962 0.442853
O O16 0.545845 0.750388 0.517419
O O17 0.938667 0.750000 0.750000
O O18 0.929739 0.001677 0.626670
O O19 0.000000 0.000000 0.500000
#
# Coordination Sequence:
#
# PCOD8217134 Si02
#       8
#     8   8   8   8   8   8   8   8
#     4  11  25  46  69  95 131 171 218 272 327 386
#     4  12  25  42  67  97 132 171 218 267 325 389
#     4  12  25  42  67  97 132 171 218 267 325 389
#     4  11  22  40  67  97 135 171 212 267 327 385
#     4  12  26  44  69  99 135 174 220 269 326 389
#     4  11  23  42  70  99 134 173 217 270 329 386
#     4  11  25  46  69  95 131 171 218 272 327 386
#     4  12  26  44  69  99 135 174 220 269 326 389
#
# _framework density 20.533439000000001
#
# number of rings (size 3 to 8) (size 9 to 14) (size 15 to 20)
#    0.000    0.500    2.500    6.375    1.750    3.500 
#    0.000    0.000    0.000    0.000    0.000    0.000 
#    0.000    0.000    0.000    0.000    0.000    0.000 
#
# Total GULP energy -794063.495689 kJ/mol
# GULP energy per Si atom -12407.242120 kJ/mol
# Density = 2.048670 g / cm^3
# Si number density = 20.533439 Si / 1000 Ang^3
#
#
#
# Elastic Constant Matrix: (Units=GPa)
#
#
# Indices 1 2 3 4 5 6 
#
# 1 143.6187 54.6058 31.3546 0.0000 0.0000 0.0000
# 2 54.6058 186.5559 44.8913 0.0000 0.0000 0.0000
# 3 31.3546 44.8913 78.0773 0.0000 0.0000 0.0000
# 4 0.0000 0.0000 0.0000 28.2102 0.0000 0.0000
# 5 0.0000 0.0000 0.0000 0.0000 34.7017 0.0000
# 6 0.0000 0.0000 0.0000 0.0000 0.0000 42.6354
#
#
#
# Elastic Compliance Matrix: (Units=1/GPa)
#
#
# Indices 1 2 3 4 5 6 
#
# 1 0.008150 -0.001854 -0.002207 0.000000 0.000000 0.000000
# 2 -0.001854 0.006643 -0.003075 0.000000 0.000000 0.000000
# 3 -0.002207 -0.003075 0.015462 0.000000 0.000000 0.000000
# 4 0.000000 0.000000 0.000000 0.035448 0.000000 0.000000
# 5 0.000000 0.000000 0.000000 0.000000 0.028817 0.000000
# 6 0.000000 0.000000 0.000000 0.000000 0.000000 0.023455
#
#
# Mechanical properties :
#
#
# Convention : Reuss Voigt Hill
#
# Bulk Modulus (GPa) = 62.56657 74.43948 68.50302
# Shear Modulus (GPa) = 36.34419 39.60281 37.97350
#
# Velocity S-wave (km/s) = 4.21170 4.39646 4.30507
# Velocity P-wave (km/s) = 7.36125 7.88057 7.62533
#
# Compressibility (1/GPa) = 0.01598298
#
# Stress axis : x y z
#
# Youngs Moduli (GPa) = 122.70370 150.53392 64.67567
#
# Poissons Ratio (x) = 0.27916 0.14271
# Poissons Ratio (y) = 0.22755 0.19886
# Poissons Ratio (z) = 0.27075 0.46285
#
# Static dielectric constant tensor:
#      x y z
#    x 4.028140 0.000000 0.000000 
#    y 0.000000 3.863010 0.000000 
#    z 0.000000 0.000000 3.761050 
# 
# 
# High freq. dielectric constant tensor:
#      x y z
#    x 1.822440 0.000000 0.000000 
#    y 0.000000 1.825300 0.000000 
#    z 0.000000 0.000000 1.808910 
# 
# From -- ./inp_files/23196.got.cif
#   From: 2010.06.25/outbox.cif.g09.slc.cpg/sg52_12_cif.got.tgz:23196.got - 2010.06.26 19:32:48.
