data_PCOD8217579
_publ_section_title
;
Structure prediction by ZEFSAII (Michael W. Deem and Ramdas Pophale) SiO2 
 PCOD8217579
Probable space group: P M N A
;
_chemical_formula_sum "Si O2"
_cell_formula_units_Z 48
_cell_length_a 8.454223
_cell_length_b 9.728676
_cell_length_c 31.231613
_cell_angle_alpha 90.000000
_cell_angle_beta 90.000000
_cell_angle_gamma 90.000000
_cell_volume 2568.750086
_symmetry_space_group_name_H-M "P M N A"
_symmetry_group_IT_number 53
_symmetry_cell_setting 'orthorhombic'
loop_
_space_group_symop_operation_xyz
x,y,z
1/2-x,-y,1/2+z
x,-y,-z
1/2-x,y,1/2-z
-x,-y,-z
1/2+x,y,1/2-z
-x,y,z
1/2+x,-y,1/2+z
loop_
_atom_site_type_symbol
_atom_site_label
_atom_site_fract_x
_atom_site_fract_y
_atom_site_fract_z
Si Si1 0.184960 0.355313 0.618517
Si Si2 0.815992 0.341353 0.793779
Si Si3 0.314503 0.355672 0.207860
Si Si4 0.685124 0.343254 0.379379
Si Si5 0.315164 0.154464 0.456611
Si Si6 0.315561 0.860396 0.047171
O O1 0.229420 0.282904 0.663813
O O2 0.277365 0.497511 0.612243
O O3 0.238428 0.254690 0.580724
O O4 0.000000 0.387844 0.617381
O O5 0.750000 0.272006 0.750000
O O6 0.783997 0.503443 0.792538
O O7 0.000000 0.309867 0.797363
O O8 0.250000 0.272958 0.250000
O O9 0.500000 0.384303 0.211391
O O10 0.273365 0.282236 0.162944
O O11 0.500000 0.322843 0.372627
O O12 0.746436 0.255217 0.419506
O O13 0.500000 0.174189 0.465368
O O14 0.221024 0.194201 0.499583
O O15 0.282247 0.997893 0.442959
O O16 0.500000 0.894072 0.051570
#
# Coordination Sequence:
#
# PCOD8217579 Si02
#       6
#     8   8   8   8   8   8
#     4  10  20  33  50  76 104 132 166 207 250 294
#     4  10  17  27  45  69  99 133 165 202 244 292
#     4  10  17  27  45  69  99 133 165 202 244 292
#     4  10  20  33  50  76 104 132 166 207 250 294
#     4  10  21  36  55  75  99 131 169 207 248 299
#     4  10  21  36  55  75  99 131 169 207 248 299
#
# _framework density 18.686131
#
# number of rings (size 3 to 8) (size 9 to 14) (size 15 to 20)
#    0.000    2.000    0.000    9.000    0.000    6.000 
#    0.000    3.333    0.000    1.000    0.000    7.000 
#    0.000    0.000    0.000    0.000    0.000    0.000 
#
# Total GULP energy -595084.871041 kJ/mol
# GULP energy per Si atom -12397.601480 kJ/mol
# Density = 1.864360 g / cm^3
# Si number density = 18.686131 Si / 1000 Ang^3
#
#
#
# Elastic Constant Matrix: (Units=GPa)
#
#
# Indices 1 2 3 4 5 6 
#
# 1 52.1171 9.7011 25.2508 0.0000 0.0000 0.0000
# 2 9.7011 47.4996 65.3379 0.0000 0.0000 0.0000
# 3 25.2508 65.3379 175.1841 0.0000 0.0000 0.0000
# 4 0.0000 0.0000 0.0000 5.2526 0.0000 0.0000
# 5 0.0000 0.0000 0.0000 0.0000 28.6586 0.0000
# 6 0.0000 0.0000 0.0000 0.0000 0.0000 11.7734
#
#
#
# Elastic Compliance Matrix: (Units=1/GPa)
#
#
# Indices 1 2 3 4 5 6 
#
# 1 0.020630 -0.000253 -0.002879 0.000000 0.000000 0.000000
# 2 -0.000253 0.043236 -0.016089 0.000000 0.000000 0.000000
# 3 -0.002879 -0.016089 0.012124 0.000000 0.000000 0.000000
# 4 0.000000 0.000000 0.000000 0.190381 0.000000 0.000000
# 5 0.000000 0.000000 0.000000 0.000000 0.034894 0.000000
# 6 0.000000 0.000000 0.000000 0.000000 0.000000 0.084937
#
#
# Mechanical properties :
#
#
# Convention : Reuss Voigt Hill
#
# Bulk Modulus (GPa) = 26.63321 52.82004 39.72663
# Shear Modulus (GPa) = 11.43749 20.77098 16.10423
#
# Velocity S-wave (km/s) = 2.47672 3.33764 2.93888
# Velocity P-wave (km/s) = 4.73948 6.57126 5.72906
#
# Compressibility (1/GPa) = 0.03754711
#
# Stress axis : x y z
#
# Youngs Moduli (GPa) = 48.47399 23.12911 82.48129
#
# Poissons Ratio (x) = 0.00585 0.23749
# Poissons Ratio (y) = 0.01225 1.32704
# Poissons Ratio (z) = 0.13957 0.37212
#
# Static dielectric constant tensor:
#      x y z
#    x 3.426180 0.000000 0.000000 
#    y 0.000000 2.985820 0.000000 
#    z 0.000000 0.000000 4.324220 
# 
# 
# High freq. dielectric constant tensor:
#      x y z
#    x 1.740650 0.000000 0.000000 
#    y 0.000000 1.664770 0.000000 
#    z 0.000000 0.000000 1.753000 
# 
# From -- ./inp_files/37906.got.cif
#   From: 2010.03.12/outbox.cif.g09.slc.cpg/sg53_19_cif.got.tgz:37906.got - 2010.04.16 14:36:59.
