data_PCOD8217549
_publ_section_title
;
Structure prediction by ZEFSAII (Michael W. Deem and Ramdas Pophale) SiO2 
 PCOD8217549
Probable space group: P M N A
;
_chemical_formula_sum "Si O2"
_cell_formula_units_Z 64
_cell_length_a 8.843846
_cell_length_b 17.990322
_cell_length_c 23.186264
_cell_angle_alpha 90.000000
_cell_angle_beta 90.000000
_cell_angle_gamma 90.000000
_cell_volume 3689.018937
_symmetry_space_group_name_H-M "P M N A"
_symmetry_group_IT_number 53
_symmetry_cell_setting 'orthorhombic'
loop_
_space_group_symop_operation_xyz
x,y,z
1/2-x,-y,1/2+z
x,-y,-z
1/2-x,y,1/2-z
-x,-y,-z
1/2+x,y,1/2-z
-x,y,z
1/2+x,-y,1/2+z
loop_
_atom_site_type_symbol
_atom_site_label
_atom_site_fract_x
_atom_site_fract_y
_atom_site_fract_z
Si Si1 0.322520 0.414657 0.002296
Si Si2 0.174816 0.074978 0.688287
Si Si3 0.177974 0.636485 0.110663
Si Si4 0.179723 0.932238 0.813859
Si Si5 0.176822 0.784933 0.688248
Si Si6 0.674605 0.631885 0.870889
Si Si7 0.677308 0.501289 0.309932
Si Si8 0.675238 0.760271 0.187580
O O1 0.500000 0.407981 0.990406
O O2 0.235339 0.366975 0.954663
O O3 0.269012 0.500000 0.000000
O O4 0.274740 0.380126 0.063410
O O5 0.250000 0.081882 0.750000
O O6 0.195538 0.156597 0.660491
O O7 0.000000 0.053327 0.694565
O O8 0.259922 0.007531 0.653994
O O9 0.228707 0.560911 0.142424
O O10 0.251221 0.706619 0.141354
O O11 0.000000 0.647033 0.111684
O O12 0.250000 0.933649 0.750000
O O13 0.244629 0.856654 0.842229
O O14 0.000000 0.930886 0.813494
O O15 0.250000 0.766744 0.750000
O O16 0.206375 0.716859 0.645334
O O17 0.000000 0.800482 0.697508
O O18 0.500000 0.610240 0.862675
O O19 0.769633 0.580164 0.828399
O O20 0.750000 0.525890 0.250000
O O21 0.500000 0.500106 0.301289
O O22 0.750000 0.750403 0.250000
O O23 0.500000 0.740799 0.195509
#
# Coordination Sequence:
#
# PCOD8217549 Si02
#       8
#     8   8   8   8   8   8   8   8
#     4  10  20  37  59  76  95 127 168 216 260 303
#     4   9  16  27  44  68  98 132 167 201 242 290
#     4  11  23  36  52  75 101 133 170 211 255 300
#     4  10  17  26  43  67  97 133 168 198 239 290
#     4  10  19  31  47  70 102 132 165 203 245 297
#     4  10  21  36  54  75  97 129 168 208 256 301
#     4  11  23  35  50  72 100 132 165 202 247 300
#     4  10  20  33  51  75 105 138 170 208 252 302
#
# _framework density 17.348786
#
# number of rings (size 3 to 8) (size 9 to 14) (size 15 to 20)
#    0.000    1.875    1.250    5.250    0.000    6.750 
#    0.000    0.000    0.000    0.000    0.000    0.875 
#    0.000    7.000    0.000    0.000    0.000    0.000 
#
# Total GULP energy -793501.078705 kJ/mol
# GULP energy per Si atom -12398.454355 kJ/mol
# Density = 1.730930 g / cm^3
# Si number density = 17.348786 Si / 1000 Ang^3
#
#
#
# Elastic Constant Matrix: (Units=GPa)
#
#
# Indices 1 2 3 4 5 6 
#
# 1 104.3483 58.8598 35.4573 0.0000 0.0000 0.0000
# 2 58.8598 126.2704 41.0104 0.0000 0.0000 0.0000
# 3 35.4573 41.0104 76.7673 0.0000 0.0000 0.0000
# 4 0.0000 0.0000 0.0000 10.1088 0.0000 0.0000
# 5 0.0000 0.0000 0.0000 0.0000 23.2243 0.0000
# 6 0.0000 0.0000 0.0000 0.0000 0.0000 29.2733
#
#
#
# Elastic Compliance Matrix: (Units=1/GPa)
#
#
# Indices 1 2 3 4 5 6 
#
# 1 0.013755 -0.005261 -0.003542 0.000000 0.000000 0.000000
# 2 -0.005261 0.011594 -0.003764 0.000000 0.000000 0.000000
# 3 -0.003542 -0.003764 0.016673 0.000000 0.000000 0.000000
# 4 0.000000 0.000000 0.000000 0.098924 0.000000 0.000000
# 5 0.000000 0.000000 0.000000 0.000000 0.043058 0.000000
# 6 0.000000 0.000000 0.000000 0.000000 0.000000 0.034161
#
#
# Mechanical properties :
#
#
# Convention : Reuss Voigt Hill
#
# Bulk Modulus (GPa) = 59.21561 64.22678 61.72120
# Shear Modulus (GPa) = 20.08602 23.99184 22.03893
#
# Velocity S-wave (km/s) = 3.40630 3.72279 3.56806
# Velocity P-wave (km/s) = 7.04820 7.45521 7.25456
#
# Compressibility (1/GPa) = 0.01688744
#
# Stress axis : x y z
#
# Youngs Moduli (GPa) = 72.70286 86.24879 59.97605
#
# Poissons Ratio (x) = 0.45376 0.21246
# Poissons Ratio (y) = 0.38249 0.22575
# Poissons Ratio (z) = 0.25755 0.32463
#
# Static dielectric constant tensor:
#      x y z
#    x 3.328480 0.000000 0.000000 
#    y 0.000000 3.980080 0.000000 
#    z 0.000000 0.000000 2.917400 
# 
# 
# High freq. dielectric constant tensor:
#      x y z
#    x 1.685320 0.000000 0.000000 
#    y 0.000000 1.687340 0.000000 
#    z 0.000000 0.000000 1.622490 
# 
# From -- ./inp_files/34447.got.cif
#   From: 2010.03.12/outbox.cif.g09.slc.cpg/sg53_18_cif.got.tgz:34447.got - 2010.04.16 14:36:59.
