data_PCOD8217408
_publ_section_title
;
Structure prediction by ZEFSAII (Michael W. Deem and Ramdas Pophale) SiO2 
 PCOD8217408
Probable space group: P N N A
;
_chemical_formula_sum "Si O2"
_cell_formula_units_Z 32
_cell_length_a 14.324867
_cell_length_b 6.954346
_cell_length_c 14.457262
_cell_angle_alpha 90.000000
_cell_angle_beta 90.000000
_cell_angle_gamma 90.000000
_cell_volume 1440.233619
_symmetry_space_group_name_H-M "P N N A"
_symmetry_group_IT_number 52
_symmetry_cell_setting 'orthorhombic'
loop_
_space_group_symop_operation_xyz
x,y,z
1/2-x,-y,z
x,1/2-y,1/2-z
1/2-x,1/2+y,1/2-z
-x,-y,-z
1/2+x,y,-z
-x,1/2+y,1/2+z
1/2+x,1/2-y,1/2+z
loop_
_atom_site_type_symbol
_atom_site_label
_atom_site_fract_x
_atom_site_fract_y
_atom_site_fract_z
Si Si1 0.158256 0.612499 0.834284
Si Si2 0.576198 0.668476 0.507537
Si Si3 0.145856 0.250000 0.250000
Si Si4 0.750000 0.000000 0.890758
Si Si5 0.476604 0.091197 0.321592
O O1 0.250000 0.500000 0.872036
O O2 0.188628 0.750000 0.750000
O O3 0.085101 0.451347 0.801001
O O4 0.102334 0.737025 0.910043
O O5 0.500000 0.500000 0.500000
O O6 0.670147 0.577955 0.544236
O O7 0.537478 0.835567 0.574057
O O8 0.212977 0.170570 0.171893
O O9 0.082469 0.401711 0.196874
O O10 0.440280 0.250000 0.250000
#
# Coordination Sequence:
#
# PCOD8217408 Si02
#       5
#     8   8   4   4   8
#     4  12  28  47  73 107 152 203 258 304 372 455
#     4  12  28  47  76 114 151 202 250 316 379 455
#     4  12  24  48  76 116 144 198 240 322 392 446
#     4  12  26  44  78 108 154 182 258 304 378 450
#     4  12  24  50  77 109 150 194 249 317 385 447
#
# _framework density 22.218617999999999
#
# number of rings (size 3 to 8) (size 9 to 14) (size 15 to 20)
#    0.000    0.000    3.750    6.000    8.750    0.000 
#    0.000    0.000    0.000    0.000    0.000    0.000 
#    0.000    0.000    0.000    0.000    0.000    0.000 
#
# Total GULP energy -396966.523792 kJ/mol
# GULP energy per Si atom -12405.203869 kJ/mol
# Density = 2.216805 g / cm^3
# Si number density = 22.218618 Si / 1000 Ang^3
#
#
#
# Elastic Constant Matrix: (Units=GPa)
#
#
# Indices 1 2 3 4 5 6 
#
# 1 155.3405 66.9527 33.8649 0.0000 0.0000 0.0000
# 2 66.9527 142.3288 57.8625 0.0000 0.0000 0.0000
# 3 33.8649 57.8625 116.8280 0.0000 0.0000 0.0000
# 4 0.0000 0.0000 0.0000 44.7223 0.0000 0.0000
# 5 0.0000 0.0000 0.0000 0.0000 41.7534 0.0000
# 6 0.0000 0.0000 0.0000 0.0000 0.0000 88.4946
#
#
#
# Elastic Compliance Matrix: (Units=1/GPa)
#
#
# Indices 1 2 3 4 5 6 
#
# 1 0.008106 -0.003578 -0.000577 0.000000 0.000000 0.000000
# 2 -0.003578 0.010377 -0.004102 0.000000 0.000000 0.000000
# 3 -0.000577 -0.004102 0.010759 0.000000 0.000000 0.000000
# 4 0.000000 0.000000 0.000000 0.022360 0.000000 0.000000
# 5 0.000000 0.000000 0.000000 0.000000 0.023950 0.000000
# 6 0.000000 0.000000 0.000000 0.000000 0.000000 0.011300
#
#
# Mechanical properties :
#
#
# Convention : Reuss Voigt Hill
#
# Bulk Modulus (GPa) = 78.58192 81.31749 79.94971
# Shear Modulus (GPa) = 46.46443 52.04854 49.25649
#
# Velocity S-wave (km/s) = 4.57797 4.84526 4.71351
# Velocity P-wave (km/s) = 7.96166 8.24501 8.10458
#
# Compressibility (1/GPa) = 0.01272557
#
# Stress axis : x y z
#
# Youngs Moduli (GPa) = 123.37201 96.36753 92.94792
#
# Poissons Ratio (x) = 0.34482 0.05366
# Poissons Ratio (y) = 0.44145 0.38130
# Poissons Ratio (z) = 0.07123 0.39533
#
# Static dielectric constant tensor:
#      x y z
#    x 4.365220 0.000000 0.000000 
#    y 0.000000 5.086000 0.000000 
#    z 0.000000 0.000000 4.037340 
# 
# 
# High freq. dielectric constant tensor:
#      x y z
#    x 1.897670 0.000000 0.000000 
#    y 0.000000 1.891540 0.000000 
#    z 0.000000 0.000000 1.880690 
# 
# From -- ./inp_files/32618.got.cif
#   From: 2010.06.25/outbox.cif.g09.slc.cpg/sg52_17_cif.got.tgz:32618.got - 2010.06.26 19:32:48.
