data_PCOD8217494
_publ_section_title
;
Structure prediction by ZEFSAII (Michael W. Deem and Ramdas Pophale) SiO2 
 PCOD8217494
Probable space group: P M N A
;
_chemical_formula_sum "Si O2"
_cell_formula_units_Z 64
_cell_length_a 9.037705
_cell_length_b 20.426592
_cell_length_c 22.101977
_cell_angle_alpha 90.000000
_cell_angle_beta 90.000000
_cell_angle_gamma 90.000000
_cell_volume 4080.235203
_symmetry_space_group_name_H-M "P M N A"
_symmetry_group_IT_number 53
_symmetry_cell_setting 'orthorhombic'
loop_
_space_group_symop_operation_xyz
x,y,z
1/2-x,-y,1/2+z
x,-y,-z
1/2-x,y,1/2-z
-x,-y,-z
1/2+x,y,1/2-z
-x,y,z
1/2+x,-y,1/2+z
loop_
_atom_site_type_symbol
_atom_site_label
_atom_site_fract_x
_atom_site_fract_y
_atom_site_fract_z
Si Si1 0.325042 0.362725 0.314265
Si Si2 0.175031 0.403224 0.960331
Si Si3 0.826950 0.856744 0.045921
Si Si4 0.335827 0.020738 0.929996
Si Si5 0.170329 0.881185 0.576807
Si Si6 0.667877 0.257196 0.109724
Si Si7 0.674457 0.460985 0.414076
Si Si8 0.672329 0.727711 0.031997
O O1 0.250000 0.369040 0.250000
O O2 0.500000 0.362505 0.306043
O O3 0.279134 0.295765 0.347221
O O4 0.268045 0.424601 0.353958
O O5 0.219443 0.462327 0.914432
O O6 0.258200 0.337869 0.939474
O O7 0.000000 0.390389 0.960173
O O8 0.235219 0.423648 0.026707
O O9 0.773917 0.919403 0.086017
O O10 0.746968 0.789531 0.065794
O O11 0.000000 0.847661 0.054311
O O12 0.786059 0.871289 0.976918
O O13 0.500000 0.045369 0.913889
O O14 0.299285 0.952915 0.893119
O O15 0.324534 0.000000 0.000000
O O16 0.189747 0.820736 0.623434
O O17 0.000000 0.879083 0.551176
O O18 0.500000 0.279001 0.124241
O O19 0.705976 0.270269 0.039617
O O20 0.500000 0.455731 0.418294
O O21 0.500000 0.729332 0.046153
#
# Coordination Sequence:
#
# PCOD8217494 Si02
#       8
#     8   8   8   8   8   8   8   8
#     4  11  21  33  47  63  83 111 141 174 214 255
#     4   9  15  28  47  64  81 105 136 173 211 256
#     4  10  17  22  32  51  75 104 138 171 199 236
#     4   8  13  23  35  47  69 102 133 164 202 240
#     4   8  15  26  38  51  72 101 132 168 209 244
#     4   9  17  29  42  58  79 104 138 175 208 249
#     4   8  16  29  46  64  83 105 134 170 214 259
#     4  10  18  27  39  58  83 109 136 171 212 252
#
# _framework density 15.685371
#
# number of rings (size 3 to 8) (size 9 to 14) (size 15 to 20)
#    0.000    2.875    1.250    4.125    0.000    4.250 
#    0.000    2.500    0.000    0.000    0.000    0.000 
#    0.000    0.000    0.000    1.125    0.000   19.625 
#
# Total GULP energy -792966.348582 kJ/mol
# GULP energy per Si atom -12390.099197 kJ/mol
# Density = 1.564967 g / cm^3
# Si number density = 15.685371 Si / 1000 Ang^3
#
#
#
# Elastic Constant Matrix: (Units=GPa)
#
#
# Indices 1 2 3 4 5 6 
#
# 1 80.4253 60.1266 18.9373 0.0000 0.0000 0.0000
# 2 60.1266 167.0573 33.9060 0.0000 0.0000 0.0000
# 3 18.9373 33.9060 37.9066 0.0000 0.0000 0.0000
# 4 0.0000 0.0000 0.0000 8.7591 0.0000 0.0000
# 5 0.0000 0.0000 0.0000 0.0000 7.7485 0.0000
# 6 0.0000 0.0000 0.0000 0.0000 0.0000 28.9078
#
#
#
# Elastic Compliance Matrix: (Units=1/GPa)
#
#
# Indices 1 2 3 4 5 6 
#
# 1 0.017445 -0.005510 -0.003786 0.000000 0.000000 0.000000
# 2 -0.005510 0.009054 -0.005346 0.000000 0.000000 0.000000
# 3 -0.003786 -0.005346 0.033054 0.000000 0.000000 0.000000
# 4 0.000000 0.000000 0.000000 0.114167 0.000000 0.000000
# 5 0.000000 0.000000 0.000000 0.000000 0.129057 0.000000
# 6 0.000000 0.000000 0.000000 0.000000 0.000000 0.034593
#
#
# Mechanical properties :
#
#
# Convention : Reuss Voigt Hill
#
# Bulk Modulus (GPa) = 33.03811 56.81431 44.92621
# Shear Modulus (GPa) = 13.27159 20.57769 16.92464
#
# Velocity S-wave (km/s) = 2.91196 3.62595 3.28839
# Velocity P-wave (km/s) = 5.69339 7.33688 6.56676
#
# Compressibility (1/GPa) = 0.03026808
#
# Stress axis : x y z
#
# Youngs Moduli (GPa) = 57.32322 110.44622 30.25362
#
# Poissons Ratio (x) = 0.60858 0.11455
# Poissons Ratio (y) = 0.31586 0.16173
# Poissons Ratio (z) = 0.21705 0.59043
#
# Static dielectric constant tensor:
#      x y z
#    x 2.865200 0.000000 0.000000 
#    y 0.000000 3.594670 0.000000 
#    z 0.000000 0.000000 2.480170 
# 
# 
# High freq. dielectric constant tensor:
#      x y z
#    x 1.597280 0.000000 0.000000 
#    y 0.000000 1.628470 0.000000 
#    z 0.000000 0.000000 1.512820 
# 
# From -- ./inp_files/34577.got.cif
#   From: 2010.03.12/outbox.cif.g09.slc.cpg/sg53_18_cif.got.tgz:34577.got - 2010.04.16 14:36:59.
