data_PCOD8217718
_publ_section_title
;
Structure prediction by ZEFSAII (Michael W. Deem and Ramdas Pophale) SiO2 
 PCOD8217718
Probable space group: P M N A
;
_chemical_formula_sum "Si O2"
_cell_formula_units_Z 64
_cell_length_a 8.892715
_cell_length_b 26.495831
_cell_length_c 18.209668
_cell_angle_alpha 90.000000
_cell_angle_beta 90.000000
_cell_angle_gamma 90.000000
_cell_volume 4290.559676
_symmetry_space_group_name_H-M "P M N A"
_symmetry_group_IT_number 53
_symmetry_cell_setting 'orthorhombic'
loop_
_space_group_symop_operation_xyz
x,y,z
1/2-x,-y,1/2+z
x,-y,-z
1/2-x,y,1/2-z
-x,-y,-z
1/2+x,y,1/2-z
-x,y,z
1/2+x,-y,1/2+z
loop_
_atom_site_type_symbol
_atom_site_label
_atom_site_fract_x
_atom_site_fract_y
_atom_site_fract_z
Si Si1 0.324087 0.901293 0.908212
Si Si2 0.676890 0.502734 0.671360
Si Si3 0.834191 0.951090 0.449650
Si Si4 0.175498 0.399832 0.080722
Si Si5 0.330730 0.550812 0.046378
Si Si6 0.822169 0.302755 0.172139
Si Si7 0.823118 0.006520 0.172280
Si Si8 0.322843 0.800446 0.827452
O O1 0.500000 0.914065 0.897290
O O2 0.232447 0.939628 0.857257
O O3 0.286179 0.844399 0.885194
O O4 0.279513 0.906701 0.994707
O O5 0.750000 0.497094 0.750000
O O6 0.500000 0.498092 0.679334
O O7 0.725730 0.556557 0.637410
O O8 0.735487 0.456998 0.620431
O O9 0.000000 0.938921 0.417331
O O10 0.843210 0.000000 0.500000
O O11 0.720127 0.960634 0.382799
O O12 0.219702 0.346126 0.114592
O O13 0.000000 0.404653 0.064443
O O14 0.260368 0.404692 0.003037
O O15 0.500000 0.565687 0.067755
O O16 0.324316 0.500000 0.000000
O O17 0.750000 0.317026 0.250000
O O18 0.751966 0.250718 0.141928
O O19 0.000000 0.297098 0.182262
O O20 0.750000 0.994412 0.250000
O O21 0.000000 0.008487 0.181291
O O22 0.250000 0.815509 0.750000
O O23 0.500000 0.792353 0.816617
#
# Coordination Sequence:
#
# PCOD8217718 Si02
#       8
#     8   8   8   8   8   8   8   8
#     4   9  18  31  45  60  81 110 140 171 208 247
#     4  10  18  28  42  60  84 111 140 172 205 244
#     4   8  15  29  44  58  80 107 134 167 206 244
#     4   9  18  30  43  59  81 111 142 172 208 246
#     4   9  17  28  42  60  81 106 137 171 206 245
#     4  10  19  30  43  60  83 110 141 176 211 243
#     4  11  20  28  41  61  84 110 140 171 203 242
#     4  10  19  30  43  60  82 109 141 174 208 242
#
# _framework density 14.916468999999999
#
# number of rings (size 3 to 8) (size 9 to 14) (size 15 to 20)
#    0.000    2.500    0.000    4.875    0.000    7.250 
#    0.000    0.000    0.000    0.000    0.000    0.000 
#    0.000    1.000    0.000    7.750    0.000    4.750 
#
# Total GULP energy -793462.177566 kJ/mol
# GULP energy per Si atom -12397.846524 kJ/mol
# Density = 1.488252 g / cm^3
# Si number density = 14.916469 Si / 1000 Ang^3
#
#
#
# Elastic Constant Matrix: (Units=GPa)
#
#
# Indices 1 2 3 4 5 6 
#
# 1 92.2386 42.3172 56.7457 0.0000 0.0000 0.0000
# 2 42.3172 87.7408 58.7973 0.0000 0.0000 0.0000
# 3 56.7457 58.7973 108.0294 0.0000 0.0000 0.0000
# 4 0.0000 0.0000 0.0000 26.5388 0.0000 0.0000
# 5 0.0000 0.0000 0.0000 0.0000 26.8321 0.0000
# 6 0.0000 0.0000 0.0000 0.0000 0.0000 8.1151
#
#
#
# Elastic Compliance Matrix: (Units=1/GPa)
#
#
# Indices 1 2 3 4 5 6 
#
# 1 0.016643 -0.003413 -0.006884 0.000000 0.000000 0.000000
# 2 -0.003413 0.018641 -0.008353 0.000000 0.000000 0.000000
# 3 -0.006884 -0.008353 0.017419 0.000000 0.000000 0.000000
# 4 0.000000 0.000000 0.000000 0.037681 0.000000 0.000000
# 5 0.000000 0.000000 0.000000 0.000000 0.037269 0.000000
# 6 0.000000 0.000000 0.000000 0.000000 0.000000 0.123226
#
#
# Mechanical properties :
#
#
# Convention : Reuss Voigt Hill
#
# Bulk Modulus (GPa) = 64.92721 67.08099 66.00410
# Shear Modulus (GPa) = 17.04665 20.97380 19.01023
#
# Velocity S-wave (km/s) = 3.38421 3.75385 3.57381
# Velocity P-wave (km/s) = 7.67413 7.99107 7.83420
#
# Compressibility (1/GPa) = 0.01540186
#
# Stress axis : x y z
#
# Youngs Moduli (GPa) = 60.08654 53.64572 57.40859
#
# Poissons Ratio (x) = 0.18312 0.39521
# Poissons Ratio (y) = 0.20510 0.47951
# Poissons Ratio (z) = 0.41365 0.44808
#
# Static dielectric constant tensor:
#      x y z
#    x 2.983380 0.000000 0.000000 
#    y 0.000000 2.830420 0.000000 
#    z 0.000000 0.000000 2.976780 
# 
# 
# High freq. dielectric constant tensor:
#      x y z
#    x 1.583880 0.000000 0.000000 
#    y 0.000000 1.538520 0.000000 
#    z 0.000000 0.000000 1.559770 
# 
# From -- ./inp_files/27093.got.cif
#   From: 2010.03.12/outbox.cif.g09.slc.cpg/sg53_14_cif.got.tgz:27093.got - 2010.04.16 14:36:59.
