data_PCOD8217205
_publ_section_title
;
Structure prediction by ZEFSAII (Michael W. Deem and Ramdas Pophale) SiO2 
 PCOD8217205
Probable space group: P N N A
;
_chemical_formula_sum "Si O2"
_cell_formula_units_Z 24
_cell_length_a 12.860814
_cell_length_b 4.846166
_cell_length_c 15.954684
_cell_angle_alpha 90.000000
_cell_angle_beta 90.000000
_cell_angle_gamma 90.000000
_cell_volume 994.385884
_symmetry_space_group_name_H-M "P N N A"
_symmetry_group_IT_number 52
_symmetry_cell_setting 'orthorhombic'
loop_
_space_group_symop_operation_xyz
x,y,z
1/2-x,-y,z
x,1/2-y,1/2-z
1/2-x,1/2+y,1/2-z
-x,-y,-z
1/2+x,y,-z
-x,1/2+y,1/2+z
1/2+x,1/2-y,1/2+z
loop_
_atom_site_type_symbol
_atom_site_label
_atom_site_fract_x
_atom_site_fract_y
_atom_site_fract_z
Si Si1 0.366079 0.582384 0.912872
Si Si2 0.469119 0.109976 0.835946
Si Si3 0.320650 0.750057 0.404493
O O1 0.250000 0.500000 0.883081
O O2 0.430124 0.300423 0.911241
O O3 0.421312 0.804797 0.850085
O O4 0.374461 0.664271 0.009104
O O5 0.428760 0.250000 0.750000
O O6 0.594994 0.130289 0.838556
O O7 0.250000 0.500000 0.431350
O O8 0.250000 0.000000 0.366376
#
# Coordination Sequence:
#
# PCOD8217205 Si02
#       3
#     8   8   8
#     4  11  23  43  65  91 125 168 215 259 308 374
#     4  12  25  41  65  95 131 167 204 260 324 380
#     4  11  23  42  68  94 123 165 215 263 310 372
#
# _framework density 24.135501999999999
#
# number of rings (size 3 to 8) (size 9 to 14) (size 15 to 20)
#    0.000    0.667    0.000   10.000    0.000    4.000 
#    0.000    1.667    0.000    0.000    0.000    0.000 
#    0.000    0.000    0.000    0.000    0.000    0.000 
#
# Total GULP energy -297463.467857 kJ/mol
# GULP energy per Si atom -12394.311161 kJ/mol
# Density = 2.408057 g / cm^3
# Si number density = 24.135502 Si / 1000 Ang^3
#
#
#
# Elastic Constant Matrix: (Units=GPa)
#
#
# Indices 1 2 3 4 5 6 
#
# 1 125.6047 34.8889 18.8300 0.0000 0.0000 0.0000
# 2 34.8889 101.3494 -5.8316 0.0000 0.0000 0.0000
# 3 18.8300 -5.8316 38.1029 0.0000 0.0000 0.0000
# 4 0.0000 0.0000 0.0000 -4.3092 0.0000 0.0000
# 5 0.0000 0.0000 0.0000 0.0000 76.7823 0.0000
# 6 0.0000 0.0000 0.0000 0.0000 0.0000 54.7193
#
#
#
# Elastic Compliance Matrix: (Units=1/GPa)
#
#
# Indices 1 2 3 4 5 6 
#
# 1 0.009795 -0.003683 -0.005404 0.000000 0.000000 0.000000
# 2 -0.003683 0.011339 0.003555 0.000000 0.000000 0.000000
# 3 -0.005404 0.003555 0.029459 0.000000 0.000000 0.000000
# 4 0.000000 0.000000 0.000000 -0.232063 0.000000 0.000000
# 5 0.000000 0.000000 0.000000 0.000000 0.013024 0.000000
# 6 0.000000 0.000000 0.000000 0.000000 0.000000 0.018275
#
#
# Mechanical properties :
#
#
# Convention : Reuss Voigt Hill
#
# Bulk Modulus (GPa) = 25.29681 40.09240 32.69461
# Shear Modulus (GPa) = -39.70423 39.91646 0.10612
#
# Velocity S-wave (km/s) = -4.06033 4.07117 0.20991
# Velocity P-wave (km/s) = 3.38789 6.22468 3.69248
#
# Compressibility (1/GPa) = 0.03953067
#
# Stress axis : x y z
#
# Youngs Moduli (GPa) = 102.09762 88.18989 33.94492
#
# Poissons Ratio (x) = 0.32477 0.18344
# Poissons Ratio (y) = 0.37599 -0.12069
# Poissons Ratio (z) = 0.55173 -0.31355
#
# Static dielectric constant tensor:
#      x y z
#    x 5.421580 0.000000 0.000000 
#    y 0.000000 7.585630 0.000000 
#    z 0.000000 0.000000 3.876720 
# 
# 
# High freq. dielectric constant tensor:
#      x y z
#    x 1.970650 0.000000 0.000000 
#    y 0.000000 1.973970 0.000000 
#    z 0.000000 0.000000 1.936570 
# 
# From -- ./inp_files/31727.got.cif
#   From: 2010.06.25/outbox.cif.g09.slc.cpg/sg52_16_cif.got.tgz:31727.got - 2010.06.26 19:32:48.
