data_PCOD8217040
_publ_section_title
;
Structure prediction by ZEFSAII (Michael W. Deem and Ramdas Pophale) SiO2 
 PCOD8217040
Probable space group: P N N A
;
_chemical_formula_sum "Si O2"
_cell_formula_units_Z 56
_cell_length_a 15.242045
_cell_length_b 11.157668
_cell_length_c 14.607312
_cell_angle_alpha 90.000000
_cell_angle_beta 90.000000
_cell_angle_gamma 90.000000
_cell_volume 2484.202415
_symmetry_space_group_name_H-M "P N N A"
_symmetry_group_IT_number 52
_symmetry_cell_setting 'orthorhombic'
loop_
_space_group_symop_operation_xyz
x,y,z
1/2-x,-y,z
x,1/2-y,1/2-z
1/2-x,1/2+y,1/2-z
-x,-y,-z
1/2+x,y,-z
-x,1/2+y,1/2+z
1/2+x,1/2-y,1/2+z
loop_
_atom_site_type_symbol
_atom_site_label
_atom_site_fract_x
_atom_site_fract_y
_atom_site_fract_z
Si Si1 0.825266 0.685414 0.165870
Si Si2 0.750000 0.000000 0.216276
Si Si3 0.901485 0.921407 0.892708
Si Si4 0.905942 0.465778 0.416841
Si Si5 0.899402 0.982842 0.478031
Si Si6 0.750000 0.500000 0.723442
Si Si7 0.686274 0.736171 0.028700
Si Si8 0.807140 0.678743 0.875479
O O1 0.877591 0.750000 0.250000
O O2 0.748314 0.613616 0.217568
O O3 0.893446 0.605330 0.109085
O O4 0.768012 0.768017 0.096753
O O5 0.661744 0.005254 0.158776
O O6 0.879051 0.784472 0.861849
O O7 0.000514 0.957392 0.865296
O O8 0.835030 0.014037 0.842503
O O9 0.899524 0.934401 0.003283
O O10 0.887316 0.336590 0.462064
O O11 0.848816 0.928729 0.565136
O O12 0.854483 0.106855 0.450046
O O13 0.000000 0.000000 0.500000
O O14 0.769415 0.620434 0.782188
O O15 0.724257 0.738760 0.926020
#
# Coordination Sequence:
#
# PCOD8217040 Si02
#       8
#     8   4   8   8   8   4   8   8
#     4  11  22  39  64  97 132 174 231 283 353 419
#     4  12  21  41  66  98 138 176 218 293 355 416
#     4  11  26  45  68 102 138 183 241 293 366 428
#     4  11  25  43  69 103 140 182 231 294 364 441
#     4  11  23  40  66  98 139 187 239 293 360 446
#     4  12  23  45  68 104 142 188 244 299 355 434
#     4  11  20  42  67  95 135 184 229 282 359 429
#     4  11  22  44  71  95 137 189 238 295 362 433
#
# _framework density 22.542446999999999
#
# number of rings (size 3 to 8) (size 9 to 14) (size 15 to 20)
#    0.000    0.857    4.286    4.286    2.000    1.143 
#    5.143    0.000    3.143    0.000    0.000    0.000 
#    0.000    0.000    0.000    0.000    0.000    0.000 
#
# Total GULP energy -694148.789771 kJ/mol
# GULP energy per Si atom -12395.514103 kJ/mol
# Density = 2.249114 g / cm^3
# Si number density = 22.542447 Si / 1000 Ang^3
#
#
#
# Elastic Constant Matrix: (Units=GPa)
#
#
# Indices 1 2 3 4 5 6 
#
# 1 157.9217 31.5164 57.3233 0.0000 0.0000 0.0000
# 2 31.5164 85.7142 10.1934 0.0000 0.0000 0.0000
# 3 57.3233 10.1934 84.8220 0.0000 0.0000 0.0000
# 4 0.0000 0.0000 0.0000 39.3548 0.0000 0.0000
# 5 0.0000 0.0000 0.0000 0.0000 17.1268 0.0000
# 6 0.0000 0.0000 0.0000 0.0000 0.0000 34.9329
#
#
#
# Elastic Compliance Matrix: (Units=1/GPa)
#
#
# Indices 1 2 3 4 5 6 
#
# 1 0.008928 -0.002602 -0.005721 0.000000 0.000000 0.000000
# 2 -0.002602 0.012594 0.000245 0.000000 0.000000 0.000000
# 3 -0.005721 0.000245 0.015626 0.000000 0.000000 0.000000
# 4 0.000000 0.000000 0.000000 0.025410 0.000000 0.000000
# 5 0.000000 0.000000 0.000000 0.000000 0.058388 0.000000
# 6 0.000000 0.000000 0.000000 0.000000 0.000000 0.028626
#
#
# Mechanical properties :
#
#
# Convention : Reuss Voigt Hill
#
# Bulk Modulus (GPa) = 47.63626 58.50265 53.06946
# Shear Modulus (GPa) = 28.94739 33.57789 31.26264
#
# Velocity S-wave (km/s) = 3.58736 3.86364 3.72806
# Velocity P-wave (km/s) = 6.19165 6.77586 6.49033
#
# Compressibility (1/GPa) = 0.02099241
#
# Stress axis : x y z
#
# Youngs Moduli (GPa) = 112.00355 79.40017 63.99489
#
# Poissons Ratio (x) = 0.20664 0.36612
# Poissons Ratio (y) = 0.29149 -0.01570
# Poissons Ratio (z) = 0.64078 -0.01947
#
# Static dielectric constant tensor:
#      x y z
#    x 4.036400 0.000000 0.000000 
#    y 0.000000 4.311100 0.000000 
#    z 0.000000 0.000000 4.219110 
# 
# 
# High freq. dielectric constant tensor:
#      x y z
#    x 1.868930 0.000000 0.000000 
#    y 0.000000 1.898290 0.000000 
#    z 0.000000 0.000000 1.899550 
# 
# From -- ./inp_files/27323.got.cif
#   From: 2010.06.25/outbox.cif.g09.slc.cpg/sg52_14_cif.got.tgz:27323.got - 2010.06.26 19:32:48.
