data_PCOD8217581
_publ_section_title
;
Structure prediction by ZEFSAII (Michael W. Deem and Ramdas Pophale) SiO2 
 PCOD8217581
Probable space group: P M N A
;
_chemical_formula_sum "Si O2"
_cell_formula_units_Z 64
_cell_length_a 8.436718
_cell_length_b 18.073060
_cell_length_c 22.965561
_cell_angle_alpha 90.000000
_cell_angle_beta 90.000000
_cell_angle_gamma 90.000000
_cell_volume 3501.726978
_symmetry_space_group_name_H-M "P M N A"
_symmetry_group_IT_number 53
_symmetry_cell_setting 'orthorhombic'
loop_
_space_group_symop_operation_xyz
x,y,z
1/2-x,-y,1/2+z
x,-y,-z
1/2-x,y,1/2-z
-x,-y,-z
1/2+x,y,1/2-z
-x,y,z
1/2+x,-y,1/2+z
loop_
_atom_site_type_symbol
_atom_site_label
_atom_site_fract_x
_atom_site_fract_y
_atom_site_fract_z
Si Si1 0.313545 0.082471 0.314902
Si Si2 0.683015 0.628094 0.616346
Si Si3 0.313617 0.764630 0.815527
Si Si4 0.684418 0.497182 0.811938
Si Si5 0.683920 0.584787 0.000134
Si Si6 0.186094 0.933700 0.315047
Si Si7 0.185773 0.783029 0.185870
Si Si8 0.183546 0.364732 0.880631
O O1 0.250000 0.072223 0.250000
O O2 0.500000 0.095815 0.315895
O O3 0.227977 0.154403 0.342053
O O4 0.266171 0.005324 0.347017
O O5 0.500000 0.610805 0.628722
O O6 0.727323 0.706293 0.643730
O O7 0.790286 0.563436 0.642965
O O8 0.716673 0.630706 0.547446
O O9 0.250000 0.757618 0.750000
O O10 0.500000 0.750618 0.816075
O O11 0.750000 0.524034 0.750000
O O12 0.500000 0.478184 0.808426
O O13 0.778587 0.424505 0.831095
O O14 0.500000 0.589455 0.983954
O O15 0.743017 0.500000 0.000000
O O16 0.711286 0.620873 0.062765
O O17 0.250000 0.925407 0.250000
O O18 0.235185 0.855776 0.344392
O O19 0.000000 0.945815 0.315973
O O20 0.250000 0.765092 0.250000
O O21 0.228462 0.715393 0.143840
O O22 0.000000 0.796486 0.191018
O O23 0.000000 0.370338 0.897633
#
# Coordination Sequence:
#
# PCOD8217581 Si02
#       8
#     8   8   8   8   8   8   8   8
#     4  10  17  28  46  71 104 141 179 215 258 310
#     4  12  24  39  58  79 105 138 178 221 269 317
#     4  11  21  35  53  78 112 144 179 219 266 319
#     4  12  24  38  55  78 107 140 176 215 263 320
#     4  11  23  40  61  82 103 134 177 226 272 317
#     4  10  17  27  45  70 102 141 179 214 259 309
#     4  10  20  33  50  76 109 142 178 217 265 316
#     4  11  23  38  57  80 105 139 178 222 270 318
#
# _framework density 18.276696000000001
#
# number of rings (size 3 to 8) (size 9 to 14) (size 15 to 20)
#    0.000    1.125    1.250    9.750    0.000    3.500 
#    0.000    0.000    0.000    0.000    0.000    0.875 
#    0.000    7.000    0.000    0.000    0.000    0.000 
#
# Total GULP energy -793732.730373 kJ/mol
# GULP energy per Si atom -12402.073912 kJ/mol
# Density = 1.823510 g / cm^3
# Si number density = 18.276696 Si / 1000 Ang^3
#
#
#
# Elastic Constant Matrix: (Units=GPa)
#
#
# Indices 1 2 3 4 5 6 
#
# 1 77.9018 29.7824 23.4559 0.0000 0.0000 0.0000
# 2 29.7824 130.8793 31.6458 0.0000 0.0000 0.0000
# 3 23.4559 31.6458 65.0755 0.0000 0.0000 0.0000
# 4 0.0000 0.0000 0.0000 1.9331 0.0000 0.0000
# 5 0.0000 0.0000 0.0000 0.0000 24.4679 0.0000
# 6 0.0000 0.0000 0.0000 0.0000 0.0000 32.8433
#
#
#
# Elastic Compliance Matrix: (Units=1/GPa)
#
#
# Indices 1 2 3 4 5 6 
#
# 1 0.015032 -0.002392 -0.004255 0.000000 0.000000 0.000000
# 2 -0.002392 0.009039 -0.003534 0.000000 0.000000 0.000000
# 3 -0.004255 -0.003534 0.018619 0.000000 0.000000 0.000000
# 4 0.000000 0.000000 0.000000 0.517304 0.000000 0.000000
# 5 0.000000 0.000000 0.000000 0.000000 0.040870 0.000000
# 6 0.000000 0.000000 0.000000 0.000000 0.000000 0.030448
#
#
# Mechanical properties :
#
#
# Convention : Reuss Voigt Hill
#
# Bulk Modulus (GPa) = 44.78427 49.29167 47.03797
# Shear Modulus (GPa) = 7.58592 24.44702 16.01647
#
# Velocity S-wave (km/s) = 2.03951 3.66130 2.96350
# Velocity P-wave (km/s) = 5.48660 6.70087 6.12391
#
# Compressibility (1/GPa) = 0.02232927
#
# Stress axis : x y z
#
# Youngs Moduli (GPa) = 66.52345 110.62775 53.70889
#
# Poissons Ratio (x) = 0.26460 0.22854
# Poissons Ratio (y) = 0.15911 0.18979
# Poissons Ratio (z) = 0.28307 0.39092
#
# Static dielectric constant tensor:
#      x y z
#    x 3.465790 0.000000 0.000000 
#    y 0.000000 4.015240 0.000000 
#    z 0.000000 0.000000 3.030680 
# 
# 
# High freq. dielectric constant tensor:
#      x y z
#    x 1.729980 0.000000 0.000000 
#    y 0.000000 1.725470 0.000000 
#    z 0.000000 0.000000 1.658560 
# 
# From -- ./inp_files/31145.got.cif
#   From: 2010.03.12/outbox.cif.g09.slc.cpg/sg53_16_cif.got.tgz:31145.got - 2010.04.16 14:36:59.
