data_PCOD8217055
_publ_section_title
;
Structure prediction by ZEFSAII (Michael W. Deem and Ramdas Pophale) SiO2 
 PCOD8217055
Probable space group: P N N A
;
_chemical_formula_sum "Si O2"
_cell_formula_units_Z 52
_cell_length_a 24.410007
_cell_length_b 8.030642
_cell_length_c 12.300869
_cell_angle_alpha 90.000000
_cell_angle_beta 90.000000
_cell_angle_gamma 90.000000
_cell_volume 2411.315086
_symmetry_space_group_name_H-M "P N N A"
_symmetry_group_IT_number 52
_symmetry_cell_setting 'orthorhombic'
loop_
_space_group_symop_operation_xyz
x,y,z
1/2-x,-y,z
x,1/2-y,1/2-z
1/2-x,1/2+y,1/2-z
-x,-y,-z
1/2+x,y,-z
-x,1/2+y,1/2+z
1/2+x,1/2-y,1/2+z
loop_
_atom_site_type_symbol
_atom_site_label
_atom_site_fract_x
_atom_site_fract_y
_atom_site_fract_z
Si Si1 0.397895 0.433270 0.082935
Si Si2 0.496578 0.547584 0.376966
Si Si3 0.214511 0.840486 0.356665
Si Si4 0.808878 0.466641 0.492222
Si Si5 0.118776 0.294806 0.367170
Si Si6 0.605319 0.777317 0.129630
Si Si7 0.975253 0.250000 0.750000
O O1 0.345734 0.413979 0.162045
O O2 0.406432 0.632441 0.071781
O O3 0.443540 0.327583 0.145894
O O4 0.389161 0.370769 0.958521
O O5 0.500000 0.500000 0.500000
O O6 0.433684 0.587335 0.347066
O O7 0.540556 0.690596 0.355708
O O8 0.513464 0.393078 0.300134
O O9 0.238149 0.750000 0.250000
O O10 0.207578 0.701573 0.447250
O O11 0.250000 0.000000 0.394032
O O12 0.750000 0.500000 0.433874
O O13 0.830849 0.616080 0.569810
O O14 0.859190 0.435543 0.410675
O O15 0.143712 0.250000 0.250000
O O16 0.629655 0.750000 0.250000
#
# Coordination Sequence:
#
# PCOD8217055 Si02
#       7
#     8   8   8   8   8   8   4
#     4  11  23  40  67  96 138 175 221 274 350 409
#     4  12  23  43  69 101 140 177 221 284 348 424
#     4  11  21  36  60  96 135 178 220 277 345 410
#     4  11  24  44  65  93 136 178 233 289 337 405
#     4  12  23  40  70 107 139 178 224 284 358 421
#     4  11  26  48  68  95 135 184 230 283 345 410
#     4  12  22  42  66 100 136 176 214 278 352 410
#
# _framework density 21.564993999999999
#
# number of rings (size 3 to 8) (size 9 to 14) (size 15 to 20)
#    0.000    0.615    5.385    3.692    0.000    3.077 
#    0.000    4.615    0.000    0.000    0.000    0.000 
#    0.000    0.000    0.000    0.000    0.000    0.000 
#
# Total GULP energy -644232.905437 kJ/mol
# GULP energy per Si atom -12389.094335 kJ/mol
# Density = 2.151591 g / cm^3
# Si number density = 21.564994 Si / 1000 Ang^3
#
#
#
# Elastic Constant Matrix: (Units=GPa)
#
#
# Indices 1 2 3 4 5 6 
#
# 1 96.0808 12.6031 8.3964 0.0000 0.0000 0.0000
# 2 12.6031 116.8529 40.3960 0.0000 0.0000 0.0000
# 3 8.3964 40.3960 130.4665 0.0000 0.0000 0.0000
# 4 0.0000 0.0000 0.0000 31.4612 0.0000 0.0000
# 5 0.0000 0.0000 0.0000 0.0000 12.9778 0.0000
# 6 0.0000 0.0000 0.0000 0.0000 0.0000 28.9311
#
#
#
# Elastic Compliance Matrix: (Units=1/GPa)
#
#
# Indices 1 2 3 4 5 6 
#
# 1 0.010573 -0.001014 -0.000367 0.000000 0.000000 0.000000
# 2 -0.001014 0.009681 -0.002932 0.000000 0.000000 0.000000
# 3 -0.000367 -0.002932 0.008596 0.000000 0.000000 0.000000
# 4 0.000000 0.000000 0.000000 0.031785 0.000000 0.000000
# 5 0.000000 0.000000 0.000000 0.000000 0.077055 0.000000
# 6 0.000000 0.000000 0.000000 0.000000 0.000000 0.034565
#
#
# Mechanical properties :
#
#
# Convention : Reuss Voigt Hill
#
# Bulk Modulus (GPa) = 49.44340 51.79903 50.62121
# Shear Modulus (GPa) = 26.64942 33.47432 30.06187
#
# Velocity S-wave (km/s) = 3.51917 3.94414 3.73770
# Velocity P-wave (km/s) = 6.28412 6.69431 6.49245
#
# Compressibility (1/GPa) = 0.02022515
#
# Stress axis : x y z
#
# Youngs Moduli (GPa) = 94.58143 103.29783 116.32934
#
# Poissons Ratio (x) = 0.10470 0.04265
# Poissons Ratio (y) = 0.09587 0.34110
# Poissons Ratio (z) = 0.03467 0.30289
#
# Static dielectric constant tensor:
#      x y z
#    x 7.245230 0.000000 0.000000 
#    y 0.000000 4.294620 0.000000 
#    z 0.000000 0.000000 -0.384260 
# 
# 
# High freq. dielectric constant tensor:
#      x y z
#    x 1.846110 0.000000 0.000000 
#    y 0.000000 1.858880 0.000000 
#    z 0.000000 0.000000 1.827550 
# 
# From -- ./inp_files/22853.got.cif
#   From: 2010.06.25/outbox.cif.g09.slc.cpg/sg52_12_cif.got.tgz:22853.got - 2010.06.26 19:32:48.
