data_PCOD8217739
_publ_section_title
;
Structure prediction by ZEFSAII (Michael W. Deem and Ramdas Pophale) SiO2 
 PCOD8217739
Probable space group: P M N A
;
_chemical_formula_sum "Si O2"
_cell_formula_units_Z 36
_cell_length_a 20.435828
_cell_length_b 5.100662
_cell_length_c 20.019655
_cell_angle_alpha 90.000000
_cell_angle_beta 90.000000
_cell_angle_gamma 90.000000
_cell_volume 2086.773790
_symmetry_space_group_name_H-M "P M N A"
_symmetry_group_IT_number 53
_symmetry_cell_setting 'orthorhombic'
loop_
_space_group_symop_operation_xyz
x,y,z
1/2-x,-y,1/2+z
x,-y,-z
1/2-x,y,1/2-z
-x,-y,-z
1/2+x,y,1/2-z
-x,y,z
1/2+x,-y,1/2+z
loop_
_atom_site_type_symbol
_atom_site_label
_atom_site_fract_x
_atom_site_fract_y
_atom_site_fract_z
Si Si1 0.261924 0.091098 0.575679
Si Si2 0.349364 0.410025 0.212673
Si Si3 0.206951 0.602705 0.849727
Si Si4 0.500000 0.241286 0.953187
Si Si5 0.879787 0.902464 0.361576
O O1 0.294768 0.370238 0.594834
O O2 0.185551 0.089839 0.594251
O O3 0.268386 0.000000 0.500000
O O4 0.303886 0.879382 0.615524
O O5 0.349684 0.403182 0.293397
O O6 0.276219 0.394507 0.186299
O O7 0.377559 0.694281 0.197694
O O8 0.391849 0.182172 0.175377
O O9 0.563906 0.209289 0.908581
O O10 0.500000 0.500000 0.000000
O O11 0.500000 0.000000 0.000000
#
# Coordination Sequence:
#
# PCOD8217739 Si02
#       5
#     8   8   8   4   8
#     4  10  18  28  43  66  94 123 150 179 223 279
#     4   9  17  31  47  64  83 113 157 194 231 268
#     4   9  17  28  45  65  87 115 149 188 227 276
#     4  12  24  36  48  66  94 128 165 200 229 256
#     4  10  20  32  47  63  87 124 161 196 224 257
#
# _framework density 17.25151
#
# number of rings (size 3 to 8) (size 9 to 14) (size 15 to 20)
#    0.000    2.222    0.000    4.000    0.000    8.889 
#    0.000    0.000    0.000    0.000    0.000    0.000 
#    0.000    0.000    0.000   70.000    0.000    0.000 
#
# Total GULP energy -445973.214354 kJ/mol
# GULP energy per Si atom -12388.144843 kJ/mol
# Density = 1.721224 g / cm^3
# Si number density = 17.251510 Si / 1000 Ang^3
#
#
#
# Elastic Constant Matrix: (Units=GPa)
#
#
# Indices 1 2 3 4 5 6 
#
# 1 24.3412 12.5092 37.2053 0.0000 0.0000 0.0000
# 2 12.5092 104.4343 36.2073 0.0000 0.0000 0.0000
# 3 37.2053 36.2073 111.8551 0.0000 0.0000 0.0000
# 4 0.0000 0.0000 0.0000 30.6754 0.0000 0.0000
# 5 0.0000 0.0000 0.0000 0.0000 13.8018 0.0000
# 6 0.0000 0.0000 0.0000 0.0000 0.0000 11.2891
#
#
#
# Elastic Compliance Matrix: (Units=1/GPa)
#
#
# Indices 1 2 3 4 5 6 
#
# 1 0.083587 -0.000420 -0.027667 0.000000 0.000000 0.000000
# 2 -0.000420 0.010788 -0.003352 0.000000 0.000000 0.000000
# 3 -0.027667 -0.003352 0.019228 0.000000 0.000000 0.000000
# 4 0.000000 0.000000 0.000000 0.032599 0.000000 0.000000
# 5 0.000000 0.000000 0.000000 0.000000 0.072454 0.000000
# 6 0.000000 0.000000 0.000000 0.000000 0.000000 0.088581
#
#
# Mechanical properties :
#
#
# Convention : Reuss Voigt Hill
#
# Bulk Modulus (GPa) = 19.71442 45.83047 32.77245
# Shear Modulus (GPa) = 12.91914 21.46719 17.19317
#
# Velocity S-wave (km/s) = 2.73952 3.53138 3.16035
# Velocity P-wave (km/s) = 4.63239 6.57657 5.68816
#
# Compressibility (1/GPa) = 0.05072429
#
# Stress axis : x y z
#
# Youngs Moduli (GPa) = 11.96365 92.69585 52.00814
#
# Poissons Ratio (x) = 0.03894 1.43889
# Poissons Ratio (y) = 0.00503 0.17435
# Poissons Ratio (z) = 0.33099 0.31075
#
# Static dielectric constant tensor:
#      x y z
#    x 2.748270 0.000000 0.000000 
#    y 0.000000 3.697030 0.000000 
#    z 0.000000 0.000000 3.381780 
# 
# 
# High freq. dielectric constant tensor:
#      x y z
#    x 1.598160 0.000000 0.000000 
#    y 0.000000 1.692340 0.000000 
#    z 0.000000 0.000000 1.673590 
# 
# From -- ./inp_files/28755.got.cif
#   From: 2010.03.12/outbox.cif.g09.slc.cpg/sg53_15_cif.got.tgz:28755.got - 2010.04.16 14:36:59.
