data_PCOD8217437
_publ_section_title
;
Structure prediction by ZEFSAII (Michael W. Deem and Ramdas Pophale) SiO2 
 PCOD8217437
Probable space group: P N N A
;
_chemical_formula_sum "Si O2"
_cell_formula_units_Z 16
_cell_length_a 5.109813
_cell_length_b 7.574841
_cell_length_c 16.643790
_cell_angle_alpha 90.000000
_cell_angle_beta 90.000000
_cell_angle_gamma 90.000000
_cell_volume 644.214886
_symmetry_space_group_name_H-M "P N N A"
_symmetry_group_IT_number 52
_symmetry_cell_setting 'orthorhombic'
loop_
_space_group_symop_operation_xyz
x,y,z
1/2-x,-y,z
x,1/2-y,1/2-z
1/2-x,1/2+y,1/2-z
-x,-y,-z
1/2+x,y,-z
-x,1/2+y,1/2+z
1/2+x,1/2-y,1/2+z
loop_
_atom_site_type_symbol
_atom_site_label
_atom_site_fract_x
_atom_site_fract_y
_atom_site_fract_z
Si Si1 0.250000 0.000000 0.943252
Si Si2 0.901720 0.314014 0.660878
Si Si3 0.250000 0.000000 0.444189
O O1 0.313600 0.836057 0.883103
O O2 0.500000 0.000000 0.000000
O O3 0.750000 0.500000 0.660066
O O4 0.960126 0.250000 0.750000
O O5 0.731928 0.172354 0.611944
O O6 0.500000 0.000000 0.500000
#
# Coordination Sequence:
#
# PCOD8217437 Si02
#       3
#     4   8   4
#     4  12  26  50  82 114 158 216 268 336 408 488
#     4  12  28  53  84 119 171 219 275 347 426 497
#     4  12  30  50  82 122 158 214 282 338 414 508
#
# _framework density 24.836433
#
# number of rings (size 3 to 8) (size 9 to 14) (size 15 to 20)
#    0.000    0.000    5.000    3.000    7.000    4.000 
#    0.000    0.000    0.000    0.000    0.000    0.000 
#    0.000    0.000    0.000    0.000    0.000    0.000 
#
# Total GULP energy -198223.967559 kJ/mol
# GULP energy per Si atom -12388.997972 kJ/mol
# Density = 2.477990 g / cm^3
# Si number density = 24.836433 Si / 1000 Ang^3
#
#
#
# Elastic Constant Matrix: (Units=GPa)
#
#
# Indices 1 2 3 4 5 6 
#
# 1 181.6376 64.5334 119.9893 0.0000 0.0000 0.0000
# 2 64.5334 192.5270 105.6642 0.0000 0.0000 0.0000
# 3 119.9893 105.6642 272.4946 0.0000 0.0000 0.0000
# 4 0.0000 0.0000 0.0000 37.5740 0.0000 0.0000
# 5 0.0000 0.0000 0.0000 0.0000 8.0707 0.0000
# 6 0.0000 0.0000 0.0000 0.0000 0.0000 41.7835
#
#
#
# Elastic Compliance Matrix: (Units=1/GPa)
#
#
# Indices 1 2 3 4 5 6 
#
# 1 0.007895 -0.000938 -0.003113 0.000000 0.000000 0.000000
# 2 -0.000938 0.006710 -0.002189 0.000000 0.000000 0.000000
# 3 -0.003113 -0.002189 0.005889 0.000000 0.000000 0.000000
# 4 0.000000 0.000000 0.000000 0.026614 0.000000 0.000000
# 5 0.000000 0.000000 0.000000 0.000000 0.123905 0.000000
# 6 0.000000 0.000000 0.000000 0.000000 0.000000 0.023933
#
#
# Mechanical properties :
#
#
# Convention : Reuss Voigt Hill
#
# Bulk Modulus (GPa) = 124.76732 136.33699 130.55216
# Shear Modulus (GPa) = 23.79861 41.25047 32.52454
#
# Velocity S-wave (km/s) = 3.09886 4.07982 3.62270
# Velocity P-wave (km/s) = 7.94661 8.78671 8.37720
#
# Compressibility (1/GPa) = 0.00801492
#
# Stress axis : x y z
#
# Youngs Moduli (GPa) = 126.66276 149.03695 169.80281
#
# Poissons Ratio (x) = 0.13979 0.52855
# Poissons Ratio (y) = 0.11881 0.37166
# Poissons Ratio (z) = 0.39427 0.32621
#
# Static dielectric constant tensor:
#      x y z
#    x 2.842230 0.000000 0.000000 
#    y 0.000000 5.010750 0.000000 
#    z 0.000000 0.000000 5.396280 
# 
# 
# High freq. dielectric constant tensor:
#      x y z
#    x 1.989210 0.000000 0.000000 
#    y 0.000000 1.995430 0.000000 
#    z 0.000000 0.000000 2.027090 
# 
# From -- ./inp_files/29808.got.cif
#   From: 2010.06.25/outbox.cif.g09.slc.cpg/sg52_15_cif.got.tgz:29808.got - 2010.06.26 19:32:48.
