data_PCOD8217107
_publ_section_title
;
Structure prediction by ZEFSAII (Michael W. Deem and Ramdas Pophale) SiO2 
 PCOD8217107
Probable space group: P N N A
;
_chemical_formula_sum "Si O2"
_cell_formula_units_Z 32
_cell_length_a 17.950083
_cell_length_b 10.512214
_cell_length_c 8.258898
_cell_angle_alpha 90.000000
_cell_angle_beta 90.000000
_cell_angle_gamma 90.000000
_cell_volume 1558.413698
_symmetry_space_group_name_H-M "P N N A"
_symmetry_group_IT_number 52
_symmetry_cell_setting 'orthorhombic'
loop_
_space_group_symop_operation_xyz
x,y,z
1/2-x,-y,z
x,1/2-y,1/2-z
1/2-x,1/2+y,1/2-z
-x,-y,-z
1/2+x,y,-z
-x,1/2+y,1/2+z
1/2+x,1/2-y,1/2+z
loop_
_atom_site_type_symbol
_atom_site_label
_atom_site_fract_x
_atom_site_fract_y
_atom_site_fract_z
Si Si1 0.834180 0.258315 0.438959
Si Si2 0.585844 0.497142 0.457549
Si Si3 0.162608 0.011496 0.613653
Si Si4 0.323547 0.764386 0.065395
O O1 0.851016 0.250000 0.250000
O O2 0.883770 0.366986 0.523189
O O3 0.749115 0.300164 0.463724
O O4 0.852738 0.114257 0.499243
O O5 0.500000 0.500000 0.500000
O O6 0.608279 0.481871 0.269003
O O7 0.617653 0.377567 0.554853
O O8 0.143013 0.133116 0.504726
O O9 0.250000 0.000000 0.667761
O O10 0.299461 0.750000 0.250000
#
# Coordination Sequence:
#
# PCOD8217107 Si02
#       4
#     8   8   8   8
#     4   9  19  38  64  86 110 149 196 240 288 341
#     4  11  22  37  58  85 117 154 192 231 286 354
#     4   9  19  40  66  85 108 151 198 243 291 341
#     4  11  22  37  59  88 116 146 192 244 288 338
#
# _framework density 20.533698999999999
#
# number of rings (size 3 to 8) (size 9 to 14) (size 15 to 20)
#    0.000    2.000    0.000    6.000    0.000    9.000 
#    0.000   10.000    0.000    0.000    0.000    0.000 
#    0.000    0.000    0.000    0.000    0.000    0.000 
#
# Total GULP energy -396534.320175 kJ/mol
# GULP energy per Si atom -12391.697505 kJ/mol
# Density = 2.048696 g / cm^3
# Si number density = 20.533699 Si / 1000 Ang^3
#
#
#
# Elastic Constant Matrix: (Units=GPa)
#
#
# Indices 1 2 3 4 5 6 
#
# 1 111.6872 77.4824 15.0084 0.0000 0.0000 0.0000
# 2 77.4824 200.9402 31.9618 0.0000 0.0000 0.0000
# 3 15.0084 31.9618 50.5164 0.0000 0.0000 0.0000
# 4 0.0000 0.0000 0.0000 15.1183 0.0000 0.0000
# 5 0.0000 0.0000 0.0000 0.0000 13.3814 0.0000
# 6 0.0000 0.0000 0.0000 0.0000 0.0000 5.8934
#
#
#
# Elastic Compliance Matrix: (Units=1/GPa)
#
#
# Indices 1 2 3 4 5 6 
#
# 1 0.012247 -0.004607 -0.000724 0.000000 0.000000 0.000000
# 2 -0.004607 0.007267 -0.003229 0.000000 0.000000 0.000000
# 3 -0.000724 -0.003229 0.022053 0.000000 0.000000 0.000000
# 4 0.000000 0.000000 0.000000 0.066145 0.000000 0.000000
# 5 0.000000 0.000000 0.000000 0.000000 0.074730 0.000000
# 6 0.000000 0.000000 0.000000 0.000000 0.000000 0.169682
#
#
# Mechanical properties :
#
#
# Convention : Reuss Voigt Hill
#
# Bulk Modulus (GPa) = 40.90343 68.00546 54.45444
# Shear Modulus (GPa) = 13.24875 22.79136 18.02005
#
# Velocity S-wave (km/s) = 2.54287 3.33520 2.96562
# Velocity P-wave (km/s) = 5.34649 6.92981 6.18899
#
# Compressibility (1/GPa) = 0.02444783
#
# Stress axis : x y z
#
# Youngs Moduli (GPa) = 81.65150 137.61193 45.34443
#
# Poissons Ratio (x) = 0.63404 0.03281
# Poissons Ratio (y) = 0.37620 0.14641
# Poissons Ratio (z) = 0.05908 0.44433
#
# Static dielectric constant tensor:
#      x y z
#    x 3.358430 0.000000 0.000000 
#    y 0.000000 4.800270 0.000000 
#    z 0.000000 0.000000 3.349820 
# 
# 
# High freq. dielectric constant tensor:
#      x y z
#    x 1.769900 0.000000 0.000000 
#    y 0.000000 1.842290 0.000000 
#    z 0.000000 0.000000 1.775560 
# 
# From -- ./inp_files/9544.got.cif
#   From: 2010.06.25/outbox.cif.g09.slc.cpg/sg52_5_cif.got.tgz:9544.got - 2010.06.26 19:32:48.
