data_PCOD8217264
_publ_section_title
;
Structure prediction by ZEFSAII (Michael W. Deem and Ramdas Pophale) SiO2 
 PCOD8217264
Probable space group: P N N A
;
_chemical_formula_sum "Si O2"
_cell_formula_units_Z 40
_cell_length_a 13.756100
_cell_length_b 8.524630
_cell_length_c 14.590225
_cell_angle_alpha 90.000000
_cell_angle_beta 90.000000
_cell_angle_gamma 90.000000
_cell_volume 1710.932404
_symmetry_space_group_name_H-M "P N N A"
_symmetry_group_IT_number 52
_symmetry_cell_setting 'orthorhombic'
loop_
_space_group_symop_operation_xyz
x,y,z
1/2-x,-y,z
x,1/2-y,1/2-z
1/2-x,1/2+y,1/2-z
-x,-y,-z
1/2+x,y,-z
-x,1/2+y,1/2+z
1/2+x,1/2-y,1/2+z
loop_
_atom_site_type_symbol
_atom_site_label
_atom_site_fract_x
_atom_site_fract_y
_atom_site_fract_z
Si Si1 0.467280 0.138612 0.829709
Si Si2 0.754724 0.183062 0.501399
Si Si3 0.473370 0.320688 0.014935
Si Si4 0.682394 0.146420 0.832298
Si Si5 0.129506 0.316391 0.648868
O O1 0.424445 0.250000 0.750000
O O2 0.576052 0.080585 0.802513
O O3 0.389212 0.001883 0.844780
O O4 0.490127 0.230986 0.921401
O O5 0.861776 0.215378 0.540257
O O6 0.678423 0.240506 0.578116
O O7 0.728137 0.277567 0.407882
O O8 0.750000 0.000000 0.478608
O O9 0.537500 0.260088 0.098633
O O10 0.500000 0.500000 0.000000
O O11 0.726376 0.250000 0.750000
O O12 0.750000 0.000000 0.854645
O O13 0.140956 0.250000 0.750000
#
# Coordination Sequence:
#
# PCOD8217264 Si02
#       5
#     8   8   8   8   8
#     4  11  25  45  72 104 144 193 248 309 376 455
#     4  12  26  45  73 108 148 189 250 311 378 453
#     4  12  24  46  75 102 147 194 245 310 379 454
#     4  11  24  43  72 107 146 188 247 312 380 453
#     4  12  27  48  74 108 152 201 253 309 385 457
#
# _framework density 23.379066000000002
#
# number of rings (size 3 to 8) (size 9 to 14) (size 15 to 20)
#    0.000    0.400    4.000    3.600    2.800    7.200 
#    0.000    0.000    0.000    0.000    0.000    0.000 
#    0.000    0.000    0.000    0.000    0.000    0.000 
#
# Total GULP energy -495999.538473 kJ/mol
# GULP energy per Si atom -12399.988462 kJ/mol
# Density = 2.332585 g / cm^3
# Si number density = 23.379066 Si / 1000 Ang^3
#
#
#
# Elastic Constant Matrix: (Units=GPa)
#
#
# Indices 1 2 3 4 5 6 
#
# 1 51.2631 18.2663 -2.7130 0.0000 0.0000 0.0000
# 2 18.2663 158.2413 48.0962 0.0000 0.0000 0.0000
# 3 -2.7130 48.0962 153.5444 0.0000 0.0000 0.0000
# 4 0.0000 0.0000 0.0000 45.3254 0.0000 0.0000
# 5 0.0000 0.0000 0.0000 0.0000 30.3705 0.0000
# 6 0.0000 0.0000 0.0000 0.0000 0.0000 31.3395
#
#
#
# Elastic Compliance Matrix: (Units=1/GPa)
#
#
# Indices 1 2 3 4 5 6 
#
# 1 0.020550 -0.002744 0.001223 0.000000 0.000000 0.000000
# 2 -0.002744 0.007351 -0.002351 0.000000 0.000000 0.000000
# 3 0.001223 -0.002351 0.007271 0.000000 0.000000 0.000000
# 4 0.000000 0.000000 0.000000 0.022063 0.000000 0.000000
# 5 0.000000 0.000000 0.000000 0.000000 0.032927 0.000000
# 6 0.000000 0.000000 0.000000 0.000000 0.000000 0.031909
#
#
# Mechanical properties :
#
#
# Convention : Reuss Voigt Hill
#
# Bulk Modulus (GPa) = 36.46075 54.48308 45.47192
# Shear Modulus (GPa) = 35.98269 41.36704 38.67486
#
# Velocity S-wave (km/s) = 3.92739 4.21099 4.07166
# Velocity P-wave (km/s) = 6.01624 6.85552 6.44955
#
# Compressibility (1/GPa) = 0.02742676
#
# Stress axis : x y z
#
# Youngs Moduli (GPa) = 48.66285 136.04054 137.53623
#
# Poissons Ratio (x) = 0.37325 -0.16814
# Poissons Ratio (y) = 0.13352 0.32335
# Poissons Ratio (z) = -0.05949 0.31983
#
# Static dielectric constant tensor:
#      x y z
#    x 4.659520 0.000000 0.000000 
#    y 0.000000 4.325010 0.000000 
#    z 0.000000 0.000000 4.265230 
# 
# 
# High freq. dielectric constant tensor:
#      x y z
#    x 1.938910 0.000000 0.000000 
#    y 0.000000 1.927140 0.000000 
#    z 0.000000 0.000000 1.931760 
# 
# From -- ./inp_files/26873.got.cif
#   From: 2010.06.25/outbox.cif.g09.slc.cpg/sg52_14_cif.got.tgz:26873.got - 2010.06.26 19:32:48.
