data_PCOD8217113
_publ_section_title
;
Structure prediction by ZEFSAII (Michael W. Deem and Ramdas Pophale) SiO2 
 PCOD8217113
Probable space group: P N N A
;
_chemical_formula_sum "Si O2"
_cell_formula_units_Z 32
_cell_length_a 19.260314
_cell_length_b 15.505684
_cell_length_c 4.813675
_cell_angle_alpha 90.000000
_cell_angle_beta 90.000000
_cell_angle_gamma 90.000000
_cell_volume 1437.576806
_symmetry_space_group_name_H-M "P N N A"
_symmetry_group_IT_number 52
_symmetry_cell_setting 'orthorhombic'
loop_
_space_group_symop_operation_xyz
x,y,z
1/2-x,-y,z
x,1/2-y,1/2-z
1/2-x,1/2+y,1/2-z
-x,-y,-z
1/2+x,y,-z
-x,1/2+y,1/2+z
1/2+x,1/2-y,1/2+z
loop_
_atom_site_type_symbol
_atom_site_label
_atom_site_fract_x
_atom_site_fract_y
_atom_site_fract_z
Si Si1 0.401307 0.157091 0.650944
Si Si2 0.258950 0.664022 0.892175
Si Si3 0.933246 0.042332 0.856935
Si Si4 0.195371 0.431167 0.374948
O O1 0.434008 0.250000 0.750000
O O2 0.323239 0.168859 0.544639
O O3 0.446465 0.102437 0.419906
O O4 0.394433 0.102964 0.928435
O O5 0.286520 0.750000 0.750000
O O6 0.286204 0.586178 0.696199
O O7 0.294433 0.655060 0.192468
O O8 0.882082 0.962733 0.805344
O O9 0.000000 0.000000 0.000000
O O10 0.250000 0.500000 0.253786
#
# Coordination Sequence:
#
# PCOD8217113 Si02
#       4
#     8   8   8   8
#     4  11  22  41  66  94 126 166 219 269 323 389
#     4  11  22  38  64  98 127 165 215 271 328 380
#     4  12  25  41  63  96 130 174 217 265 323 394
#     4  12  21  39  64  93 130 164 213 268 326 377
#
# _framework density 22.259682999999999
#
# number of rings (size 3 to 8) (size 9 to 14) (size 15 to 20)
#    0.000    0.500    5.000    4.500    0.000    4.000 
#    0.000    5.000    0.000    0.000    0.000    0.000 
#    0.000    0.000    0.000    0.000    0.000    0.000 
#
# Total GULP energy -396593.934523 kJ/mol
# GULP energy per Si atom -12393.560454 kJ/mol
# Density = 2.220902 g / cm^3
# Si number density = 22.259683 Si / 1000 Ang^3
#
#
#
# Elastic Constant Matrix: (Units=GPa)
#
#
# Indices 1 2 3 4 5 6 
#
# 1 94.6918 35.3042 13.6340 0.0000 0.0000 0.0000
# 2 35.3042 88.0932 22.6190 0.0000 0.0000 0.0000
# 3 13.6340 22.6190 110.6798 0.0000 0.0000 0.0000
# 4 0.0000 0.0000 0.0000 46.0211 0.0000 0.0000
# 5 0.0000 0.0000 0.0000 0.0000 27.7396 0.0000
# 6 0.0000 0.0000 0.0000 0.0000 0.0000 18.4316
#
#
#
# Elastic Compliance Matrix: (Units=1/GPa)
#
#
# Indices 1 2 3 4 5 6 
#
# 1 0.012446 -0.004849 -0.000542 0.000000 0.000000 0.000000
# 2 -0.004849 0.013869 -0.002237 0.000000 0.000000 0.000000
# 3 -0.000542 -0.002237 0.009559 0.000000 0.000000 0.000000
# 4 0.000000 0.000000 0.000000 0.021729 0.000000 0.000000
# 5 0.000000 0.000000 0.000000 0.000000 0.036050 0.000000
# 6 0.000000 0.000000 0.000000 0.000000 0.000000 0.054255
#
#
# Mechanical properties :
#
#
# Convention : Reuss Voigt Hill
#
# Bulk Modulus (GPa) = 48.50036 48.50879 48.50457
# Shear Modulus (GPa) = 29.40534 33.23231 31.31882
#
# Velocity S-wave (km/s) = 3.63852 3.86805 3.75504
# Velocity P-wave (km/s) = 6.28391 6.46441 6.37480
#
# Compressibility (1/GPa) = 0.02061840
#
# Stress axis : x y z
#
# Youngs Moduli (GPa) = 80.34422 72.10219 104.61289
#
# Poissons Ratio (x) = 0.34961 0.05673
# Poissons Ratio (y) = 0.38957 0.23403
# Poissons Ratio (z) = 0.04357 0.16130
#
# Static dielectric constant tensor:
#      x y z
#    x 3.523780 0.000000 0.000000 
#    y 0.000000 4.316320 0.000000 
#    z 0.000000 0.000000 4.276640 
# 
# 
# High freq. dielectric constant tensor:
#      x y z
#    x 1.832180 0.000000 0.000000 
#    y 0.000000 1.888290 0.000000 
#    z 0.000000 0.000000 1.898050 
# 
# From -- ./inp_files/3002.got.cif
#   From: 2010.06.25/outbox.cif.g09.slc.cpg/sg52_2_cif.got.tgz:3002.got - 2010.06.26 19:32:48.
