data_PCOD8217822
_publ_section_title
;
Structure prediction by ZEFSAII (Michael W. Deem and Ramdas Pophale) SiO2 
 PCOD8217822
Probable space group: P M N A
;
_chemical_formula_sum "Si O2"
_cell_formula_units_Z 52
_cell_length_a 13.290000
_cell_length_b 11.942011
_cell_length_c 19.024869
_cell_angle_alpha 90.000000
_cell_angle_beta 90.000000
_cell_angle_gamma 90.000000
_cell_volume 3019.424140
_symmetry_space_group_name_H-M "P M N A"
_symmetry_group_IT_number 53
_symmetry_cell_setting 'orthorhombic'
loop_
_space_group_symop_operation_xyz
x,y,z
1/2-x,-y,1/2+z
x,-y,-z
1/2-x,y,1/2-z
-x,-y,-z
1/2+x,y,1/2-z
-x,y,z
1/2+x,-y,1/2+z
loop_
_atom_site_type_symbol
_atom_site_label
_atom_site_fract_x
_atom_site_fract_y
_atom_site_fract_z
Si Si1 0.250000 0.793552 0.250000
Si Si2 0.702305 0.003493 0.917583
Si Si3 0.381992 0.372993 0.009726
Si Si4 0.382834 0.765632 0.127094
Si Si5 0.114263 0.964566 0.172050
Si Si6 0.110521 0.789042 0.786158
Si Si7 0.806606 0.237846 0.361510
O O1 0.308024 0.721979 0.189677
O O2 0.159424 0.866773 0.219062
O O3 0.634288 0.101906 0.884564
O O4 0.819725 0.022412 0.898759
O O5 0.663662 0.886046 0.887149
O O6 0.688236 0.000000 0.000000
O O7 0.500000 0.364327 0.021795
O O8 0.329415 0.328008 0.079385
O O9 0.346260 0.500000 0.000000
O O10 0.349187 0.301350 0.942143
O O11 0.500000 0.743341 0.145575
O O12 0.000000 0.935683 0.150030
O O13 0.119621 0.076477 0.219070
O O14 0.131264 0.737669 0.709400
O O15 0.188562 0.746516 0.844510
O O16 0.000000 0.751460 0.811243
#
# Coordination Sequence:
#
# PCOD8217822 Si02
#       7
#     4   8   8   8   8   8   8
#     4  10  18  30  48  68 100 130 166 202 230 292
#     4  10  18  29  46  75 106 128 161 199 237 292
#     4  10  21  36  53  73  97 126 161 203 250 294
#     4  10  20  33  51  74 100 129 159 199 244 286
#     4   9  17  28  43  67 103 140 163 190 238 290
#     4   9  17  29  48  74 100 131 166 198 239 288
#     4  10  18  31  51  74 103 131 159 201 246 286
#
# _framework density 17.221827999999999
#
# number of rings (size 3 to 8) (size 9 to 14) (size 15 to 20)
#    0.000    2.308    1.538    3.692    0.000    3.077 
#    0.000    1.538    0.000    0.462    0.000    0.000 
#    0.000    0.000    0.000    0.000    0.000    0.000 
#
# Total GULP energy -644651.681924 kJ/mol
# GULP energy per Si atom -12397.147729 kJ/mol
# Density = 1.718263 g / cm^3
# Si number density = 17.221828 Si / 1000 Ang^3
#
#
#
# Elastic Constant Matrix: (Units=GPa)
#
#
# Indices 1 2 3 4 5 6 
#
# 1 84.7384 24.8674 34.6157 0.0000 0.0000 0.0000
# 2 24.8674 75.4180 38.1512 0.0000 0.0000 0.0000
# 3 34.6157 38.1512 111.7068 0.0000 0.0000 0.0000
# 4 0.0000 0.0000 0.0000 11.6642 0.0000 0.0000
# 5 0.0000 0.0000 0.0000 0.0000 24.5931 0.0000
# 6 0.0000 0.0000 0.0000 0.0000 0.0000 11.5400
#
#
#
# Elastic Compliance Matrix: (Units=1/GPa)
#
#
# Indices 1 2 3 4 5 6 
#
# 1 0.014028 -0.002933 -0.003345 0.000000 0.000000 0.000000
# 2 -0.002933 0.016642 -0.004775 0.000000 0.000000 0.000000
# 3 -0.003345 -0.004775 0.011619 0.000000 0.000000 0.000000
# 4 0.000000 0.000000 0.000000 0.085733 0.000000 0.000000
# 5 0.000000 0.000000 0.000000 0.000000 0.040662 0.000000
# 6 0.000000 0.000000 0.000000 0.000000 0.000000 0.086655
#
#
# Mechanical properties :
#
#
# Convention : Reuss Voigt Hill
#
# Bulk Modulus (GPa) = 49.54656 51.90354 50.72505
# Shear Modulus (GPa) = 17.59489 21.17472 19.38481
#
# Velocity S-wave (km/s) = 3.19981 3.51027 3.35863
# Velocity P-wave (km/s) = 6.51796 6.82883 6.67521
#
# Compressibility (1/GPa) = 0.02018304
#
# Stress axis : x y z
#
# Youngs Moduli (GPa) = 71.28405 60.08895 86.06313
#
# Poissons Ratio (x) = 0.17626 0.28791
# Poissons Ratio (y) = 0.20910 0.41093
# Poissons Ratio (z) = 0.23847 0.28691
#
# Static dielectric constant tensor:
#      x y z
#    x 3.310410 0.000000 0.000000 
#    y 0.000000 2.913620 0.000000 
#    z 0.000000 0.000000 3.337310 
# 
# 
# High freq. dielectric constant tensor:
#      x y z
#    x 1.665960 0.000000 0.000000 
#    y 0.000000 1.622880 0.000000 
#    z 0.000000 0.000000 1.670910 
# 
# From -- ./inp_files/28444.got.cif
#   From: 2010.03.12/outbox.cif.g09.slc.cpg/sg53_15_cif.got.tgz:28444.got - 2010.04.16 14:36:59.
