data_PCOD8217693
_publ_section_title
;
Structure prediction by ZEFSAII (Michael W. Deem and Ramdas Pophale) SiO2 
 PCOD8217693
Probable space group: P M N A
;
_chemical_formula_sum "Si O2"
_cell_formula_units_Z 40
_cell_length_a 9.284524
_cell_length_b 13.948650
_cell_length_c 18.210873
_cell_angle_alpha 90.000000
_cell_angle_beta 90.000000
_cell_angle_gamma 90.000000
_cell_volume 2358.427803
_symmetry_space_group_name_H-M "P M N A"
_symmetry_group_IT_number 53
_symmetry_cell_setting 'orthorhombic'
loop_
_space_group_symop_operation_xyz
x,y,z
1/2-x,-y,1/2+z
x,-y,-z
1/2-x,y,1/2-z
-x,-y,-z
1/2+x,y,1/2-z
-x,y,z
1/2+x,-y,1/2+z
loop_
_atom_site_type_symbol
_atom_site_label
_atom_site_fract_x
_atom_site_fract_y
_atom_site_fract_z
Si Si1 0.171078 0.202914 0.463258
Si Si2 0.671563 0.083396 0.175032
Si Si3 0.668530 0.315234 0.821306
Si Si4 0.670009 0.116355 0.888090
Si Si5 0.829043 0.600901 0.474086
O O1 0.219987 0.162673 0.384695
O O2 0.230101 0.135000 0.529367
O O3 0.228601 0.311790 0.474697
O O4 0.000000 0.203169 0.469395
O O5 0.750000 0.111432 0.250000
O O6 0.500000 0.082363 0.186915
O O7 0.732322 0.981097 0.146593
O O8 0.750000 0.354080 0.750000
O O9 0.500000 0.323575 0.806861
O O10 0.713769 0.205291 0.836575
O O11 0.715986 0.380690 0.889938
O O12 0.500000 0.105913 0.892927
O O13 0.760387 0.500000 0.500000
O O14 0.000000 0.597102 0.480400
#
# Coordination Sequence:
#
# PCOD8217693 Si02
#       5
#     8   8   8   8   8
#     4   8  14  25  42  61  78 103 141 175 199 231
#     4  10  18  27  41  61  86 112 136 165 200 239
#     4   9  16  26  42  64  86 105 130 168 209 244
#     4   8  14  25  42  62  81 105 139 172 198 231
#     4   8  14  26  44  63  81 104 138 175 204 234
#
# _framework density 16.960450999999999
#
# number of rings (size 3 to 8) (size 9 to 14) (size 15 to 20)
#    0.000    3.400    0.000    3.600    0.000    2.400 
#    0.000    1.000    0.000    7.800    0.000    0.000 
#    0.000    0.000    0.000    0.000    0.000    0.000 
#
# Total GULP energy -495691.483142 kJ/mol
# GULP energy per Si atom -12392.287079 kJ/mol
# Density = 1.692185 g / cm^3
# Si number density = 16.960451 Si / 1000 Ang^3
#
#
#
# Elastic Constant Matrix: (Units=GPa)
#
#
# Indices 1 2 3 4 5 6 
#
# 1 16.2034 17.7930 31.0990 0.0000 0.0000 0.0000
# 2 17.7930 121.4607 83.3190 0.0000 0.0000 0.0000
# 3 31.0990 83.3190 157.7026 0.0000 0.0000 0.0000
# 4 0.0000 0.0000 0.0000 20.7301 0.0000 0.0000
# 5 0.0000 0.0000 0.0000 0.0000 27.1308 0.0000
# 6 0.0000 0.0000 0.0000 0.0000 0.0000 8.3564
#
#
#
# Elastic Compliance Matrix: (Units=1/GPa)
#
#
# Indices 1 2 3 4 5 6 
#
# 1 0.099535 -0.001751 -0.018703 0.000000 0.000000 0.000000
# 2 -0.001751 0.012944 -0.006493 0.000000 0.000000 0.000000
# 3 -0.018703 -0.006493 0.013460 0.000000 0.000000 0.000000
# 4 0.000000 0.000000 0.000000 0.048239 0.000000 0.000000
# 5 0.000000 0.000000 0.000000 0.000000 0.036859 0.000000
# 6 0.000000 0.000000 0.000000 0.000000 0.000000 0.119669
#
#
# Mechanical properties :
#
#
# Convention : Reuss Voigt Hill
#
# Bulk Modulus (GPa) = 13.88049 62.19874 38.03962
# Shear Modulus (GPa) = 12.23647 22.12050 17.17849
#
# Velocity S-wave (km/s) = 2.68893 3.61534 3.18599
# Velocity P-wave (km/s) = 4.22401 7.36071 6.00093
#
# Compressibility (1/GPa) = 0.07204358
#
# Stress axis : x y z
#
# Youngs Moduli (GPa) = 10.04672 77.25638 74.29465
#
# Poissons Ratio (x) = 0.13529 1.38954
# Poissons Ratio (y) = 0.01759 0.48242
# Poissons Ratio (z) = 0.18790 0.50165
#
# Static dielectric constant tensor:
#      x y z
#    x 2.534050 0.000000 0.000000 
#    y 0.000000 3.587850 0.000000 
#    z 0.000000 0.000000 3.286110 
# 
# 
# High freq. dielectric constant tensor:
#      x y z
#    x 1.586030 0.000000 0.000000 
#    y 0.000000 1.650070 0.000000 
#    z 0.000000 0.000000 1.660720 
# 
# From -- ./inp_files/14813.got.cif
#   From: 2010.03.12/outbox.cif.g09.slc.cpg/sg53_8_cif.got.tgz:14813.got - 2010.04.16 14:36:59.
