data_PCOD8217605
_publ_section_title
;
Structure prediction by ZEFSAII (Michael W. Deem and Ramdas Pophale) SiO2 
 PCOD8217605
Probable space group: P M N A
;
_chemical_formula_sum "Si O2"
_cell_formula_units_Z 40
_cell_length_a 8.675399
_cell_length_b 14.837595
_cell_length_c 14.843372
_cell_angle_alpha 90.000000
_cell_angle_beta 90.000000
_cell_angle_gamma 90.000000
_cell_volume 1910.669374
_symmetry_space_group_name_H-M "P M N A"
_symmetry_group_IT_number 53
_symmetry_cell_setting 'orthorhombic'
loop_
_space_group_symop_operation_xyz
x,y,z
1/2-x,-y,1/2+z
x,-y,-z
1/2-x,y,1/2-z
-x,-y,-z
1/2+x,y,1/2-z
-x,y,z
1/2+x,-y,1/2+z
loop_
_atom_site_type_symbol
_atom_site_label
_atom_site_fract_x
_atom_site_fract_y
_atom_site_fract_z
Si Si1 0.178706 0.605091 0.994869
Si Si2 0.179669 0.283446 0.651101
Si Si3 0.322405 0.915527 0.152637
Si Si4 0.181940 0.909359 0.850103
Si Si5 0.181348 0.726994 0.651504
O O1 0.229953 0.647456 0.088956
O O2 0.000000 0.625601 0.977479
O O3 0.213603 0.500000 0.000000
O O4 0.276971 0.644026 0.912319
O O5 0.250000 0.290728 0.750000
O O6 0.199561 0.182827 0.607569
O O7 0.000000 0.308987 0.655366
O O8 0.250000 0.905039 0.250000
O O9 0.500000 0.942194 0.161467
O O10 0.236844 0.998007 0.099671
O O11 0.250000 0.914823 0.750000
O O12 0.251098 0.818664 0.894063
O O13 0.000000 0.902710 0.849958
O O14 0.250000 0.709185 0.750000
O O15 0.000000 0.736736 0.660469
#
# Coordination Sequence:
#
# PCOD8217605 Si02
#       5
#     8   8   8   8   8
#     4  11  25  44  64  87 116 150 193 247 302 355
#     4  10  21  38  62  90 121 158 197 241 291 347
#     4   9  16  28  49  80 116 153 193 233 279 335
#     4  10  17  28  50  81 117 155 194 234 281 337
#     4  11  22  39  63  89 120 156 196 241 291 349
#
# _framework density 20.935071000000001
#
# number of rings (size 3 to 8) (size 9 to 14) (size 15 to 20)
#    0.000    1.800    0.000    7.800    0.000    4.800 
#    0.000    1.000    0.000    6.000    0.000    0.000 
#    0.000    0.000    0.000    0.000    0.000    0.000 
#
# Total GULP energy -495839.776732 kJ/mol
# GULP energy per Si atom -12395.994418 kJ/mol
# Density = 2.088742 g / cm^3
# Si number density = 20.935071 Si / 1000 Ang^3
#
#
#
# Elastic Constant Matrix: (Units=GPa)
#
#
# Indices 1 2 3 4 5 6 
#
# 1 172.8540 76.5845 31.4981 0.0000 0.0000 0.0000
# 2 76.5845 150.8346 48.4611 0.0000 0.0000 0.0000
# 3 31.4981 48.4611 71.7005 0.0000 0.0000 0.0000
# 4 0.0000 0.0000 0.0000 0.6350 0.0000 0.0000
# 5 0.0000 0.0000 0.0000 0.0000 26.6074 0.0000
# 6 0.0000 0.0000 0.0000 0.0000 0.0000 36.4853
#
#
#
# Elastic Compliance Matrix: (Units=1/GPa)
#
#
# Indices 1 2 3 4 5 6 
#
# 1 0.007512 -0.003518 -0.000922 0.000000 0.000000 0.000000
# 2 -0.003518 0.010116 -0.005292 0.000000 0.000000 0.000000
# 3 -0.000922 -0.005292 0.017929 0.000000 0.000000 0.000000
# 4 0.000000 0.000000 0.000000 1.574788 0.000000 0.000000
# 5 0.000000 0.000000 0.000000 0.000000 0.037584 0.000000
# 6 0.000000 0.000000 0.000000 0.000000 0.000000 0.027408
#
#
# Mechanical properties :
#
#
# Convention : Reuss Voigt Hill
#
# Bulk Modulus (GPa) = 62.14010 78.71961 70.42985
# Shear Modulus (GPa) = 2.94089 28.66857 15.80473
#
# Velocity S-wave (km/s) = 1.18651 3.70456 2.75060
# Velocity P-wave (km/s) = 5.62351 7.48210 6.61837
#
# Compressibility (1/GPa) = 0.01609267
#
# Stress axis : x y z
#
# Youngs Moduli (GPa) = 133.12275 98.85250 55.77601
#
# Poissons Ratio (x) = 0.34773 0.05145
# Poissons Ratio (y) = 0.46829 0.29516
# Poissons Ratio (z) = 0.12279 0.52312
#
# Static dielectric constant tensor:
#      x y z
#    x 3.923330 0.000000 0.000000 
#    y 0.000000 4.578670 0.000000 
#    z 0.000000 0.000000 3.365730 
# 
# 
# High freq. dielectric constant tensor:
#      x y z
#    x 1.837980 0.000000 0.000000 
#    y 0.000000 1.835440 0.000000 
#    z 0.000000 0.000000 1.788660 
# 
# From -- ./inp_files/19897.got.cif
#   From: 2010.03.12/outbox.cif.g09.slc.cpg/sg53_10_cif.got.tgz:19897.got - 2010.04.16 14:36:59.
