data_PCOD8217574
_publ_section_title
;
Structure prediction by ZEFSAII (Michael W. Deem and Ramdas Pophale) SiO2 
 PCOD8217574
Probable space group: P M N A
;
_chemical_formula_sum "Si O2"
_cell_formula_units_Z 64
_cell_length_a 8.773817
_cell_length_b 18.007364
_cell_length_c 23.134526
_cell_angle_alpha 90.000000
_cell_angle_beta 90.000000
_cell_angle_gamma 90.000000
_cell_volume 3655.100486
_symmetry_space_group_name_H-M "P M N A"
_symmetry_group_IT_number 53
_symmetry_cell_setting 'orthorhombic'
loop_
_space_group_symop_operation_xyz
x,y,z
1/2-x,-y,1/2+z
x,-y,-z
1/2-x,y,1/2-z
-x,-y,-z
1/2+x,y,1/2-z
-x,y,z
1/2+x,-y,1/2+z
loop_
_atom_site_type_symbol
_atom_site_label
_atom_site_fract_x
_atom_site_fract_y
_atom_site_fract_z
Si Si1 0.178204 0.426712 0.312748
Si Si2 0.678916 0.084503 0.503736
Si Si3 0.177777 0.263648 0.312471
Si Si4 0.819036 0.571016 0.185921
Si Si5 0.824408 0.143799 0.870688
Si Si6 0.176985 0.991664 0.811053
Si Si7 0.180287 0.129611 0.390094
Si Si8 0.679484 0.280140 0.812860
O O1 0.250000 0.421585 0.250000
O O2 0.209988 0.345511 0.340493
O O3 0.260523 0.495506 0.346479
O O4 0.000000 0.444482 0.308594
O O5 0.500000 0.087453 0.491622
O O6 0.722070 0.117397 0.565717
O O7 0.763311 0.134201 0.455934
O O8 0.737913 0.000000 0.500000
O O9 0.250000 0.251767 0.250000
O O10 0.242058 0.202589 0.356843
O O11 0.000000 0.252779 0.302669
O O12 0.750000 0.568697 0.250000
O O13 0.752206 0.646035 0.157370
O O14 0.000000 0.573850 0.186383
O O15 0.795785 0.077793 0.825264
O O16 0.715756 0.211602 0.854382
O O17 0.000000 0.169408 0.868479
O O18 0.250000 0.971152 0.750000
O O19 0.000000 0.971796 0.809011
O O20 0.252905 0.943940 0.861220
O O21 0.000000 0.125730 0.388414
O O22 0.750000 0.264883 0.750000
O O23 0.500000 0.290569 0.806268
#
# Coordination Sequence:
#
# PCOD8217574 Si02
#       8
#     8   8   8   8   8   8   8   8
#     4   9  15  26  43  65  96 132 167 201 241 289
#     4  10  20  39  59  75  95 128 169 214 262 304
#     4   9  19  32  47  71 104 137 168 206 250 298
#     4  10  17  27  44  68  99 133 168 201 241 291
#     4  10  21  37  55  73  98 129 167 210 256 302
#     4  11  22  36  52  73 101 134 167 205 252 306
#     4  11  22  35  52  76 102 132 171 212 254 300
#     4  11  21  33  50  74 105 136 169 204 249 300
#
# _framework density 17.509778000000001
#
# number of rings (size 3 to 8) (size 9 to 14) (size 15 to 20)
#    0.000    1.875    1.250    5.625    0.000    5.250 
#    0.000    0.000    0.000    0.000    0.000    0.875 
#    0.000    7.000    0.000    0.000    0.000    0.000 
#
# Total GULP energy -793444.956970 kJ/mol
# GULP energy per Si atom -12397.577453 kJ/mol
# Density = 1.746993 g / cm^3
# Si number density = 17.509778 Si / 1000 Ang^3
#
#
#
# Elastic Constant Matrix: (Units=GPa)
#
#
# Indices 1 2 3 4 5 6 
#
# 1 99.4305 49.2865 29.6093 0.0000 0.0000 0.0000
# 2 49.2865 122.1944 33.7927 0.0000 0.0000 0.0000
# 3 29.6093 33.7927 68.3157 0.0000 0.0000 0.0000
# 4 0.0000 0.0000 0.0000 10.3193 0.0000 0.0000
# 5 0.0000 0.0000 0.0000 0.0000 24.2838 0.0000
# 6 0.0000 0.0000 0.0000 0.0000 0.0000 32.5342
#
#
#
# Elastic Compliance Matrix: (Units=1/GPa)
#
#
# Indices 1 2 3 4 5 6 
#
# 1 0.013294 -0.004366 -0.003602 0.000000 0.000000 0.000000
# 2 -0.004366 0.010914 -0.003507 0.000000 0.000000 0.000000
# 3 -0.003602 -0.003507 0.017934 0.000000 0.000000 0.000000
# 4 0.000000 0.000000 0.000000 0.096906 0.000000 0.000000
# 5 0.000000 0.000000 0.000000 0.000000 0.041180 0.000000
# 6 0.000000 0.000000 0.000000 0.000000 0.000000 0.030737
#
#
# Mechanical properties :
#
#
# Convention : Reuss Voigt Hill
#
# Bulk Modulus (GPa) = 52.10316 57.25751 54.68034
# Shear Modulus (GPa) = 20.80631 25.24427 23.02529
#
# Velocity S-wave (km/s) = 3.45087 3.80112 3.63022
# Velocity P-wave (km/s) = 6.76012 7.21360 6.99054
#
# Compressibility (1/GPa) = 0.01919269
#
# Stress axis : x y z
#
# Youngs Moduli (GPa) = 75.22115 91.62217 55.76070
#
# Poissons Ratio (x) = 0.40001 0.20087
# Poissons Ratio (y) = 0.32841 0.19553
# Poissons Ratio (z) = 0.27097 0.32128
#
# Static dielectric constant tensor:
#      x y z
#    x 3.287580 0.000000 0.000000 
#    y 0.000000 4.134980 0.000000 
#    z 0.000000 0.000000 2.941450 
# 
# 
# High freq. dielectric constant tensor:
#      x y z
#    x 1.686980 0.000000 0.000000 
#    y 0.000000 1.694260 0.000000 
#    z 0.000000 0.000000 1.628900 
# 
# From -- ./inp_files/31134.got.cif
#   From: 2010.03.12/outbox.cif.g09.slc.cpg/sg53_16_cif.got.tgz:31134.got - 2010.04.16 14:36:59.
