data_PCOD8217033
_publ_section_title
;
Structure prediction by ZEFSAII (Michael W. Deem and Ramdas Pophale) SiO2 
 PCOD8217033
Probable space group: P N N A
;
_chemical_formula_sum "Si O2"
_cell_formula_units_Z 64
_cell_length_a 21.016721
_cell_length_b 9.081726
_cell_length_c 16.289482
_cell_angle_alpha 90.000000
_cell_angle_beta 90.000000
_cell_angle_gamma 90.000000
_cell_volume 3109.142504
_symmetry_space_group_name_H-M "P N N A"
_symmetry_group_IT_number 52
_symmetry_cell_setting 'orthorhombic'
loop_
_space_group_symop_operation_xyz
x,y,z
1/2-x,-y,z
x,1/2-y,1/2-z
1/2-x,1/2+y,1/2-z
-x,-y,-z
1/2+x,y,-z
-x,1/2+y,1/2+z
1/2+x,1/2-y,1/2+z
loop_
_atom_site_type_symbol
_atom_site_label
_atom_site_fract_x
_atom_site_fract_y
_atom_site_fract_z
Si Si1 0.491685 0.479677 0.707903
Si Si2 0.542243 0.245717 0.113086
Si Si3 0.370063 0.365726 0.996547
Si Si4 0.947321 0.004492 0.629634
Si Si5 0.348362 0.415052 0.732950
Si Si6 0.000344 0.268658 0.442323
Si Si7 0.325803 0.623943 0.879443
Si Si8 0.219537 0.856171 0.928895
O O1 0.486044 0.651513 0.687439
O O2 0.550229 0.465061 0.773106
O O3 0.424639 0.424521 0.744156
O O4 0.507024 0.390361 0.626714
O O5 0.512319 0.407256 0.112719
O O6 0.617063 0.259761 0.126789
O O7 0.523729 0.162410 0.028328
O O8 0.431348 0.308635 0.945772
O O9 0.338116 0.506702 0.952581
O O10 0.322973 0.226198 0.997124
O O11 0.387578 0.403663 0.092184
O O12 0.947934 0.856490 0.577388
O O13 0.326032 0.250000 0.750000
O O14 0.316095 0.532666 0.794847
O O15 0.323023 0.439462 0.640823
O O16 0.265062 0.727018 0.894274
O O17 0.250000 0.000000 0.973081
#
# Coordination Sequence:
#
# PCOD8217033 Si02
#       8
#     8   8   8   8   8   8   8   8
#     4  12  22  36  59  93 133 164 205 259 327 381
#     4  11  22  37  58  91 128 167 208 257 319 382
#     4  11  21  41  60  85 119 172 216 263 311 388
#     4  11  21  38  62  86 125 168 211 254 320 386
#     4  12  24  38  56  88 127 173 213 261 306 378
#     4  11  20  39  62  87 128 165 210 260 321 383
#     4  12  23  41  63  82 127 173 221 254 314 381
#     4  12  28  40  59  86 124 169 224 270 318 377
#
# _framework density 20.584453
#
# number of rings (size 3 to 8) (size 9 to 14) (size 15 to 20)
#    0.000    0.500    6.250    3.750    1.750    1.000 
#    0.000    0.000    0.000    0.000    0.000    0.000 
#   30.000    0.000    0.000    0.000    0.000    0.000 
#
# Total GULP energy -793144.128901 kJ/mol
# GULP energy per Si atom -12392.877014 kJ/mol
# Density = 2.053760 g / cm^3
# Si number density = 20.584453 Si / 1000 Ang^3
#
#
#
# Elastic Constant Matrix: (Units=GPa)
#
#
# Indices 1 2 3 4 5 6 
#
# 1 61.4827 38.5159 11.3126 0.0000 0.0000 0.0000
# 2 38.5159 104.4157 32.2449 0.0000 0.0000 0.0000
# 3 11.3126 32.2449 30.6066 0.0000 0.0000 0.0000
# 4 0.0000 0.0000 0.0000 20.1309 0.0000 0.0000
# 5 0.0000 0.0000 0.0000 0.0000 18.5740 0.0000
# 6 0.0000 0.0000 0.0000 0.0000 0.0000 31.2328
#
#
#
# Elastic Compliance Matrix: (Units=1/GPa)
#
#
# Indices 1 2 3 4 5 6 
#
# 1 0.021160 -0.007989 0.000596 0.000000 0.000000 0.000000
# 2 -0.007989 0.017212 -0.015180 0.000000 0.000000 0.000000
# 3 0.000596 -0.015180 0.048445 0.000000 0.000000 0.000000
# 4 0.000000 0.000000 0.000000 0.049675 0.000000 0.000000
# 5 0.000000 0.000000 0.000000 0.000000 0.053839 0.000000
# 6 0.000000 0.000000 0.000000 0.000000 0.000000 0.032018
#
#
# Mechanical properties :
#
#
# Convention : Reuss Voigt Hill
#
# Bulk Modulus (GPa) = 23.99818 40.07241 32.03530
# Shear Modulus (GPa) = 17.76919 21.61631 19.69275
#
# Velocity S-wave (km/s) = 2.94127 3.24408 3.09638
# Velocity P-wave (km/s) = 4.81856 5.79152 5.32730
#
# Compressibility (1/GPa) = 0.04166983
#
# Stress axis : x y z
#
# Youngs Moduli (GPa) = 47.25896 58.09893 20.64186
#
# Poissons Ratio (x) = 0.46417 -0.01230
# Poissons Ratio (y) = 0.37757 0.31335
# Poissons Ratio (z) = -0.02816 0.88196
#
# Static dielectric constant tensor:
#      x y z
#    x 3.564780 0.000000 0.000000 
#    y 0.000000 3.900790 0.000000 
#    z 0.000000 0.000000 3.806310 
# 
# 
# High freq. dielectric constant tensor:
#      x y z
#    x 1.770450 0.000000 0.000000 
#    y 0.000000 1.829780 0.000000 
#    z 0.000000 0.000000 1.783280 
# 
# From -- ./inp_files/34109.got.cif
#   From: 2010.06.25/outbox.cif.g09.slc.cpg/sg52_18_cif.got.tgz:34109.got - 2010.06.26 19:32:48.
