data_PCOD8217695
_publ_section_title
;
Structure prediction by ZEFSAII (Michael W. Deem and Ramdas Pophale) SiO2 
 PCOD8217695
Probable space group: P M N A
;
_chemical_formula_sum "Si O2"
_cell_formula_units_Z 48
_cell_length_a 9.139928
_cell_length_b 11.605453
_cell_length_c 25.967725
_cell_angle_alpha 90.000000
_cell_angle_beta 90.000000
_cell_angle_gamma 90.000000
_cell_volume 2754.474619
_symmetry_space_group_name_H-M "P M N A"
_symmetry_group_IT_number 53
_symmetry_cell_setting 'orthorhombic'
loop_
_space_group_symop_operation_xyz
x,y,z
1/2-x,-y,1/2+z
x,-y,-z
1/2-x,y,1/2-z
-x,-y,-z
1/2+x,y,1/2-z
-x,y,z
1/2+x,-y,1/2+z
loop_
_atom_site_type_symbol
_atom_site_label
_atom_site_fract_x
_atom_site_fract_y
_atom_site_fract_z
Si Si1 0.671507 0.156785 0.803612
Si Si2 0.829650 0.109510 0.302825
Si Si3 0.339528 0.706989 0.882330
Si Si4 0.160292 0.474714 0.294311
Si Si5 0.828084 0.471502 0.056928
Si Si6 0.172918 0.651011 0.144375
O O1 0.750000 0.188684 0.750000
O O2 0.500000 0.186395 0.799513
O O3 0.746192 0.225140 0.851578
O O4 0.697014 0.023046 0.816495
O O5 0.750000 0.144681 0.250000
O O6 0.770119 0.183363 0.351987
O O7 0.000000 0.139318 0.294803
O O8 0.500000 0.739134 0.905268
O O9 0.360116 0.605953 0.842149
O O10 0.237989 0.653062 0.926794
O O11 0.250000 0.406926 0.250000
O O12 0.263356 0.583330 0.306710
O O13 0.000000 0.516091 0.275463
O O14 0.783666 0.580184 0.092828
O O15 0.000000 0.453034 0.058322
O O16 0.770279 0.500000 0.000000
O O17 0.000000 0.668065 0.148503
#
# Coordination Sequence:
#
# PCOD8217695 Si02
#       6
#     8   8   8   8   8   8
#     4  10  19  31  47  68  97 130 162 192 223 264
#     4   9  18  31  47  69  98 130 161 192 224 265
#     4   9  18  31  47  69  94 120 152 189 230 276
#     4  10  18  27  41  63  92 121 149 182 222 271
#     4   9  19  35  53  72  92 116 150 195 244 287
#     4  10  19  31  47  66  90 119 152 190 232 277
#
# _framework density 17.426190999999999
#
# number of rings (size 3 to 8) (size 9 to 14) (size 15 to 20)
#    0.000    2.500    0.000    2.500    0.000    3.000 
#    0.000    0.000    0.000    1.000    0.000    7.000 
#    0.000    0.000    0.000    0.000    0.000    0.000 
#
# Total GULP energy -594797.786589 kJ/mol
# GULP energy per Si atom -12391.620554 kJ/mol
# Density = 1.738653 g / cm^3
# Si number density = 17.426191 Si / 1000 Ang^3
#
#
#
# Elastic Constant Matrix: (Units=GPa)
#
#
# Indices 1 2 3 4 5 6 
#
# 1 84.7266 40.2207 45.9475 0.0000 0.0000 0.0000
# 2 40.2207 92.5798 38.4642 0.0000 0.0000 0.0000
# 3 45.9475 38.4642 80.8028 0.0000 0.0000 0.0000
# 4 0.0000 0.0000 0.0000 24.0415 0.0000 0.0000
# 5 0.0000 0.0000 0.0000 0.0000 22.3734 0.0000
# 6 0.0000 0.0000 0.0000 0.0000 0.0000 23.1015
#
#
#
# Elastic Compliance Matrix: (Units=1/GPa)
#
#
# Indices 1 2 3 4 5 6 
#
# 1 0.018496 -0.004569 -0.008342 0.000000 0.000000 0.000000
# 2 -0.004569 0.014593 -0.004348 0.000000 0.000000 0.000000
# 3 -0.008342 -0.004348 0.019189 0.000000 0.000000 0.000000
# 4 0.000000 0.000000 0.000000 0.041595 0.000000 0.000000
# 5 0.000000 0.000000 0.000000 0.000000 0.044696 0.000000
# 6 0.000000 0.000000 0.000000 0.000000 0.000000 0.043287
#
#
# Mechanical properties :
#
#
# Convention : Reuss Voigt Hill
#
# Bulk Modulus (GPa) = 56.31142 56.37489 56.34316
# Shear Modulus (GPa) = 22.49250 22.80173 22.64711
#
# Velocity S-wave (km/s) = 3.59657 3.62121 3.60891
# Velocity P-wave (km/s) = 7.04496 7.06435 7.05466
#
# Compressibility (1/GPa) = 0.01775839
#
# Stress axis : x y z
#
# Youngs Moduli (GPa) = 54.06616 68.52459 52.11187
#
# Poissons Ratio (x) = 0.31312 0.43473
# Poissons Ratio (y) = 0.24705 0.22660
# Poissons Ratio (z) = 0.45103 0.29797
#
# Static dielectric constant tensor:
#      x y z
#    x 3.401780 0.000000 0.000000 
#    y 0.000000 3.354520 0.000000 
#    z 0.000000 0.000000 3.190780 
# 
# 
# High freq. dielectric constant tensor:
#      x y z
#    x 1.681580 0.000000 0.000000 
#    y 0.000000 1.670060 0.000000 
#    z 0.000000 0.000000 1.640000 
# 
# From -- ./inp_files/33857.got.cif
#   From: 2010.03.12/outbox.cif.g09.slc.cpg/sg53_17_cif.got.tgz:33857.got - 2010.04.16 14:36:59.
