data_PCOD8217131
_publ_section_title
;
Structure prediction by ZEFSAII (Michael W. Deem and Ramdas Pophale) SiO2 
 PCOD8217131
Probable space group: P N N A
;
_chemical_formula_sum "Si O2"
_cell_formula_units_Z 56
_cell_length_a 14.061023
_cell_length_b 20.445351
_cell_length_c 9.524150
_cell_angle_alpha 90.000000
_cell_angle_beta 90.000000
_cell_angle_gamma 90.000000
_cell_volume 2738.026935
_symmetry_space_group_name_H-M "P N N A"
_symmetry_group_IT_number 52
_symmetry_cell_setting 'orthorhombic'
loop_
_space_group_symop_operation_xyz
x,y,z
1/2-x,-y,z
x,1/2-y,1/2-z
1/2-x,1/2+y,1/2-z
-x,-y,-z
1/2+x,y,-z
-x,1/2+y,1/2+z
1/2+x,1/2-y,1/2+z
loop_
_atom_site_type_symbol
_atom_site_label
_atom_site_fract_x
_atom_site_fract_y
_atom_site_fract_z
Si Si1 0.158081 0.249910 0.088855
Si Si2 0.058734 0.025553 0.627372
Si Si3 0.770856 0.612336 0.016053
Si Si4 0.399655 0.380324 0.188113
Si Si5 0.622323 0.891244 0.256086
Si Si6 0.044651 0.712437 0.949066
Si Si7 0.173242 0.827956 0.016371
O O1 0.187628 0.250000 0.250000
O O2 0.181809 0.320594 0.028087
O O3 0.213891 0.188068 0.021730
O O4 0.046536 0.240375 0.062453
O O5 0.148921 0.059501 0.552452
O O6 0.984705 0.068397 0.719541
O O7 0.090348 0.965851 0.725421
O O8 0.000000 0.000000 0.500000
O O9 0.692106 0.589944 0.897518
O O10 0.717922 0.624673 0.161184
O O11 0.453178 0.326847 0.093918
O O12 0.366699 0.348007 0.332566
O O13 0.546103 0.837698 0.315433
O O14 0.646539 0.885034 0.091764
O O15 0.133780 0.760244 0.954315
#
# Coordination Sequence:
#
# PCOD8217131 Si02
#       7
#     8   8   8   8   8   8   8
#     4  12  21  37  67  98 135 168 215 271 336 396
#     4  12  23  43  72  93 123 176 234 266 318 388
#     4  11  22  40  66  96 124 172 226 264 319 399
#     4  11  23  42  68  97 130 174 219 276 326 391
#     4  11  24  41  65  94 135 175 218 277 321 392
#     4  11  22  41  66  98 129 175 220 260 326 404
#     4  12  24  42  62  99 142 164 209 282 341 384
#
# _framework density 20.452686
#
# number of rings (size 3 to 8) (size 9 to 14) (size 15 to 20)
#    0.000    0.571    8.571    2.143    0.000    1.714 
#    2.571    0.000    6.286    0.000    0.000    0.000 
#    0.000    0.000    0.000    0.000    0.000    0.000 
#
# Total GULP energy -693980.327472 kJ/mol
# GULP energy per Si atom -12392.505848 kJ/mol
# Density = 2.040613 g / cm^3
# Si number density = 20.452686 Si / 1000 Ang^3
#
#
#
# Elastic Constant Matrix: (Units=GPa)
#
#
# Indices 1 2 3 4 5 6 
#
# 1 116.2504 42.3558 38.1051 0.0000 0.0000 0.0000
# 2 42.3558 87.6768 35.7100 0.0000 0.0000 0.0000
# 3 38.1051 35.7100 117.7196 0.0000 0.0000 0.0000
# 4 0.0000 0.0000 0.0000 24.2348 0.0000 0.0000
# 5 0.0000 0.0000 0.0000 0.0000 15.3806 0.0000
# 6 0.0000 0.0000 0.0000 0.0000 0.0000 34.8055
#
#
#
# Elastic Compliance Matrix: (Units=1/GPa)
#
#
# Indices 1 2 3 4 5 6 
#
# 1 0.010920 -0.004376 -0.002207 0.000000 0.000000 0.000000
# 2 -0.004376 0.014767 -0.003063 0.000000 0.000000 0.000000
# 3 -0.002207 -0.003063 0.010138 0.000000 0.000000 0.000000
# 4 0.000000 0.000000 0.000000 0.041263 0.000000 0.000000
# 5 0.000000 0.000000 0.000000 0.000000 0.065017 0.000000
# 6 0.000000 0.000000 0.000000 0.000000 0.000000 0.028731
#
#
# Mechanical properties :
#
#
# Convention : Reuss Voigt Hill
#
# Bulk Modulus (GPa) = 60.48682 61.55427 61.02055
# Shear Modulus (GPa) = 25.55701 28.58258 27.06979
#
# Velocity S-wave (km/s) = 3.53876 3.74237 3.64199
# Velocity P-wave (km/s) = 6.80700 6.98821 6.89820
#
# Compressibility (1/GPa) = 0.01653253
#
# Stress axis : x y z
#
# Youngs Moduli (GPa) = 91.57373 67.71731 98.63515
#
# Poissons Ratio (x) = 0.29636 0.21771
# Poissons Ratio (y) = 0.40077 0.30212
# Poissons Ratio (z) = 0.20212 0.20742
#
# Static dielectric constant tensor:
#      x y z
#    x 3.504010 0.000000 0.000000 
#    y 0.000000 2.906560 0.000000 
#    z 0.000000 0.000000 3.701400 
# 
# 
# High freq. dielectric constant tensor:
#      x y z
#    x 1.814890 0.000000 0.000000 
#    y 0.000000 1.791870 0.000000 
#    z 0.000000 0.000000 1.787300 
# 
# From -- ./inp_files/10833.got.cif
#   From: 2010.06.25/outbox.cif.g09.slc.cpg/sg52_6_cif.got.tgz:10833.got - 2010.06.26 19:32:48.
