data_PCOD8217710
_publ_section_title
;
Structure prediction by ZEFSAII (Michael W. Deem and Ramdas Pophale) SiO2 
 PCOD8217710
Probable space group: P M N A
;
_chemical_formula_sum "Si O2"
_cell_formula_units_Z 64
_cell_length_a 8.935099
_cell_length_b 21.787282
_cell_length_c 18.254815
_cell_angle_alpha 90.000000
_cell_angle_beta 90.000000
_cell_angle_gamma 90.000000
_cell_volume 3553.692613
_symmetry_space_group_name_H-M "P M N A"
_symmetry_group_IT_number 53
_symmetry_cell_setting 'orthorhombic'
loop_
_space_group_symop_operation_xyz
x,y,z
1/2-x,-y,1/2+z
x,-y,-z
1/2-x,y,1/2-z
-x,-y,-z
1/2+x,y,1/2-z
-x,y,z
1/2+x,-y,1/2+z
loop_
_atom_site_type_symbol
_atom_site_label
_atom_site_fract_x
_atom_site_fract_y
_atom_site_fract_z
Si Si1 0.321537 0.935201 0.973298
Si Si2 0.824776 0.126527 0.325226
Si Si3 0.831435 0.503661 0.586905
Si Si4 0.322967 0.813831 0.043114
Si Si5 0.825006 0.380705 0.907276
Si Si6 0.822339 0.730986 0.327030
Si Si7 0.825485 0.626398 0.921610
Si Si8 0.324404 0.748284 0.898898
O O1 0.500000 0.938139 0.972956
O O2 0.265920 0.916717 0.891684
O O3 0.264508 0.883351 0.030828
O O4 0.252824 0.000000 0.000000
O O5 0.750000 0.104973 0.250000
O O6 0.786727 0.197961 0.341032
O O7 0.000000 0.117681 0.316780
O O8 0.832167 0.500000 0.500000
O O9 0.732943 0.447552 0.617471
O O10 0.756873 0.567319 0.612484
O O11 0.000000 0.499775 0.618092
O O12 0.500000 0.814504 0.037091
O O13 0.269428 0.786751 0.120383
O O14 0.264640 0.770177 0.978150
O O15 0.736288 0.332880 0.857926
O O16 0.000000 0.375908 0.890290
O O17 0.789288 0.367916 0.992190
O O18 0.750000 0.746484 0.250000
O O19 0.000000 0.727294 0.320219
O O20 0.764970 0.686414 0.879181
O O21 0.000000 0.618698 0.906926
O O22 0.500000 0.733265 0.900003
#
# Coordination Sequence:
#
# PCOD8217710 Si02
#       8
#     8   8   8   8   8   8   8   8
#     4   8  14  28  52  79 103 133 175 212 243 289
#     4   9  18  31  50  76 105 135 168 209 251 299
#     4   9  17  28  44  66  93 127 162 197 246 303
#     4   8  15  28  47  69  94 126 165 208 247 290
#     4  10  19  31  46  67  96 125 162 210 259 307
#     4  11  21  33  49  68  95 131 171 214 260 307
#     4  10  18  27  44  72 100 124 157 207 260 302
#     4   9  16  29  48  69  94 128 168 204 245 300
#
# _framework density 18.009436000000001
#
# number of rings (size 3 to 8) (size 9 to 14) (size 15 to 20)
#    0.000    2.750    1.250    3.000    0.000    3.000 
#    0.000    0.625    0.000    1.125    0.000    3.500 
#    0.000    0.000    0.000    0.000    0.000    0.000 
#
# Total GULP energy -793365.668131 kJ/mol
# GULP energy per Si atom -12396.338565 kJ/mol
# Density = 1.796845 g / cm^3
# Si number density = 18.009436 Si / 1000 Ang^3
#
#
#
# Elastic Constant Matrix: (Units=GPa)
#
#
# Indices 1 2 3 4 5 6 
#
# 1 57.6013 34.5631 30.5537 0.0000 0.0000 0.0000
# 2 34.5631 149.9246 53.2023 0.0000 0.0000 0.0000
# 3 30.5537 53.2023 92.2402 0.0000 0.0000 0.0000
# 4 0.0000 0.0000 0.0000 15.1012 0.0000 0.0000
# 5 0.0000 0.0000 0.0000 0.0000 22.7715 0.0000
# 6 0.0000 0.0000 0.0000 0.0000 0.0000 13.4818
#
#
#
# Elastic Compliance Matrix: (Units=1/GPa)
#
#
# Indices 1 2 3 4 5 6 
#
# 1 0.022186 -0.003152 -0.005531 0.000000 0.000000 0.000000
# 2 -0.003152 0.008834 -0.004051 0.000000 0.000000 0.000000
# 3 -0.005531 -0.004051 0.015010 0.000000 0.000000 0.000000
# 4 0.000000 0.000000 0.000000 0.066220 0.000000 0.000000
# 5 0.000000 0.000000 0.000000 0.000000 0.043914 0.000000
# 6 0.000000 0.000000 0.000000 0.000000 0.000000 0.074174
#
#
# Mechanical properties :
#
#
# Convention : Reuss Voigt Hill
#
# Bulk Modulus (GPa) = 48.63397 59.60048 54.11723
# Shear Modulus (GPa) = 19.03597 22.36739 20.70168
#
# Velocity S-wave (km/s) = 3.25468 3.52800 3.39409
# Velocity P-wave (km/s) = 6.41773 7.05419 6.74347
#
# Compressibility (1/GPa) = 0.02056176
#
# Stress axis : x y z
#
# Youngs Moduli (GPa) = 45.07399 113.19454 66.62194
#
# Poissons Ratio (x) = 0.35678 0.36847
# Poissons Ratio (y) = 0.14207 0.26991
# Poissons Ratio (z) = 0.24930 0.45860
#
# Static dielectric constant tensor:
#      x y z
#    x 3.094680 0.000000 0.000000 
#    y 0.000000 3.593620 0.000000 
#    z 0.000000 0.000000 3.228850 
# 
# 
# High freq. dielectric constant tensor:
#      x y z
#    x 1.678560 0.000000 0.000000 
#    y 0.000000 1.702050 0.000000 
#    z 0.000000 0.000000 1.664610 
# 
# From -- ./inp_files/27051.got.cif
#   From: 2010.03.12/outbox.cif.g09.slc.cpg/sg53_14_cif.got.tgz:27051.got - 2010.04.16 14:36:59.
