data_PCOD8217436
_publ_section_title
;
Structure prediction by ZEFSAII (Michael W. Deem and Ramdas Pophale) SiO2 
 PCOD8217436
Probable space group: P N N A
;
_chemical_formula_sum "Si O2"
_cell_formula_units_Z 16
_cell_length_a 16.963691
_cell_length_b 4.724530
_cell_length_c 7.989310
_cell_angle_alpha 90.000000
_cell_angle_beta 90.000000
_cell_angle_gamma 90.000000
_cell_volume 640.306981
_symmetry_space_group_name_H-M "P N N A"
_symmetry_group_IT_number 52
_symmetry_cell_setting 'orthorhombic'
loop_
_space_group_symop_operation_xyz
x,y,z
1/2-x,-y,z
x,1/2-y,1/2-z
1/2-x,1/2+y,1/2-z
-x,-y,-z
1/2+x,y,-z
-x,1/2+y,1/2+z
1/2+x,1/2-y,1/2+z
loop_
_atom_site_type_symbol
_atom_site_label
_atom_site_fract_x
_atom_site_fract_y
_atom_site_fract_z
Si Si1 0.169446 0.641054 0.437462
Si Si2 0.920609 0.640784 0.063482
O O1 0.250000 0.500000 0.503066
O O2 0.179367 0.750000 0.250000
O O3 0.100368 0.406165 0.444320
O O4 0.148649 0.906317 0.556092
O O5 0.931014 0.750000 0.250000
O O6 0.000000 0.500000 0.000000
#
# Coordination Sequence:
#
# PCOD8217436 Si02
#       2
#     8   8
#     4  12  26  48  76 107 146 194 245 302 368 438
#     4  12  27  48  75 109 150 194 244 304 366 434
#
# _framework density 24.988014
#
# number of rings (size 3 to 8) (size 9 to 14) (size 15 to 20)
#    0.000    0.000    0.000   10.500    0.000    8.000 
#    0.000    2.500    0.000    0.000    0.000    0.000 
#    0.000    0.000    0.000    0.000    0.000    0.000 
#
# Total GULP energy -198508.340567 kJ/mol
# GULP energy per Si atom -12406.771285 kJ/mol
# Density = 2.493114 g / cm^3
# Si number density = 24.988014 Si / 1000 Ang^3
#
#
#
# Elastic Constant Matrix: (Units=GPa)
#
#
# Indices 1 2 3 4 5 6 
#
# 1 98.8471 55.7154 77.8316 0.0000 0.0000 0.0000
# 2 55.7154 188.4822 73.7298 0.0000 0.0000 0.0000
# 3 77.8316 73.7298 127.5619 0.0000 0.0000 0.0000
# 4 0.0000 0.0000 0.0000 67.7396 0.0000 0.0000
# 5 0.0000 0.0000 0.0000 0.0000 36.2355 0.0000
# 6 0.0000 0.0000 0.0000 0.0000 0.0000 74.0283
#
#
#
# Elastic Compliance Matrix: (Units=1/GPa)
#
#
# Indices 1 2 3 4 5 6 
#
# 1 0.019775 -0.001455 -0.011225 0.000000 0.000000 0.000000
# 2 -0.001455 0.006963 -0.003137 0.000000 0.000000 0.000000
# 3 -0.011225 -0.003137 0.016501 0.000000 0.000000 0.000000
# 4 0.000000 0.000000 0.000000 0.014762 0.000000 0.000000
# 5 0.000000 0.000000 0.000000 0.000000 0.027597 0.000000
# 6 0.000000 0.000000 0.000000 0.000000 0.000000 0.013508
#
#
# Mechanical properties :
#
#
# Convention : Reuss Voigt Hill
#
# Bulk Modulus (GPa) = 86.16106 92.16053 89.16080
# Shear Modulus (GPa) = 37.14492 49.44166 43.29329
#
# Velocity S-wave (km/s) = 3.85971 4.45299 4.16692
# Velocity P-wave (km/s) = 7.37692 7.96246 7.67528
#
# Compressibility (1/GPa) = 0.01160617
#
# Stress axis : x y z
#
# Youngs Moduli (GPa) = 50.56913 143.62550 60.60157
#
# Poissons Ratio (x) = 0.20891 0.68025
# Poissons Ratio (y) = 0.07356 0.19010
# Poissons Ratio (z) = 0.56763 0.45053
#
# Static dielectric constant tensor:
#      x y z
#    x 4.718390 0.000000 0.000000 
#    y 0.000000 5.928190 0.000000 
#    z 0.000000 0.000000 4.265840 
# 
# 
# High freq. dielectric constant tensor:
#      x y z
#    x 2.004860 0.000000 0.000000 
#    y 0.000000 2.036320 0.000000 
#    z 0.000000 0.000000 1.981090 
# 
# From -- ./inp_files/17312.got.cif
#   From: 2010.06.25/outbox.cif.g09.slc.cpg/sg52_9_cif.got.tgz:17312.got - 2010.06.26 19:32:48.
