data_PCOD8217148
_publ_section_title
;
Structure prediction by ZEFSAII (Michael W. Deem and Ramdas Pophale) SiO2 
 PCOD8217148
Probable space group: P N N A
;
_chemical_formula_sum "Si O2"
_cell_formula_units_Z 48
_cell_length_a 8.326296
_cell_length_b 26.687630
_cell_length_c 9.570313
_cell_angle_alpha 90.000000
_cell_angle_beta 90.000000
_cell_angle_gamma 90.000000
_cell_volume 2126.610705
_symmetry_space_group_name_H-M "P N N A"
_symmetry_group_IT_number 52
_symmetry_cell_setting 'orthorhombic'
loop_
_space_group_symop_operation_xyz
x,y,z
1/2-x,-y,z
x,1/2-y,1/2-z
1/2-x,1/2+y,1/2-z
-x,-y,-z
1/2+x,y,-z
-x,1/2+y,1/2+z
1/2+x,1/2-y,1/2+z
loop_
_atom_site_type_symbol
_atom_site_label
_atom_site_fract_x
_atom_site_fract_y
_atom_site_fract_z
Si Si1 0.178412 0.947942 0.372054
Si Si2 0.195204 0.344105 0.185604
Si Si3 0.696895 0.344976 0.311237
Si Si4 0.484610 0.804073 0.554652
Si Si5 0.197774 0.052411 0.680335
Si Si6 0.483328 0.692003 0.447531
O O1 0.261856 0.902276 0.289798
O O2 0.205190 0.942444 0.536756
O O3 0.990321 0.945751 0.347333
O O4 0.250000 0.000000 0.313933
O O5 0.340773 0.313563 0.116747
O O6 0.152916 0.318428 0.331836
O O7 0.044852 0.340546 0.078285
O O8 0.650714 0.315884 0.170226
O O9 0.747026 0.402221 0.281475
O O10 0.547259 0.344326 0.419640
O O11 0.842615 0.316186 0.383663
O O12 0.464822 0.747924 0.502865
O O13 0.250000 0.000000 0.752567
#
# Coordination Sequence:
#
# PCOD8217148 Si02
#       6
#     8   8   8   8   8   8
#     4  11  22  41  75 109 142 181 239 301 358 416
#     4  12  24  45  73 107 142 182 244 294 362 420
#     4  12  26  49  72 102 148 187 245 293 363 430
#     4  12  25  47  70 101 140 193 239 293 352 428
#     4  11  24  43  73 109 142 190 239 301 356 428
#     4  12  29  45  71 103 146 193 233 300 356 434
#
# _framework density 22.571128999999999
#
# number of rings (size 3 to 8) (size 9 to 14) (size 15 to 20)
#    0.000    0.333    3.333    6.000    4.667    2.667 
#    0.000    3.333    0.000    0.000    0.000    0.000 
#    0.000    0.000    0.000    0.000    0.000    0.000 
#
# Total GULP energy -595471.096844 kJ/mol
# GULP energy per Si atom -12405.647851 kJ/mol
# Density = 2.251976 g / cm^3
# Si number density = 22.571129 Si / 1000 Ang^3
#
#
#
# Elastic Constant Matrix: (Units=GPa)
#
#
# Indices 1 2 3 4 5 6 
#
# 1 54.4116 43.1123 12.5322 0.0000 0.0000 0.0000
# 2 43.1123 166.6009 73.6974 0.0000 0.0000 0.0000
# 3 12.5322 73.6974 98.4085 0.0000 0.0000 0.0000
# 4 0.0000 0.0000 0.0000 -7.0805 0.0000 0.0000
# 5 0.0000 0.0000 0.0000 0.0000 32.3861 0.0000
# 6 0.0000 0.0000 0.0000 0.0000 0.0000 39.4193
#
#
#
# Elastic Compliance Matrix: (Units=1/GPa)
#
#
# Indices 1 2 3 4 5 6 
#
# 1 0.023471 -0.007105 0.002332 0.000000 0.000000 0.000000
# 2 -0.007105 0.011127 -0.007428 0.000000 0.000000 0.000000
# 3 0.002332 -0.007428 0.015427 0.000000 0.000000 0.000000
# 4 0.000000 0.000000 0.000000 -0.141233 0.000000 0.000000
# 5 0.000000 0.000000 0.000000 0.000000 0.030877 0.000000
# 6 0.000000 0.000000 0.000000 0.000000 0.000000 0.025368
#
#
# Mechanical properties :
#
#
# Convention : Reuss Voigt Hill
#
# Bulk Modulus (GPa) = 39.02731 64.23386 51.63058
# Shear Modulus (GPa) = -2477.70049 25.61693 -1226.04178
#
# Velocity S-wave (km/s) = -33.16795 3.37255 -23.33173
# Velocity P-wave (km/s) = 38.07216 6.60951 26.51229
#
# Compressibility (1/GPa) = 0.02562308
#
# Stress axis : x y z
#
# Youngs Moduli (GPa) = 42.60547 89.87204 64.81934
#
# Poissons Ratio (x) = 0.63858 -0.15117
# Poissons Ratio (y) = 0.30273 0.48148
# Poissons Ratio (z) = -0.09936 0.66757
#
# Static dielectric constant tensor:
#      x y z
#    x 4.188940 0.000000 0.000000 
#    y 0.000000 4.519800 0.000000 
#    z 0.000000 0.000000 4.218050 
# 
# 
# High freq. dielectric constant tensor:
#      x y z
#    x 1.907710 0.000000 0.000000 
#    y 0.000000 1.899970 0.000000 
#    z 0.000000 0.000000 1.877300 
# 
# From -- ./inp_files/7713.got.cif
#   From: 2010.06.25/outbox.cif.g09.slc.cpg/sg52_4_cif.got.tgz:7713.got - 2010.06.26 19:32:48.
