data_PCOD8217049
_publ_section_title
;
Structure prediction by ZEFSAII (Michael W. Deem and Ramdas Pophale) SiO2 
 PCOD8217049
Probable space group: P N N A
;
_chemical_formula_sum "Si O2"
_cell_formula_units_Z 48
_cell_length_a 15.434102
_cell_length_b 9.291096
_cell_length_c 17.372284
_cell_angle_alpha 90.000000
_cell_angle_beta 90.000000
_cell_angle_gamma 90.000000
_cell_volume 2491.180720
_symmetry_space_group_name_H-M "P N N A"
_symmetry_group_IT_number 52
_symmetry_cell_setting 'orthorhombic'
loop_
_space_group_symop_operation_xyz
x,y,z
1/2-x,-y,z
x,1/2-y,1/2-z
1/2-x,1/2+y,1/2-z
-x,-y,-z
1/2+x,y,-z
-x,1/2+y,1/2+z
1/2+x,1/2-y,1/2+z
loop_
_atom_site_type_symbol
_atom_site_label
_atom_site_fract_x
_atom_site_fract_y
_atom_site_fract_z
Si Si1 0.596319 0.522203 0.088385
Si Si2 0.371100 0.724709 0.662703
Si Si3 0.283755 0.284545 0.571450
Si Si4 0.957880 0.780907 0.659124
Si Si5 0.177179 0.386076 0.049372
Si Si6 0.445649 0.028275 0.924861
O O1 0.628251 0.383339 0.130854
O O2 0.666688 0.644931 0.101076
O O3 0.508305 0.576771 0.128651
O O4 0.599893 0.472369 0.997701
O O5 0.393168 0.750000 0.750000
O O6 0.275474 0.661946 0.643267
O O7 0.441130 0.618839 0.623877
O O8 0.221213 0.242645 0.500121
O O9 0.350841 0.411898 0.550248
O O10 0.952877 0.750000 0.750000
O O11 0.862076 0.806504 0.624317
O O12 0.003697 0.641588 0.626001
O O13 0.250000 0.500000 0.076006
O O14 0.500000 0.000000 0.000000
#
# Coordination Sequence:
#
# PCOD8217049 Si02
#       6
#     8   8   8   8   8   8
#     4   9  19  36  56  78 107 147 189 224 267 333
#     4  11  21  33  53  84 117 147 184 233 289 340
#     4   9  20  36  56  80 107 145 189 233 276 328
#     4  11  22  37  57  84 115 144 179 231 285 329
#     4   9  18  36  60  81 102 142 195 230 264 328
#     4  11  23  38  57  83 116 153 188 229 283 340
#
# _framework density 19.267972
#
# number of rings (size 3 to 8) (size 9 to 14) (size 15 to 20)
#    0.000    2.000    0.000    5.500    0.000    8.000 
#    0.000    1.667    0.000    1.000    0.000    0.000 
#    0.000    0.000    0.000    0.000    0.000    0.000 
#
# Total GULP energy -594641.110521 kJ/mol
# GULP energy per Si atom -12388.356469 kJ/mol
# Density = 1.922412 g / cm^3
# Si number density = 19.267972 Si / 1000 Ang^3
#
#
#
# Elastic Constant Matrix: (Units=GPa)
#
#
# Indices 1 2 3 4 5 6 
#
# 1 73.4201 16.5764 62.4461 0.0000 0.0000 0.0000
# 2 16.5764 56.3166 37.2249 0.0000 0.0000 0.0000
# 3 62.4461 37.2249 145.9651 0.0000 0.0000 0.0000
# 4 0.0000 0.0000 0.0000 21.1022 0.0000 0.0000
# 5 0.0000 0.0000 0.0000 0.0000 21.8591 0.0000
# 6 0.0000 0.0000 0.0000 0.0000 0.0000 -24.4618
#
#
#
# Elastic Compliance Matrix: (Units=1/GPa)
#
#
# Indices 1 2 3 4 5 6 
#
# 1 0.021415 -0.000298 -0.009086 0.000000 0.000000 0.000000
# 2 -0.000298 0.021361 -0.005320 0.000000 0.000000 0.000000
# 3 -0.009086 -0.005320 0.012095 0.000000 0.000000 0.000000
# 4 0.000000 0.000000 0.000000 0.047388 0.000000 0.000000
# 5 0.000000 0.000000 0.000000 0.000000 0.045748 0.000000
# 6 0.000000 0.000000 0.000000 0.000000 0.000000 -0.040880
#
#
# Mechanical properties :
#
#
# Convention : Reuss Voigt Hill
#
# Bulk Modulus (GPa) = 39.27199 56.46631 47.86915
# Shear Modulus (GPa) = 34.47737 14.33018 24.40377
#
# Velocity S-wave (km/s) = 4.23467 2.73010 3.56272
# Velocity P-wave (km/s) = 6.65854 6.26956 6.46698
#
# Compressibility (1/GPa) = 0.02546344
#
# Stress axis : x y z
#
# Youngs Moduli (GPa) = 46.69564 46.81421 82.67998
#
# Poissons Ratio (x) = 0.01394 0.75122
# Poissons Ratio (y) = 0.01390 0.43988
# Poissons Ratio (z) = 0.42427 0.24906
#
# Static dielectric constant tensor:
#      x y z
#    x 3.709690 0.000000 0.000000 
#    y 0.000000 3.675270 0.000000 
#    z 0.000000 0.000000 3.017140 
# 
# 
# High freq. dielectric constant tensor:
#      x y z
#    x 1.744750 0.000000 0.000000 
#    y 0.000000 1.765660 0.000000 
#    z 0.000000 0.000000 1.727460 
# 
# From -- ./inp_files/28028.got.cif
#   From: 2010.06.25/outbox.cif.g09.slc.cpg/sg52_15_cif.got.tgz:28028.got - 2010.06.26 19:32:48.
