data_PCOD8217051
_publ_section_title
;
Structure prediction by ZEFSAII (Michael W. Deem and Ramdas Pophale) SiO2 
 PCOD8217051
Probable space group: P N N A
;
_chemical_formula_sum "Si O2"
_cell_formula_units_Z 64
_cell_length_a 9.479597
_cell_length_b 22.525094
_cell_length_c 17.165772
_cell_angle_alpha 90.000000
_cell_angle_beta 90.000000
_cell_angle_gamma 90.000000
_cell_volume 3665.386928
_symmetry_space_group_name_H-M "P N N A"
_symmetry_group_IT_number 52
_symmetry_cell_setting 'orthorhombic'
loop_
_space_group_symop_operation_xyz
x,y,z
1/2-x,-y,z
x,1/2-y,1/2-z
1/2-x,1/2+y,1/2-z
-x,-y,-z
1/2+x,y,-z
-x,1/2+y,1/2+z
1/2+x,1/2-y,1/2+z
loop_
_atom_site_type_symbol
_atom_site_label
_atom_site_fract_x
_atom_site_fract_y
_atom_site_fract_z
Si Si1 0.225902 0.630231 0.847347
Si Si2 0.247086 0.866990 0.349538
Si Si3 0.489095 0.918765 0.571922
Si Si4 0.485230 0.551754 0.107158
Si Si5 0.161152 0.753992 0.919383
Si Si6 0.842386 0.190080 0.799148
Si Si7 0.156677 0.311112 0.703880
Si Si8 0.662636 0.252335 0.575708
O O1 0.335804 0.608071 0.912417
O O2 0.104374 0.581129 0.838909
O O3 0.159027 0.692239 0.873345
O O4 0.296819 0.636470 0.762431
O O5 0.100237 0.870917 0.396166
O O6 0.332651 0.927425 0.363599
O O7 0.217015 0.861244 0.257401
O O8 0.334606 0.810940 0.381053
O O9 0.512512 0.926881 0.480735
O O10 0.506898 0.981233 0.616050
O O11 0.231359 0.805553 0.866428
O O12 0.999645 0.771018 0.939007
O O13 0.254766 0.747286 0.995594
O O14 0.848964 0.250000 0.750000
O O15 0.737993 0.197191 0.872184
O O16 0.000163 0.173971 0.828808
O O17 0.149505 0.250000 0.750000
#
# Coordination Sequence:
#
# PCOD8217051 Si02
#       8
#     8   8   8   8   8   8   8   8
#     4  11  21  34  53  72 102 142 176 210 257 299
#     4  11  21  34  53  72 102 142 176 210 257 299
#     4  11  22  36  49  72 103 141 178 219 256 286
#     4  11  22  34  51  74 103 135 182 223 246 294
#     4  11  22  33  53  78 105 134 170 209 254 312
#     4   9  19  34  51  72 101 134 170 209 253 306
#     4   9  19  34  51  72 101 134 170 209 253 306
#     4  11  22  33  53  78 105 134 170 209 254 312
#
# _framework density 17.460640000000001
#
# number of rings (size 3 to 8) (size 9 to 14) (size 15 to 20)
#    0.000    1.500    2.500    3.750    5.250    3.500 
#    0.000    0.000    0.000    0.000    0.000    0.000 
#    0.000    6.000    0.000    0.000    0.000    0.000 
#
# Total GULP energy -793776.753944 kJ/mol
# GULP energy per Si atom -12402.761780 kJ/mol
# Density = 1.742090 g / cm^3
# Si number density = 17.460640 Si / 1000 Ang^3
#
#
#
# Elastic Constant Matrix: (Units=GPa)
#
#
# Indices 1 2 3 4 5 6 
#
# 1 123.4509 15.3602 35.5512 0.0000 0.0000 0.0000
# 2 15.3602 46.2204 22.1885 0.0000 0.0000 0.0000
# 3 35.5512 22.1885 50.0863 0.0000 0.0000 0.0000
# 4 0.0000 0.0000 0.0000 22.6475 0.0000 0.0000
# 5 0.0000 0.0000 0.0000 0.0000 28.8110 0.0000
# 6 0.0000 0.0000 0.0000 0.0000 0.0000 19.5237
#
#
#
# Elastic Compliance Matrix: (Units=1/GPa)
#
#
# Indices 1 2 3 4 5 6 
#
# 1 0.010182 0.000109 -0.007275 0.000000 0.000000 0.000000
# 2 0.000109 0.027481 -0.012251 0.000000 0.000000 0.000000
# 3 -0.007275 -0.012251 0.030557 0.000000 0.000000 0.000000
# 4 0.000000 0.000000 0.000000 0.044155 0.000000 0.000000
# 5 0.000000 0.000000 0.000000 0.000000 0.034709 0.000000
# 6 0.000000 0.000000 0.000000 0.000000 0.000000 0.051220
#
#
# Mechanical properties :
#
#
# Convention : Reuss Voigt Hill
#
# Bulk Modulus (GPa) = 34.03222 40.66194 37.34708
# Shear Modulus (GPa) = 20.24833 23.97362 22.11098
#
# Velocity S-wave (km/s) = 3.40907 3.70943 3.56242
# Velocity P-wave (km/s) = 5.91851 6.45638 6.19329
#
# Compressibility (1/GPa) = 0.02938392
#
# Stress axis : x y z
#
# Youngs Moduli (GPa) = 98.21255 36.38918 32.72568
#
# Poissons Ratio (x) = -0.00396 0.23809
# Poissons Ratio (y) = -0.01069 0.40094
# Poissons Ratio (z) = 0.71454 0.44582
#
# Static dielectric constant tensor:
#      x y z
#    x 3.443850 0.000000 0.000000 
#    y 0.000000 3.045340 0.000000 
#    z 0.000000 0.000000 3.211250 
# 
# 
# High freq. dielectric constant tensor:
#      x y z
#    x 1.698800 0.000000 0.000000 
#    y 0.000000 1.632580 0.000000 
#    z 0.000000 0.000000 1.653720 
# 
# From -- ./inp_files/25132.got.cif
#   From: 2010.06.25/outbox.cif.g09.slc.cpg/sg52_13_cif.got.tgz:25132.got - 2010.06.26 19:32:48.
