data_PCOD8217357
_publ_section_title
;
Structure prediction by ZEFSAII (Michael W. Deem and Ramdas Pophale) SiO2 
 PCOD8217357
Probable space group: P N N A
;
_chemical_formula_sum "Si O2"
_cell_formula_units_Z 40
_cell_length_a 18.415958
_cell_length_b 12.126772
_cell_length_c 8.450726
_cell_angle_alpha 90.000000
_cell_angle_beta 90.000000
_cell_angle_gamma 90.000000
_cell_volume 1887.267881
_symmetry_space_group_name_H-M "P N N A"
_symmetry_group_IT_number 52
_symmetry_cell_setting 'orthorhombic'
loop_
_space_group_symop_operation_xyz
x,y,z
1/2-x,-y,z
x,1/2-y,1/2-z
1/2-x,1/2+y,1/2-z
-x,-y,-z
1/2+x,y,-z
-x,1/2+y,1/2+z
1/2+x,1/2-y,1/2+z
loop_
_atom_site_type_symbol
_atom_site_label
_atom_site_fract_x
_atom_site_fract_y
_atom_site_fract_z
Si Si1 0.141872 0.132609 0.275731
Si Si2 0.918782 0.957144 0.046336
Si Si3 0.038426 0.250000 0.750000
Si Si4 0.502775 0.873272 0.460338
Si Si5 0.250000 0.500000 0.007527
Si Si6 0.146782 0.870069 0.721528
O O1 0.181111 0.250000 0.250000
O O2 0.069886 0.163143 0.373326
O O3 0.194612 0.061455 0.380444
O O4 0.123200 0.070429 0.114081
O O5 0.916861 0.850492 0.165128
O O6 0.870167 0.053238 0.126479
O O7 0.000000 0.000000 0.000000
O O8 0.986890 0.195511 0.620373
O O9 0.569922 0.844009 0.354638
O O10 0.500000 0.000000 0.500000
O O11 0.203570 0.577548 0.896558
O O12 0.181691 0.750000 0.750000
#
# Coordination Sequence:
#
# PCOD8217357 Si02
#       6
#     8   8   4   8   4   8
#     4  12  25  47  74 105 144 189 246 301 365 432
#     4  12  24  43  76 113 136 185 246 303 367 423
#     4  12  22  38  74 110 142 178 232 312 364 412
#     4  12  21  44  75 109 140 185 243 308 354 423
#     4  12  30  48  66 104 152 198 234 294 372 454
#     4  12  27  49  75 106 149 190 246 301 366 436
#
# _framework density 21.194659999999999
#
# number of rings (size 3 to 8) (size 9 to 14) (size 15 to 20)
#    0.000    0.000    8.000    1.800    0.000    4.000 
#    3.600    0.000    0.000    0.000    0.000    0.000 
#    0.000    0.000    0.000    0.000    0.000    0.000 
#
# Total GULP energy -495862.303742 kJ/mol
# GULP energy per Si atom -12396.557594 kJ/mol
# Density = 2.114642 g / cm^3
# Si number density = 21.194660 Si / 1000 Ang^3
#
#
#
# Elastic Constant Matrix: (Units=GPa)
#
#
# Indices 1 2 3 4 5 6 
#
# 1 110.0382 46.4817 64.7426 0.0000 0.0000 0.0000
# 2 46.4817 176.0882 81.5841 0.0000 0.0000 0.0000
# 3 64.7426 81.5841 164.5690 0.0000 0.0000 0.0000
# 4 0.0000 0.0000 0.0000 53.4409 0.0000 0.0000
# 5 0.0000 0.0000 0.0000 0.0000 42.5233 0.0000
# 6 0.0000 0.0000 0.0000 0.0000 0.0000 54.8823
#
#
#
# Elastic Compliance Matrix: (Units=1/GPa)
#
#
# Indices 1 2 3 4 5 6 
#
# 1 0.012042 -0.001277 -0.004104 0.000000 0.000000 0.000000
# 2 -0.001277 0.007508 -0.003219 0.000000 0.000000 0.000000
# 3 -0.004104 -0.003219 0.009287 0.000000 0.000000 0.000000
# 4 0.000000 0.000000 0.000000 0.018712 0.000000 0.000000
# 5 0.000000 0.000000 0.000000 0.000000 0.023516 0.000000
# 6 0.000000 0.000000 0.000000 0.000000 0.000000 0.018221
#
#
# Mechanical properties :
#
#
# Convention : Reuss Voigt Hill
#
# Bulk Modulus (GPa) = 85.94659 92.92357 89.43508
# Shear Modulus (GPa) = 45.30352 47.36178 46.33265
#
# Velocity S-wave (km/s) = 4.62832 4.73229 4.68060
# Velocity P-wave (km/s) = 8.31871 8.59055 8.45572
#
# Compressibility (1/GPa) = 0.01163513
#
# Stress axis : x y z
#
# Youngs Moduli (GPa) = 83.04233 133.19609 107.67544
#
# Poissons Ratio (x) = 0.17011 0.44193
# Poissons Ratio (y) = 0.10606 0.34666
# Poissons Ratio (z) = 0.34083 0.42882
#
# Static dielectric constant tensor:
#      x y z
#    x 3.974530 0.000000 0.000000 
#    y 0.000000 3.969820 0.000000 
#    z 0.000000 0.000000 4.225650 
# 
# 
# High freq. dielectric constant tensor:
#      x y z
#    x 1.806950 0.000000 0.000000 
#    y 0.000000 1.859570 0.000000 
#    z 0.000000 0.000000 1.855450 
# 
# From -- ./inp_files/11679.got.cif
#   From: 2010.06.25/outbox.cif.g09.slc.cpg/sg52_6_cif.got.tgz:11679.got - 2010.06.26 19:32:48.
