data_PCOD8217753
_publ_section_title
;
Structure prediction by ZEFSAII (Michael W. Deem and Ramdas Pophale) SiO2 
 PCOD8217753
Probable space group: P M N A
;
_chemical_formula_sum "Si O2"
_cell_formula_units_Z 56
_cell_length_a 8.615361
_cell_length_b 15.981348
_cell_length_c 24.643905
_cell_angle_alpha 90.000000
_cell_angle_beta 90.000000
_cell_angle_gamma 90.000000
_cell_volume 3393.098088
_symmetry_space_group_name_H-M "P M N A"
_symmetry_group_IT_number 53
_symmetry_cell_setting 'orthorhombic'
loop_
_space_group_symop_operation_xyz
x,y,z
1/2-x,-y,1/2+z
x,-y,-z
1/2-x,y,1/2-z
-x,-y,-z
1/2+x,y,1/2-z
-x,y,z
1/2+x,-y,1/2+z
loop_
_atom_site_type_symbol
_atom_site_label
_atom_site_fract_x
_atom_site_fract_y
_atom_site_fract_z
Si Si1 0.316666 0.526927 0.417914
Si Si2 0.681884 0.202248 0.484784
Si Si3 0.317870 0.620715 0.985002
Si Si4 0.180657 0.872822 0.408788
Si Si5 0.682169 0.771856 0.194572
Si Si6 0.815806 0.581632 0.307225
Si Si7 0.671618 0.032510 0.439070
O O1 0.500000 0.539914 0.419823
O O2 0.273219 0.437161 0.442666
O O3 0.236282 0.600125 0.453565
O O4 0.256538 0.528729 0.356332
O O5 0.500000 0.222808 0.481767
O O6 0.780799 0.283776 0.470266
O O7 0.719938 0.170897 0.544846
O O8 0.727458 0.129472 0.441242
O O9 0.500000 0.603672 0.979853
O O10 0.239503 0.831534 0.353363
O O11 0.000000 0.856191 0.419728
O O12 0.212342 0.972920 0.405332
O O13 0.750000 0.808831 0.250000
O O14 0.500000 0.772498 0.199362
O O15 0.740500 0.677250 0.184672
O O16 0.750000 0.547055 0.250000
O O17 0.000000 0.572111 0.307875
O O18 0.500000 0.027045 0.412977
O O19 0.664915 0.000000 0.500000
#
# Coordination Sequence:
#
# PCOD8217753 Si02
#       7
#     8   8   8   8   8   8   8
#     4  11  21  34  50  70  96 127 160 193 235 286
#     4  10  19  31  46  66  92 122 155 187 225 275
#     4  11  21  33  49  70  96 126 158 196 239 283
#     4  10  18  28  44  67  93 121 153 189 228 268
#     4   9  19  31  44  64  90 119 152 188 223 264
#     4  10  19  33  50  70  96 126 161 199 237 277
#     4   8  16  29  43  62  89 119 150 182 217 263
#
# _framework density 16.504092
#
# number of rings (size 3 to 8) (size 9 to 14) (size 15 to 20)
#    0.000    2.143    0.000    6.429    0.000    6.000 
#    0.000    0.000    0.000    0.000    0.000    1.000 
#    0.000    4.571    0.000    0.000    0.000    0.000 
#
# Total GULP energy -694339.350842 kJ/mol
# GULP energy per Si atom -12398.916979 kJ/mol
# Density = 1.646653 g / cm^3
# Si number density = 16.504092 Si / 1000 Ang^3
#
#
#
# Elastic Constant Matrix: (Units=GPa)
#
#
# Indices 1 2 3 4 5 6 
#
# 1 62.0072 14.1835 19.2923 0.0000 0.0000 0.0000
# 2 14.1835 82.6423 27.6619 0.0000 0.0000 0.0000
# 3 19.2923 27.6619 88.7436 0.0000 0.0000 0.0000
# 4 0.0000 0.0000 0.0000 19.0775 0.0000 0.0000
# 5 0.0000 0.0000 0.0000 0.0000 26.7698 0.0000
# 6 0.0000 0.0000 0.0000 0.0000 0.0000 27.0819
#
#
#
# Elastic Compliance Matrix: (Units=1/GPa)
#
#
# Indices 1 2 3 4 5 6 
#
# 1 0.017571 -0.001939 -0.003215 0.000000 0.000000 0.000000
# 2 -0.001939 0.013724 -0.003856 0.000000 0.000000 0.000000
# 3 -0.003215 -0.003856 0.013169 0.000000 0.000000 0.000000
# 4 0.000000 0.000000 0.000000 0.052418 0.000000 0.000000
# 5 0.000000 0.000000 0.000000 0.000000 0.037356 0.000000
# 6 0.000000 0.000000 0.000000 0.000000 0.000000 0.036925
#
#
# Mechanical properties :
#
#
# Convention : Reuss Voigt Hill
#
# Bulk Modulus (GPa) = 37.81780 39.51874 38.66827
# Shear Modulus (GPa) = 25.25266 26.06954 25.66110
#
# Velocity S-wave (km/s) = 3.91587 3.97870 3.94741
# Velocity P-wave (km/s) = 6.58858 6.71592 6.65255
#
# Compressibility (1/GPa) = 0.02644258
#
# Stress axis : x y z
#
# Youngs Moduli (GPa) = 56.91137 72.86538 75.93347
#
# Poissons Ratio (x) = 0.14132 0.24415
# Poissons Ratio (y) = 0.11038 0.29282
# Poissons Ratio (z) = 0.18299 0.28098
#
# Static dielectric constant tensor:
#      x y z
#    x 3.149290 0.000000 0.000000 
#    y 0.000000 3.322340 0.000000 
#    z 0.000000 0.000000 3.019230 
# 
# 
# High freq. dielectric constant tensor:
#      x y z
#    x 1.648000 0.000000 0.000000 
#    y 0.000000 1.627770 0.000000 
#    z 0.000000 0.000000 1.605400 
# 
# From -- ./inp_files/34376.got.cif
#   From: 2010.03.12/outbox.cif.g09.slc.cpg/sg53_18_cif.got.tgz:34376.got - 2010.04.16 14:36:59.
