data_PCOD8217853
_publ_section_title
;
Structure prediction by ZEFSAII (Michael W. Deem and Ramdas Pophale) SiO2 
 PCOD8217853
Probable space group: P M N A
;
_chemical_formula_sum "Si O2"
_cell_formula_units_Z 48
_cell_length_a 14.016909
_cell_length_b 9.752833
_cell_length_c 19.659521
_cell_angle_alpha 90.000000
_cell_angle_beta 90.000000
_cell_angle_gamma 90.000000
_cell_volume 2687.546417
_symmetry_space_group_name_H-M "P M N A"
_symmetry_group_IT_number 53
_symmetry_cell_setting 'orthorhombic'
loop_
_space_group_symop_operation_xyz
x,y,z
1/2-x,-y,1/2+z
x,-y,-z
1/2-x,y,1/2-z
-x,-y,-z
1/2+x,y,1/2-z
-x,y,z
1/2+x,-y,1/2+z
loop_
_atom_site_type_symbol
_atom_site_label
_atom_site_fract_x
_atom_site_fract_y
_atom_site_fract_z
Si Si1 0.388319 0.657203 0.982864
Si Si2 0.387159 0.992492 0.201715
Si Si3 0.112360 0.288910 0.330729
Si Si4 0.391117 0.578931 0.210107
Si Si5 0.108483 0.204984 0.822342
Si Si6 0.295526 0.779999 0.108707
O O1 0.500000 0.690367 0.992380
O O2 0.326667 0.756079 0.031455
O O3 0.366759 0.500000 0.000000
O O4 0.350370 0.689403 0.907407
O O5 0.500000 0.982482 0.193665
O O6 0.357665 0.916766 0.271557
O O7 0.343324 0.918505 0.136078
O O8 0.347896 0.148723 0.202715
O O9 0.141423 0.419879 0.284398
O O10 0.000000 0.275330 0.334133
O O11 0.500000 0.588765 0.183328
O O12 0.381376 0.649965 0.283223
O O13 0.326717 0.651550 0.154266
O O14 0.180069 0.206178 0.886274
O O15 0.000000 0.183036 0.848031
#
# Coordination Sequence:
#
# PCOD8217853 Si02
#       6
#     8   8   8   8   8   8
#     4  10  18  29  48  75 105 130 153 187 234 297
#     4   9  17  29  46  71 100 124 150 193 242 292
#     4   9  17  28  45  74 105 129 150 180 240 301
#     4   9  15  27  47  71  97 125 155 192 239 295
#     4   9  19  33  48  66  91 126 170 209 239 272
#     4  11  18  29  47  68  96 130 165 195 234 286
#
# _framework density 17.860157000000001
#
# number of rings (size 3 to 8) (size 9 to 14) (size 15 to 20)
#    0.000    2.500    1.667    4.500    0.000    0.667 
#    0.000    5.833    0.000    0.500    0.000    2.333 
#    0.000    0.000    0.000    0.000    0.000    0.000 
#
# Total GULP energy -595016.072269 kJ/mol
# GULP energy per Si atom -12396.168172 kJ/mol
# Density = 1.781951 g / cm^3
# Si number density = 17.860157 Si / 1000 Ang^3
#
#
#
# Elastic Constant Matrix: (Units=GPa)
#
#
# Indices 1 2 3 4 5 6 
#
# 1 59.1385 20.7787 26.7632 0.0000 0.0000 0.0000
# 2 20.7787 132.3208 20.8651 0.0000 0.0000 0.0000
# 3 26.7632 20.8651 42.7561 0.0000 0.0000 0.0000
# 4 0.0000 0.0000 0.0000 13.5292 0.0000 0.0000
# 5 0.0000 0.0000 0.0000 0.0000 23.2651 0.0000
# 6 0.0000 0.0000 0.0000 0.0000 0.0000 3.8953
#
#
#
# Elastic Compliance Matrix: (Units=1/GPa)
#
#
# Indices 1 2 3 4 5 6 
#
# 1 0.023867 -0.001508 -0.014204 0.000000 0.000000 0.000000
# 2 -0.001508 0.008283 -0.003098 0.000000 0.000000 0.000000
# 3 -0.014204 -0.003098 0.033791 0.000000 0.000000 0.000000
# 4 0.000000 0.000000 0.000000 0.073914 0.000000 0.000000
# 5 0.000000 0.000000 0.000000 0.000000 0.042983 0.000000
# 6 0.000000 0.000000 0.000000 0.000000 0.000000 0.256722
#
#
# Mechanical properties :
#
#
# Convention : Reuss Voigt Hill
#
# Bulk Modulus (GPa) = 35.30902 41.22549 38.26726
# Shear Modulus (GPa) = 10.27496 19.19181 14.73338
#
# Velocity S-wave (km/s) = 2.40114 3.28160 2.87528
# Velocity P-wave (km/s) = 5.24404 6.12299 5.70048
#
# Compressibility (1/GPa) = 0.02832137
#
# Stress axis : x y z
#
# Youngs Moduli (GPa) = 41.89834 120.73314 29.59361
#
# Poissons Ratio (x) = 0.18209 0.42034
# Poissons Ratio (y) = 0.06319 0.09168
# Poissons Ratio (z) = 0.59511 0.37402
#
# Static dielectric constant tensor:
#      x y z
#    x 3.157730 0.000000 0.000000 
#    y 0.000000 3.726120 0.000000 
#    z 0.000000 0.000000 2.999280 
# 
# 
# High freq. dielectric constant tensor:
#      x y z
#    x 1.672610 0.000000 0.000000 
#    y 0.000000 1.699240 0.000000 
#    z 0.000000 0.000000 1.647560 
# 
# From -- ./inp_files/32282.got.cif
#   From: 2010.03.12/outbox.cif.g09.slc.cpg/sg53_17_cif.got.tgz:32282.got - 2010.04.16 14:36:59.
