data_PCOD8217758
_publ_section_title
;
Structure prediction by ZEFSAII (Michael W. Deem and Ramdas Pophale) SiO2 
 PCOD8217758
Probable space group: P M N A
;
_chemical_formula_sum "Si O2"
_cell_formula_units_Z 64
_cell_length_a 9.142848
_cell_length_b 21.993521
_cell_length_c 18.066456
_cell_angle_alpha 90.000000
_cell_angle_beta 90.000000
_cell_angle_gamma 90.000000
_cell_volume 3632.864751
_symmetry_space_group_name_H-M "P M N A"
_symmetry_group_IT_number 53
_symmetry_cell_setting 'orthorhombic'
loop_
_space_group_symop_operation_xyz
x,y,z
1/2-x,-y,1/2+z
x,-y,-z
1/2-x,y,1/2-z
-x,-y,-z
1/2+x,y,1/2-z
-x,y,z
1/2+x,-y,1/2+z
loop_
_atom_site_type_symbol
_atom_site_label
_atom_site_fract_x
_atom_site_fract_y
_atom_site_fract_z
Si Si1 0.673495 0.245252 0.600480
Si Si2 0.673473 0.272351 0.327999
Si Si3 0.827316 0.874843 0.175937
Si Si4 0.173036 0.388504 0.080912
Si Si5 0.826513 0.185070 0.046735
Si Si6 0.826575 0.505204 0.172556
Si Si7 0.325855 0.378255 0.585077
Si Si8 0.673798 0.064625 0.524344
O O1 0.500000 0.244347 0.597195
O O2 0.724717 0.194879 0.660150
O O3 0.734736 0.227251 0.519539
O O4 0.728360 0.313546 0.619228
O O5 0.750000 0.267357 0.250000
O O6 0.500000 0.274623 0.316697
O O7 0.731277 0.332295 0.370269
O O8 0.723551 0.212989 0.375028
O O9 0.750000 0.898691 0.250000
O O10 0.777283 0.917514 0.107535
O O11 0.000000 0.878504 0.187298
O O12 0.222610 0.451361 0.118005
O O13 0.000000 0.383857 0.076102
O O14 0.238040 0.385931 0.997890
O O15 0.000000 0.185989 0.042016
O O16 0.770601 0.115880 0.034129
O O17 0.750000 0.494058 0.250000
O O18 0.767477 0.568089 0.137509
O O19 0.000000 0.505752 0.184243
O O20 0.500000 0.381466 0.581588
O O21 0.500000 0.061206 0.522033
O O22 0.742865 0.000000 0.500000
#
# Coordination Sequence:
#
# PCOD8217758 Si02
#       8
#     8   8   8   8   8   8   8   8
#     4   8  13  24  43  66  86 108 143 184 218 249
#     4  10  18  28  45  67  90 115 143 180 224 265
#     4   9  17  28  45  69  94 118 146 182 223 263
#     4   9  16  28  46  66  85 110 149 189 219 252
#     4   8  13  24  42  63  86 112 144 180 216 253
#     4  10  20  31  44  64  89 115 143 180 224 266
#     4   9  15  26  46  68  85 107 148 193 219 247
#     4   8  14  26  46  69  89 115 155 193 215 243
#
# _framework density 17.616949999999999
#
# number of rings (size 3 to 8) (size 9 to 14) (size 15 to 20)
#    0.000    3.125    1.250    2.250    0.000    2.000 
#    0.000    0.625    0.000    5.625    0.000    0.000 
#    0.000    0.000    0.000    0.000    0.000    0.000 
#
# Total GULP energy -793080.753196 kJ/mol
# GULP energy per Si atom -12391.886769 kJ/mol
# Density = 1.757685 g / cm^3
# Si number density = 17.616950 Si / 1000 Ang^3
#
#
#
# Elastic Constant Matrix: (Units=GPa)
#
#
# Indices 1 2 3 4 5 6 
#
# 1 12.7065 13.2997 18.2543 0.0000 0.0000 0.0000
# 2 13.2997 143.0497 44.4610 0.0000 0.0000 0.0000
# 3 18.2543 44.4610 87.0195 0.0000 0.0000 0.0000
# 4 0.0000 0.0000 0.0000 23.9183 0.0000 0.0000
# 5 0.0000 0.0000 0.0000 0.0000 24.9602 0.0000
# 6 0.0000 0.0000 0.0000 0.0000 0.0000 6.7518
#
#
#
# Elastic Compliance Matrix: (Units=1/GPa)
#
#
# Indices 1 2 3 4 5 6 
#
# 1 0.114337 -0.003775 -0.022056 0.000000 0.000000 0.000000
# 2 -0.003775 0.008435 -0.003518 0.000000 0.000000 0.000000
# 3 -0.022056 -0.003518 0.017916 0.000000 0.000000 0.000000
# 4 0.000000 0.000000 0.000000 0.041809 0.000000 0.000000
# 5 0.000000 0.000000 0.000000 0.000000 0.040064 0.000000
# 6 0.000000 0.000000 0.000000 0.000000 0.000000 0.148109
#
#
# Mechanical properties :
#
#
# Convention : Reuss Voigt Hill
#
# Bulk Modulus (GPa) = 12.19656 43.86729 28.03192
# Shear Modulus (GPa) = 10.94816 22.24343 16.59580
#
# Velocity S-wave (km/s) = 2.49561 3.55719 3.07259
# Velocity P-wave (km/s) = 3.90414 6.46731 5.34174
#
# Compressibility (1/GPa) = 0.08199031
#
# Stress axis : x y z
#
# Youngs Moduli (GPa) = 8.74605 118.55510 55.81681
#
# Poissons Ratio (x) = 0.44755 1.23110
# Poissons Ratio (y) = 0.03302 0.19635
# Poissons Ratio (z) = 0.19290 0.41705
#
# Static dielectric constant tensor:
#      x y z
#    x 2.586040 0.000000 0.000000 
#    y 0.000000 3.777150 0.000000 
#    z 0.000000 0.000000 3.300930 
# 
# 
# High freq. dielectric constant tensor:
#      x y z
#    x 1.607690 0.000000 0.000000 
#    y 0.000000 1.691370 0.000000 
#    z 0.000000 0.000000 1.681900 
# 
# From -- ./inp_files/27746.got.cif
#   From: 2010.03.12/outbox.cif.g09.slc.cpg/sg53_14_cif.got.tgz:27746.got - 2010.04.16 14:36:59.
