data_PCOD8217433
_publ_section_title
;
Structure prediction by ZEFSAII (Michael W. Deem and Ramdas Pophale) SiO2 
 PCOD8217433
Probable space group: P N N A
;
_chemical_formula_sum "Si O2"
_cell_formula_units_Z 40
_cell_length_a 8.597101
_cell_length_b 20.229013
_cell_length_c 9.122837
_cell_angle_alpha 90.000000
_cell_angle_beta 90.000000
_cell_angle_gamma 90.000000
_cell_volume 1586.560500
_symmetry_space_group_name_H-M "P N N A"
_symmetry_group_IT_number 52
_symmetry_cell_setting 'orthorhombic'
loop_
_space_group_symop_operation_xyz
x,y,z
1/2-x,-y,z
x,1/2-y,1/2-z
1/2-x,1/2+y,1/2-z
-x,-y,-z
1/2+x,y,-z
-x,1/2+y,1/2+z
1/2+x,1/2-y,1/2+z
loop_
_atom_site_type_symbol
_atom_site_label
_atom_site_fract_x
_atom_site_fract_y
_atom_site_fract_z
Si Si1 0.599775 0.204610 0.088519
Si Si2 0.900822 0.363445 0.812108
Si Si3 0.105993 0.708874 0.905596
Si Si4 0.934379 0.623330 0.680436
Si Si5 0.064837 0.003284 0.663401
O O1 0.507773 0.195422 0.242854
O O2 0.773463 0.230564 0.121021
O O3 0.543076 0.262718 0.985245
O O4 0.577918 0.136064 0.995104
O O5 0.741608 0.368585 0.727974
O O6 0.006758 0.426586 0.780370
O O7 0.848730 0.350756 0.981879
O O8 0.049352 0.678107 0.751900
O O9 0.996464 0.551308 0.725183
O O10 0.250000 0.000000 0.663582
O O11 0.000000 0.000000 0.500000
#
# Coordination Sequence:
#
# PCOD8217433 Si02
#       5
#     8   8   8   8   8
#     4  12  28  47  76 116 157 197 249 310 391 449
#     4  12  27  51  77 111 154 202 254 318 374 452
#     4  12  26  47  76 110 156 198 249 306 380 460
#     4  12  27  51  77 111 154 201 257 315 375 453
#     4  12  28  49  78 111 149 204 263 314 380 453
#
# _framework density 25.211769
#
# number of rings (size 3 to 8) (size 9 to 14) (size 15 to 20)
#    0.000    0.000    6.000    3.000    5.600    2.400 
#    0.000    0.000    0.000    0.000    0.000    0.000 
#    0.000    0.000    0.000    0.000    0.000    0.000 
#
# Total GULP energy -495642.129195 kJ/mol
# GULP energy per Si atom -12391.053230 kJ/mol
# Density = 2.515439 g / cm^3
# Si number density = 25.211769 Si / 1000 Ang^3
#
#
#
# Elastic Constant Matrix: (Units=GPa)
#
#
# Indices 1 2 3 4 5 6 
#
# 1 157.2184 60.5922 37.0167 0.0000 0.0000 0.0000
# 2 60.5922 143.4628 43.8671 0.0000 0.0000 0.0000
# 3 37.0167 43.8671 140.5138 0.0000 0.0000 0.0000
# 4 0.0000 0.0000 0.0000 37.9782 0.0000 0.0000
# 5 0.0000 0.0000 0.0000 0.0000 42.4692 0.0000
# 6 0.0000 0.0000 0.0000 0.0000 0.0000 54.1744
#
#
#
# Elastic Compliance Matrix: (Units=1/GPa)
#
#
# Indices 1 2 3 4 5 6 
#
# 1 0.007756 -0.002931 -0.001128 0.000000 0.000000 0.000000
# 2 -0.002931 0.008813 -0.001979 0.000000 0.000000 0.000000
# 3 -0.001128 -0.001979 0.008032 0.000000 0.000000 0.000000
# 4 0.000000 0.000000 0.000000 0.026331 0.000000 0.000000
# 5 0.000000 0.000000 0.000000 0.000000 0.023546 0.000000
# 6 0.000000 0.000000 0.000000 0.000000 0.000000 0.018459
#
#
# Mechanical properties :
#
#
# Convention : Reuss Voigt Hill
#
# Bulk Modulus (GPa) = 79.84388 80.46079 80.15234
# Shear Modulus (GPa) = 45.79222 46.90564 46.34893
#
# Velocity S-wave (km/s) = 4.26643 4.31799 4.29229
# Velocity P-wave (km/s) = 7.48385 7.53945 7.51170
#
# Compressibility (1/GPa) = 0.01252444
#
# Stress axis : x y z
#
# Youngs Moduli (GPa) = 128.93732 113.46239 124.50324
#
# Poissons Ratio (x) = 0.33252 0.14047
# Poissons Ratio (y) = 0.37787 0.24645
# Poissons Ratio (z) = 0.14547 0.22459
#
# Static dielectric constant tensor:
#      x y z
#    x 4.070350 0.000000 0.000000 
#    y 0.000000 4.838140 0.000000 
#    z 0.000000 0.000000 5.190900 
# 
# 
# High freq. dielectric constant tensor:
#      x y z
#    x 2.022360 0.000000 0.000000 
#    y 0.000000 2.011000 0.000000 
#    z 0.000000 0.000000 2.025090 
# 
# From -- ./inp_files/7433.got.cif
#   From: 2010.06.25/outbox.cif.g09.slc.cpg/sg52_4_cif.got.tgz:7433.got - 2010.06.26 19:32:48.
