data_PCOD8217015
_publ_section_title
;
Structure prediction by ZEFSAII (Michael W. Deem and Ramdas Pophale) SiO2 
 PCOD8217015
Probable space group: P N N A
;
_chemical_formula_sum "Si O2"
_cell_formula_units_Z 60
_cell_length_a 22.309594
_cell_length_b 12.024961
_cell_length_c 11.677795
_cell_angle_alpha 90.000000
_cell_angle_beta 90.000000
_cell_angle_gamma 90.000000
_cell_volume 3132.825394
_symmetry_space_group_name_H-M "P N N A"
_symmetry_group_IT_number 52
_symmetry_cell_setting 'orthorhombic'
loop_
_space_group_symop_operation_xyz
x,y,z
1/2-x,-y,z
x,1/2-y,1/2-z
1/2-x,1/2+y,1/2-z
-x,-y,-z
1/2+x,y,-z
-x,1/2+y,1/2+z
1/2+x,1/2-y,1/2+z
loop_
_atom_site_type_symbol
_atom_site_label
_atom_site_fract_x
_atom_site_fract_y
_atom_site_fract_z
Si Si1 0.547432 0.250000 0.750000
Si Si2 0.871108 0.722324 0.539508
Si Si3 0.181065 0.015766 0.162184
Si Si4 0.990951 0.468015 0.188116
Si Si5 0.314051 0.553989 0.071475
Si Si6 0.079332 0.592355 0.033227
Si Si7 0.409541 0.183674 0.133827
Si Si8 0.041888 0.348850 0.662772
O O1 0.584657 0.229142 0.634925
O O2 0.510616 0.363881 0.733554
O O3 0.837515 0.614828 0.581105
O O4 0.821942 0.820901 0.520335
O O5 0.907565 0.685512 0.427216
O O6 0.142282 0.908474 0.127363
O O7 0.250000 0.000000 0.134080
O O8 0.172317 0.051345 0.293247
O O9 0.943611 0.538358 0.265522
O O10 0.045957 0.550642 0.150860
O O11 0.964269 0.418642 0.073244
O O12 0.250000 0.500000 0.043143
O O13 0.362440 0.479607 0.006796
O O14 0.099208 0.720969 0.038056
O O15 0.401541 0.250000 0.250000
O O16 0.475304 0.130564 0.110142
O O17 0.036000 0.250000 0.750000
#
# Coordination Sequence:
#
# PCOD8217015 Si02
#       8
#     4   8   8   8   8   8   8   8
#     4  12  22  36  58  96 126 160 200 252 314 370
#     4  12  23  39  61  90 130 159 202 259 308 380
#     4  11  24  38  59  88 124 162 202 256 315 373
#     4  11  22  36  60  90 126 161 199 252 313 371
#     4  11  22  37  61  89 120 162 208 252 302 366
#     4  11  20  38  60  88 123 158 205 253 295 374
#     4  11  20  35  57  88 122 161 198 245 307 373
#     4  11  22  38  62  91 121 164 205 244 314 373
#
# _framework density 19.152041000000001
#
# number of rings (size 3 to 8) (size 9 to 14) (size 15 to 20)
#    0.000    0.800    6.667    2.400    1.867    3.200 
#    0.000    0.000    0.000    3.200    0.000    0.000 
#    0.000    0.000    0.000    0.000    0.000    0.000 
#
# Total GULP energy -743752.922878 kJ/mol
# GULP energy per Si atom -12395.882048 kJ/mol
# Density = 1.910845 g / cm^3
# Si number density = 19.152041 Si / 1000 Ang^3
#
#
#
# Elastic Constant Matrix: (Units=GPa)
#
#
# Indices 1 2 3 4 5 6 
#
# 1 105.8621 55.5570 28.2697 0.0000 0.0000 0.0000
# 2 55.5570 149.8121 31.5861 0.0000 0.0000 0.0000
# 3 28.2697 31.5861 41.5439 0.0000 0.0000 0.0000
# 4 0.0000 0.0000 0.0000 25.8790 0.0000 0.0000
# 5 0.0000 0.0000 0.0000 0.0000 21.5710 0.0000
# 6 0.0000 0.0000 0.0000 0.0000 0.0000 24.6357
#
#
#
# Elastic Compliance Matrix: (Units=1/GPa)
#
#
# Indices 1 2 3 4 5 6 
#
# 1 0.012920 -0.003498 -0.006132 0.000000 0.000000 0.000000
# 2 -0.003498 0.008897 -0.004384 0.000000 0.000000 0.000000
# 3 -0.006132 -0.004384 0.031576 0.000000 0.000000 0.000000
# 4 0.000000 0.000000 0.000000 0.038641 0.000000 0.000000
# 5 0.000000 0.000000 0.000000 0.000000 0.046358 0.000000
# 6 0.000000 0.000000 0.000000 0.000000 0.000000 0.040591
#
#
# Mechanical properties :
#
#
# Convention : Reuss Voigt Hill
#
# Bulk Modulus (GPa) = 39.42405 58.67154 49.04779
# Shear Modulus (GPa) = 23.20550 26.53751 24.87151
#
# Velocity S-wave (km/s) = 3.48465 3.72643 3.60757
# Velocity P-wave (km/s) = 6.06793 7.01543 6.55881
#
# Compressibility (1/GPa) = 0.02536523
#
# Stress axis : x y z
#
# Youngs Moduli (GPa) = 77.40152 112.40236 31.66933
#
# Poissons Ratio (x) = 0.39323 0.19419
# Poissons Ratio (y) = 0.27078 0.13883
# Poissons Ratio (z) = 0.47460 0.49273
#
# Static dielectric constant tensor:
#      x y z
#    x 3.570430 0.000000 0.000000 
#    y 0.000000 3.824590 0.000000 
#    z 0.000000 0.000000 3.156970 
# 
# 
# High freq. dielectric constant tensor:
#      x y z
#    x 1.726120 0.000000 0.000000 
#    y 0.000000 1.770630 0.000000 
#    z 0.000000 0.000000 1.712900 
# 
# From -- ./inp_files/21746.got.cif
#   From: 2010.06.25/outbox.cif.g09.slc.cpg/sg52_11_cif.got.tgz:21746.got - 2010.06.26 19:32:48.
