data_PCOD8217935
_publ_section_title
;
Structure prediction by ZEFSAII (Michael W. Deem and Ramdas Pophale) SiO2 
 PCOD8217935
Probable space group: P M N A
;
_chemical_formula_sum "Si O2"
_cell_formula_units_Z 64
_cell_length_a 22.902076
_cell_length_b 11.815495
_cell_length_c 12.752540
_cell_angle_alpha 90.000000
_cell_angle_beta 90.000000
_cell_angle_gamma 90.000000
_cell_volume 3450.829219
_symmetry_space_group_name_H-M "P M N A"
_symmetry_group_IT_number 53
_symmetry_cell_setting 'orthorhombic'
loop_
_space_group_symop_operation_xyz
x,y,z
1/2-x,-y,1/2+z
x,-y,-z
1/2-x,y,1/2-z
-x,-y,-z
1/2+x,y,1/2-z
-x,y,z
1/2+x,-y,1/2+z
loop_
_atom_site_type_symbol
_atom_site_label
_atom_site_fract_x
_atom_site_fract_y
_atom_site_fract_z
Si Si1 0.146148 0.868617 0.229165
Si Si2 0.566709 0.240355 0.107739
Si Si3 0.067006 0.328639 0.830202
Si Si4 0.842445 0.876437 0.469339
Si Si5 0.434832 0.077689 0.302549
Si Si6 0.567499 0.580487 0.727489
Si Si7 0.892086 0.264126 0.055775
Si Si8 0.288565 0.127531 0.525982
O O1 0.104714 0.760649 0.232287
O O2 0.168187 0.880320 0.345922
O O3 0.200691 0.852447 0.150460
O O4 0.110187 0.976142 0.188285
O O5 0.500000 0.230957 0.066001
O O6 0.579012 0.149383 0.198418
O O7 0.577915 0.365989 0.156388
O O8 0.611332 0.216332 0.011825
O O9 0.082849 0.448823 0.777531
O O10 0.000000 0.300510 0.810680
O O11 0.080276 0.322280 0.953704
O O12 0.777687 0.850953 0.512950
O O13 0.866139 0.000000 0.500000
O O14 0.500000 0.027466 0.297654
O O15 0.430557 0.157771 0.404771
O O16 0.500000 0.603156 0.694518
O O17 0.610169 0.640679 0.644841
O O18 0.826816 0.218800 0.036980
O O19 0.307607 0.000000 0.500000
#
# Coordination Sequence:
#
# PCOD8217935 Si02
#       8
#     8   8   8   8   8   8   8   8
#     4  11  21  35  51  78 113 143 177 227 274 330
#     4   9  19  35  56  81 108 136 178 233 276 313
#     4  10  20  32  53  82 111 148 183 217 270 336
#     4  11  22  37  57  78 104 145 185 226 272 331
#     4  10  18  30  49  80 114 142 170 222 280 325
#     4   9  18  35  56  81 111 144 187 227 268 322
#     4  10  18  32  55  79 113 144 180 222 269 327
#     4  10  21  36  53  79 111 141 178 218 274 331
#
# _framework density 18.546267
#
# number of rings (size 3 to 8) (size 9 to 14) (size 15 to 20)
#    0.000    2.000    2.500    3.000    0.000    2.250 
#    0.000    5.000    0.000   11.250    0.000    0.000 
#    0.000    0.000    0.000    0.000    0.000    0.000 
#
# Total GULP energy -793413.149670 kJ/mol
# GULP energy per Si atom -12397.080464 kJ/mol
# Density = 1.850406 g / cm^3
# Si number density = 18.546267 Si / 1000 Ang^3
#
#
#
# Elastic Constant Matrix: (Units=GPa)
#
#
# Indices 1 2 3 4 5 6 
#
# 1 76.6255 37.7477 26.6178 0.0000 0.0000 0.0000
# 2 37.7477 99.0653 19.4838 0.0000 0.0000 0.0000
# 3 26.6178 19.4838 61.2919 0.0000 0.0000 0.0000
# 4 0.0000 0.0000 0.0000 24.5309 0.0000 0.0000
# 5 0.0000 0.0000 0.0000 0.0000 13.9008 0.0000
# 6 0.0000 0.0000 0.0000 0.0000 0.0000 15.3308
#
#
#
# Elastic Compliance Matrix: (Units=1/GPa)
#
#
# Indices 1 2 3 4 5 6 
#
# 1 0.017911 -0.005648 -0.005983 0.000000 0.000000 0.000000
# 2 -0.005648 0.012549 -0.001536 0.000000 0.000000 0.000000
# 3 -0.005983 -0.001536 0.019402 0.000000 0.000000 0.000000
# 4 0.000000 0.000000 0.000000 0.040765 0.000000 0.000000
# 5 0.000000 0.000000 0.000000 0.000000 0.071938 0.000000
# 6 0.000000 0.000000 0.000000 0.000000 0.000000 0.065228
#
#
# Mechanical properties :
#
#
# Convention : Reuss Voigt Hill
#
# Bulk Modulus (GPa) = 42.50395 44.96459 43.73427
# Shear Modulus (GPa) = 19.08611 20.96138 20.02375
#
# Velocity S-wave (km/s) = 3.21145 3.36552 3.28939
# Velocity P-wave (km/s) = 6.05960 6.27690 6.16921
#
# Compressibility (1/GPa) = 0.02352723
#
# Stress axis : x y z
#
# Youngs Moduli (GPa) = 55.83071 79.68986 51.54102
#
# Poissons Ratio (x) = 0.45010 0.30837
# Poissons Ratio (y) = 0.31534 0.07918
# Poissons Ratio (z) = 0.33404 0.12242
#
# Static dielectric constant tensor:
#      x y z
#    x 3.232450 0.000000 0.000000 
#    y 0.000000 3.409270 0.000000 
#    z 0.000000 0.000000 3.326560 
# 
# 
# High freq. dielectric constant tensor:
#      x y z
#    x 1.708660 0.000000 0.000000 
#    y 0.000000 1.710570 0.000000 
#    z 0.000000 0.000000 1.713110 
# 
# From -- ./inp_files/18864.got.cif
#   From: 2010.03.12/outbox.cif.g09.slc.cpg/sg53_10_cif.got.tgz:18864.got - 2010.04.16 14:36:59.
