data_PCOD8217828
_publ_section_title
;
Structure prediction by ZEFSAII (Michael W. Deem and Ramdas Pophale) SiO2 
 PCOD8217828
Probable space group: P M N A
;
_chemical_formula_sum "Si O2"
_cell_formula_units_Z 56
_cell_length_a 8.738688
_cell_length_b 13.783251
_cell_length_c 28.175430
_cell_angle_alpha 90.000000
_cell_angle_beta 90.000000
_cell_angle_gamma 90.000000
_cell_volume 3393.660953
_symmetry_space_group_name_H-M "P M N A"
_symmetry_group_IT_number 53
_symmetry_cell_setting 'orthorhombic'
loop_
_space_group_symop_operation_xyz
x,y,z
1/2-x,-y,1/2+z
x,-y,-z
1/2-x,y,1/2-z
-x,-y,-z
1/2+x,y,1/2-z
-x,y,z
1/2+x,-y,1/2+z
loop_
_atom_site_type_symbol
_atom_site_label
_atom_site_fract_x
_atom_site_fract_y
_atom_site_fract_z
Si Si1 0.180835 0.897814 0.015913
Si Si2 0.320307 0.386608 0.943047
Si Si3 0.676840 0.560706 0.607761
Si Si4 0.323845 0.297517 0.470040
Si Si5 0.820090 0.790832 0.108107
Si Si6 0.680311 0.488043 0.799667
Si Si7 0.679054 0.735801 0.200665
O O1 0.237738 0.869359 0.069006
O O2 0.000000 0.908944 0.017097
O O3 0.228189 0.814299 0.977928
O O4 0.256576 0.000000 0.000000
O O5 0.500000 0.373553 0.933607
O O6 0.268643 0.493291 0.928583
O O7 0.225859 0.314724 0.909829
O O8 0.280689 0.367574 0.997823
O O9 0.500000 0.529588 0.610772
O O10 0.693509 0.669100 0.584900
O O11 0.749874 0.557163 0.659862
O O12 0.500000 0.308767 0.487046
O O13 0.740992 0.806259 0.159142
O O14 0.000000 0.797223 0.115305
O O15 0.750000 0.523136 0.750000
O O16 0.500000 0.502156 0.798398
O O17 0.725466 0.376130 0.809707
O O18 0.750000 0.771434 0.250000
O O19 0.500000 0.747737 0.204442
#
# Coordination Sequence:
#
# PCOD8217828 Si02
#       7
#     8   8   8   8   8   8   8
#     4   8  15  30  51  72  93 118 153 194 234 281
#     4  11  20  29  42  63  92 126 159 190 225 265
#     4  11  20  30  45  64  92 125 157 191 227 269
#     4   9  19  32  46  67  91 120 155 190 230 276
#     4  10  18  29  47  69  94 125 157 191 233 278
#     4  10  20  32  46  65  91 125 162 194 228 268
#     4  10  19  30  45  66  94 126 159 193 227 271
#
# _framework density 16.501353000000002
#
# number of rings (size 3 to 8) (size 9 to 14) (size 15 to 20)
#    0.000    2.143    1.429    4.286    0.000    4.000 
#    0.000    0.000    0.000   10.714    0.000    1.000 
#    0.000    0.000    0.000    0.000    0.000    0.000 
#
# Total GULP energy -694189.608327 kJ/mol
# GULP energy per Si atom -12396.243006 kJ/mol
# Density = 1.646379 g / cm^3
# Si number density = 16.501353 Si / 1000 Ang^3
#
#
#
# Elastic Constant Matrix: (Units=GPa)
#
#
# Indices 1 2 3 4 5 6 
#
# 1 54.8154 20.9836 41.4460 0.0000 0.0000 0.0000
# 2 20.9836 78.7433 65.1114 0.0000 0.0000 0.0000
# 3 41.4460 65.1114 138.2052 0.0000 0.0000 0.0000
# 4 0.0000 0.0000 0.0000 18.3599 0.0000 0.0000
# 5 0.0000 0.0000 0.0000 0.0000 29.7038 0.0000
# 6 0.0000 0.0000 0.0000 0.0000 0.0000 7.7022
#
#
#
# Elastic Compliance Matrix: (Units=1/GPa)
#
#
# Indices 1 2 3 4 5 6 
#
# 1 0.023617 -0.000716 -0.006745 0.000000 0.000000 0.000000
# 2 -0.000716 0.020826 -0.009597 0.000000 0.000000 0.000000
# 3 -0.006745 -0.009597 0.013780 0.000000 0.000000 0.000000
# 4 0.000000 0.000000 0.000000 0.054466 0.000000 0.000000
# 5 0.000000 0.000000 0.000000 0.000000 0.033666 0.000000
# 6 0.000000 0.000000 0.000000 0.000000 0.000000 0.129833
#
#
# Mechanical properties :
#
#
# Convention : Reuss Voigt Hill
#
# Bulk Modulus (GPa) = 41.48240 58.53846 50.01043
# Shear Modulus (GPa) = 15.70652 20.76805 18.23728
#
# Velocity S-wave (km/s) = 3.08852 3.55148 3.32806
# Velocity P-wave (km/s) = 6.15727 7.23666 6.71868
#
# Compressibility (1/GPa) = 0.02410661
#
# Stress axis : x y z
#
# Youngs Moduli (GPa) = 42.34208 48.01781 72.57121
#
# Poissons Ratio (x) = 0.03439 0.48950
# Poissons Ratio (y) = 0.03032 0.69644
# Poissons Ratio (z) = 0.28560 0.46081
#
# Static dielectric constant tensor:
#      x y z
#    x 3.072410 0.000000 0.000000 
#    y 0.000000 2.984730 0.000000 
#    z 0.000000 0.000000 3.245180 
# 
# 
# High freq. dielectric constant tensor:
#      x y z
#    x 1.636210 0.000000 0.000000 
#    y 0.000000 1.585270 0.000000 
#    z 0.000000 0.000000 1.638910 
# 
# From -- ./inp_files/38363.got.cif
#   From: 2010.03.12/outbox.cif.g09.slc.cpg/sg53_20_cif.got.tgz:38363.got - 2010.04.16 14:36:59.
