data_PCOD8217742
_publ_section_title
;
Structure prediction by ZEFSAII (Michael W. Deem and Ramdas Pophale) SiO2 
 PCOD8217742
Probable space group: P M N A
;
_chemical_formula_sum "Si O2"
_cell_formula_units_Z 64
_cell_length_a 9.165136
_cell_length_b 18.505011
_cell_length_c 21.883843
_cell_angle_alpha 90.000000
_cell_angle_beta 90.000000
_cell_angle_gamma 90.000000
_cell_volume 3711.520398
_symmetry_space_group_name_H-M "P M N A"
_symmetry_group_IT_number 53
_symmetry_cell_setting 'orthorhombic'
loop_
_space_group_symop_operation_xyz
x,y,z
1/2-x,-y,1/2+z
x,-y,-z
1/2-x,y,1/2-z
-x,-y,-z
1/2+x,y,1/2-z
-x,y,z
1/2+x,-y,1/2+z
loop_
_atom_site_type_symbol
_atom_site_label
_atom_site_fract_x
_atom_site_fract_y
_atom_site_fract_z
Si Si1 0.160691 0.118670 0.917709
Si Si2 0.333910 0.153428 0.439565
Si Si3 0.169676 0.275370 0.910668
Si Si4 0.172130 0.544598 0.559164
Si Si5 0.172163 0.290752 0.463641
Si Si6 0.162163 0.340359 0.694302
Si Si7 0.839224 0.508009 0.692797
Si Si8 0.835299 0.014804 0.428165
O O1 0.186463 0.194262 0.882390
O O2 0.000000 0.087127 0.904897
O O3 0.272917 0.057288 0.895689
O O4 0.174083 0.140044 0.988495
O O5 0.500000 0.158472 0.416171
O O6 0.251616 0.228688 0.422914
O O7 0.254794 0.085380 0.407366
O O8 0.271414 0.283691 0.968446
O O9 0.235274 0.332209 0.864031
O O10 0.000000 0.292164 0.925858
O O11 0.237401 0.500000 0.500000
O O12 0.213767 0.628948 0.557720
O O13 0.234114 0.517871 0.625200
O O14 0.000000 0.531728 0.557873
O O15 0.000000 0.276671 0.461283
O O16 0.250000 0.303378 0.750000
O O17 0.142579 0.424243 0.706844
O O18 0.000000 0.305331 0.686752
O O19 0.750000 0.542968 0.750000
O O20 0.000000 0.544721 0.692508
O O21 0.000000 0.026469 0.406662
O O22 0.823067 0.000000 0.500000
#
# Coordination Sequence:
#
# PCOD8217742 Si02
#       8
#     8   8   8   8   8   8   8   8
#     4   8  15  25  36  52  77 111 143 172 211 256
#     4   9  16  26  38  53  80 114 143 175 217 263
#     4  10  19  30  43  61  89 120 149 182 222 269
#     4   9  17  30  48  69  93 122 156 193 235 284
#     4  10  18  28  44  64  86 115 151 187 224 269
#     4  10  19  31  48  66  85 112 148 188 227 269
#     4   9  18  33  51  70  92 120 155 194 237 282
#     4   9  15  22  35  55  77 104 142 181 211 249
#
# _framework density 17.243606
#
# number of rings (size 3 to 8) (size 9 to 14) (size 15 to 20)
#    0.000    2.750    0.000    3.375    0.000    7.500 
#    0.000    1.250    0.000    2.625    0.000    0.000 
#    0.000    1.000    0.000    9.250    0.000    6.250 
#
# Total GULP energy -792922.007741 kJ/mol
# GULP energy per Si atom -12389.406371 kJ/mol
# Density = 1.720436 g / cm^3
# Si number density = 17.243606 Si / 1000 Ang^3
#
#
#
# Elastic Constant Matrix: (Units=GPa)
#
#
# Indices 1 2 3 4 5 6 
#
# 1 99.3782 47.0191 16.5615 0.0000 0.0000 0.0000
# 2 47.0191 69.3501 19.0996 0.0000 0.0000 0.0000
# 3 16.5615 19.0996 60.6280 0.0000 0.0000 0.0000
# 4 0.0000 0.0000 0.0000 7.0277 0.0000 0.0000
# 5 0.0000 0.0000 0.0000 0.0000 15.5052 0.0000
# 6 0.0000 0.0000 0.0000 0.0000 0.0000 23.4301
#
#
#
# Elastic Compliance Matrix: (Units=1/GPa)
#
#
# Indices 1 2 3 4 5 6 
#
# 1 0.014867 -0.009813 -0.000970 0.000000 0.000000 0.000000
# 2 -0.009813 0.022266 -0.004334 0.000000 0.000000 0.000000
# 3 -0.000970 -0.004334 0.018124 0.000000 0.000000 0.000000
# 4 0.000000 0.000000 0.000000 0.142294 0.000000 0.000000
# 5 0.000000 0.000000 0.000000 0.000000 0.064494 0.000000
# 6 0.000000 0.000000 0.000000 0.000000 0.000000 0.042680
#
#
# Mechanical properties :
#
#
# Convention : Reuss Voigt Hill
#
# Bulk Modulus (GPa) = 39.96105 43.85739 41.90922
# Shear Modulus (GPa) = 14.56453 18.97101 16.76777
#
# Velocity S-wave (km/s) = 2.90941 3.32049 3.12172
# Velocity P-wave (km/s) = 5.87460 6.33956 6.11151
#
# Compressibility (1/GPa) = 0.02502437
#
# Stress axis : x y z
#
# Youngs Moduli (GPa) = 67.26381 44.91141 55.17452
#
# Poissons Ratio (x) = 0.44069 0.05351
# Poissons Ratio (y) = 0.66003 0.23913
# Poissons Ratio (z) = 0.06524 0.19465
#
# Static dielectric constant tensor:
#      x y z
#    x 3.400890 0.000000 0.000000 
#    y 0.000000 3.442310 0.000000 
#    z 0.000000 0.000000 2.857900 
# 
# 
# High freq. dielectric constant tensor:
#      x y z
#    x 1.669280 0.000000 0.000000 
#    y 0.000000 1.663000 0.000000 
#    z 0.000000 0.000000 1.603220 
# 
# From -- ./inp_files/34438.got.cif
#   From: 2010.03.12/outbox.cif.g09.slc.cpg/sg53_18_cif.got.tgz:34438.got - 2010.04.16 14:36:59.
