data_PCOD8217672
_publ_section_title
;
Structure prediction by ZEFSAII (Michael W. Deem and Ramdas Pophale) SiO2 
 PCOD8217672
Probable space group: P M N A
;
_chemical_formula_sum "Si O2"
_cell_formula_units_Z 40
_cell_length_a 25.807956
_cell_length_b 5.099146
_cell_length_c 20.077869
_cell_angle_alpha 90.000000
_cell_angle_beta 90.000000
_cell_angle_gamma 90.000000
_cell_volume 2642.218158
_symmetry_space_group_name_H-M "P M N A"
_symmetry_group_IT_number 53
_symmetry_cell_setting 'orthorhombic'
loop_
_space_group_symop_operation_xyz
x,y,z
1/2-x,-y,1/2+z
x,-y,-z
1/2-x,y,1/2-z
-x,-y,-z
1/2+x,y,1/2-z
-x,y,z
1/2+x,-y,1/2+z
loop_
_atom_site_type_symbol
_atom_site_label
_atom_site_fract_x
_atom_site_fract_y
_atom_site_fract_z
Si Si1 0.359902 0.087082 0.850602
Si Si2 0.831013 0.579634 0.720918
Si Si3 0.277689 0.593773 0.647630
Si Si4 0.748395 0.915317 0.076028
Si Si5 0.058020 0.743166 0.456575
O O1 0.355565 0.298856 0.792529
O O2 0.310731 0.085019 0.899405
O O3 0.409282 0.180136 0.892187
O O4 0.366200 0.808982 0.812420
O O5 0.825990 0.587570 0.801152
O O6 0.774735 0.591158 0.689044
O O7 0.276210 0.361560 0.592441
O O8 0.283587 0.870213 0.611866
O O9 0.747228 0.000000 0.000000
O O10 0.081942 0.500000 0.500000
O O11 0.000000 0.662781 0.433495
O O12 0.056408 0.000000 0.500000
#
# Coordination Sequence:
#
# PCOD8217672 Si02
#       5
#     8   8   8   8   8
#     4  10  18  28  43  59  76 102 141 175 199 233
#     4   9  17  28  42  57  74 101 134 171 203 232
#     4   9  17  28  39  55  79 102 131 167 202 237
#     4  10  18  26  39  58  80 106 135 167 199 233
#     4  10  20  32  44  59  82 109 136 171 213 247
#
# _framework density 15.138795999999999
#
# number of rings (size 3 to 8) (size 9 to 14) (size 15 to 20)
#    0.000    2.400    0.000    3.600    0.000    8.000 
#    0.000    0.000    0.000    0.000    0.000    0.000 
#    0.000    0.000    0.000    0.000    0.000   70.000 
#
# Total GULP energy -495661.394287 kJ/mol
# GULP energy per Si atom -12391.534857 kJ/mol
# Density = 1.510434 g / cm^3
# Si number density = 15.138796 Si / 1000 Ang^3
#
#
#
# Elastic Constant Matrix: (Units=GPa)
#
#
# Indices 1 2 3 4 5 6 
#
# 1 33.4076 15.3758 36.3437 0.0000 0.0000 0.0000
# 2 15.3758 92.8944 29.2892 0.0000 0.0000 0.0000
# 3 36.3437 29.2892 73.7315 0.0000 0.0000 0.0000
# 4 0.0000 0.0000 0.0000 24.0185 0.0000 0.0000
# 5 0.0000 0.0000 0.0000 0.0000 15.5421 0.0000
# 6 0.0000 0.0000 0.0000 0.0000 0.0000 12.3262
#
#
#
# Elastic Compliance Matrix: (Units=1/GPa)
#
#
# Indices 1 2 3 4 5 6 
#
# 1 0.064590 -0.000746 -0.031542 0.000000 0.000000 0.000000
# 2 -0.000746 0.012315 -0.004524 0.000000 0.000000 0.000000
# 3 -0.031542 -0.004524 0.030907 0.000000 0.000000 0.000000
# 4 0.000000 0.000000 0.000000 0.041635 0.000000 0.000000
# 5 0.000000 0.000000 0.000000 0.000000 0.064341 0.000000
# 6 0.000000 0.000000 0.000000 0.000000 0.000000 0.081128
#
#
# Mechanical properties :
#
#
# Convention : Reuss Voigt Hill
#
# Bulk Modulus (GPa) = 29.24916 40.22786 34.73851
# Shear Modulus (GPa) = 13.16010 18.31234 15.73622
#
# Velocity S-wave (km/s) = 2.95158 3.48175 3.22757
# Velocity P-wave (km/s) = 5.56582 6.54170 6.07339
#
# Compressibility (1/GPa) = 0.03418901
#
# Stress axis : x y z
#
# Youngs Moduli (GPa) = 15.48221 81.20265 32.35471
#
# Poissons Ratio (x) = 0.06058 1.02052
# Poissons Ratio (y) = 0.01155 0.14638
# Poissons Ratio (z) = 0.48833 0.36738
#
# Static dielectric constant tensor:
#      x y z
#    x 2.714710 0.000000 0.000000 
#    y 0.000000 3.321010 0.000000 
#    z 0.000000 0.000000 2.931100 
# 
# 
# High freq. dielectric constant tensor:
#      x y z
#    x 1.517590 0.000000 0.000000 
#    y 0.000000 1.607810 0.000000 
#    z 0.000000 0.000000 1.572220 
# 
# From -- ./inp_files/24552.got.cif
#   From: 2010.03.12/outbox.cif.g09.slc.cpg/sg53_13_cif.got.tgz:24552.got - 2010.04.16 14:36:59.
