data_PCOD8217971
_publ_section_title
;
Structure prediction by ZEFSAII (Michael W. Deem and Ramdas Pophale) SiO2 
 PCOD8217971
Probable space group: P M N A
;
_chemical_formula_sum "Si O2"
_cell_formula_units_Z 64
_cell_length_a 14.652950
_cell_length_b 17.006934
_cell_length_c 13.385510
_cell_angle_alpha 90.000000
_cell_angle_beta 90.000000
_cell_angle_gamma 90.000000
_cell_volume 3335.692564
_symmetry_space_group_name_H-M "P M N A"
_symmetry_group_IT_number 53
_symmetry_cell_setting 'orthorhombic'
loop_
_space_group_symop_operation_xyz
x,y,z
1/2-x,-y,1/2+z
x,-y,-z
1/2-x,y,1/2-z
-x,-y,-z
1/2+x,y,1/2-z
-x,y,z
1/2+x,-y,1/2+z
loop_
_atom_site_type_symbol
_atom_site_label
_atom_site_fract_x
_atom_site_fract_y
_atom_site_fract_z
Si Si1 0.235976 0.659855 0.137770
Si Si2 0.778519 0.236782 0.038122
Si Si3 0.402457 0.243941 0.145461
Si Si4 0.398207 0.476841 0.687075
Si Si5 0.392933 0.075097 0.218082
Si Si6 0.344383 0.644964 0.697400
Si Si7 0.603934 0.558986 0.087259
Si Si8 0.779157 0.941363 0.910001
O O1 0.250000 0.690745 0.250000
O O2 0.169070 0.584764 0.135308
O O3 0.330994 0.634692 0.085855
O O4 0.198177 0.733019 0.073743
O O5 0.672056 0.251779 0.059954
O O6 0.838273 0.288388 0.113387
O O7 0.799654 0.145198 0.047137
O O8 0.500000 0.233839 0.091178
O O9 0.382406 0.169422 0.217556
O O10 0.408736 0.320593 0.215812
O O11 0.500000 0.448707 0.660828
O O12 0.382804 0.565382 0.647005
O O13 0.382792 0.482996 0.806084
O O14 0.500000 0.049120 0.203016
O O15 0.325266 0.045399 0.129050
O O16 0.352990 0.042496 0.322360
O O17 0.250000 0.624608 0.750000
O O18 0.500000 0.587341 0.070508
O O19 0.634324 0.500000 0.000000
O O20 0.798756 0.000000 0.000000
#
# Coordination Sequence:
#
# PCOD8217971 Si02
#       8
#     8   8   8   8   8   8   8   8
#     4  10  22  38  53  72 110 153 189 230 275 321
#     4  10  21  35  55  81 109 145 188 225 280 340
#     4   9  17  31  55  86 115 135 169 232 294 338
#     4  10  21  36  51  74 108 146 187 226 274 328
#     4   9  18  36  60  88 122 153 180 228 293 339
#     4  10  18  30  52  80 112 138 177 231 283 337
#     4   9  19  33  53  78 101 135 186 234 279 324
#     4  10  20  38  60  90 119 151 190 235 283 346
#
# _framework density 19.186419999999998
#
# number of rings (size 3 to 8) (size 9 to 14) (size 15 to 20)
#    0.000    2.375    1.250    1.500    5.250    1.000 
#    2.250    2.500    0.000    0.000    0.000    0.000 
#    0.000    0.000    0.000    0.000    0.000    0.000 
#
# Total GULP energy -793249.912965 kJ/mol
# GULP energy per Si atom -12394.529890 kJ/mol
# Density = 1.914275 g / cm^3
# Si number density = 19.186420 Si / 1000 Ang^3
#
#
#
# Elastic Constant Matrix: (Units=GPa)
#
#
# Indices 1 2 3 4 5 6 
#
# 1 74.5281 16.7177 24.0603 0.0000 0.0000 0.0000
# 2 16.7177 81.7487 45.2618 0.0000 0.0000 0.0000
# 3 24.0603 45.2618 81.8008 0.0000 0.0000 0.0000
# 4 0.0000 0.0000 0.0000 36.8059 0.0000 0.0000
# 5 0.0000 0.0000 0.0000 0.0000 14.1702 0.0000
# 6 0.0000 0.0000 0.0000 0.0000 0.0000 15.3102
#
#
#
# Elastic Compliance Matrix: (Units=1/GPa)
#
#
# Indices 1 2 3 4 5 6 
#
# 1 0.014871 -0.000893 -0.003880 0.000000 0.000000 0.000000
# 2 -0.000893 0.017689 -0.009525 0.000000 0.000000 0.000000
# 3 -0.003880 -0.009525 0.018636 0.000000 0.000000 0.000000
# 4 0.000000 0.000000 0.000000 0.027170 0.000000 0.000000
# 5 0.000000 0.000000 0.000000 0.000000 0.070571 0.000000
# 6 0.000000 0.000000 0.000000 0.000000 0.000000 0.065316
#
#
# Mechanical properties :
#
#
# Convention : Reuss Voigt Hill
#
# Bulk Modulus (GPa) = 44.24698 45.57302 44.91000
# Shear Modulus (GPa) = 19.96961 23.39314 21.68137
#
# Velocity S-wave (km/s) = 3.22967 3.49557 3.36525
# Velocity P-wave (km/s) = 6.08436 6.33217 6.20950
#
# Compressibility (1/GPa) = 0.02260041
#
# Stress axis : x y z
#
# Youngs Moduli (GPa) = 67.24678 56.53273 53.65864
#
# Poissons Ratio (x) = 0.05048 0.20819
# Poissons Ratio (y) = 0.06004 0.51110
# Poissons Ratio (z) = 0.26091 0.53847
#
# Static dielectric constant tensor:
#      x y z
#    x 3.442020 0.000000 0.000000 
#    y 0.000000 3.223250 0.000000 
#    z 0.000000 0.000000 3.323000 
# 
# 
# High freq. dielectric constant tensor:
#      x y z
#    x 1.748760 0.000000 0.000000 
#    y 0.000000 1.718840 0.000000 
#    z 0.000000 0.000000 1.732540 
# 
# From -- ./inp_files/16226.got.cif
#   From: 2010.03.12/outbox.cif.g09.slc.cpg/sg53_9_cif.got.tgz:16226.got - 2010.04.16 14:36:59.
