data_PCOD8217411
_publ_section_title
;
Structure prediction by ZEFSAII (Michael W. Deem and Ramdas Pophale) SiO2 
 PCOD8217411
Probable space group: P N N A
;
_chemical_formula_sum "Si O2"
_cell_formula_units_Z 40
_cell_length_a 11.979155
_cell_length_b 8.386715
_cell_length_c 16.065368
_cell_angle_alpha 90.000000
_cell_angle_beta 90.000000
_cell_angle_gamma 90.000000
_cell_volume 1614.019389
_symmetry_space_group_name_H-M "P N N A"
_symmetry_group_IT_number 52
_symmetry_cell_setting 'orthorhombic'
loop_
_space_group_symop_operation_xyz
x,y,z
1/2-x,-y,z
x,1/2-y,1/2-z
1/2-x,1/2+y,1/2-z
-x,-y,-z
1/2+x,y,-z
-x,1/2+y,1/2+z
1/2+x,1/2-y,1/2+z
loop_
_atom_site_type_symbol
_atom_site_label
_atom_site_fract_x
_atom_site_fract_y
_atom_site_fract_z
Si Si1 0.464675 0.816396 0.017003
Si Si2 0.962892 0.925137 0.259619
Si Si3 0.700042 0.347203 0.379638
Si Si4 0.344500 0.874362 0.183584
Si Si5 0.856509 0.411254 0.087599
O O1 0.389008 0.795624 0.099039
O O2 0.565110 0.685447 0.021890
O O3 0.391672 0.761228 0.938416
O O4 0.500000 0.000000 0.000000
O O5 0.019108 0.750000 0.250000
O O6 0.852021 0.919214 0.203957
O O7 0.925584 0.968711 0.353318
O O8 0.048726 0.053514 0.228421
O O9 0.750000 0.500000 0.429301
O O10 0.798248 0.224935 0.355367
O O11 0.292944 0.750000 0.250000
O O12 0.250000 0.000000 0.159880
O O13 0.750000 0.500000 0.042508
#
# Coordination Sequence:
#
# PCOD8217411 Si02
#       5
#     8   8   8   8   8
#     4  12  25  46  75 110 156 206 261 320 395 478
#     4  12  25  45  74 109 149 193 258 326 388 463
#     4  12  25  42  75 112 150 199 257 315 400 463
#     4  12  26  48  76 107 152 205 266 318 389 467
#     4  12  26  47  75 116 152 203 261 330 397 466
#
# _framework density 24.78285
#
# number of rings (size 3 to 8) (size 9 to 14) (size 15 to 20)
#    0.000    0.000    8.000    1.800    0.000    2.400 
#    0.000    1.000    0.000    0.000    0.000    0.000 
#    0.000    0.000    0.000    0.000    0.000    0.000 
#
# Total GULP energy -495672.340283 kJ/mol
# GULP energy per Si atom -12391.808507 kJ/mol
# Density = 2.472644 g / cm^3
# Si number density = 24.782850 Si / 1000 Ang^3
#
#
#
# Elastic Constant Matrix: (Units=GPa)
#
#
# Indices 1 2 3 4 5 6 
#
# 1 76.0478 27.8023 3.4487 0.0000 0.0000 0.0000
# 2 27.8023 115.7479 32.2679 0.0000 0.0000 0.0000
# 3 3.4487 32.2679 60.7188 0.0000 0.0000 0.0000
# 4 0.0000 0.0000 0.0000 44.7117 0.0000 0.0000
# 5 0.0000 0.0000 0.0000 0.0000 -72.1831 0.0000
# 6 0.0000 0.0000 0.0000 0.0000 0.0000 69.3161
#
#
#
# Elastic Compliance Matrix: (Units=1/GPa)
#
#
# Indices 1 2 3 4 5 6 
#
# 1 0.014490 -0.003816 0.001205 0.000000 0.000000 0.000000
# 2 -0.003816 0.011147 -0.005707 0.000000 0.000000 0.000000
# 3 0.001205 -0.005707 0.019434 0.000000 0.000000 0.000000
# 4 0.000000 0.000000 0.000000 0.022366 0.000000 0.000000
# 5 0.000000 0.000000 0.000000 0.000000 -0.013854 0.000000
# 6 0.000000 0.000000 0.000000 0.000000 0.000000 0.014427
#
#
# Mechanical properties :
#
#
# Convention : Reuss Voigt Hill
#
# Bulk Modulus (GPa) = 35.16876 42.17248 38.67062
# Shear Modulus (GPa) = 53.12084 20.96865 37.04475
#
# Velocity S-wave (km/s) = 4.63477 2.91193 3.87042
# Velocity P-wave (km/s) = 6.54698 5.32536 5.96752
#
# Compressibility (1/GPa) = 0.02843433
#
# Stress axis : x y z
#
# Youngs Moduli (GPa) = 69.01197 89.70850 51.45646
#
# Poissons Ratio (x) = 0.34237 -0.06201
# Poissons Ratio (y) = 0.26338 0.29367
# Poissons Ratio (z) = -0.08317 0.51199
#
# Static dielectric constant tensor:
#      x y z
#    x 4.647670 0.000000 0.000000 
#    y 0.000000 5.181310 0.000000 
#    z 0.000000 0.000000 4.457230 
# 
# 
# High freq. dielectric constant tensor:
#      x y z
#    x 1.990550 0.000000 0.000000 
#    y 0.000000 2.016600 0.000000 
#    z 0.000000 0.000000 1.961900 
# 
# From -- ./inp_files/31919.got.cif
#   From: 2010.06.25/outbox.cif.g09.slc.cpg/sg52_16_cif.got.tgz:31919.got - 2010.06.26 19:32:48.
