data_PCOD8217347
_publ_section_title
;
Structure prediction by ZEFSAII (Michael W. Deem and Ramdas Pophale) SiO2 
 PCOD8217347
Probable space group: P N N A
;
_chemical_formula_sum "Si O2"
_cell_formula_units_Z 36
_cell_length_a 9.172943
_cell_length_b 19.230572
_cell_length_c 10.782827
_cell_angle_alpha 90.000000
_cell_angle_beta 90.000000
_cell_angle_gamma 90.000000
_cell_volume 1902.100827
_symmetry_space_group_name_H-M "P N N A"
_symmetry_group_IT_number 52
_symmetry_cell_setting 'orthorhombic'
loop_
_space_group_symop_operation_xyz
x,y,z
1/2-x,-y,z
x,1/2-y,1/2-z
1/2-x,1/2+y,1/2-z
-x,-y,-z
1/2+x,y,-z
-x,1/2+y,1/2+z
1/2+x,1/2-y,1/2+z
loop_
_atom_site_type_symbol
_atom_site_label
_atom_site_fract_x
_atom_site_fract_y
_atom_site_fract_z
Si Si1 0.273818 0.318525 0.333972
Si Si2 0.932555 0.348852 0.063727
Si Si3 0.783024 0.580544 0.879417
Si Si4 0.560543 0.215856 0.043578
Si Si5 0.721979 0.750000 0.250000
O O1 0.286593 0.250000 0.250000
O O2 0.268876 0.386526 0.249602
O O3 0.415594 0.326769 0.421310
O O4 0.128249 0.314336 0.417057
O O5 0.879154 0.306935 0.184072
O O6 0.044024 0.408766 0.105322
O O7 0.797246 0.383425 0.994720
O O8 0.016979 0.296478 0.972153
O O9 0.750000 0.500000 0.875585
O O10 0.679321 0.209376 0.151381
#
# Coordination Sequence:
#
# PCOD8217347 Si02
#       5
#     8   8   8   8   4
#     4  12  22  39  65  92 126 161 209 259 314 365
#     4  12  21  40  65  94 124 162 205 260 313 367
#     4  12  26  43  62  91 132 170 206 253 318 381
#     4  12  21  36  65  97 122 155 206 269 308 361
#     4  12  20  34  68  96 124 150 208 262 316 354
#
# _framework density 18.926439999999999
#
# number of rings (size 3 to 8) (size 9 to 14) (size 15 to 20)
#    0.000    0.000   10.000    2.000    0.000    0.000 
#    0.000    1.111    0.000    0.000    0.000    0.000 
#    0.000    0.000    0.000    0.000    0.000    0.000 
#
# Total GULP energy -446560.699830 kJ/mol
# GULP energy per Si atom -12404.463884 kJ/mol
# Density = 1.888336 g / cm^3
# Si number density = 18.926440 Si / 1000 Ang^3
#
#
#
# Elastic Constant Matrix: (Units=GPa)
#
#
# Indices 1 2 3 4 5 6 
#
# 1 114.8973 36.3629 53.9955 0.0000 0.0000 0.0000
# 2 36.3629 100.6340 52.5628 0.0000 0.0000 0.0000
# 3 53.9955 52.5628 109.2204 0.0000 0.0000 0.0000
# 4 0.0000 0.0000 0.0000 17.9954 0.0000 0.0000
# 5 0.0000 0.0000 0.0000 0.0000 47.8122 0.0000
# 6 0.0000 0.0000 0.0000 0.0000 0.0000 18.0554
#
#
#
# Elastic Compliance Matrix: (Units=1/GPa)
#
#
# Indices 1 2 3 4 5 6 
#
# 1 0.011524 -0.001587 -0.004933 0.000000 0.000000 0.000000
# 2 -0.001587 0.013492 -0.005708 0.000000 0.000000 0.000000
# 3 -0.004933 -0.005708 0.014342 0.000000 0.000000 0.000000
# 4 0.000000 0.000000 0.000000 0.055570 0.000000 0.000000
# 5 0.000000 0.000000 0.000000 0.000000 0.020915 0.000000
# 6 0.000000 0.000000 0.000000 0.000000 0.000000 0.055385
#
#
# Mechanical properties :
#
#
# Convention : Reuss Voigt Hill
#
# Bulk Modulus (GPa) = 67.11386 67.84380 67.47883
# Shear Modulus (GPa) = 24.91859 28.89461 26.90660
#
# Velocity S-wave (km/s) = 3.63244 3.91151 3.77456
# Velocity P-wave (km/s) = 7.28904 7.50492 7.39777
#
# Compressibility (1/GPa) = 0.01490005
#
# Stress axis : x y z
#
# Youngs Moduli (GPa) = 86.77403 74.11703 69.72587
#
# Poissons Ratio (x) = 0.11765 0.34398
# Poissons Ratio (y) = 0.13774 0.39802
# Poissons Ratio (z) = 0.42808 0.42309
#
# Static dielectric constant tensor:
#      x y z
#    x 3.824650 0.000000 0.000000 
#    y 0.000000 3.147350 0.000000 
#    z 0.000000 0.000000 2.811040 
# 
# 
# High freq. dielectric constant tensor:
#      x y z
#    x 1.763200 0.000000 0.000000 
#    y 0.000000 1.688070 0.000000 
#    z 0.000000 0.000000 1.750490 
# 
# From -- ./inp_files/16670.got.cif
#   From: 2010.06.25/outbox.cif.g09.slc.cpg/sg52_9_cif.got.tgz:16670.got - 2010.06.26 19:32:48.
