data_PCOD8217958
_publ_section_title
;
Structure prediction by ZEFSAII (Michael W. Deem and Ramdas Pophale) SiO2 
 PCOD8217958
Probable space group: P M N A
;
_chemical_formula_sum "Si O2"
_cell_formula_units_Z 48
_cell_length_a 8.834042
_cell_length_b 15.602210
_cell_length_c 18.320500
_cell_angle_alpha 90.000000
_cell_angle_beta 90.000000
_cell_angle_gamma 90.000000
_cell_volume 2525.125112
_symmetry_space_group_name_H-M "P M N A"
_symmetry_group_IT_number 53
_symmetry_cell_setting 'orthorhombic'
loop_
_space_group_symop_operation_xyz
x,y,z
1/2-x,-y,1/2+z
x,-y,-z
1/2-x,y,1/2-z
-x,-y,-z
1/2+x,y,1/2-z
-x,y,z
1/2+x,-y,1/2+z
loop_
_atom_site_type_symbol
_atom_site_label
_atom_site_fract_x
_atom_site_fract_y
_atom_site_fract_z
Si Si1 0.179645 0.822675 0.330100
Si Si2 0.179448 0.329116 0.416716
Si Si3 0.675621 0.010300 0.671751
Si Si4 0.820394 0.658346 0.418876
Si Si5 0.320470 0.495849 0.170809
Si Si6 0.824155 0.179222 0.170959
O O1 0.250000 0.812557 0.250000
O O2 0.237566 0.743917 0.378921
O O3 0.000000 0.824892 0.324246
O O4 0.239763 0.910759 0.368892
O O5 0.241044 0.343259 0.498579
O O6 0.233432 0.408871 0.368013
O O7 0.250488 0.242571 0.386513
O O8 0.000000 0.319651 0.415841
O O9 0.750000 0.003663 0.750000
O O10 0.500000 0.033715 0.678783
O O11 0.698931 0.916316 0.636338
O O12 0.757661 0.575492 0.376301
O O13 0.000000 0.655207 0.419623
O O14 0.250000 0.500473 0.250000
O O15 0.500000 0.499464 0.177640
O O16 0.750000 0.190152 0.250000
O O17 0.000000 0.200380 0.180832
#
# Coordination Sequence:
#
# PCOD8217958 Si02
#       6
#     8   8   8   8   8   8
#     4  10  18  30  51  76 102 132 170 214 255 300
#     4  10  20  35  55  76 102 137 173 210 251 298
#     4   9  17  30  49  73 101 132 168 210 255 300
#     4   9  19  35  53  75 103 137 173 206 249 305
#     4  10  20  35  56  79 103 132 169 211 253 301
#     4  10  20  34  53  77 104 135 171 212 256 302
#
# _framework density 19.008958
#
# number of rings (size 3 to 8) (size 9 to 14) (size 15 to 20)
#    0.000    2.333    0.000    4.000    0.000    6.000 
#    0.000    4.167    0.000    7.000    0.000    0.000 
#    0.000    0.000    0.000    0.000    0.000    0.000 
#
# Total GULP energy -595031.707186 kJ/mol
# GULP energy per Si atom -12396.493900 kJ/mol
# Density = 1.896569 g / cm^3
# Si number density = 19.008958 Si / 1000 Ang^3
#
#
#
# Elastic Constant Matrix: (Units=GPa)
#
#
# Indices 1 2 3 4 5 6 
#
# 1 52.0171 29.7952 16.4688 0.0000 0.0000 0.0000
# 2 29.7952 134.1375 37.8680 0.0000 0.0000 0.0000
# 3 16.4688 37.8680 90.4975 0.0000 0.0000 0.0000
# 4 0.0000 0.0000 0.0000 11.8563 0.0000 0.0000
# 5 0.0000 0.0000 0.0000 0.0000 24.1319 0.0000
# 6 0.0000 0.0000 0.0000 0.0000 0.0000 31.0445
#
#
#
# Elastic Compliance Matrix: (Units=1/GPa)
#
#
# Indices 1 2 3 4 5 6 
#
# 1 0.022429 -0.004343 -0.002264 0.000000 0.000000 0.000000
# 2 -0.004343 0.009295 -0.003099 0.000000 0.000000 0.000000
# 3 -0.002264 -0.003099 0.012759 0.000000 0.000000 0.000000
# 4 0.000000 0.000000 0.000000 0.084344 0.000000 0.000000
# 5 0.000000 0.000000 0.000000 0.000000 0.041439 0.000000
# 6 0.000000 0.000000 0.000000 0.000000 0.000000 0.032212
#
#
# Mechanical properties :
#
#
# Convention : Reuss Voigt Hill
#
# Bulk Modulus (GPa) = 39.88828 49.43513 44.66171
# Shear Modulus (GPa) = 21.71595 26.24121 23.97858
#
# Velocity S-wave (km/s) = 3.38362 3.71949 3.55552
# Velocity P-wave (km/s) = 6.02450 6.67150 6.35624
#
# Compressibility (1/GPa) = 0.02507002
#
# Stress axis : x y z
#
# Youngs Moduli (GPa) = 44.58542 107.59040 78.37706
#
# Poissons Ratio (x) = 0.46724 0.17748
# Poissons Ratio (y) = 0.19362 0.24288
# Poissons Ratio (z) = 0.10096 0.33341
#
# Static dielectric constant tensor:
#      x y z
#    x 3.425330 0.000000 0.000000 
#    y 0.000000 4.247550 0.000000 
#    z 0.000000 0.000000 3.394750 
# 
# 
# High freq. dielectric constant tensor:
#      x y z
#    x 1.725460 0.000000 0.000000 
#    y 0.000000 1.765570 0.000000 
#    z 0.000000 0.000000 1.715820 
# 
# From -- ./inp_files/26252.got.cif
#   From: 2010.03.12/outbox.cif.g09.slc.cpg/sg53_14_cif.got.tgz:26252.got - 2010.04.16 14:36:59.
