data_PCOD8217892
_publ_section_title
;
Structure prediction by ZEFSAII (Michael W. Deem and Ramdas Pophale) SiO2 
 PCOD8217892
Probable space group: P M N A
;
_chemical_formula_sum "Si O2"
_cell_formula_units_Z 64
_cell_length_a 8.968655
_cell_length_b 16.836355
_cell_length_c 25.674781
_cell_angle_alpha 90.000000
_cell_angle_beta 90.000000
_cell_angle_gamma 90.000000
_cell_volume 3876.878053
_symmetry_space_group_name_H-M "P M N A"
_symmetry_group_IT_number 53
_symmetry_cell_setting 'orthorhombic'
loop_
_space_group_symop_operation_xyz
x,y,z
1/2-x,-y,1/2+z
x,-y,-z
1/2-x,y,1/2-z
-x,-y,-z
1/2+x,y,1/2-z
-x,y,z
1/2+x,-y,1/2+z
loop_
_atom_site_type_symbol
_atom_site_label
_atom_site_fract_x
_atom_site_fract_y
_atom_site_fract_z
Si Si1 0.826473 0.823926 0.095356
Si Si2 0.175086 0.338792 0.061035
Si Si3 0.177094 0.184963 0.398839
Si Si4 0.676223 0.904028 0.696042
Si Si5 0.667758 0.497288 0.061879
Si Si6 0.176136 0.089541 0.500248
Si Si7 0.825796 0.913627 0.197111
Si Si8 0.828524 0.652852 0.059193
O O1 0.739224 0.865085 0.049335
O O2 0.768011 0.858486 0.150065
O O3 0.796127 0.729688 0.094523
O O4 0.000000 0.842890 0.087291
O O5 0.264923 0.274032 0.093787
O O6 0.230338 0.424596 0.081374
O O7 0.000000 0.329988 0.071527
O O8 0.215520 0.327182 0.000299
O O9 0.253395 0.149965 0.348094
O O10 0.229701 0.132058 0.447644
O O11 0.000000 0.184975 0.392147
O O12 0.750000 0.877112 0.750000
O O13 0.500000 0.890518 0.698764
O O14 0.717191 0.995597 0.684231
O O15 0.500000 0.486422 0.082924
O O16 0.732792 0.580595 0.082892
O O17 0.671747 0.500000 0.000000
O O18 0.000000 0.090633 0.504974
O O19 0.238462 0.000000 0.500000
O O20 0.750000 0.883816 0.250000
O O21 0.000000 0.903964 0.205419
O O22 0.000000 0.626535 0.061142
#
# Coordination Sequence:
#
# PCOD8217892 Si02
#       8
#     8   8   8   8   8   8   8   8
#     4  10  19  32  49  71  97 128 165 203 242 288
#     4  10  18  30  47  68  96 130 164 197 239 290
#     4  11  21  32  48  71 100 130 163 202 244 291
#     4  10  20  35  53  72  94 125 166 210 253 291
#     4   9  17  28  44  66  94 127 161 196 238 287
#     4  10  21  33  45  66  98 133 164 196 240 292
#     4   9  19  34  52  72  95 125 165 211 252 290
#     4   9  17  29  45  67  96 128 162 198 238 289
#
# _framework density 16.508127999999999
#
# number of rings (size 3 to 8) (size 9 to 14) (size 15 to 20)
#    0.000    2.250    1.250    2.250    0.000    4.250 
#    0.000    0.000    0.000    0.000    0.000    0.875 
#    0.000    2.000    0.000    0.000    0.000    0.000 
#
# Total GULP energy -793732.067663 kJ/mol
# GULP energy per Si atom -12402.063557 kJ/mol
# Density = 1.647055 g / cm^3
# Si number density = 16.508128 Si / 1000 Ang^3
#
#
#
# Elastic Constant Matrix: (Units=GPa)
#
#
# Indices 1 2 3 4 5 6 
#
# 1 52.9154 35.6961 36.0362 0.0000 0.0000 0.0000
# 2 35.6961 108.9702 56.2740 0.0000 0.0000 0.0000
# 3 36.0362 56.2740 101.4726 0.0000 0.0000 0.0000
# 4 0.0000 0.0000 0.0000 -24.8492 0.0000 0.0000
# 5 0.0000 0.0000 0.0000 0.0000 24.6597 0.0000
# 6 0.0000 0.0000 0.0000 0.0000 0.0000 28.0487
#
#
#
# Elastic Compliance Matrix: (Units=1/GPa)
#
#
# Indices 1 2 3 4 5 6 
#
# 1 0.027068 -0.005469 -0.006580 0.000000 0.000000 0.000000
# 2 -0.005469 0.013965 -0.005802 0.000000 0.000000 0.000000
# 3 -0.006580 -0.005802 0.015409 0.000000 0.000000 0.000000
# 4 0.000000 0.000000 0.000000 -0.040243 0.000000 0.000000
# 5 0.000000 0.000000 0.000000 0.000000 0.040552 0.000000
# 6 0.000000 0.000000 0.000000 0.000000 0.000000 0.035652
#
#
# Mechanical properties :
#
#
# Convention : Reuss Voigt Hill
#
# Bulk Modulus (GPa) = 48.21549 57.70785 52.96167
# Shear Modulus (GPa) = 37.03161 14.59530 25.81346
#
# Velocity S-wave (km/s) = 4.74142 2.97665 3.95863
# Velocity P-wave (km/s) = 7.69709 6.84449 7.28328
#
# Compressibility (1/GPa) = 0.02074022
#
# Stress axis : x y z
#
# Youngs Moduli (GPa) = 36.94338 71.60910 64.89558
#
# Poissons Ratio (x) = 0.39163 0.42701
# Poissons Ratio (y) = 0.20204 0.37654
# Poissons Ratio (z) = 0.24308 0.41549
#
# Static dielectric constant tensor:
#      x y z
#    x 3.145570 0.000000 0.000000 
#    y 0.000000 3.281540 0.000000 
#    z 0.000000 0.000000 2.975230 
# 
# 
# High freq. dielectric constant tensor:
#      x y z
#    x 1.643600 0.000000 0.000000 
#    y 0.000000 1.640790 0.000000 
#    z 0.000000 0.000000 1.601120 
# 
# From -- ./inp_files/34495.got.cif
#   From: 2010.03.12/outbox.cif.g09.slc.cpg/sg53_18_cif.got.tgz:34495.got - 2010.04.16 14:36:59.
