data_PCOD8217354
_publ_section_title
;
Structure prediction by ZEFSAII (Michael W. Deem and Ramdas Pophale) SiO2 
 PCOD8217354
Probable space group: P N N A
;
_chemical_formula_sum "Si O2"
_cell_formula_units_Z 52
_cell_length_a 18.875680
_cell_length_b 7.758393
_cell_length_c 16.996676
_cell_angle_alpha 90.000000
_cell_angle_beta 90.000000
_cell_angle_gamma 90.000000
_cell_volume 2489.077258
_symmetry_space_group_name_H-M "P N N A"
_symmetry_group_IT_number 52
_symmetry_cell_setting 'orthorhombic'
loop_
_space_group_symop_operation_xyz
x,y,z
1/2-x,-y,z
x,1/2-y,1/2-z
1/2-x,1/2+y,1/2-z
-x,-y,-z
1/2+x,y,-z
-x,1/2+y,1/2+z
1/2+x,1/2-y,1/2+z
loop_
_atom_site_type_symbol
_atom_site_label
_atom_site_fract_x
_atom_site_fract_y
_atom_site_fract_z
Si Si1 0.676477 0.422333 0.301920
Si Si2 0.994749 0.027123 0.329894
Si Si3 0.116448 0.309049 0.088439
Si Si4 0.444524 0.474120 0.339244
Si Si5 0.934039 0.790537 0.083858
Si Si6 0.159051 0.750000 0.250000
Si Si7 0.403723 0.250000 0.750000
Si Si8 0.750000 0.000000 0.646352
O O1 0.750000 0.500000 0.331595
O O2 0.685596 0.250000 0.250000
O O3 0.632853 0.388921 0.380711
O O4 0.640958 0.575754 0.252872
O O5 0.953019 0.212473 0.328281
O O6 0.067648 0.037426 0.377735
O O7 0.946120 0.879968 0.365297
O O8 0.006172 0.990877 0.237429
O O9 0.197729 0.379282 0.092436
O O10 0.102810 0.141885 0.142204
O O11 0.088764 0.264295 0.002524
O O12 0.495152 0.410751 0.411423
O O13 0.388152 0.326632 0.320182
O O14 0.205793 0.888449 0.293628
#
# Coordination Sequence:
#
# PCOD8217354 Si02
#       8
#     8   8   8   8   8   4   4   4
#     4  12  24  43  68  99 134 184 239 285 348 426
#     4  12  21  42  74 102 131 174 240 293 345 413
#     4  12  26  43  67 102 147 183 224 286 372 432
#     4  12  21  42  74 102 126 177 244 295 342 413
#     4  12  24  44  68 103 143 178 227 305 363 420
#     4  12  24  41  75  96 130 176 248 294 336 412
#     4  12  22  39  73 102 130 168 234 302 336 400
#     4  12  26  46  62 102 140 192 228 282 358 442
#
# _framework density 20.891276000000001
#
# number of rings (size 3 to 8) (size 9 to 14) (size 15 to 20)
#    0.000    0.000    8.462    1.846    0.000    0.000 
#    6.923    0.000    0.000    0.000    0.000    0.000 
#    0.000    0.000    0.000    0.000    0.000    0.000 
#
# Total GULP energy -644484.367443 kJ/mol
# GULP energy per Si atom -12393.930143 kJ/mol
# Density = 2.084373 g / cm^3
# Si number density = 20.891276 Si / 1000 Ang^3
#
#
#
# Elastic Constant Matrix: (Units=GPa)
#
#
# Indices 1 2 3 4 5 6 
#
# 1 147.0216 53.5500 46.5328 0.0000 0.0000 0.0000
# 2 53.5500 109.0138 34.5219 0.0000 0.0000 0.0000
# 3 46.5328 34.5219 101.4602 0.0000 0.0000 0.0000
# 4 0.0000 0.0000 0.0000 18.1331 0.0000 0.0000
# 5 0.0000 0.0000 0.0000 0.0000 73.0960 0.0000
# 6 0.0000 0.0000 0.0000 0.0000 0.0000 54.4774
#
#
#
# Elastic Compliance Matrix: (Units=1/GPa)
#
#
# Indices 1 2 3 4 5 6 
#
# 1 0.009005 -0.003492 -0.002942 0.000000 0.000000 0.000000
# 2 -0.003492 0.011635 -0.002357 0.000000 0.000000 0.000000
# 3 -0.002942 -0.002357 0.012007 0.000000 0.000000 0.000000
# 4 0.000000 0.000000 0.000000 0.055148 0.000000 0.000000
# 5 0.000000 0.000000 0.000000 0.000000 0.013681 0.000000
# 6 0.000000 0.000000 0.000000 0.000000 0.000000 0.018356
#
#
# Mechanical properties :
#
#
# Convention : Reuss Voigt Hill
#
# Bulk Modulus (GPa) = 66.37811 69.63391 68.00601
# Shear Modulus (GPa) = 35.10378 44.00068 39.55223
#
# Velocity S-wave (km/s) = 4.10360 4.59429 4.35586
# Velocity P-wave (km/s) = 7.36850 7.84520 7.61059
#
# Compressibility (1/GPa) = 0.01506521
#
# Stress axis : x y z
#
# Youngs Moduli (GPa) = 111.05472 85.94853 83.28233
#
# Poissons Ratio (x) = 0.30010 0.24499
# Poissons Ratio (y) = 0.38777 0.19633
# Poissons Ratio (z) = 0.32669 0.20261
#
# Static dielectric constant tensor:
#      x y z
#    x 4.220150 0.000000 0.000000 
#    y 0.000000 4.462700 0.000000 
#    z 0.000000 0.000000 3.524620 
# 
# 
# High freq. dielectric constant tensor:
#      x y z
#    x 1.832930 0.000000 0.000000 
#    y 0.000000 1.843870 0.000000 
#    z 0.000000 0.000000 1.787130 
# 
# From -- ./inp_files/33753.got.cif
#   From: 2010.06.25/outbox.cif.g09.slc.cpg/sg52_17_cif.got.tgz:33753.got - 2010.06.26 19:32:48.
