data_PCOD8217302
_publ_section_title
;
Structure prediction by ZEFSAII (Michael W. Deem and Ramdas Pophale) SiO2 
 PCOD8217302
Probable space group: P N N A
;
_chemical_formula_sum "Si O2"
_cell_formula_units_Z 40
_cell_length_a 8.150682
_cell_length_b 15.143787
_cell_length_c 13.877392
_cell_angle_alpha 90.000000
_cell_angle_beta 90.000000
_cell_angle_gamma 90.000000
_cell_volume 1712.916915
_symmetry_space_group_name_H-M "P N N A"
_symmetry_group_IT_number 52
_symmetry_cell_setting 'orthorhombic'
loop_
_space_group_symop_operation_xyz
x,y,z
1/2-x,-y,z
x,1/2-y,1/2-z
1/2-x,1/2+y,1/2-z
-x,-y,-z
1/2+x,y,-z
-x,1/2+y,1/2+z
1/2+x,1/2-y,1/2+z
loop_
_atom_site_type_symbol
_atom_site_label
_atom_site_fract_x
_atom_site_fract_y
_atom_site_fract_z
Si Si1 0.597029 0.856391 0.802993
Si Si2 0.440759 0.483968 0.605949
Si Si3 0.334151 0.402832 0.934331
Si Si4 0.516961 0.186585 0.394856
Si Si5 0.470232 0.848169 0.250494
O O1 0.473479 0.844395 0.715111
O O2 0.557366 0.787033 0.891051
O O3 0.773731 0.845233 0.753666
O O4 0.564621 0.954678 0.835476
O O5 0.250000 0.500000 0.618030
O O6 0.500000 0.500000 0.500000
O O7 0.470012 0.387378 0.648464
O O8 0.250000 0.500000 0.937095
O O9 0.463936 0.400107 0.845069
O O10 0.206023 0.321659 0.926046
O O11 0.420707 0.381477 0.035660
O O12 0.541795 0.750000 0.250000
#
# Coordination Sequence:
#
# PCOD8217302 Si02
#       5
#     8   8   8   8   8
#     4  11  25  49  72 106 152 192 254 302 382 452
#     4  12  28  48  78 110 150 201 257 314 376 455
#     4  12  27  46  76 110 152 193 254 314 389 457
#     4  11  25  44  72 106 144 198 240 308 374 458
#     4  12  26  47  76 111 150 199 252 318 377 449
#
# _framework density 23.351980999999999
#
# number of rings (size 3 to 8) (size 9 to 14) (size 15 to 20)
#    0.000    0.400    2.000    6.600    8.400    1.600 
#    0.000    0.000    0.000    0.000    0.000    0.000 
#    0.000    0.000    0.000    0.000    0.000    0.000 
#
# Total GULP energy -495622.411352 kJ/mol
# GULP energy per Si atom -12390.560284 kJ/mol
# Density = 2.329883 g / cm^3
# Si number density = 23.351981 Si / 1000 Ang^3
#
#
#
# Elastic Constant Matrix: (Units=GPa)
#
#
# Indices 1 2 3 4 5 6 
#
# 1 102.2284 44.6671 28.1638 0.0000 0.0000 0.0000
# 2 44.6671 137.4594 60.2761 0.0000 0.0000 0.0000
# 3 28.1638 60.2761 132.8205 0.0000 0.0000 0.0000
# 4 0.0000 0.0000 0.0000 46.6891 0.0000 0.0000
# 5 0.0000 0.0000 0.0000 0.0000 26.6290 0.0000
# 6 0.0000 0.0000 0.0000 0.0000 0.0000 35.2436
#
#
#
# Elastic Compliance Matrix: (Units=1/GPa)
#
#
# Indices 1 2 3 4 5 6 
#
# 1 0.011491 -0.003328 -0.000926 0.000000 0.000000 0.000000
# 2 -0.003328 0.010046 -0.003853 0.000000 0.000000 0.000000
# 3 -0.000926 -0.003853 0.009474 0.000000 0.000000 0.000000
# 4 0.000000 0.000000 0.000000 0.021418 0.000000 0.000000
# 5 0.000000 0.000000 0.000000 0.000000 0.037553 0.000000
# 6 0.000000 0.000000 0.000000 0.000000 0.000000 0.028374
#
#
# Mechanical properties :
#
#
# Convention : Reuss Voigt Hill
#
# Bulk Modulus (GPa) = 67.58537 70.96915 69.27726
# Shear Modulus (GPa) = 35.84125 37.67240 36.75682
#
# Velocity S-wave (km/s) = 3.92194 4.02088 3.97171
# Velocity P-wave (km/s) = 7.03659 7.21205 7.12486
#
# Compressibility (1/GPa) = 0.01479610
#
# Stress axis : x y z
#
# Youngs Moduli (GPa) = 87.02238 99.54255 105.55063
#
# Poissons Ratio (x) = 0.33126 0.09779
# Poissons Ratio (y) = 0.28960 0.40673
# Poissons Ratio (z) = 0.08062 0.38357
#
# Static dielectric constant tensor:
#      x y z
#    x 4.371240 0.000000 0.000000 
#    y 0.000000 4.453450 0.000000 
#    z 0.000000 0.000000 4.451110 
# 
# 
# High freq. dielectric constant tensor:
#      x y z
#    x 1.936990 0.000000 0.000000 
#    y 0.000000 1.928920 0.000000 
#    z 0.000000 0.000000 1.930410 
# 
# From -- ./inp_files/16629.got.cif
#   From: 2010.06.25/outbox.cif.g09.slc.cpg/sg52_9_cif.got.tgz:16629.got - 2010.06.26 19:32:48.
