data_PCOD8217951
_publ_section_title
;
Structure prediction by ZEFSAII (Michael W. Deem and Ramdas Pophale) SiO2 
 PCOD8217951
Probable space group: P M N A
;
_chemical_formula_sum "Si O2"
_cell_formula_units_Z 64
_cell_length_a 17.415760
_cell_length_b 17.219004
_cell_length_c 11.309101
_cell_angle_alpha 90.000000
_cell_angle_beta 90.000000
_cell_angle_gamma 90.000000
_cell_volume 3391.396291
_symmetry_space_group_name_H-M "P M N A"
_symmetry_group_IT_number 53
_symmetry_cell_setting 'orthorhombic'
loop_
_space_group_symop_operation_xyz
x,y,z
1/2-x,-y,1/2+z
x,-y,-z
1/2-x,y,1/2-z
-x,-y,-z
1/2+x,y,1/2-z
-x,y,z
1/2+x,-y,1/2+z
loop_
_atom_site_type_symbol
_atom_site_label
_atom_site_fract_x
_atom_site_fract_y
_atom_site_fract_z
Si Si1 0.911515 0.578127 0.636351
Si Si2 0.680391 0.721373 0.829796
Si Si3 0.588192 0.139203 0.093767
Si Si4 0.150581 0.167390 0.656636
Si Si5 0.243853 0.298361 0.921175
Si Si6 0.702647 0.003306 0.135435
Si Si7 0.915784 0.287197 0.819182
Si Si8 0.369328 0.408046 0.867185
O O1 0.867129 0.645034 0.708892
O O2 0.870877 0.497489 0.672994
O O3 0.907008 0.596895 0.497080
O O4 0.000000 0.575603 0.675301
O O5 0.750000 0.745227 0.750000
O O6 0.622317 0.793251 0.824811
O O7 0.725002 0.704991 0.949042
O O8 0.500000 0.126769 0.125040
O O9 0.629296 0.057798 0.118223
O O10 0.598663 0.168505 0.960329
O O11 0.226678 0.221011 0.645587
O O12 0.176657 0.080327 0.682637
O O13 0.098714 0.202443 0.761436
O O14 0.151410 0.304630 0.914623
O O15 0.281965 0.375419 0.862802
O O16 0.750000 0.036547 0.250000
O O17 0.741730 0.000000 0.000000
O O18 0.918799 0.353710 0.719043
O O19 0.000000 0.285854 0.880948
#
# Coordination Sequence:
#
# PCOD8217951 Si02
#       8
#     8   8   8   8   8   8   8   8
#     4  10  18  30  50  77  98 118 161 212 250 287
#     4  10  21  36  52  68  93 133 172 206 249 303
#     4  10  20  34  53  78 103 128 168 222 265 295
#     4   9  18  32  52  76 103 133 167 207 254 306
#     4   9  19  33  49  71  98 129 167 203 245 306
#     4  10  20  34  55  79 107 142 175 212 259 317
#     4  11  19  29  48  74 105 135 161 199 252 303
#     4   9  17  30  49  73 101 128 154 197 253 304
#
# _framework density 18.871282999999998
#
# number of rings (size 3 to 8) (size 9 to 14) (size 15 to 20)
#    0.000    2.250    0.000    5.625    0.000    3.750 
#    0.000    1.250    0.000    0.375    0.000    8.750 
#    0.000    0.000    0.000    0.000    0.000    0.000 
#
# Total GULP energy -792980.960094 kJ/mol
# GULP energy per Si atom -12390.327501 kJ/mol
# Density = 1.882833 g / cm^3
# Si number density = 18.871283 Si / 1000 Ang^3
#
#
#
# Elastic Constant Matrix: (Units=GPa)
#
#
# Indices 1 2 3 4 5 6 
#
# 1 158.2188 45.8617 30.1924 0.0000 0.0000 0.0000
# 2 45.8617 116.2731 16.4801 0.0000 0.0000 0.0000
# 3 30.1924 16.4801 43.3540 0.0000 0.0000 0.0000
# 4 0.0000 0.0000 0.0000 154.3032 0.0000 0.0000
# 5 0.0000 0.0000 0.0000 0.0000 23.0840 0.0000
# 6 0.0000 0.0000 0.0000 0.0000 0.0000 -2.0167
#
#
#
# Elastic Compliance Matrix: (Units=1/GPa)
#
#
# Indices 1 2 3 4 5 6 
#
# 1 0.007909 -0.002472 -0.004568 0.000000 0.000000 0.000000
# 2 -0.002472 0.009863 -0.002028 0.000000 0.000000 0.000000
# 3 -0.004568 -0.002028 0.027018 0.000000 0.000000 0.000000
# 4 0.000000 0.000000 0.000000 0.006481 0.000000 0.000000
# 5 0.000000 0.000000 0.000000 0.000000 0.043320 0.000000
# 6 0.000000 0.000000 0.000000 0.000000 0.000000 -0.495870
#
#
# Mechanical properties :
#
#
# Convention : Reuss Voigt Hill
#
# Bulk Modulus (GPa) = 37.51761 55.87936 46.69849
# Shear Modulus (GPa) = -13.35970 50.09489 18.36760
#
# Velocity S-wave (km/s) = -2.66360 5.15783 3.12318
# Velocity P-wave (km/s) = 3.23485 8.07131 6.14859
#
# Compressibility (1/GPa) = 0.02665415
#
# Stress axis : x y z
#
# Youngs Moduli (GPa) = 126.44487 101.39071 37.01246
#
# Poissons Ratio (x) = 0.25063 0.16907
# Poissons Ratio (y) = 0.31256 0.07505
# Poissons Ratio (z) = 0.57760 0.20558
#
# Static dielectric constant tensor:
#      x y z
#    x 3.113300 0.000000 0.000000 
#    y 0.000000 3.638640 0.000000 
#    z 0.000000 0.000000 3.699750 
# 
# 
# High freq. dielectric constant tensor:
#      x y z
#    x 1.725030 0.000000 0.000000 
#    y 0.000000 1.745090 0.000000 
#    z 0.000000 0.000000 1.697290 
# 
# From -- ./inp_files/16252.got.cif
#   From: 2010.03.12/outbox.cif.g09.slc.cpg/sg53_9_cif.got.tgz:16252.got - 2010.04.16 14:36:59.
