data_PCOD8217556
_publ_section_title
;
Structure prediction by ZEFSAII (Michael W. Deem and Ramdas Pophale) SiO2 
 PCOD8217556
Probable space group: P M N A
;
_chemical_formula_sum "Si O2"
_cell_formula_units_Z 64
_cell_length_a 13.793891
_cell_length_b 14.862234
_cell_length_c 17.399815
_cell_angle_alpha 90.000000
_cell_angle_beta 90.000000
_cell_angle_gamma 90.000000
_cell_volume 3567.101897
_symmetry_space_group_name_H-M "P M N A"
_symmetry_group_IT_number 53
_symmetry_cell_setting 'orthorhombic'
loop_
_space_group_symop_operation_xyz
x,y,z
1/2-x,-y,1/2+z
x,-y,-z
1/2-x,y,1/2-z
-x,-y,-z
1/2+x,y,1/2-z
-x,y,z
1/2+x,-y,1/2+z
loop_
_atom_site_type_symbol
_atom_site_label
_atom_site_fract_x
_atom_site_fract_y
_atom_site_fract_z
Si Si1 0.108106 0.757696 0.738538
Si Si2 0.721681 0.145540 0.503442
Si Si3 0.110828 0.039038 0.273624
Si Si4 0.107671 0.461155 0.585279
Si Si5 0.608840 0.715986 0.589285
Si Si6 0.780438 0.001530 0.874765
Si Si7 0.797598 0.629405 0.628012
Si Si8 0.387699 0.718753 0.015062
O O1 0.132754 0.856482 0.706246
O O2 0.113421 0.768451 0.830357
O O3 0.184812 0.683975 0.707338
O O4 0.000000 0.727720 0.714149
O O5 0.639495 0.217876 0.480142
O O6 0.739429 0.080328 0.432103
O O7 0.822285 0.193618 0.526032
O O8 0.687950 0.090363 0.578272
O O9 0.133172 0.019765 0.184223
O O10 0.180246 0.980624 0.328537
O O11 0.000000 0.013269 0.290199
O O12 0.108958 0.500000 0.500000
O O13 0.178058 0.523108 0.637947
O O14 0.140199 0.356566 0.579978
O O15 0.000000 0.467113 0.620568
O O16 0.500000 0.679042 0.572841
O O17 0.686831 0.635054 0.597026
O O18 0.871001 0.676728 0.568898
O O19 0.500000 0.746478 0.022475
#
# Coordination Sequence:
#
# PCOD8217556 Si02
#       8
#     8   8   8   8   8   8   8   8
#     4  10  18  28  46  72  99 129 163 202 259 317
#     4  10  20  34  50  71 102 138 171 223 261 308
#     4  10  20  34  50  71 101 133 168 218 264 313
#     4   8  14  26  44  69  97 123 157 198 238 298
#     4  10  20  31  44  68 101 135 172 206 247 309
#     4  10  21  33  50  74 100 131 179 218 265 316
#     4  10  17  26  46  70  99 131 161 201 252 302
#     4   9  17  29  47  71  99 130 165 207 258 303
#
# _framework density 17.941737
#
# number of rings (size 3 to 8) (size 9 to 14) (size 15 to 20)
#    0.000    2.375    1.250    3.750    1.750    2.500 
#    0.000    2.500    0.000    9.375    6.500    0.000 
#    0.000    0.000    0.000    0.000    0.000    0.000 
#
# Total GULP energy -793155.905998 kJ/mol
# GULP energy per Si atom -12393.061031 kJ/mol
# Density = 1.790090 g / cm^3
# Si number density = 17.941737 Si / 1000 Ang^3
#
#
#
# Elastic Constant Matrix: (Units=GPa)
#
#
# Indices 1 2 3 4 5 6 
#
# 1 109.5527 31.5077 23.9685 0.0000 0.0000 0.0000
# 2 31.5077 59.1990 25.1766 0.0000 0.0000 0.0000
# 3 23.9685 25.1766 57.3950 0.0000 0.0000 0.0000
# 4 0.0000 0.0000 0.0000 19.2390 0.0000 0.0000
# 5 0.0000 0.0000 0.0000 0.0000 18.5359 0.0000
# 6 0.0000 0.0000 0.0000 0.0000 0.0000 19.3328
#
#
#
# Elastic Compliance Matrix: (Units=1/GPa)
#
#
# Indices 1 2 3 4 5 6 
#
# 1 0.011063 -0.004823 -0.002504 0.000000 0.000000 0.000000
# 2 -0.004823 0.022869 -0.008017 0.000000 0.000000 0.000000
# 3 -0.002504 -0.008017 0.021986 0.000000 0.000000 0.000000
# 4 0.000000 0.000000 0.000000 0.051978 0.000000 0.000000
# 5 0.000000 0.000000 0.000000 0.000000 0.053949 0.000000
# 6 0.000000 0.000000 0.000000 0.000000 0.000000 0.051726
#
#
# Mechanical properties :
#
#
# Convention : Reuss Voigt Hill
#
# Bulk Modulus (GPa) = 39.63827 43.05025 41.34426
# Shear Modulus (GPa) = 19.78868 21.12111 20.45489
#
# Velocity S-wave (km/s) = 3.32466 3.43477 3.38016
# Velocity P-wave (km/s) = 6.07277 6.30688 6.19093
#
# Compressibility (1/GPa) = 0.02522815
#
# Stress axis : x y z
#
# Youngs Moduli (GPa) = 90.39082 43.72751 45.48391
#
# Poissons Ratio (x) = 0.21090 0.11391
# Poissons Ratio (y) = 0.43596 0.36466
# Poissons Ratio (z) = 0.22637 0.35058
#
# Static dielectric constant tensor:
#      x y z
#    x 3.389840 0.000000 0.000000 
#    y 0.000000 3.340260 0.000000 
#    z 0.000000 0.000000 3.141480 
# 
# 
# High freq. dielectric constant tensor:
#      x y z
#    x 1.697260 0.000000 0.000000 
#    y 0.000000 1.667050 0.000000 
#    z 0.000000 0.000000 1.665670 
# 
# From -- ./inp_files/28633.got.cif
#   From: 2010.03.12/outbox.cif.g09.slc.cpg/sg53_15_cif.got.tgz:28633.got - 2010.04.16 14:36:59.
