data_PCOD8217861
_publ_section_title
;
Structure prediction by ZEFSAII (Michael W. Deem and Ramdas Pophale) SiO2 
 PCOD8217861
Probable space group: P M N A
;
_chemical_formula_sum "Si O2"
_cell_formula_units_Z 64
_cell_length_a 20.426785
_cell_length_b 10.315863
_cell_length_c 18.110632
_cell_angle_alpha 90.000000
_cell_angle_beta 90.000000
_cell_angle_gamma 90.000000
_cell_volume 3816.270846
_symmetry_space_group_name_H-M "P M N A"
_symmetry_group_IT_number 53
_symmetry_cell_setting 'orthorhombic'
loop_
_space_group_symop_operation_xyz
x,y,z
1/2-x,-y,1/2+z
x,-y,-z
1/2-x,y,1/2-z
-x,-y,-z
1/2+x,y,1/2-z
-x,y,z
1/2+x,-y,1/2+z
loop_
_atom_site_type_symbol
_atom_site_label
_atom_site_fract_x
_atom_site_fract_y
_atom_site_fract_z
Si Si1 0.620350 0.121128 0.951685
Si Si2 0.074554 0.721328 0.692869
Si Si3 0.573755 0.017729 0.804649
Si Si4 0.725225 0.879046 0.451563
Si Si5 0.689163 0.979398 0.300826
Si Si6 0.310730 0.717741 0.698319
Si Si7 0.223979 0.629788 0.958135
Si Si8 0.378576 0.629497 0.958444
O O1 0.697479 0.118921 0.938252
O O2 0.584654 0.113357 0.873143
O O3 0.597070 0.251474 0.991651
O O4 0.597061 0.000000 0.000000
O O5 0.089380 0.870234 0.670303
O O6 0.122032 0.681363 0.760013
O O7 0.087292 0.633209 0.621294
O O8 0.000000 0.702390 0.719779
O O9 0.500000 0.031693 0.775191
O O10 0.621468 0.056589 0.738507
O O11 0.701122 0.748525 0.490810
O O12 0.702690 0.000000 0.500000
O O13 0.690099 0.890234 0.372974
O O14 0.750000 0.940271 0.250000
O O15 0.693976 0.130692 0.322174
O O16 0.250000 0.677282 0.750000
O O17 0.309597 0.636938 0.622228
O O18 0.301343 0.635454 0.945417
O O19 0.201846 0.500000 0.000000
O O20 0.400664 0.500000 0.000000
#
# Coordination Sequence:
#
# PCOD8217861 Si02
#       8
#     8   8   8   8   8   8   8   8
#     4  10  18  29  50  74 102 135 171 202 247 306
#     4  10  20  33  51  76 104 136 174 213 251 303
#     4  10  20  32  49  76 107 137 170 213 260 303
#     4  10  18  30  52  79 102 128 170 212 253 299
#     4  10  18  30  52  79 102 132 172 218 255 295
#     4  10  18  31  55  76 100 136 173 209 256 303
#     4  10  20  34  52  80 108 136 167 213 262 305
#     4  10  20  33  49  75 110 141 171 204 251 308
#
# _framework density 16.770299000000001
#
# number of rings (size 3 to 8) (size 9 to 14) (size 15 to 20)
#    0.000    2.000    5.000    0.000    0.000    1.000 
#    0.000    1.875    0.000    1.500    0.000    0.000 
#    0.000    0.000    0.000    0.000    0.000    0.000 
#
# Total GULP energy -793763.073158 kJ/mol
# GULP energy per Si atom -12402.548018 kJ/mol
# Density = 1.673213 g / cm^3
# Si number density = 16.770299 Si / 1000 Ang^3
#
#
#
# Elastic Constant Matrix: (Units=GPa)
#
#
# Indices 1 2 3 4 5 6 
#
# 1 80.9181 31.9944 59.0643 0.0000 0.0000 0.0000
# 2 31.9944 97.1036 59.2487 0.0000 0.0000 0.0000
# 3 59.0643 59.2487 140.9420 0.0000 0.0000 0.0000
# 4 0.0000 0.0000 0.0000 27.8959 0.0000 0.0000
# 5 0.0000 0.0000 0.0000 0.0000 25.2948 0.0000
# 6 0.0000 0.0000 0.0000 0.0000 0.0000 11.4545
#
#
#
# Elastic Compliance Matrix: (Units=1/GPa)
#
#
# Indices 1 2 3 4 5 6 
#
# 1 0.018033 -0.001790 -0.006805 0.000000 0.000000 0.000000
# 2 -0.001790 0.014029 -0.005147 0.000000 0.000000 0.000000
# 3 -0.006805 -0.005147 0.012111 0.000000 0.000000 0.000000
# 4 0.000000 0.000000 0.000000 0.035848 0.000000 0.000000
# 5 0.000000 0.000000 0.000000 0.000000 0.039534 0.000000
# 6 0.000000 0.000000 0.000000 0.000000 0.000000 0.087302
#
#
# Mechanical properties :
#
#
# Convention : Reuss Voigt Hill
#
# Bulk Modulus (GPa) = 59.92083 68.84205 64.38144
# Shear Modulus (GPa) = 20.84194 24.17280 22.50737
#
# Velocity S-wave (km/s) = 3.52915 3.80070 3.66744
# Velocity P-wave (km/s) = 7.23978 7.77172 7.51046
#
# Compressibility (1/GPa) = 0.01668869
#
# Stress axis : x y z
#
# Youngs Moduli (GPa) = 55.45497 71.28283 82.57286
#
# Poissons Ratio (x) = 0.12757 0.56187
# Poissons Ratio (y) = 0.09924 0.42503
# Poissons Ratio (z) = 0.37735 0.36692
#
# Static dielectric constant tensor:
#      x y z
#    x 2.950710 0.000000 0.000000 
#    y 0.000000 3.019750 0.000000 
#    z 0.000000 0.000000 3.104120 
# 
# 
# High freq. dielectric constant tensor:
#      x y z
#    x 1.624920 0.000000 0.000000 
#    y 0.000000 1.624400 0.000000 
#    z 0.000000 0.000000 1.649240 
# 
# From -- ./inp_files/29100.got.cif
#   From: 2010.03.12/outbox.cif.g09.slc.cpg/sg53_15_cif.got.tgz:29100.got - 2010.04.16 14:36:59.
