data_PCOD8217129
_publ_section_title
;
Structure prediction by ZEFSAII (Michael W. Deem and Ramdas Pophale) SiO2 
 PCOD8217129
Probable space group: P N N A
;
_chemical_formula_sum "Si O2"
_cell_formula_units_Z 40
_cell_length_a 16.447170
_cell_length_b 4.876983
_cell_length_c 21.748617
_cell_angle_alpha 90.000000
_cell_angle_beta 90.000000
_cell_angle_gamma 90.000000
_cell_volume 1744.512431
_symmetry_space_group_name_H-M "P N N A"
_symmetry_group_IT_number 52
_symmetry_cell_setting 'orthorhombic'
loop_
_space_group_symop_operation_xyz
x,y,z
1/2-x,-y,z
x,1/2-y,1/2-z
1/2-x,1/2+y,1/2-z
-x,-y,-z
1/2+x,y,-z
-x,1/2+y,1/2+z
1/2+x,1/2-y,1/2+z
loop_
_atom_site_type_symbol
_atom_site_label
_atom_site_fract_x
_atom_site_fract_y
_atom_site_fract_z
Si Si1 0.159152 0.599026 0.187999
Si Si2 0.621334 0.645670 0.562134
Si Si3 0.450766 0.878084 0.887142
Si Si4 0.493055 0.368030 0.814934
Si Si5 0.834532 0.856548 0.485182
O O1 0.250000 0.500000 0.200459
O O2 0.128635 0.750000 0.250000
O O3 0.161991 0.791669 0.128071
O O4 0.092434 0.354213 0.176921
O O5 0.526409 0.584767 0.567422
O O6 0.673053 0.394999 0.533370
O O7 0.614818 0.906016 0.517315
O O8 0.469368 0.683156 0.828339
O O9 0.373056 0.766121 0.923191
O O10 0.440567 0.186350 0.862525
O O11 0.465835 0.250000 0.750000
O O12 0.750000 0.000000 0.467934
#
# Coordination Sequence:
#
# PCOD8217129 Si02
#       5
#     8   8   8   8   8
#     4  11  24  39  60  92 132 175 219 267 317 378
#     4  11  23  41  61  88 125 167 212 256 313 382
#     4  11  23  41  64  91 125 163 209 261 317 386
#     4  11  22  40  65  92 123 165 212 259 317 386
#     4  12  25  41  64  91 123 162 209 265 322 380
#
# _framework density 22.929040000000001
#
# number of rings (size 3 to 8) (size 9 to 14) (size 15 to 20)
#    0.000    0.800    0.000    9.600    0.000    4.800 
#    0.000    0.000    0.000    2.400    0.000    0.000 
#    0.000    0.000    0.000    0.000    0.000    0.000 
#
# Total GULP energy -495740.456821 kJ/mol
# GULP energy per Si atom -12393.511421 kJ/mol
# Density = 2.287685 g / cm^3
# Si number density = 22.929040 Si / 1000 Ang^3
#
#
#
# Elastic Constant Matrix: (Units=GPa)
#
#
# Indices 1 2 3 4 5 6 
#
# 1 86.8160 31.8588 54.1913 0.0000 0.0000 0.0000
# 2 31.8588 118.0569 30.3572 0.0000 0.0000 0.0000
# 3 54.1913 30.3572 100.2404 0.0000 0.0000 0.0000
# 4 0.0000 0.0000 0.0000 44.5765 0.0000 0.0000
# 5 0.0000 0.0000 0.0000 0.0000 33.9056 0.0000
# 6 0.0000 0.0000 0.0000 0.0000 0.0000 25.4173
#
#
#
# Elastic Compliance Matrix: (Units=1/GPa)
#
#
# Indices 1 2 3 4 5 6 
#
# 1 0.018074 -0.002565 -0.008994 0.000000 0.000000 0.000000
# 2 -0.002565 0.009550 -0.001506 0.000000 0.000000 0.000000
# 3 -0.008994 -0.001506 0.015295 0.000000 0.000000 0.000000
# 4 0.000000 0.000000 0.000000 0.022433 0.000000 0.000000
# 5 0.000000 0.000000 0.000000 0.000000 0.029494 0.000000
# 6 0.000000 0.000000 0.000000 0.000000 0.000000 0.039343
#
#
# Mechanical properties :
#
#
# Convention : Reuss Voigt Hill
#
# Bulk Modulus (GPa) = 59.56274 59.76975 59.66624
# Shear Modulus (GPa) = 30.13602 33.36028 31.74815
#
# Velocity S-wave (km/s) = 3.62928 3.81850 3.72509
# Velocity P-wave (km/s) = 6.60270 6.75019 6.67685
#
# Compressibility (1/GPa) = 0.01678902
#
# Stress axis : x y z
#
# Youngs Moduli (GPa) = 55.32750 104.71493 65.38295
#
# Poissons Ratio (x) = 0.26856 0.58808
# Poissons Ratio (y) = 0.14190 0.09844
# Poissons Ratio (z) = 0.49764 0.15766
#
# Static dielectric constant tensor:
#      x y z
#    x 3.768050 0.000000 0.000000 
#    y 0.000000 4.386260 0.000000 
#    z 0.000000 0.000000 4.174050 
# 
# 
# High freq. dielectric constant tensor:
#      x y z
#    x 1.871000 0.000000 0.000000 
#    y 0.000000 1.923040 0.000000 
#    z 0.000000 0.000000 1.909500 
# 
# From -- ./inp_files/33428.got.cif
#   From: 2010.06.25/outbox.cif.g09.slc.cpg/sg52_17_cif.got.tgz:33428.got - 2010.06.26 19:32:48.
