data_PCOD8217977
_publ_section_title
;
Structure prediction by ZEFSAII (Michael W. Deem and Ramdas Pophale) SiO2 
 PCOD8217977
Probable space group: P M N A
;
_chemical_formula_sum "Si O2"
_cell_formula_units_Z 64
_cell_length_a 9.078913
_cell_length_b 15.187799
_cell_length_c 24.061701
_cell_angle_alpha 90.000000
_cell_angle_beta 90.000000
_cell_angle_gamma 90.000000
_cell_volume 3317.836810
_symmetry_space_group_name_H-M "P M N A"
_symmetry_group_IT_number 53
_symmetry_cell_setting 'orthorhombic'
loop_
_space_group_symop_operation_xyz
x,y,z
1/2-x,-y,1/2+z
x,-y,-z
1/2-x,y,1/2-z
-x,-y,-z
1/2+x,y,1/2-z
-x,y,z
1/2+x,-y,1/2+z
loop_
_atom_site_type_symbol
_atom_site_label
_atom_site_fract_x
_atom_site_fract_y
_atom_site_fract_z
Si Si1 0.670439 0.170797 0.510347
Si Si2 0.825449 0.826462 0.600837
Si Si3 0.172367 0.447781 0.634196
Si Si4 0.826272 0.967607 0.691518
Si Si5 0.831459 0.120924 0.869653
Si Si6 0.333408 0.346740 0.976102
Si Si7 0.168788 0.631191 0.600189
Si Si8 0.170982 0.295084 0.805506
O O1 0.500000 0.172262 0.494275
O O2 0.759132 0.135664 0.456776
O O3 0.697927 0.109052 0.564367
O O4 0.719261 0.267582 0.528370
O O5 0.777192 0.888188 0.651356
O O6 0.760693 0.727703 0.612456
O O7 0.000000 0.824052 0.592823
O O8 0.201200 0.416145 0.571573
O O9 0.233074 0.549195 0.636144
O O10 0.262816 0.389143 0.677124
O O11 0.000000 0.442039 0.649447
O O12 0.750000 0.950787 0.750000
O O13 0.000000 0.970645 0.700372
O O14 0.776697 0.059162 0.664789
O O15 0.799782 0.222035 0.852666
O O16 0.000000 0.096178 0.854966
O O17 0.500000 0.309062 0.970802
O O18 0.313461 0.393974 0.035448
O O19 0.000000 0.638397 0.617162
O O20 0.250000 0.261384 0.750000
O O21 0.000000 0.308282 0.793252
#
# Coordination Sequence:
#
# PCOD8217977 Si02
#       8
#     8   8   8   8   8   8   8   8
#     4  10  19  33  55  85 118 151 184 224 278 333
#     4   9  20  39  59  83 115 151 187 230 278 333
#     4  10  18  30  53  81 108 146 188 225 270 321
#     4  11  24  41  63  86 109 141 187 236 283 333
#     4  10  22  39  59  84 115 147 182 226 281 339
#     4   9  16  28  49  79 114 149 184 221 265 324
#     4   8  15  30  53  80 111 144 183 223 264 319
#     4  11  23  39  55  76 110 148 188 233 280 335
#
# _framework density 19.289677000000001
#
# number of rings (size 3 to 8) (size 9 to 14) (size 15 to 20)
#    0.000    2.250    1.250    2.625    0.000    6.000 
#    0.000    5.625    0.000    5.250    0.000    0.000 
#    0.000    0.000    0.000    0.000    0.000    0.000 
#
# Total GULP energy -793357.766300 kJ/mol
# GULP energy per Si atom -12396.215098 kJ/mol
# Density = 1.924577 g / cm^3
# Si number density = 19.289677 Si / 1000 Ang^3
#
#
#
# Elastic Constant Matrix: (Units=GPa)
#
#
# Indices 1 2 3 4 5 6 
#
# 1 66.0434 33.4406 52.1412 0.0000 0.0000 0.0000
# 2 33.4406 77.9916 57.0892 0.0000 0.0000 0.0000
# 3 52.1412 57.0892 112.5994 0.0000 0.0000 0.0000
# 4 0.0000 0.0000 0.0000 26.8981 0.0000 0.0000
# 5 0.0000 0.0000 0.0000 0.0000 31.3959 0.0000
# 6 0.0000 0.0000 0.0000 0.0000 0.0000 20.2876
#
#
#
# Elastic Compliance Matrix: (Units=1/GPa)
#
#
# Indices 1 2 3 4 5 6 
#
# 1 0.024451 -0.003492 -0.009552 0.000000 0.000000 0.000000
# 2 -0.003492 0.020887 -0.008973 0.000000 0.000000 0.000000
# 3 -0.009552 -0.008973 0.017854 0.000000 0.000000 0.000000
# 4 0.000000 0.000000 0.000000 0.037177 0.000000 0.000000
# 5 0.000000 0.000000 0.000000 0.000000 0.031851 0.000000
# 6 0.000000 0.000000 0.000000 0.000000 0.000000 0.049291
#
#
# Mechanical properties :
#
#
# Convention : Reuss Voigt Hill
#
# Bulk Modulus (GPa) = 52.19758 60.21960 56.20859
# Shear Modulus (GPa) = 21.55802 23.31388 22.43595
#
# Velocity S-wave (km/s) = 3.34667 3.48029 3.41413
# Velocity P-wave (km/s) = 6.48477 6.88740 6.68911
#
# Compressibility (1/GPa) = 0.01915798
#
# Stress axis : x y z
#
# Youngs Moduli (GPa) = 40.89813 47.87576 56.01043
#
# Poissons Ratio (x) = 0.16718 0.53502
# Poissons Ratio (y) = 0.14281 0.50259
# Poissons Ratio (z) = 0.39066 0.42960
#
# Static dielectric constant tensor:
#      x y z
#    x 3.372340 0.000000 0.000000 
#    y 0.000000 3.606930 0.000000 
#    z 0.000000 0.000000 3.522100 
# 
# 
# High freq. dielectric constant tensor:
#      x y z
#    x 1.733910 0.000000 0.000000 
#    y 0.000000 1.747100 0.000000 
#    z 0.000000 0.000000 1.745220 
# 
# From -- ./inp_files/34156.got.cif
#   From: 2010.03.12/outbox.cif.g09.slc.cpg/sg53_18_cif.got.tgz:34156.got - 2010.04.16 14:36:59.
