data_PCOD8217936
_publ_section_title
;
Structure prediction by ZEFSAII (Michael W. Deem and Ramdas Pophale) SiO2 
 PCOD8217936
Probable space group: P M N A
;
_chemical_formula_sum "Si O2"
_cell_formula_units_Z 48
_cell_length_a 9.055846
_cell_length_b 9.903372
_cell_length_c 33.925714
_cell_angle_alpha 90.000000
_cell_angle_beta 90.000000
_cell_angle_gamma 90.000000
_cell_volume 3042.573776
_symmetry_space_group_name_H-M "P M N A"
_symmetry_group_IT_number 53
_symmetry_cell_setting 'orthorhombic'
loop_
_space_group_symop_operation_xyz
x,y,z
1/2-x,-y,1/2+z
x,-y,-z
1/2-x,y,1/2-z
-x,-y,-z
1/2+x,y,1/2-z
-x,y,z
1/2+x,-y,1/2+z
loop_
_atom_site_type_symbol
_atom_site_label
_atom_site_fract_x
_atom_site_fract_y
_atom_site_fract_z
Si Si1 0.325260 0.500004 0.292051
Si Si2 0.173596 0.155440 0.421969
Si Si3 0.166155 0.839543 0.000000
Si Si4 0.166064 0.352147 0.354677
Si Si5 0.173596 0.844570 0.421969
Si Si6 0.666064 0.647864 0.145324
O O1 0.250000 0.500002 0.250000
O O2 0.500000 0.500004 0.287610
O O3 0.270290 0.365569 0.315862
O O4 0.270291 0.634441 0.315862
O O5 0.251926 0.213278 0.460969
O O6 0.231251 0.241737 0.384746
O O7 0.000000 0.174535 0.428100
O O8 0.215602 0.000006 0.414030
O O9 0.000000 0.783516 0.000000
O O10 0.248070 0.786727 0.039033
O O11 0.170697 0.000000 0.000000
O O12 0.162049 0.500007 0.375756
O O13 0.000000 0.310437 0.341506
O O14 0.231247 0.758278 0.384744
O O15 0.000000 0.825477 0.428101
O O16 0.500000 0.689572 0.158496
#
# Coordination Sequence:
#
# PCOD8217936 Si02
#       6
#     8   8   8   8   8   8
#     4  10  18  30  50  71  90 115 146 178 215 264
#     4   9  16  28  47  67  88 118 154 186 218 260
#     4   9  17  27  40  61  90 122 155 188 220 256
#     4   8  16  30  46  67  92 115 144 182 222 263
#     4   9  16  28  47  67  88 118 154 186 218 260
#     4   8  16  30  46  67  92 115 144 182 222 263
#
# _framework density 15.776118
#
# number of rings (size 3 to 8) (size 9 to 14) (size 15 to 20)
#    1.000    2.167    0.000    1.500    0.000    3.333 
#    0.000    0.833    0.000    6.000    0.000    0.000 
#    0.000    0.000    0.000    0.000    0.000    0.000 
#
# Total GULP energy -594702.981347 kJ/mol
# GULP energy per Si atom -12389.645445 kJ/mol
# Density = 1.574021 g / cm^3
# Si number density = 15.776118 Si / 1000 Ang^3
#
#
#
# Elastic Constant Matrix: (Units=GPa)
#
#
# Indices 1 2 3 4 5 6 
#
# 1 90.6791 27.5413 70.9197 0.0000 0.0000 0.0000
# 2 27.5413 48.3595 52.3929 0.0000 0.0000 0.0000
# 3 70.9197 52.3929 153.9602 0.0000 0.0000 0.0000
# 4 0.0000 0.0000 0.0000 25.7084 0.0000 0.0000
# 5 0.0000 0.0000 0.0000 0.0000 28.2351 0.0000
# 6 0.0000 0.0000 0.0000 0.0000 0.0000 14.7917
#
#
#
# Elastic Compliance Matrix: (Units=1/GPa)
#
#
# Indices 1 2 3 4 5 6 
#
# 1 0.017352 -0.001936 -0.007334 0.000000 0.000000 0.000000
# 2 -0.001936 0.032971 -0.010328 0.000000 0.000000 0.000000
# 3 -0.007334 -0.010328 0.013388 0.000000 0.000000 0.000000
# 4 0.000000 0.000000 0.000000 0.038898 0.000000 0.000000
# 5 0.000000 0.000000 0.000000 0.000000 0.035417 0.000000
# 6 0.000000 0.000000 0.000000 0.000000 0.000000 0.067606
#
#
# Mechanical properties :
#
#
# Convention : Reuss Voigt Hill
#
# Bulk Modulus (GPa) = 40.79323 66.07850 53.43587
# Shear Modulus (GPa) = 19.76294 23.22336 21.49315
#
# Velocity S-wave (km/s) = 3.54321 3.84090 3.69505
# Velocity P-wave (km/s) = 6.53091 7.85150 7.22146
#
# Compressibility (1/GPa) = 0.02451387
#
# Stress axis : x y z
#
# Youngs Moduli (GPa) = 57.63073 30.33005 74.69347
#
# Poissons Ratio (x) = 0.05873 0.54779
# Poissons Ratio (y) = 0.11160 0.77143
# Poissons Ratio (z) = 0.42266 0.31325
#
# Static dielectric constant tensor:
#      x y z
#    x 2.968110 0.000000 0.000000 
#    y 0.000000 2.771370 0.000000 
#    z 0.000000 0.000000 2.960590 
# 
# 
# High freq. dielectric constant tensor:
#      x y z
#    x 1.604950 0.000000 0.000000 
#    y 0.000000 1.569590 0.000000 
#    z 0.000000 0.000000 1.598270 
# 
# From -- ./inp_files/37900.got.cif
#   From: 2010.03.12/outbox.cif.g09.slc.cpg/sg53_19_cif.got.tgz:37900.got - 2010.04.16 14:36:59.
