data_PCOD8217381
_publ_section_title
;
Structure prediction by ZEFSAII (Michael W. Deem and Ramdas Pophale) SiO2 
 PCOD8217381
Probable space group: P N N A
;
_chemical_formula_sum "Si O2"
_cell_formula_units_Z 40
_cell_length_a 13.528613
_cell_length_b 11.792732
_cell_length_c 11.648807
_cell_angle_alpha 90.000000
_cell_angle_beta 90.000000
_cell_angle_gamma 90.000000
_cell_volume 1858.442601
_symmetry_space_group_name_H-M "P N N A"
_symmetry_group_IT_number 52
_symmetry_cell_setting 'orthorhombic'
loop_
_space_group_symop_operation_xyz
x,y,z
1/2-x,-y,z
x,1/2-y,1/2-z
1/2-x,1/2+y,1/2-z
-x,-y,-z
1/2+x,y,-z
-x,1/2+y,1/2+z
1/2+x,1/2-y,1/2+z
loop_
_atom_site_type_symbol
_atom_site_label
_atom_site_fract_x
_atom_site_fract_y
_atom_site_fract_z
Si Si1 0.309504 0.605386 0.031194
Si Si2 0.989165 0.167903 0.350960
Si Si3 0.750000 0.500000 0.406014
Si Si4 0.846033 0.206450 0.972143
Si Si5 0.538081 0.750000 0.750000
Si Si6 0.886376 0.941238 0.290502
O O1 0.250000 0.500000 0.088898
O O2 0.417734 0.613269 0.085287
O O3 0.252420 0.721770 0.049624
O O4 0.314490 0.581186 0.896259
O O5 0.026385 0.250000 0.250000
O O6 0.920060 0.234652 0.439162
O O7 0.926997 0.068348 0.293152
O O8 0.814855 0.417653 0.485236
O O9 0.823395 0.574663 0.326271
O O10 0.897536 0.193263 0.849675
O O11 0.473353 0.851017 0.699543
#
# Coordination Sequence:
#
# PCOD8217381 Si02
#       6
#     8   8   4   8   4   8
#     4  12  24  44  74 105 139 189 248 295 361 439
#     4  12  25  47  74 106 145 188 241 304 367 436
#     4  12  26  44  76 108 140 190 250 302 364 434
#     4  12  27  48  68 106 149 190 241 300 366 434
#     4  12  28  46  68 100 154 192 234 300 370 432
#     4  12  23  45  76 102 139 189 243 305 360 433
#
# _framework density 21.523398
#
# number of rings (size 3 to 8) (size 9 to 14) (size 15 to 20)
#    0.000    0.000    7.000    3.000    1.400    2.400 
#    1.800    0.000    0.000    0.000    0.000    0.000 
#    0.000    0.000    0.000    0.000    0.000    0.000 
#
# Total GULP energy -496282.663956 kJ/mol
# GULP energy per Si atom -12407.066599 kJ/mol
# Density = 2.147441 g / cm^3
# Si number density = 21.523398 Si / 1000 Ang^3
#
#
#
# Elastic Constant Matrix: (Units=GPa)
#
#
# Indices 1 2 3 4 5 6 
#
# 1 114.3610 37.6257 39.0024 0.0000 0.0000 0.0000
# 2 37.6257 96.5236 30.4039 0.0000 0.0000 0.0000
# 3 39.0024 30.4039 96.2083 0.0000 0.0000 0.0000
# 4 0.0000 0.0000 0.0000 23.8377 0.0000 0.0000
# 5 0.0000 0.0000 0.0000 0.0000 367.8236 0.0000
# 6 0.0000 0.0000 0.0000 0.0000 0.0000 39.2496
#
#
#
# Elastic Compliance Matrix: (Units=1/GPa)
#
#
# Indices 1 2 3 4 5 6 
#
# 1 0.010967 -0.003192 -0.003437 0.000000 0.000000 0.000000
# 2 -0.003192 0.012435 -0.002635 0.000000 0.000000 0.000000
# 3 -0.003437 -0.002635 0.012620 0.000000 0.000000 0.000000
# 4 0.000000 0.000000 0.000000 0.041950 0.000000 0.000000
# 5 0.000000 0.000000 0.000000 0.000000 0.002719 0.000000
# 6 0.000000 0.000000 0.000000 0.000000 0.000000 0.025478
#
#
# Mechanical properties :
#
#
# Convention : Reuss Voigt Hill
#
# Bulk Modulus (GPa) = 57.16855 57.90633 57.53744
# Shear Modulus (GPa) = 38.30563 99.51958 68.91261
#
# Velocity S-wave (km/s) = 4.22325 6.80722 5.66454
# Velocity P-wave (km/s) = 7.09929 9.42054 8.34106
#
# Compressibility (1/GPa) = 0.01749214
#
# Stress axis : x y z
#
# Youngs Moduli (GPa) = 91.18501 80.42020 79.23716
#
# Poissons Ratio (x) = 0.25672 0.27234
# Poissons Ratio (y) = 0.29109 0.20883
# Poissons Ratio (z) = 0.31341 0.21195
#
# Static dielectric constant tensor:
#      x y z
#    x 3.954380 0.000000 0.000000 
#    y 0.000000 3.897460 0.000000 
#    z 0.000000 0.000000 3.905570 
# 
# 
# High freq. dielectric constant tensor:
#      x y z
#    x 1.861080 0.000000 0.000000 
#    y 0.000000 1.851530 0.000000 
#    z 0.000000 0.000000 1.844970 
# 
# From -- ./inp_files/19301.got.cif
#   From: 2010.06.25/outbox.cif.g09.slc.cpg/sg52_10_cif.got.tgz:19301.got - 2010.06.26 19:32:48.
