data_PCOD8217018
_publ_section_title
;
Structure prediction by ZEFSAII (Michael W. Deem and Ramdas Pophale) SiO2 
 PCOD8217018
Probable space group: P N N A
;
_chemical_formula_sum "Si O2"
_cell_formula_units_Z 64
_cell_length_a 19.173892
_cell_length_b 11.753464
_cell_length_c 13.646738
_cell_angle_alpha 90.000000
_cell_angle_beta 90.000000
_cell_angle_gamma 90.000000
_cell_volume 3075.424091
_symmetry_space_group_name_H-M "P N N A"
_symmetry_group_IT_number 52
_symmetry_cell_setting 'orthorhombic'
loop_
_space_group_symop_operation_xyz
x,y,z
1/2-x,-y,z
x,1/2-y,1/2-z
1/2-x,1/2+y,1/2-z
-x,-y,-z
1/2+x,y,-z
-x,1/2+y,1/2+z
1/2+x,1/2-y,1/2+z
loop_
_atom_site_type_symbol
_atom_site_label
_atom_site_fract_x
_atom_site_fract_y
_atom_site_fract_z
Si Si1 0.293088 0.118663 0.275602
Si Si2 0.052243 0.591857 0.290176
Si Si3 0.777528 0.122125 0.501243
Si Si4 0.680118 0.070238 0.221295
Si Si5 0.342240 0.711989 0.901122
Si Si6 0.416807 0.188485 0.595025
Si Si7 0.997720 0.297127 0.905169
Si Si8 0.945353 0.415464 0.302703
O O1 0.264275 0.250000 0.250000
O O2 0.365053 0.096597 0.220191
O O3 0.309039 0.123033 0.390462
O O4 0.250000 0.000000 0.251524
O O5 0.011315 0.624027 0.190242
O O6 0.035003 0.675498 0.379426
O O7 0.022835 0.467856 0.319413
O O8 0.708670 0.202269 0.495395
O O9 0.835135 0.165721 0.423927
O O10 0.750000 0.000000 0.469904
O O11 0.686740 0.183146 0.158896
O O12 0.667254 0.099069 0.334946
O O13 0.750000 0.000000 0.207694
O O14 0.614062 0.006634 0.176080
O O15 0.421893 0.719948 0.934144
O O16 0.459986 0.148448 0.499589
O O17 0.432685 0.319721 0.616383
O O18 0.441042 0.121747 0.690187
#
# Coordination Sequence:
#
# PCOD8217018 Si02
#       8
#     8   8   8   8   8   8   8   8
#     4  11  24  47  72  96 132 180 235 296 350 416
#     4  11  20  44  70  92 126 176 227 277 345 423
#     4  11  23  40  64  95 132 175 225 276 343 421
#     4  11  20  36  59  87 126 165 201 260 331 409
#     4  11  21  37  61  93 122 161 218 269 326 409
#     4  11  24  40  59  93 136 171 215 282 340 402
#     4  11  21  41  70  90 126 170 225 278 334 411
#     4  11  23  39  59  94 132 169 216 270 348 404
#
# _framework density 20.810137999999998
#
# number of rings (size 3 to 8) (size 9 to 14) (size 15 to 20)
#    0.000    1.000    5.000    3.375    0.000    5.000 
#    4.500    1.875    0.000    0.000    0.000    0.000 
#    0.000    0.000    0.000    0.000    0.000    0.000 
#
# Total GULP energy -793137.803196 kJ/mol
# GULP energy per Si atom -12392.778175 kJ/mol
# Density = 2.076277 g / cm^3
# Si number density = 20.810138 Si / 1000 Ang^3
#
#
#
# Elastic Constant Matrix: (Units=GPa)
#
#
# Indices 1 2 3 4 5 6 
#
# 1 132.0352 39.2193 20.4469 0.0000 0.0000 0.0000
# 2 39.2193 108.7018 8.9968 0.0000 0.0000 0.0000
# 3 20.4469 8.9968 53.5540 0.0000 0.0000 0.0000
# 4 0.0000 0.0000 0.0000 11.6937 0.0000 0.0000
# 5 0.0000 0.0000 0.0000 0.0000 75.9978 0.0000
# 6 0.0000 0.0000 0.0000 0.0000 0.0000 39.3482
#
#
#
# Elastic Compliance Matrix: (Units=1/GPa)
#
#
# Indices 1 2 3 4 5 6 
#
# 1 0.008906 -0.002973 -0.002901 0.000000 0.000000 0.000000
# 2 -0.002973 0.010322 -0.000599 0.000000 0.000000 0.000000
# 3 -0.002901 -0.000599 0.019881 0.000000 0.000000 0.000000
# 4 0.000000 0.000000 0.000000 0.085516 0.000000 0.000000
# 5 0.000000 0.000000 0.000000 0.000000 0.013158 0.000000
# 6 0.000000 0.000000 0.000000 0.000000 0.000000 0.025414
#
#
# Mechanical properties :
#
#
# Convention : Reuss Voigt Hill
#
# Bulk Modulus (GPa) = 38.22195 47.95743 43.08969
# Shear Modulus (GPa) = 27.04685 40.44981 33.74833
#
# Velocity S-wave (km/s) = 3.60904 4.41359 4.03143
# Velocity P-wave (km/s) = 5.98112 7.00487 6.51314
#
# Compressibility (1/GPa) = 0.02616297
#
# Stress axis : x y z
#
# Youngs Moduli (GPa) = 112.28241 96.88264 50.29951
#
# Poissons Ratio (x) = 0.28805 0.14591
# Poissons Ratio (y) = 0.33384 0.03012
# Poissons Ratio (z) = 0.32572 0.05802
#
# Static dielectric constant tensor:
#      x y z
#    x 3.780060 0.000000 0.000000 
#    y 0.000000 4.014850 0.000000 
#    z 0.000000 0.000000 3.634320 
# 
# 
# High freq. dielectric constant tensor:
#      x y z
#    x 1.819550 0.000000 0.000000 
#    y 0.000000 1.821770 0.000000 
#    z 0.000000 0.000000 1.798610 
# 
# From -- ./inp_files/28299.got.cif
#   From: 2010.06.25/outbox.cif.g09.slc.cpg/sg52_15_cif.got.tgz:28299.got - 2010.06.26 19:32:48.
