data_PCOD8217273
_publ_section_title
;
Structure prediction by ZEFSAII (Michael W. Deem and Ramdas Pophale) SiO2 
 PCOD8217273
Probable space group: P N N A
;
_chemical_formula_sum "Si O2"
_cell_formula_units_Z 48
_cell_length_a 14.267378
_cell_length_b 15.160760
_cell_length_c 9.852984
_cell_angle_alpha 90.000000
_cell_angle_beta 90.000000
_cell_angle_gamma 90.000000
_cell_volume 2131.242745
_symmetry_space_group_name_H-M "P N N A"
_symmetry_group_IT_number 52
_symmetry_cell_setting 'orthorhombic'
loop_
_space_group_symop_operation_xyz
x,y,z
1/2-x,-y,z
x,1/2-y,1/2-z
1/2-x,1/2+y,1/2-z
-x,-y,-z
1/2+x,y,-z
-x,1/2+y,1/2+z
1/2+x,1/2-y,1/2+z
loop_
_atom_site_type_symbol
_atom_site_label
_atom_site_fract_x
_atom_site_fract_y
_atom_site_fract_z
Si Si1 0.141633 0.261969 0.977822
Si Si2 0.155384 0.725264 0.096515
Si Si3 0.357872 0.471237 0.021883
Si Si4 0.527252 0.800088 0.124237
Si Si5 0.941259 0.656075 0.259983
Si Si6 0.493802 0.471494 0.783970
O O1 0.246579 0.270899 0.020733
O O2 0.071005 0.251842 0.104198
O O3 0.114883 0.347960 0.884441
O O4 0.130250 0.173241 0.884261
O O5 0.174651 0.750000 0.250000
O O6 0.120042 0.624775 0.086644
O O7 0.086334 0.792563 0.015151
O O8 0.250000 0.500000 0.024664
O O9 0.416595 0.540233 0.116145
O O10 0.397058 0.467115 0.868926
O O11 0.578190 0.750000 0.250000
O O12 0.508116 0.901471 0.162615
O O13 0.005324 0.750000 0.250000
O O14 0.999404 0.568056 0.286846
#
# Coordination Sequence:
#
# PCOD8217273 Si02
#       6
#     8   8   8   8   8   8
#     4   9  23  43  72  97 143 181 232 290 354 412
#     4  12  27  46  71 104 143 186 239 293 357 427
#     4  11  26  42  70 105 143 189 240 292 358 424
#     4  12  26  43  72 104 139 187 237 290 355 427
#     4   8  21  41  75  94 138 187 228 281 366 407
#     4  11  24  44  71 104 144 184 241 295 349 434
#
# _framework density 22.522069999999999
#
# number of rings (size 3 to 8) (size 9 to 14) (size 15 to 20)
#    1.000    0.333    1.667    2.500   14.000    2.000 
#    0.000    0.000    0.000    0.000    0.000    0.000 
#    0.000    0.000    0.000    0.000    0.000    0.000 
#
# Total GULP energy -594829.672296 kJ/mol
# GULP energy per Si atom -12392.284840 kJ/mol
# Density = 2.247081 g / cm^3
# Si number density = 22.522070 Si / 1000 Ang^3
#
#
#
# Elastic Constant Matrix: (Units=GPa)
#
#
# Indices 1 2 3 4 5 6 
#
# 1 72.2300 12.6692 -1.2499 0.0000 0.0000 0.0000
# 2 12.6692 91.3867 23.6426 0.0000 0.0000 0.0000
# 3 -1.2499 23.6426 100.5032 0.0000 0.0000 0.0000
# 4 0.0000 0.0000 0.0000 32.0011 0.0000 0.0000
# 5 0.0000 0.0000 0.0000 0.0000 6.2042 0.0000
# 6 0.0000 0.0000 0.0000 0.0000 0.0000 24.4637
#
#
#
# Elastic Compliance Matrix: (Units=1/GPa)
#
#
# Indices 1 2 3 4 5 6 
#
# 1 0.014234 -0.002150 0.000683 0.000000 0.000000 0.000000
# 2 -0.002150 0.011976 -0.002844 0.000000 0.000000 0.000000
# 3 0.000683 -0.002844 0.010627 0.000000 0.000000 0.000000
# 4 0.000000 0.000000 0.000000 0.031249 0.000000 0.000000
# 5 0.000000 0.000000 0.000000 0.000000 0.161180 0.000000
# 6 0.000000 0.000000 0.000000 0.000000 0.000000 0.040877
#
#
# Mechanical properties :
#
#
# Convention : Reuss Voigt Hill
#
# Bulk Modulus (GPa) = 35.44218 37.13822 36.29020
# Shear Modulus (GPa) = 17.35083 27.80433 22.57758
#
# Velocity S-wave (km/s) = 2.77861 3.51741 3.16961
# Velocity P-wave (km/s) = 5.10539 5.74645 5.43538
#
# Compressibility (1/GPa) = 0.02821497
#
# Stress axis : x y z
#
# Youngs Moduli (GPa) = 70.25642 83.49794 94.09576
#
# Poissons Ratio (x) = 0.17951 -0.06424
# Poissons Ratio (y) = 0.15104 0.26762
# Poissons Ratio (z) = -0.04797 0.23748
#
# Static dielectric constant tensor:
#      x y z
#    x 3.915640 0.000000 0.000000 
#    y 0.000000 4.301440 0.000000 
#    z 0.000000 0.000000 4.078580 
# 
# 
# High freq. dielectric constant tensor:
#      x y z
#    x 1.875060 0.000000 0.000000 
#    y 0.000000 1.886600 0.000000 
#    z 0.000000 0.000000 1.897910 
# 
# From -- ./inp_files/10482.got.cif
#   From: 2010.06.25/outbox.cif.g09.slc.cpg/sg52_6_cif.got.tgz:10482.got - 2010.06.26 19:32:48.
