data_PCOD8217984
_publ_section_title
;
Structure prediction by ZEFSAII (Michael W. Deem and Ramdas Pophale) SiO2 
 PCOD8217984
Probable space group: P M N A
;
_chemical_formula_sum "Si O2"
_cell_formula_units_Z 48
_cell_length_a 14.880051
_cell_length_b 13.396778
_cell_length_c 15.300619
_cell_angle_alpha 90.000000
_cell_angle_beta 90.000000
_cell_angle_gamma 90.000000
_cell_volume 3050.097914
_symmetry_space_group_name_H-M "P M N A"
_symmetry_group_IT_number 53
_symmetry_cell_setting 'orthorhombic'
loop_
_space_group_symop_operation_xyz
x,y,z
1/2-x,-y,1/2+z
x,-y,-z
1/2-x,y,1/2-z
-x,-y,-z
1/2+x,y,1/2-z
-x,y,z
1/2+x,-y,1/2+z
loop_
_atom_site_type_symbol
_atom_site_label
_atom_site_fract_x
_atom_site_fract_y
_atom_site_fract_z
Si Si1 0.156909 0.020208 0.289034
Si Si2 0.597174 0.830602 0.920719
Si Si3 0.216407 0.145920 0.579622
Si Si4 0.500000 0.356624 0.066725
Si Si5 0.098995 0.138494 0.841151
Si Si6 0.000000 0.426641 0.631906
Si Si7 0.341020 0.692009 0.208772
O O1 0.250000 0.058252 0.250000
O O2 0.172463 0.944018 0.367986
O O3 0.100682 0.964355 0.213893
O O4 0.106866 0.117501 0.326142
O O5 0.500000 0.865688 0.961583
O O6 0.589061 0.709841 0.910016
O O7 0.681846 0.860491 0.980476
O O8 0.325219 0.137749 0.583061
O O9 0.184091 0.250287 0.620101
O O10 0.500000 0.454037 0.126646
O O11 0.500000 0.379973 0.963987
O O12 0.116501 0.230668 0.776879
O O13 0.000000 0.148856 0.883879
O O14 0.911612 0.394123 0.685581
O O15 0.250000 0.644587 0.250000
#
# Coordination Sequence:
#
# PCOD8217984 Si02
#       7
#     8   8   8   4   8   4   8
#     4   9  18  28  43  65  96 126 152 186 220 266
#     4  10  18  31  45  69  89 123 156 185 224 276
#     4   9  17  27  41  70  98 116 153 185 228 279
#     4   9  22  28  46  69  90 124 150 193 241 275
#     4   9  16  27  44  70  94 123 148 185 231 272
#     4  11  16  34  45  64 107 112 145 201 250 277
#     4   9  16  26  45  69  95 122 148 184 236 282
#
# _framework density 15.7372
#
# number of rings (size 3 to 8) (size 9 to 14) (size 15 to 20)
#    0.500    2.167    2.500    3.000    0.000    2.000 
#    0.000    0.833    0.000    9.000    0.000    0.000 
#    2.500    4.500    0.000    0.000    0.000    0.000 
#
# Total GULP energy -594710.741256 kJ/mol
# GULP energy per Si atom -12389.807110 kJ/mol
# Density = 1.570138 g / cm^3
# Si number density = 15.737200 Si / 1000 Ang^3
#
#
#
# Elastic Constant Matrix: (Units=GPa)
#
#
# Indices 1 2 3 4 5 6 
#
# 1 123.9028 43.6506 36.7582 0.0000 0.0000 0.0000
# 2 43.6506 79.6390 35.2077 0.0000 0.0000 0.0000
# 3 36.7582 35.2077 48.2841 0.0000 0.0000 0.0000
# 4 0.0000 0.0000 0.0000 18.4594 0.0000 0.0000
# 5 0.0000 0.0000 0.0000 0.0000 24.4361 0.0000
# 6 0.0000 0.0000 0.0000 0.0000 0.0000 18.3529
#
#
#
# Elastic Compliance Matrix: (Units=1/GPa)
#
#
# Indices 1 2 3 4 5 6 
#
# 1 0.011030 -0.003443 -0.005886 0.000000 0.000000 0.000000
# 2 -0.003443 0.019605 -0.011674 0.000000 0.000000 0.000000
# 3 -0.005886 -0.011674 0.033705 0.000000 0.000000 0.000000
# 4 0.000000 0.000000 0.000000 0.054173 0.000000 0.000000
# 5 0.000000 0.000000 0.000000 0.000000 0.040923 0.000000
# 6 0.000000 0.000000 0.000000 0.000000 0.000000 0.054487
#
#
# Mechanical properties :
#
#
# Convention : Reuss Voigt Hill
#
# Bulk Modulus (GPa) = 44.77883 53.67323 49.22603
# Shear Modulus (GPa) = 18.98433 21.33030 20.15732
#
# Velocity S-wave (km/s) = 3.47700 3.68558 3.58281
# Velocity P-wave (km/s) = 6.68096 7.23127 6.96156
#
# Compressibility (1/GPa) = 0.02233198
#
# Stress axis : x y z
#
# Youngs Moduli (GPa) = 90.65971 51.00721 29.66962
#
# Poissons Ratio (x) = 0.17564 0.17465
# Poissons Ratio (y) = 0.31218 0.34637
# Poissons Ratio (z) = 0.53365 0.59547
#
# Static dielectric constant tensor:
#      x y z
#    x 3.076110 0.000000 0.000000 
#    y 0.000000 2.824080 0.000000 
#    z 0.000000 0.000000 2.696780 
# 
# 
# High freq. dielectric constant tensor:
#      x y z
#    x 1.607270 0.000000 0.000000 
#    y 0.000000 1.579550 0.000000 
#    z 0.000000 0.000000 1.570760 
# 
# From -- ./inp_files/15991.got.cif
#   From: 2010.03.12/outbox.cif.g09.slc.cpg/sg53_8_cif.got.tgz:15991.got - 2010.04.16 14:36:59.
