data_PCOD8217515
_publ_section_title
;
Structure prediction by ZEFSAII (Michael W. Deem and Ramdas Pophale) SiO2 
 PCOD8217515
Probable space group: P M N A
;
_chemical_formula_sum "Si O2"
_cell_formula_units_Z 64
_cell_length_a 24.435312
_cell_length_b 9.344091
_cell_length_c 18.922576
_cell_angle_alpha 90.000000
_cell_angle_beta 90.000000
_cell_angle_gamma 90.000000
_cell_volume 4320.511905
_symmetry_space_group_name_H-M "P M N A"
_symmetry_group_IT_number 53
_symmetry_cell_setting 'orthorhombic'
loop_
_space_group_symop_operation_xyz
x,y,z
1/2-x,-y,1/2+z
x,-y,-z
1/2-x,y,1/2-z
-x,-y,-z
1/2+x,y,1/2-z
-x,y,z
1/2+x,-y,1/2+z
loop_
_atom_site_type_symbol
_atom_site_label
_atom_site_fract_x
_atom_site_fract_y
_atom_site_fract_z
Si Si1 0.387201 0.033198 0.638659
Si Si2 0.936874 0.194395 0.043123
Si Si3 0.372782 0.588627 0.624407
Si Si4 0.233306 0.353671 0.028845
Si Si5 0.280525 0.907229 0.433888
Si Si6 0.726614 0.147577 0.139999
Si Si7 0.563239 0.695072 0.389535
Si Si8 0.663702 0.809592 0.726581
O O1 0.328084 0.101909 0.623888
O O2 0.427863 0.164090 0.659562
O O3 0.406520 0.949570 0.567961
O O4 0.383124 0.923616 0.704417
O O5 0.924720 0.321905 0.097563
O O6 0.000000 0.156655 0.043349
O O7 0.918010 0.249785 0.966578
O O8 0.324785 0.609740 0.566222
O O9 0.394280 0.427602 0.633762
O O10 0.354299 0.649833 0.701480
O O11 0.273928 0.277026 0.083806
O O12 0.259802 0.500000 0.000000
O O13 0.230217 0.253496 0.959501
O O14 0.301328 0.000000 0.500000
O O15 0.227765 0.991783 0.399352
O O16 0.781455 0.153146 0.185195
O O17 0.673638 0.174236 0.189469
O O18 0.500000 0.643544 0.386717
#
# Coordination Sequence:
#
# PCOD8217515 Si02
#       8
#     8   8   8   8   8   8   8   8
#     4  10  17  26  39  53  72 101 139 174 202 231
#     4  10  18  26  36  51  73 102 136 173 208 232
#     4  10  18  27  39  52  76 107 137 164 194 234
#     4  10  17  25  40  60  79  99 125 158 196 235
#     4   9  15  24  40  57  74  98 127 161 198 230
#     4   8  15  28  42  56  74  95 129 167 197 233
#     4  11  20  27  36  54  79 105 138 178 210 227
#     4   8  16  29  42  53  69 101 135 166 197 231
#
# _framework density 14.81306
#
# number of rings (size 3 to 8) (size 9 to 14) (size 15 to 20)
#    0.000    2.500    0.000    6.750    0.000    2.000 
#    0.000    1.250    0.000    6.000    0.000    0.000 
#    0.000    0.000    0.000    0.000    0.000  282.500 
#
# Total GULP energy -792880.378470 kJ/mol
# GULP energy per Si atom -12388.755914 kJ/mol
# Density = 1.477934 g / cm^3
# Si number density = 14.813060 Si / 1000 Ang^3
#
#
#
# Elastic Constant Matrix: (Units=GPa)
#
#
# Indices 1 2 3 4 5 6 
#
# 1 38.7607 31.8214 30.4557 0.0000 0.0000 0.0000
# 2 31.8214 119.7865 39.1979 0.0000 0.0000 0.0000
# 3 30.4557 39.1979 57.9150 0.0000 0.0000 0.0000
# 4 0.0000 0.0000 0.0000 13.0615 0.0000 0.0000
# 5 0.0000 0.0000 0.0000 0.0000 19.0203 0.0000
# 6 0.0000 0.0000 0.0000 0.0000 0.0000 14.3198
#
#
#
# Elastic Compliance Matrix: (Units=1/GPa)
#
#
# Indices 1 2 3 4 5 6 
#
# 1 0.046734 -0.005617 -0.020774 0.000000 0.000000 0.000000
# 2 -0.005617 0.011398 -0.004761 0.000000 0.000000 0.000000
# 3 -0.020774 -0.004761 0.031413 0.000000 0.000000 0.000000
# 4 0.000000 0.000000 0.000000 0.076561 0.000000 0.000000
# 5 0.000000 0.000000 0.000000 0.000000 0.052575 0.000000
# 6 0.000000 0.000000 0.000000 0.000000 0.000000 0.069833
#
#
# Mechanical properties :
#
#
# Convention : Reuss Voigt Hill
#
# Bulk Modulus (GPa) = 36.70859 46.60136 41.65497
# Shear Modulus (GPa) = 13.89280 16.94615 15.41947
#
# Velocity S-wave (km/s) = 3.06580 3.38598 3.22986
# Velocity P-wave (km/s) = 6.11287 6.84210 6.48774
#
# Compressibility (1/GPa) = 0.02724158
#
# Stress axis : x y z
#
# Youngs Moduli (GPa) = 21.39783 87.73332 31.83358
#
# Poissons Ratio (x) = 0.49279 0.66132
# Poissons Ratio (y) = 0.12019 0.15155
# Poissons Ratio (z) = 0.44452 0.41768
#
# Static dielectric constant tensor:
#      x y z
#    x 2.631950 0.000000 0.000000 
#    y 0.000000 3.045550 0.000000 
#    z 0.000000 0.000000 2.860530 
# 
# 
# High freq. dielectric constant tensor:
#      x y z
#    x 1.522610 0.000000 0.000000 
#    y 0.000000 1.581570 0.000000 
#    z 0.000000 0.000000 1.523780 
# 
# From -- ./inp_files/29737.got.cif
#   From: 2010.03.12/outbox.cif.g09.slc.cpg/sg53_15_cif.got.tgz:29737.got - 2010.04.16 14:36:59.
