data_PCOD8217462
_publ_section_title
;
Structure prediction by ZEFSAII (Michael W. Deem and Ramdas Pophale) SiO2 
 PCOD8217462
Probable space group: P M N A
;
_chemical_formula_sum "Si O2"
_cell_formula_units_Z 48
_cell_length_a 8.901312
_cell_length_b 9.635705
_cell_length_c 31.706661
_cell_angle_alpha 90.000000
_cell_angle_beta 90.000000
_cell_angle_gamma 90.000000
_cell_volume 2719.493521
_symmetry_space_group_name_H-M "P M N A"
_symmetry_group_IT_number 53
_symmetry_cell_setting 'orthorhombic'
loop_
_space_group_symop_operation_xyz
x,y,z
1/2-x,-y,1/2+z
x,-y,-z
1/2-x,y,1/2-z
-x,-y,-z
1/2+x,y,1/2-z
-x,y,z
1/2+x,-y,1/2+z
loop_
_atom_site_type_symbol
_atom_site_label
_atom_site_fract_x
_atom_site_fract_y
_atom_site_fract_z
Si Si1 0.829890 0.081811 0.875638
Si Si2 0.176644 0.594748 0.463019
Si Si3 0.677712 0.909342 0.039596
Si Si4 0.322206 0.606016 0.289933
Si Si5 0.821465 0.906835 0.291791
Si Si6 0.666454 0.412075 0.619287
O O1 0.751984 0.026727 0.918389
O O2 0.742057 0.022723 0.834678
O O3 0.823548 0.247390 0.875373
O O4 0.000000 0.026781 0.874085
O O5 0.247735 0.500000 0.500000
O O6 0.234896 0.752143 0.468385
O O7 0.223058 0.534247 0.417218
O O8 0.000000 0.589206 0.465967
O O9 0.500000 0.913640 0.045787
O O10 0.730697 0.000000 0.000000
O O11 0.250000 0.521536 0.250000
O O12 0.500000 0.635380 0.284041
O O13 0.228617 0.747567 0.291461
O O14 0.294247 0.524639 0.334301
O O15 0.750000 0.979867 0.250000
O O16 0.000000 0.920596 0.290832
O O17 0.500000 0.457264 0.605553
#
# Coordination Sequence:
#
# PCOD8217462 Si02
#       6
#     8   8   8   8   8   8
#     4   9  16  26  38  54  77 104 135 169 205 245
#     4   9  17  28  42  60  81 106 137 171 204 240
#     4   9  17  29  44  61  82 109 139 170 206 248
#     4   9  15  22  32  49  73 101 133 165 199 241
#     4  10  16  22  33  50  74 104 136 167 202 244
#     4   8  15  25  36  52  75 103 133 164 199 241
#
# _framework density 17.650344
#
# number of rings (size 3 to 8) (size 9 to 14) (size 15 to 20)
#    0.000    3.000    0.000    4.500    0.000    5.333 
#    0.000    0.000    0.000    0.000    0.000    0.000 
#    0.000    1.333    0.000    5.667    0.000    6.500 
#
# Total GULP energy -594692.816693 kJ/mol
# GULP energy per Si atom -12389.433681 kJ/mol
# Density = 1.761017 g / cm^3
# Si number density = 17.650344 Si / 1000 Ang^3
#
#
#
# Elastic Constant Matrix: (Units=GPa)
#
#
# Indices 1 2 3 4 5 6 
#
# 1 83.2380 14.9759 64.6022 0.0000 0.0000 0.0000
# 2 14.9759 19.4781 33.6040 0.0000 0.0000 0.0000
# 3 64.6022 33.6040 204.2703 0.0000 0.0000 0.0000
# 4 0.0000 0.0000 0.0000 16.4732 0.0000 0.0000
# 5 0.0000 0.0000 0.0000 0.0000 37.9022 0.0000
# 6 0.0000 0.0000 0.0000 0.0000 0.0000 6.1843
#
#
#
# Elastic Compliance Matrix: (Units=1/GPa)
#
#
# Indices 1 2 3 4 5 6 
#
# 1 0.016273 -0.005072 -0.004312 0.000000 0.000000 0.000000
# 2 -0.005072 0.073266 -0.010449 0.000000 0.000000 0.000000
# 3 -0.004312 -0.010449 0.007978 0.000000 0.000000 0.000000
# 4 0.000000 0.000000 0.000000 0.060705 0.000000 0.000000
# 5 0.000000 0.000000 0.000000 0.000000 0.026384 0.000000
# 6 0.000000 0.000000 0.000000 0.000000 0.000000 0.161700
#
#
# Mechanical properties :
#
#
# Convention : Reuss Voigt Hill
#
# Bulk Modulus (GPa) = 17.28585 59.26120 38.27352
# Shear Modulus (GPa) = 12.33791 25.03220 18.68506
#
# Velocity S-wave (km/s) = 2.64676 3.77002 3.25718
# Velocity P-wave (km/s) = 4.37667 7.25250 5.98974
#
# Compressibility (1/GPa) = 0.05785079
#
# Stress axis : x y z
#
# Youngs Moduli (GPa) = 61.45154 13.64891 125.34378
#
# Poissons Ratio (x) = 0.06923 0.54048
# Poissons Ratio (y) = 0.31171 1.30967
# Poissons Ratio (z) = 0.26498 0.14261
#
# Static dielectric constant tensor:
#      x y z
#    x 3.272500 0.000000 0.000000 
#    y 0.000000 2.595630 0.000000 
#    z 0.000000 0.000000 4.233870 
# 
# 
# High freq. dielectric constant tensor:
#      x y z
#    x 1.686050 0.000000 0.000000 
#    y 0.000000 1.581260 0.000000 
#    z 0.000000 0.000000 1.716760 
# 
# From -- ./inp_files/37913.got.cif
#   From: 2010.03.12/outbox.cif.g09.slc.cpg/sg53_19_cif.got.tgz:37913.got - 2010.04.16 14:36:59.
