data_PCOD8217886
_publ_section_title
;
Structure prediction by ZEFSAII (Michael W. Deem and Ramdas Pophale) SiO2 
 PCOD8217886
Probable space group: P M N A
;
_chemical_formula_sum "Si O2"
_cell_formula_units_Z 64
_cell_length_a 9.076430
_cell_length_b 16.742223
_cell_length_c 25.551414
_cell_angle_alpha 90.000000
_cell_angle_beta 90.000000
_cell_angle_gamma 90.000000
_cell_volume 3882.783037
_symmetry_space_group_name_H-M "P M N A"
_symmetry_group_IT_number 53
_symmetry_cell_setting 'orthorhombic'
loop_
_space_group_symop_operation_xyz
x,y,z
1/2-x,-y,1/2+z
x,-y,-z
1/2-x,y,1/2-z
-x,-y,-z
1/2+x,y,1/2-z
-x,y,z
1/2+x,-y,1/2+z
loop_
_atom_site_type_symbol
_atom_site_label
_atom_site_fract_x
_atom_site_fract_y
_atom_site_fract_z
Si Si1 0.330659 0.345279 0.056759
Si Si2 0.166384 0.500054 0.937750
Si Si3 0.326429 0.903205 0.696753
Si Si4 0.828824 0.826216 0.600407
Si Si5 0.327675 0.913490 0.302617
Si Si6 0.831093 0.906515 0.994048
Si Si7 0.672859 0.812048 0.401832
Si Si8 0.673405 0.657936 0.063364
O O1 0.500000 0.372068 0.057374
O O2 0.237037 0.417104 0.082191
O O3 0.301462 0.267336 0.091070
O O4 0.282454 0.327239 0.997089
O O5 0.258010 0.425029 0.915877
O O6 0.000000 0.494188 0.916876
O O7 0.173621 0.500000 0.000000
O O8 0.250000 0.874483 0.750000
O O9 0.500000 0.890491 0.701707
O O10 0.265312 0.848943 0.650597
O O11 0.285264 0.995065 0.684834
O O12 0.776568 0.876086 0.550646
O O13 0.000000 0.845019 0.609869
O O14 0.250000 0.882922 0.250000
O O15 0.500000 0.904877 0.293679
O O16 0.273346 0.860016 0.350863
O O17 0.000000 0.886991 0.978743
O O18 0.785951 0.865008 0.048090
O O19 0.807244 0.000000 0.000000
O O20 0.500000 0.793980 0.399893
O O21 0.759488 0.729043 0.402421
O O22 0.500000 0.655025 0.071911
#
# Coordination Sequence:
#
# PCOD8217886 Si02
#       8
#     8   8   8   8   8   8   8   8
#     4   9  18  31  45  66  99 132 162 198 241 289
#     4   9  17  28  45  68  93 125 165 200 237 286
#     4  10  20  36  55  74  97 128 169 213 257 296
#     4  11  21  33  49  73 102 132 166 204 247 296
#     4   9  19  35  53  72  95 125 165 212 255 294
#     4  10  20  33  48  67  96 134 169 202 246 298
#     4  10  19  31  48  70  98 129 164 204 245 292
#     4  10  18  30  46  67  98 132 163 198 242 289
#
# _framework density 16.483022999999999
#
# number of rings (size 3 to 8) (size 9 to 14) (size 15 to 20)
#    0.000    2.250    1.250    2.250    0.000    6.250 
#    0.000    1.250    0.000    0.000    0.000    0.875 
#    0.000    2.000    0.000    0.000    0.000    0.000 
#
# Total GULP energy -793783.280355 kJ/mol
# GULP energy per Si atom -12402.863756 kJ/mol
# Density = 1.644551 g / cm^3
# Si number density = 16.483023 Si / 1000 Ang^3
#
#
#
# Elastic Constant Matrix: (Units=GPa)
#
#
# Indices 1 2 3 4 5 6 
#
# 1 78.8053 50.3413 45.7253 0.0000 0.0000 0.0000
# 2 50.3413 102.1650 50.1993 0.0000 0.0000 0.0000
# 3 45.7253 50.1993 94.5085 0.0000 0.0000 0.0000
# 4 0.0000 0.0000 0.0000 3.5878 0.0000 0.0000
# 5 0.0000 0.0000 0.0000 0.0000 26.6330 0.0000
# 6 0.0000 0.0000 0.0000 0.0000 0.0000 30.8197
#
#
#
# Elastic Compliance Matrix: (Units=1/GPa)
#
#
# Indices 1 2 3 4 5 6 
#
# 1 0.020968 -0.007236 -0.006301 0.000000 0.000000 0.000000
# 2 -0.007236 0.015742 -0.004861 0.000000 0.000000 0.000000
# 3 -0.006301 -0.004861 0.016212 0.000000 0.000000 0.000000
# 4 0.000000 0.000000 0.000000 0.278726 0.000000 0.000000
# 5 0.000000 0.000000 0.000000 0.000000 0.037547 0.000000
# 6 0.000000 0.000000 0.000000 0.000000 0.000000 0.032447
#
#
# Mechanical properties :
#
#
# Convention : Reuss Voigt Hill
#
# Bulk Modulus (GPa) = 62.01227 63.11231 62.56229
# Shear Modulus (GPa) = 11.26603 20.82228 16.04416
#
# Velocity S-wave (km/s) = 2.61721 3.55809 3.12328
# Velocity P-wave (km/s) = 6.84373 7.43319 7.14454
#
# Compressibility (1/GPa) = 0.01612584
#
# Stress axis : x y z
#
# Youngs Moduli (GPa) = 47.69179 63.52555 61.68406
#
# Poissons Ratio (x) = 0.45965 0.38870
# Poissons Ratio (y) = 0.34508 0.29982
# Poissons Ratio (z) = 0.30053 0.30878
#
# Static dielectric constant tensor:
#      x y z
#    x 3.145380 0.000000 0.000000 
#    y 0.000000 3.163350 0.000000 
#    z 0.000000 0.000000 3.085310 
# 
# 
# High freq. dielectric constant tensor:
#      x y z
#    x 1.643680 0.000000 0.000000 
#    y 0.000000 1.637910 0.000000 
#    z 0.000000 0.000000 1.600440 
# 
# From -- ./inp_files/34195.got.cif
#   From: 2010.03.12/outbox.cif.g09.slc.cpg/sg53_18_cif.got.tgz:34195.got - 2010.04.16 14:36:59.
