data_PCOD8217512
_publ_section_title
;
Structure prediction by ZEFSAII (Michael W. Deem and Ramdas Pophale) SiO2 
 PCOD8217512
Probable space group: P M N A
;
_chemical_formula_sum "Si O2"
_cell_formula_units_Z 64
_cell_length_a 8.611742
_cell_length_b 18.514298
_cell_length_c 25.066303
_cell_angle_alpha 90.000000
_cell_angle_beta 90.000000
_cell_angle_gamma 90.000000
_cell_volume 3996.580316
_symmetry_space_group_name_H-M "P M N A"
_symmetry_group_IT_number 53
_symmetry_cell_setting 'orthorhombic'
loop_
_space_group_symop_operation_xyz
x,y,z
1/2-x,-y,1/2+z
x,-y,-z
1/2-x,y,1/2-z
-x,-y,-z
1/2+x,y,1/2-z
-x,y,z
1/2+x,-y,1/2+z
loop_
_atom_site_type_symbol
_atom_site_label
_atom_site_fract_x
_atom_site_fract_y
_atom_site_fract_z
Si Si1 0.322981 0.679156 0.112400
Si Si2 0.682892 0.988003 0.080844
Si Si3 0.319700 0.894010 0.509230
Si Si4 0.681649 0.408542 0.034007
Si Si5 0.681989 0.540366 0.424715
Si Si6 0.682269 0.061977 0.805425
Si Si7 0.319101 0.781632 0.304115
Si Si8 0.326011 0.256450 0.004999
O O1 0.500000 0.682504 0.132730
O O2 0.262839 0.596653 0.115712
O O3 0.211344 0.726382 0.148751
O O4 0.307527 0.710667 0.053457
O O5 0.500000 0.977701 0.074875
O O6 0.761253 0.922592 0.047992
O O7 0.734042 0.984915 0.142999
O O8 0.733085 0.065003 0.057284
O O9 0.500000 0.910677 0.514451
O O10 0.291992 0.808652 0.514893
O O11 0.500000 0.421549 0.020660
O O12 0.739406 0.460368 0.082388
O O13 0.786731 0.431437 0.984135
O O14 0.708840 0.323086 0.045968
O O15 0.500000 0.535939 0.412702
O O16 0.750000 0.029936 0.750000
O O17 0.500000 0.061679 0.799110
O O18 0.736681 0.142950 0.816348
O O19 0.250000 0.747814 0.250000
O O20 0.500000 0.796311 0.297631
O O21 0.500000 0.226474 0.013474
#
# Coordination Sequence:
#
# PCOD8217512 Si02
#       8
#     8   8   8   8   8   8   8   8
#     4  10  19  31  45  61  84 116 151 183 216 260
#     4  10  20  34  49  63  87 120 151 181 221 272
#     4  11  21  30  45  67  90 117 150 188 227 263
#     4   9  16  27  41  57  81 114 145 174 208 248
#     4  10  17  25  39  60  84 110 141 177 213 248
#     4  10  20  33  50  69  88 116 149 185 226 267
#     4  11  21  32  46  64  87 114 144 182 222 260
#     4   9  18  30  44  61  85 117 149 179 216 262
#
# _framework density 16.013691000000001
#
# number of rings (size 3 to 8) (size 9 to 14) (size 15 to 20)
#    0.000    2.000    0.000    8.625    0.000    8.000 
#    0.000    0.000    0.000    0.000    0.000    0.000 
#    0.000    1.000    0.000    5.250    0.000    5.250 
#
# Total GULP energy -793349.649215 kJ/mol
# GULP energy per Si atom -12396.088269 kJ/mol
# Density = 1.597724 g / cm^3
# Si number density = 16.013691 Si / 1000 Ang^3
#
#
#
# Elastic Constant Matrix: (Units=GPa)
#
#
# Indices 1 2 3 4 5 6 
#
# 1 57.0572 22.0997 29.0918 0.0000 0.0000 0.0000
# 2 22.0997 89.3101 30.2344 0.0000 0.0000 0.0000
# 3 29.0918 30.2344 72.7582 0.0000 0.0000 0.0000
# 4 0.0000 0.0000 0.0000 19.2880 0.0000 0.0000
# 5 0.0000 0.0000 0.0000 0.0000 20.9011 0.0000
# 6 0.0000 0.0000 0.0000 0.0000 0.0000 19.7395
#
#
#
# Elastic Compliance Matrix: (Units=1/GPa)
#
#
# Indices 1 2 3 4 5 6 
#
# 1 0.022666 -0.002957 -0.007834 0.000000 0.000000 0.000000
# 2 -0.002957 0.013416 -0.004393 0.000000 0.000000 0.000000
# 3 -0.007834 -0.004393 0.018702 0.000000 0.000000 0.000000
# 4 0.000000 0.000000 0.000000 0.051846 0.000000 0.000000
# 5 0.000000 0.000000 0.000000 0.000000 0.047844 0.000000
# 6 0.000000 0.000000 0.000000 0.000000 0.000000 0.050660
#
#
# Mechanical properties :
#
#
# Convention : Reuss Voigt Hill
#
# Bulk Modulus (GPa) = 40.95569 42.44194 41.69881
# Shear Modulus (GPa) = 20.52218 21.16570 20.84394
#
# Velocity S-wave (km/s) = 3.58374 3.63950 3.61173
# Velocity P-wave (km/s) = 6.53875 6.64999 6.59460
#
# Compressibility (1/GPa) = 0.02441663
#
# Stress axis : x y z
#
# Youngs Moduli (GPa) = 44.11928 74.54020 53.47036
#
# Poissons Ratio (x) = 0.22038 0.41890
# Poissons Ratio (y) = 0.13044 0.23488
# Poissons Ratio (z) = 0.34564 0.32743
#
# Static dielectric constant tensor:
#      x y z
#    x 3.125000 0.000000 0.000000 
#    y 0.000000 3.244690 0.000000 
#    z 0.000000 0.000000 2.902760 
# 
# 
# High freq. dielectric constant tensor:
#      x y z
#    x 1.633230 0.000000 0.000000 
#    y 0.000000 1.611080 0.000000 
#    z 0.000000 0.000000 1.569290 
# 
# From -- ./inp_files/36505.got.cif
#   From: 2010.03.12/outbox.cif.g09.slc.cpg/sg53_19_cif.got.tgz:36505.got - 2010.04.16 14:36:59.
