data_PCOD8217179
_publ_section_title
;
Structure prediction by ZEFSAII (Michael W. Deem and Ramdas Pophale) SiO2 
 PCOD8217179
Probable space group: P N N A
;
_chemical_formula_sum "Si O2"
_cell_formula_units_Z 52
_cell_length_a 10.755954
_cell_length_b 27.652585
_cell_length_c 9.314561
_cell_angle_alpha 90.000000
_cell_angle_beta 90.000000
_cell_angle_gamma 90.000000
_cell_volume 2770.429247
_symmetry_space_group_name_H-M "P N N A"
_symmetry_group_IT_number 52
_symmetry_cell_setting 'orthorhombic'
loop_
_space_group_symop_operation_xyz
x,y,z
1/2-x,-y,z
x,1/2-y,1/2-z
1/2-x,1/2+y,1/2-z
-x,-y,-z
1/2+x,y,-z
-x,1/2+y,1/2+z
1/2+x,1/2-y,1/2+z
loop_
_atom_site_type_symbol
_atom_site_label
_atom_site_fract_x
_atom_site_fract_y
_atom_site_fract_z
Si Si1 0.397692 0.646436 0.277991
Si Si2 0.448341 0.802245 0.944688
Si Si3 0.443383 0.208032 0.567586
Si Si4 0.614680 0.944277 0.605361
Si Si5 0.395859 0.948012 0.379179
Si Si6 0.123100 0.844214 0.279699
Si Si7 0.733357 0.250000 0.250000
O O1 0.405633 0.655328 0.448335
O O2 0.503758 0.674826 0.193406
O O3 0.409114 0.588690 0.254045
O O4 0.268685 0.666557 0.216787
O O5 0.572182 0.819623 0.864041
O O6 0.347226 0.792491 0.821816
O O7 0.471222 0.754566 0.039420
O O8 0.436111 0.178276 0.421754
O O9 0.310052 0.225403 0.622445
O O10 0.511025 0.936821 0.483542
O O11 0.758555 0.940646 0.546078
O O12 0.594777 0.901877 0.722193
O O13 0.594341 0.996823 0.678257
#
# Coordination Sequence:
#
# PCOD8217179 Si02
#       7
#     8   8   8   8   8   8   4
#     4  11  23  39  60  85 120 155 195 243 304 354
#     4  12  24  40  56  85 118 158 195 247 294 354
#     4  12  22  39  59  85 114 155 199 243 290 354
#     4   9  18  34  62  88 121 150 201 248 300 351
#     4   9  18  36  59  92 117 154 197 252 297 355
#     4  11  23  39  60  87 116 157 195 245 300 357
#     4  12  24  38  60  82 120 156 206 244 296 354
#
# _framework density 18.769656000000001
#
# number of rings (size 3 to 8) (size 9 to 14) (size 15 to 20)
#    0.000    1.231    4.615    1.846    0.000    1.231 
#    0.000    0.769    0.000    0.000    0.000    0.000 
#    0.000    0.000    0.000    0.000    0.000    0.000 
#
# Total GULP energy -644638.853363 kJ/mol
# GULP energy per Si atom -12396.901026 kJ/mol
# Density = 1.872694 g / cm^3
# Si number density = 18.769656 Si / 1000 Ang^3
#
#
#
# Elastic Constant Matrix: (Units=GPa)
#
#
# Indices 1 2 3 4 5 6 
#
# 1 80.4754 34.5547 22.7173 0.0000 0.0000 0.0000
# 2 34.5547 107.9777 41.9507 0.0000 0.0000 0.0000
# 3 22.7173 41.9507 84.5309 0.0000 0.0000 0.0000
# 4 0.0000 0.0000 0.0000 24.4758 0.0000 0.0000
# 5 0.0000 0.0000 0.0000 0.0000 34.4547 0.0000
# 6 0.0000 0.0000 0.0000 0.0000 0.0000 24.8700
#
#
#
# Elastic Compliance Matrix: (Units=1/GPa)
#
#
# Indices 1 2 3 4 5 6 
#
# 1 0.014673 -0.003919 -0.001998 0.000000 0.000000 0.000000
# 2 -0.003919 0.012520 -0.005160 0.000000 0.000000 0.000000
# 3 -0.001998 -0.005160 0.014928 0.000000 0.000000 0.000000
# 4 0.000000 0.000000 0.000000 0.040857 0.000000 0.000000
# 5 0.000000 0.000000 0.000000 0.000000 0.029024 0.000000
# 6 0.000000 0.000000 0.000000 0.000000 0.000000 0.040209
#
#
# Mechanical properties :
#
#
# Convention : Reuss Voigt Hill
#
# Bulk Modulus (GPa) = 50.08587 52.38102 51.23344
# Shear Modulus (GPa) = 27.62103 28.34417 27.98260
#
# Velocity S-wave (km/s) = 3.84028 3.89022 3.86533
# Velocity P-wave (km/s) = 6.81220 6.93876 6.87577
#
# Compressibility (1/GPa) = 0.01996571
#
# Stress axis : x y z
#
# Youngs Moduli (GPa) = 68.15184 79.87083 66.98863
#
# Poissons Ratio (x) = 0.31304 0.13386
# Poissons Ratio (y) = 0.26711 0.34567
# Poissons Ratio (z) = 0.13619 0.41215
#
# Static dielectric constant tensor:
#      x y z
#    x 3.623870 0.000000 0.000000 
#    y 0.000000 3.729140 0.000000 
#    z 0.000000 0.000000 3.215980 
# 
# 
# High freq. dielectric constant tensor:
#      x y z
#    x 1.744350 0.000000 0.000000 
#    y 0.000000 1.738350 0.000000 
#    z 0.000000 0.000000 1.699090 
# 
# From -- ./inp_files/8981.got.cif
#   From: 2010.06.25/outbox.cif.g09.slc.cpg/sg52_5_cif.got.tgz:8981.got - 2010.06.26 19:32:48.
