data_PCOD8217193
_publ_section_title
;
Structure prediction by ZEFSAII (Michael W. Deem and Ramdas Pophale) SiO2 
 PCOD8217193
Probable space group: P N N A
;
_chemical_formula_sum "Si O2"
_cell_formula_units_Z 32
_cell_length_a 24.979111
_cell_length_b 12.200054
_cell_length_c 4.842897
_cell_angle_alpha 90.000000
_cell_angle_beta 90.000000
_cell_angle_gamma 90.000000
_cell_volume 1475.855925
_symmetry_space_group_name_H-M "P N N A"
_symmetry_group_IT_number 52
_symmetry_cell_setting 'orthorhombic'
loop_
_space_group_symop_operation_xyz
x,y,z
1/2-x,-y,z
x,1/2-y,1/2-z
1/2-x,1/2+y,1/2-z
-x,-y,-z
1/2+x,y,-z
-x,1/2+y,1/2+z
1/2+x,1/2-y,1/2+z
loop_
_atom_site_type_symbol
_atom_site_label
_atom_site_fract_x
_atom_site_fract_y
_atom_site_fract_z
Si Si1 0.618037 0.319824 0.503166
Si Si2 0.960505 0.995477 0.755773
Si Si3 0.812810 0.494407 0.236383
Si Si4 0.141651 0.623380 0.276152
O O1 0.646453 0.250000 0.750000
O O2 0.574576 0.386840 0.684474
O O3 0.661767 0.391463 0.338841
O O4 0.591322 0.250000 0.250000
O O5 0.921475 0.100484 0.737419
O O6 0.000000 0.000000 0.500000
O O7 0.000000 0.000000 0.000000
O O8 0.750000 0.500000 0.279152
O O9 0.839689 0.399162 0.414170
O O10 0.825980 0.460548 0.922306
O O11 0.154958 0.750000 0.250000
#
# Coordination Sequence:
#
# PCOD8217193 Si02
#       4
#     8   8   8   8
#     4  11  23  41  64  94 127 164 210 261 312 374
#     4  11  23  41  64  92 127 166 210 260 313 372
#     4  11  24  43  65  93 129 165 208 262 314 373
#     4  11  24  43  64  93 127 165 211 261 312 375
#
# _framework density 21.682331999999999
#
# number of rings (size 3 to 8) (size 9 to 14) (size 15 to 20)
#    0.000    1.000    0.000    9.000    0.000    6.000 
#    0.000    0.000    0.000    0.000    0.000    0.000 
#    0.000    0.000    0.000    0.000    0.000    0.000 
#
# Total GULP energy -396445.513714 kJ/mol
# GULP energy per Si atom -12388.922304 kJ/mol
# Density = 2.163298 g / cm^3
# Si number density = 21.682332 Si / 1000 Ang^3
#
#
#
# Elastic Constant Matrix: (Units=GPa)
#
#
# Indices 1 2 3 4 5 6 
#
# 1 138.8492 20.0207 27.7117 0.0000 0.0000 0.0000
# 2 20.0207 103.8524 21.7325 0.0000 0.0000 0.0000
# 3 27.7117 21.7325 112.6331 0.0000 0.0000 0.0000
# 4 0.0000 0.0000 0.0000 44.0246 0.0000 0.0000
# 5 0.0000 0.0000 0.0000 0.0000 37.5299 0.0000
# 6 0.0000 0.0000 0.0000 0.0000 0.0000 6.7619
#
#
#
# Elastic Compliance Matrix: (Units=1/GPa)
#
#
# Indices 1 2 3 4 5 6 
#
# 1 0.007700 -0.001134 -0.001676 0.000000 0.000000 0.000000
# 2 -0.001134 0.010201 -0.001689 0.000000 0.000000 0.000000
# 3 -0.001676 -0.001689 0.009617 0.000000 0.000000 0.000000
# 4 0.000000 0.000000 0.000000 0.022715 0.000000 0.000000
# 5 0.000000 0.000000 0.000000 0.000000 0.026645 0.000000
# 6 0.000000 0.000000 0.000000 0.000000 0.000000 0.147887
#
#
# Mechanical properties :
#
#
# Convention : Reuss Voigt Hill
#
# Bulk Modulus (GPa) = 53.99534 54.91826 54.45680
# Shear Modulus (GPa) = 20.83894 36.72128 28.78011
#
# Velocity S-wave (km/s) = 3.10353 4.11981 3.64724
# Velocity P-wave (km/s) = 6.14813 6.92921 6.55032
#
# Compressibility (1/GPa) = 0.01852012
#
# Stress axis : x y z
#
# Youngs Moduli (GPa) = 129.87056 98.02832 103.98651
#
# Poissons Ratio (x) = 0.11114 0.17425
# Poissons Ratio (y) = 0.14724 0.17567
# Poissons Ratio (z) = 0.21763 0.16561
#
# Static dielectric constant tensor:
#      x y z
#    x 3.839840 0.000000 0.000000 
#    y 0.000000 4.223490 0.000000 
#    z 0.000000 0.000000 4.200790 
# 
# 
# High freq. dielectric constant tensor:
#      x y z
#    x 1.841850 0.000000 0.000000 
#    y 0.000000 1.854860 0.000000 
#    z 0.000000 0.000000 1.883160 
# 
# From -- ./inp_files/4794.got.cif
#   From: 2010.06.25/outbox.cif.g09.slc.cpg/sg52_3_cif.got.tgz:4794.got - 2010.06.26 19:32:48.
