data_PCOD8217443
_publ_section_title
;
Structure prediction by ZEFSAII (Michael W. Deem and Ramdas Pophale) SiO2 
 PCOD8217443
Probable space group: P N N A
;
_chemical_formula_sum "Si O2"
_cell_formula_units_Z 32
_cell_length_a 14.061524
_cell_length_b 8.822871
_cell_length_c 10.823060
_cell_angle_alpha 90.000000
_cell_angle_beta 90.000000
_cell_angle_gamma 90.000000
_cell_volume 1342.741426
_symmetry_space_group_name_H-M "P N N A"
_symmetry_group_IT_number 52
_symmetry_cell_setting 'orthorhombic'
loop_
_space_group_symop_operation_xyz
x,y,z
1/2-x,-y,z
x,1/2-y,1/2-z
1/2-x,1/2+y,1/2-z
-x,-y,-z
1/2+x,y,-z
-x,1/2+y,1/2+z
1/2+x,1/2-y,1/2+z
loop_
_atom_site_type_symbol
_atom_site_label
_atom_site_fract_x
_atom_site_fract_y
_atom_site_fract_z
Si Si1 0.078283 0.644257 0.925000
Si Si2 0.436291 0.461126 0.665165
Si Si3 0.215733 0.844740 0.359132
Si Si4 0.400385 0.811771 0.036804
O O1 0.078733 0.522340 0.812782
O O2 0.117298 0.808400 0.879546
O O3 0.969093 0.663001 0.973996
O O4 0.145920 0.594647 0.035123
O O5 0.392477 0.608001 0.597553
O O6 0.548948 0.433848 0.630855
O O7 0.163807 0.750000 0.250000
O O8 0.298916 0.737190 0.412359
O O9 0.250000 0.000000 0.296870
#
# Coordination Sequence:
#
# PCOD8217443 Si02
#       4
#     8   8   8   8
#     4   9  19  40  64 101 134 168 234 278 338 409
#     4   8  17  39  71 100 131 178 216 284 346 408
#     4  12  28  43  65  98 138 187 236 286 344 422
#     4   9  19  41  71  97 135 183 226 279 351 414
#
# _framework density 23.831838000000001
#
# number of rings (size 3 to 8) (size 9 to 14) (size 15 to 20)
#    1.500    1.000    0.000    1.500    3.500    3.000 
#    9.000    0.000    0.000    0.000    0.000    0.000 
#    0.000    0.000    0.000    0.000    0.000    0.000 
#
# Total GULP energy -396426.450071 kJ/mol
# GULP energy per Si atom -12388.326565 kJ/mol
# Density = 2.377760 g / cm^3
# Si number density = 23.831838 Si / 1000 Ang^3
#
#
#
# Elastic Constant Matrix: (Units=GPa)
#
#
# Indices 1 2 3 4 5 6 
#
# 1 59.5229 4.9188 38.6759 0.0000 0.0000 0.0000
# 2 4.9188 60.8539 55.1040 0.0000 0.0000 0.0000
# 3 38.6759 55.1040 181.1011 0.0000 0.0000 0.0000
# 4 0.0000 0.0000 0.0000 48.9288 0.0000 0.0000
# 5 0.0000 0.0000 0.0000 0.0000 28.1841 0.0000
# 6 0.0000 0.0000 0.0000 0.0000 0.0000 27.7898
#
#
#
# Elastic Compliance Matrix: (Units=1/GPa)
#
#
# Indices 1 2 3 4 5 6 
#
# 1 0.019921 0.003095 -0.005196 0.000000 0.000000 0.000000
# 2 0.003095 0.023163 -0.007709 0.000000 0.000000 0.000000
# 3 -0.005196 -0.007709 0.008977 0.000000 0.000000 0.000000
# 4 0.000000 0.000000 0.000000 0.020438 0.000000 0.000000
# 5 0.000000 0.000000 0.000000 0.000000 0.035481 0.000000
# 6 0.000000 0.000000 0.000000 0.000000 0.000000 0.035984
#
#
# Mechanical properties :
#
#
# Convention : Reuss Voigt Hill
#
# Bulk Modulus (GPa) = 30.82534 55.43059 43.12797
# Shear Modulus (GPa) = 28.67014 34.49914 31.58464
#
# Velocity S-wave (km/s) = 3.47222 3.80887 3.64443
# Velocity P-wave (km/s) = 5.38866 6.53092 5.98709
#
# Compressibility (1/GPa) = 0.03244084
#
# Stress axis : x y z
#
# Youngs Moduli (GPa) = 50.19919 43.17221 111.39598
#
# Poissons Ratio (x) = -0.13361 0.57880
# Poissons Ratio (y) = -0.15536 0.85873
# Poissons Ratio (z) = 0.26083 0.33281
#
# Static dielectric constant tensor:
#      x y z
#    x 3.760400 0.000000 0.000000 
#    y 0.000000 4.024000 0.000000 
#    z 0.000000 0.000000 4.131480 
# 
# 
# High freq. dielectric constant tensor:
#      x y z
#    x 1.903880 0.000000 0.000000 
#    y 0.000000 1.941080 0.000000 
#    z 0.000000 0.000000 1.941810 
# 
# From -- ./inp_files/18844.got.cif
#   From: 2010.06.25/outbox.cif.g09.slc.cpg/sg52_10_cif.got.tgz:18844.got - 2010.06.26 19:32:48.
