data_PCOD8217384
_publ_section_title
;
Structure prediction by ZEFSAII (Michael W. Deem and Ramdas Pophale) SiO2 
 PCOD8217384
Probable space group: P N N A
;
_chemical_formula_sum "Si O2"
_cell_formula_units_Z 40
_cell_length_a 8.410230
_cell_length_b 8.816737
_cell_length_c 25.216754
_cell_angle_alpha 90.000000
_cell_angle_beta 90.000000
_cell_angle_gamma 90.000000
_cell_volume 1869.842130
_symmetry_space_group_name_H-M "P N N A"
_symmetry_group_IT_number 52
_symmetry_cell_setting 'orthorhombic'
loop_
_space_group_symop_operation_xyz
x,y,z
1/2-x,-y,z
x,1/2-y,1/2-z
1/2-x,1/2+y,1/2-z
-x,-y,-z
1/2+x,y,-z
-x,1/2+y,1/2+z
1/2+x,1/2-y,1/2+z
loop_
_atom_site_type_symbol
_atom_site_label
_atom_site_fract_x
_atom_site_fract_y
_atom_site_fract_z
Si Si1 0.435723 0.968349 0.387137
Si Si2 0.866043 0.768335 0.113603
Si Si3 0.089860 0.915621 0.046297
Si Si4 0.149116 0.647438 0.974276
Si Si5 0.655732 0.841518 0.301744
O O1 0.483042 0.896638 0.444719
O O2 0.498896 0.865258 0.338187
O O3 0.250000 0.000000 0.382451
O O4 0.530611 0.120411 0.380493
O O5 0.745418 0.756970 0.064501
O O6 0.770338 0.780675 0.168281
O O7 0.981098 0.910751 0.099638
O O8 0.250000 0.000000 0.062333
O O9 0.115562 0.740298 0.028251
O O10 0.000000 0.000000 0.000000
O O11 0.250000 0.500000 0.989568
O O12 0.600837 0.750000 0.250000
O O13 0.750000 0.000000 0.290468
#
# Coordination Sequence:
#
# PCOD8217384 Si02
#       5
#     8   8   8   8   8
#     4   9  19  35  62  90 119 154 209 255 301 366
#     4   9  20  39  57  83 122 164 200 249 301 379
#     4  12  24  38  55  89 134 165 210 258 310 363
#     4   9  20  39  58  81 119 172 213 237 298 378
#     4   9  19  42  66  89 114 155 206 257 319 385
#
# _framework density 21.392181000000001
#
# number of rings (size 3 to 8) (size 9 to 14) (size 15 to 20)
#    0.000    2.400    2.000    2.400    2.800    4.000 
#    7.200    7.000    0.000    1.200    0.000    0.000 
#    0.000    0.000    0.000    0.000    0.000    0.000 
#
# Total GULP energy -495664.385032 kJ/mol
# GULP energy per Si atom -12391.609626 kJ/mol
# Density = 2.134349 g / cm^3
# Si number density = 21.392181 Si / 1000 Ang^3
#
#
#
# Elastic Constant Matrix: (Units=GPa)
#
#
# Indices 1 2 3 4 5 6 
#
# 1 143.1352 34.2679 53.3327 0.0000 0.0000 0.0000
# 2 34.2679 69.1099 36.1871 0.0000 0.0000 0.0000
# 3 53.3327 36.1871 104.4187 0.0000 0.0000 0.0000
# 4 0.0000 0.0000 0.0000 26.3880 0.0000 0.0000
# 5 0.0000 0.0000 0.0000 0.0000 20.7359 0.0000
# 6 0.0000 0.0000 0.0000 0.0000 0.0000 32.1132
#
#
#
# Elastic Compliance Matrix: (Units=1/GPa)
#
#
# Indices 1 2 3 4 5 6 
#
# 1 0.008969 -0.002503 -0.003714 0.000000 0.000000 0.000000
# 2 -0.002503 0.018376 -0.005090 0.000000 0.000000 0.000000
# 3 -0.003714 -0.005090 0.013238 0.000000 0.000000 0.000000
# 4 0.000000 0.000000 0.000000 0.037896 0.000000 0.000000
# 5 0.000000 0.000000 0.000000 0.000000 0.048226 0.000000
# 6 0.000000 0.000000 0.000000 0.000000 0.000000 0.031140
#
#
# Mechanical properties :
#
#
# Convention : Reuss Voigt Hill
#
# Bulk Modulus (GPa) = 55.64911 62.69323 59.17117
# Shear Modulus (GPa) = 26.81721 28.70583 27.76152
#
# Velocity S-wave (km/s) = 3.54446 3.66715 3.60633
# Velocity P-wave (km/s) = 6.54379 6.87756 6.71275
#
# Compressibility (1/GPa) = 0.01796974
#
# Stress axis : x y z
#
# Youngs Moduli (GPa) = 111.49035 54.41907 75.54199
#
# Poissons Ratio (x) = 0.13620 0.28055
# Poissons Ratio (y) = 0.27904 0.38451
# Poissons Ratio (z) = 0.41406 0.27699
#
# Static dielectric constant tensor:
#      x y z
#    x 3.784340 0.000000 0.000000 
#    y 0.000000 3.905110 0.000000 
#    z 0.000000 0.000000 3.830360 
# 
# 
# High freq. dielectric constant tensor:
#      x y z
#    x 1.847620 0.000000 0.000000 
#    y 0.000000 1.831960 0.000000 
#    z 0.000000 0.000000 1.812810 
# 
# From -- ./inp_files/39163.got.cif
#   From: 2010.06.25/outbox.cif.g09.slc.cpg/sg52_20_cif.got.tgz:39163.got - 2010.06.26 19:32:48.
