data_PCOD8217934
_publ_section_title
;
Structure prediction by ZEFSAII (Michael W. Deem and Ramdas Pophale) SiO2 
 PCOD8217934
Probable space group: P M N A
;
_chemical_formula_sum "Si O2"
_cell_formula_units_Z 56
_cell_length_a 8.742443
_cell_length_b 14.187589
_cell_length_c 20.969783
_cell_angle_alpha 90.000000
_cell_angle_beta 90.000000
_cell_angle_gamma 90.000000
_cell_volume 2600.970010
_symmetry_space_group_name_H-M "P M N A"
_symmetry_group_IT_number 53
_symmetry_cell_setting 'orthorhombic'
loop_
_space_group_symop_operation_xyz
x,y,z
1/2-x,-y,1/2+z
x,-y,-z
1/2-x,y,1/2-z
-x,-y,-z
1/2+x,y,1/2-z
-x,y,z
1/2+x,-y,1/2+z
loop_
_atom_site_type_symbol
_atom_site_label
_atom_site_fract_x
_atom_site_fract_y
_atom_site_fract_z
Si Si1 0.681704 0.049520 0.682942
Si Si2 0.333127 0.412567 0.414192
Si Si3 0.179681 0.738793 0.507269
Si Si4 0.178716 0.112901 0.388982
Si Si5 0.317809 0.757168 0.138095
Si Si6 0.332745 0.742110 0.691255
Si Si7 0.816854 0.435207 0.816725
O O1 0.750000 0.011185 0.750000
O O2 0.500000 0.052632 0.686699
O O3 0.748718 0.152674 0.672097
O O4 0.733582 0.985665 0.622225
O O5 0.500000 0.440409 0.441998
O O6 0.234854 0.366039 0.471013
O O7 0.355008 0.332472 0.362905
O O8 0.258230 0.501888 0.377365
O O9 0.240830 0.827514 0.549640
O O10 0.234219 0.755993 0.435593
O O11 0.000000 0.736569 0.514730
O O12 0.216798 0.174566 0.327094
O O13 0.000000 0.090925 0.395199
O O14 0.500000 0.755937 0.145057
O O15 0.246218 0.669016 0.174167
O O16 0.250000 0.690470 0.750000
O O17 0.500000 0.783982 0.708738
O O18 0.750000 0.474878 0.750000
O O19 0.000000 0.438254 0.813727
#
# Coordination Sequence:
#
# PCOD8217934 Si02
#       7
#     8   8   8   8   8   8   8
#     4  12  25  42  63  89 118 154 196 243 295 350
#     4   9  20  36  57  84 118 154 193 240 292 346
#     4   9  21  40  63  89 120 157 198 238 289 350
#     4  10  20  37  59  85 116 152 191 237 287 346
#     4  11  24  43  63  86 117 157 200 247 294 347
#     4  10  18  30  49  78 113 151 190 234 286 344
#     4  11  23  40  61  89 120 157 200 247 299 351
#
# _framework density 21.530429000000002
#
# number of rings (size 3 to 8) (size 9 to 14) (size 15 to 20)
#    0.000    1.714    0.000    4.286    0.000    4.571 
#    0.000    5.714    0.000    0.000    0.000    0.000 
#    0.000    0.000    0.000    0.000    0.000    0.000 
#
# Total GULP energy -694113.135305 kJ/mol
# GULP energy per Si atom -12394.877416 kJ/mol
# Density = 2.148142 g / cm^3
# Si number density = 21.530429 Si / 1000 Ang^3
#
#
#
# Elastic Constant Matrix: (Units=GPa)
#
#
# Indices 1 2 3 4 5 6 
#
# 1 73.5699 16.6838 29.7566 0.0000 0.0000 0.0000
# 2 16.6838 97.3046 12.0395 0.0000 0.0000 0.0000
# 3 29.7566 12.0395 84.8061 0.0000 0.0000 0.0000
# 4 0.0000 0.0000 0.0000 2.2233 0.0000 0.0000
# 5 0.0000 0.0000 0.0000 0.0000 26.3550 0.0000
# 6 0.0000 0.0000 0.0000 0.0000 0.0000 28.0140
#
#
#
# Elastic Compliance Matrix: (Units=1/GPa)
#
#
# Indices 1 2 3 4 5 6 
#
# 1 0.016259 -0.002119 -0.005404 0.000000 0.000000 0.000000
# 2 -0.002119 0.010737 -0.000781 0.000000 0.000000 0.000000
# 3 -0.005404 -0.000781 0.013799 0.000000 0.000000 0.000000
# 4 0.000000 0.000000 0.000000 0.449789 0.000000 0.000000
# 5 0.000000 0.000000 0.000000 0.000000 0.037943 0.000000
# 6 0.000000 0.000000 0.000000 0.000000 0.000000 0.035696
#
#
# Mechanical properties :
#
#
# Convention : Reuss Voigt Hill
#
# Bulk Modulus (GPa) = 41.34509 41.40449 41.37479
# Shear Modulus (GPa) = 8.49050 24.46516 16.47783
#
# Velocity S-wave (km/s) = 1.98798 3.37457 2.76946
# Velocity P-wave (km/s) = 4.95118 5.86993 5.43002
#
# Compressibility (1/GPa) = 0.02418667
#
# Stress axis : x y z
#
# Youngs Moduli (GPa) = 61.50507 93.13634 72.47113
#
# Poissons Ratio (x) = 0.19736 0.39164
# Poissons Ratio (y) = 0.13033 0.05658
# Poissons Ratio (z) = 0.33238 0.07271
#
# Static dielectric constant tensor:
#      x y z
#    x 3.939290 0.000000 0.000000 
#    y 0.000000 4.031100 0.000000 
#    z 0.000000 0.000000 4.153310 
# 
# 
# High freq. dielectric constant tensor:
#      x y z
#    x 1.843260 0.000000 0.000000 
#    y 0.000000 1.847980 0.000000 
#    z 0.000000 0.000000 1.846470 
# 
# From -- ./inp_files/30773.got.cif
#   From: 2010.03.12/outbox.cif.g09.slc.cpg/sg53_16_cif.got.tgz:30773.got - 2010.04.16 14:36:59.
