data_PCOD8217258
_publ_section_title
;
Structure prediction by ZEFSAII (Michael W. Deem and Ramdas Pophale) SiO2 
 PCOD8217258
Probable space group: P N N A
;
_chemical_formula_sum "Si O2"
_cell_formula_units_Z 48
_cell_length_a 8.731057
_cell_length_b 26.431509
_cell_length_c 8.858325
_cell_angle_alpha 90.000000
_cell_angle_beta 90.000000
_cell_angle_gamma 90.000000
_cell_volume 2044.280055
_symmetry_space_group_name_H-M "P N N A"
_symmetry_group_IT_number 52
_symmetry_cell_setting 'orthorhombic'
loop_
_space_group_symop_operation_xyz
x,y,z
1/2-x,-y,z
x,1/2-y,1/2-z
1/2-x,1/2+y,1/2-z
-x,-y,-z
1/2+x,y,-z
-x,1/2+y,1/2+z
1/2+x,1/2-y,1/2+z
loop_
_atom_site_type_symbol
_atom_site_label
_atom_site_fract_x
_atom_site_fract_y
_atom_site_fract_z
Si Si1 0.717891 0.058753 0.073504
Si Si2 0.470627 0.303596 0.423939
Si Si3 0.003876 0.392036 0.794430
Si Si4 0.755706 0.759741 0.418578
Si Si5 0.209961 0.131197 0.446221
Si Si6 0.033531 0.113083 0.154576
O O1 0.556523 0.069477 0.163049
O O2 0.863957 0.088166 0.142690
O O3 0.750000 0.000000 0.075461
O O4 0.673770 0.076746 0.903835
O O5 0.473873 0.335404 0.269262
O O6 0.564628 0.251625 0.405687
O O7 0.303618 0.284341 0.469442
O O8 0.541890 0.337290 0.555079
O O9 0.846853 0.404237 0.882242
O O10 0.146072 0.395952 0.906801
O O11 0.682214 0.750000 0.250000
O O12 0.730192 0.814083 0.495962
O O13 0.071744 0.131556 0.323954
#
# Coordination Sequence:
#
# PCOD8217258 Si02
#       6
#     8   8   8   8   8   8
#     4  11  24  48  76 106 138 176 236 290 353 449
#     4  11  24  43  63  95 139 183 241 277 334 414
#     4  11  24  45  65 100 139 187 230 291 360 410
#     4  12  26  41  65 100 140 190 242 283 329 402
#     4  12  25  42  67  99 145 188 235 289 350 406
#     4  11  24  43  72 103 136 187 228 290 361 409
#
# _framework density 23.480149999999998
#
# number of rings (size 3 to 8) (size 9 to 14) (size 15 to 20)
#    0.000    0.667    1.667    7.500    4.667    1.333 
#    0.000    4.167    0.000    0.000    0.000    0.000 
#    0.000    0.000    0.000    0.000    0.000    0.000 
#
# Total GULP energy -594793.746801 kJ/mol
# GULP energy per Si atom -12391.536392 kJ/mol
# Density = 2.342671 g / cm^3
# Si number density = 23.480150 Si / 1000 Ang^3
#
#
#
# Elastic Constant Matrix: (Units=GPa)
#
#
# Indices 1 2 3 4 5 6 
#
# 1 87.3294 15.4314 21.8253 0.0000 0.0000 0.0000
# 2 15.4314 60.5310 23.7228 0.0000 0.0000 0.0000
# 3 21.8253 23.7228 113.7932 0.0000 0.0000 0.0000
# 4 0.0000 0.0000 0.0000 17.2074 0.0000 0.0000
# 5 0.0000 0.0000 0.0000 0.0000 44.3366 0.0000
# 6 0.0000 0.0000 0.0000 0.0000 0.0000 32.9091
#
#
#
# Elastic Compliance Matrix: (Units=1/GPa)
#
#
# Indices 1 2 3 4 5 6 
#
# 1 0.012344 -0.002416 -0.001864 0.000000 0.000000 0.000000
# 2 -0.002416 0.018463 -0.003386 0.000000 0.000000 0.000000
# 3 -0.001864 -0.003386 0.009851 0.000000 0.000000 0.000000
# 4 0.000000 0.000000 0.000000 0.058115 0.000000 0.000000
# 5 0.000000 0.000000 0.000000 0.000000 0.022555 0.000000
# 6 0.000000 0.000000 0.000000 0.000000 0.000000 0.030387
#
#
# Mechanical properties :
#
#
# Convention : Reuss Voigt Hill
#
# Bulk Modulus (GPa) = 39.48418 42.62362 41.05390
# Shear Modulus (GPa) = 28.49196 32.26887 30.38042
#
# Velocity S-wave (km/s) = 3.48724 3.71118 3.60095
# Velocity P-wave (km/s) = 5.75039 6.04618 5.90014
#
# Compressibility (1/GPa) = 0.02532660
#
# Stress axis : x y z
#
# Youngs Moduli (GPa) = 81.01321 54.16132 101.51102
#
# Poissons Ratio (x) = 0.13088 0.18919
# Poissons Ratio (y) = 0.19576 0.34368
# Poissons Ratio (z) = 0.15099 0.18337
#
# Static dielectric constant tensor:
#      x y z
#    x 4.305610 0.000000 0.000000 
#    y 0.000000 3.821760 0.000000 
#    z 0.000000 0.000000 4.597630 
# 
# 
# High freq. dielectric constant tensor:
#      x y z
#    x 1.942610 0.000000 0.000000 
#    y 0.000000 1.889880 0.000000 
#    z 0.000000 0.000000 1.944980 
# 
# From -- ./inp_files/7716.got.cif
#   From: 2010.06.25/outbox.cif.g09.slc.cpg/sg52_4_cif.got.tgz:7716.got - 2010.06.26 19:32:48.
