data_PCOD8217423
_publ_section_title
;
Structure prediction by ZEFSAII (Michael W. Deem and Ramdas Pophale) SiO2 
 PCOD8217423
Probable space group: P N N A
;
_chemical_formula_sum "Si O2"
_cell_formula_units_Z 40
_cell_length_a 17.700178
_cell_length_b 8.403682
_cell_length_c 12.150657
_cell_angle_alpha 90.000000
_cell_angle_beta 90.000000
_cell_angle_gamma 90.000000
_cell_volume 1807.369734
_symmetry_space_group_name_H-M "P N N A"
_symmetry_group_IT_number 52
_symmetry_cell_setting 'orthorhombic'
loop_
_space_group_symop_operation_xyz
x,y,z
1/2-x,-y,z
x,1/2-y,1/2-z
1/2-x,1/2+y,1/2-z
-x,-y,-z
1/2+x,y,-z
-x,1/2+y,1/2+z
1/2+x,1/2-y,1/2+z
loop_
_atom_site_type_symbol
_atom_site_label
_atom_site_fract_x
_atom_site_fract_y
_atom_site_fract_z
Si Si1 0.362982 0.283208 0.365598
Si Si2 0.579847 0.250000 0.750000
Si Si3 0.750000 0.000000 0.989228
Si Si4 0.003550 0.026223 0.871942
Si Si5 0.161600 0.452366 0.059367
Si Si6 0.846577 0.716455 0.369981
O O1 0.320355 0.250000 0.250000
O O2 0.318701 0.429874 0.419361
O O3 0.446517 0.337806 0.335649
O O4 0.376587 0.125746 0.438241
O O5 0.520630 0.366603 0.690776
O O6 0.634489 0.339931 0.838503
O O7 0.778348 0.856413 0.061977
O O8 0.086722 0.091194 0.845484
O O9 0.000000 0.000000 0.000000
O O10 0.250000 0.500000 0.067626
O O11 0.134413 0.372888 0.943744
O O12 0.812780 0.750000 0.250000
#
# Coordination Sequence:
#
# PCOD8217423 Si02
#       6
#     8   4   4   8   8   8
#     4  12  26  42  77 109 144 183 237 303 367 422
#     4  12  26  46  76 110 148 188 244 308 366 438
#     4  12  26  46  70 106 146 188 238 298 358 436
#     4  12  25  49  71 107 145 191 236 301 364 430
#     4  12  27  44  76 110 143 186 242 297 372 431
#     4  12  29  50  72 100 150 195 245 294 357 438
#
# _framework density 22.131609999999998
#
# number of rings (size 3 to 8) (size 9 to 14) (size 15 to 20)
#    0.000    0.000    8.000    0.600    4.200    2.400 
#    1.800    0.000    0.000    0.000    0.000    0.000 
#    0.000    0.000    0.000    0.000    0.000    0.000 
#
# Total GULP energy -495694.730566 kJ/mol
# GULP energy per Si atom -12392.368264 kJ/mol
# Density = 2.208124 g / cm^3
# Si number density = 22.131610 Si / 1000 Ang^3
#
#
#
# Elastic Constant Matrix: (Units=GPa)
#
#
# Indices 1 2 3 4 5 6 
#
# 1 77.0104 17.2900 13.1215 0.0000 0.0000 0.0000
# 2 17.2900 132.7977 45.1754 0.0000 0.0000 0.0000
# 3 13.1215 45.1754 152.3199 0.0000 0.0000 0.0000
# 4 0.0000 0.0000 0.0000 21.3676 0.0000 0.0000
# 5 0.0000 0.0000 0.0000 0.0000 67.3281 0.0000
# 6 0.0000 0.0000 0.0000 0.0000 0.0000 24.3387
#
#
#
# Elastic Compliance Matrix: (Units=1/GPa)
#
#
# Indices 1 2 3 4 5 6 
#
# 1 0.013445 -0.001509 -0.000711 0.000000 0.000000 0.000000
# 2 -0.001509 0.008545 -0.002404 0.000000 0.000000 0.000000
# 3 -0.000711 -0.002404 0.007339 0.000000 0.000000 0.000000
# 4 0.000000 0.000000 0.000000 0.046800 0.000000 0.000000
# 5 0.000000 0.000000 0.000000 0.000000 0.014853 0.000000
# 6 0.000000 0.000000 0.000000 0.000000 0.000000 0.041087
#
#
# Mechanical properties :
#
#
# Convention : Reuss Voigt Hill
#
# Bulk Modulus (GPa) = 49.79668 57.03355 53.41511
# Shear Modulus (GPa) = 33.78158 41.70961 37.74559
#
# Velocity S-wave (km/s) = 3.91115 4.34593 4.13426
# Velocity P-wave (km/s) = 6.55326 7.14205 6.85398
#
# Compressibility (1/GPa) = 0.02008166
#
# Stress axis : x y z
#
# Youngs Moduli (GPa) = 74.37660 117.03367 136.25091
#
# Poissons Ratio (x) = 0.17657 0.09684
# Poissons Ratio (y) = 0.11222 0.32757
# Poissons Ratio (z) = 0.05286 0.28137
#
# Static dielectric constant tensor:
#      x y z
#    x 1.560530 0.000000 0.000000 
#    y 0.000000 5.042780 0.000000 
#    z 0.000000 0.000000 4.385230 
# 
# 
# High freq. dielectric constant tensor:
#      x y z
#    x 1.863840 0.000000 0.000000 
#    y 0.000000 1.891920 0.000000 
#    z 0.000000 0.000000 1.879430 
# 
# From -- ./inp_files/20363.got.cif
#   From: 2010.06.25/outbox.cif.g09.slc.cpg/sg52_11_cif.got.tgz:20363.got - 2010.06.26 19:32:48.
