data_PCOD8217576
_publ_section_title
;
Structure prediction by ZEFSAII (Michael W. Deem and Ramdas Pophale) SiO2 
 PCOD8217576
Probable space group: P M N A
;
_chemical_formula_sum "Si O2"
_cell_formula_units_Z 64
_cell_length_a 9.134612
_cell_length_b 14.545064
_cell_length_c 30.146152
_cell_angle_alpha 90.000000
_cell_angle_beta 90.000000
_cell_angle_gamma 90.000000
_cell_volume 4005.323753
_symmetry_space_group_name_H-M "P M N A"
_symmetry_group_IT_number 53
_symmetry_cell_setting 'orthorhombic'
loop_
_space_group_symop_operation_xyz
x,y,z
1/2-x,-y,1/2+z
x,-y,-z
1/2-x,y,1/2-z
-x,-y,-z
1/2+x,y,1/2-z
-x,y,z
1/2+x,-y,1/2+z
loop_
_atom_site_type_symbol
_atom_site_label
_atom_site_fract_x
_atom_site_fract_y
_atom_site_fract_z
Si Si1 0.170783 0.143340 0.705745
Si Si2 0.165393 0.422849 0.875148
Si Si3 0.171768 0.069801 0.612062
Si Si4 0.830394 0.256115 0.025744
Si Si5 0.172132 0.354701 0.705335
Si Si6 0.675166 0.453361 0.455016
Si Si7 0.837493 0.235350 0.925417
Si Si8 0.825843 0.055089 0.044371
O O1 0.250000 0.106816 0.750000
O O2 0.216022 0.079334 0.664006
O O3 0.215113 0.248684 0.695054
O O4 0.000000 0.136716 0.715129
O O5 0.269826 0.423415 0.832550
O O6 0.231557 0.491985 0.911864
O O7 0.165610 0.319990 0.892802
O O8 0.000000 0.451729 0.861987
O O9 0.213875 0.163437 0.587516
O O10 0.000000 0.053922 0.606697
O O11 0.257055 0.986337 0.589085
O O12 0.766504 0.347816 0.049340
O O13 0.761673 0.159125 0.041500
O O14 0.000000 0.249609 0.036797
O O15 0.802093 0.272291 0.974005
O O16 0.250000 0.387160 0.750000
O O17 0.000000 0.367250 0.710257
O O18 0.737142 0.500000 0.500000
O O19 0.500000 0.456538 0.456913
O O20 0.000000 0.188492 0.924735
O O21 0.000000 0.052290 0.048463
O O22 0.776724 0.000000 0.000000
#
# Coordination Sequence:
#
# PCOD8217576 Si02
#       8
#     8   8   8   8   8   8   8   8
#     4   9  19  32  46  66  91 120 151 187 229 279
#     4  10  18  27  46  73  96 124 161 194 233 278
#     4  11  21  32  45  67  96 125 157 193 238 279
#     4   9  16  28  44  65  95 126 159 200 231 260
#     4  10  19  32  47  66  95 125 156 192 235 284
#     4   9  15  25  44  71  97 122 157 197 232 269
#     4  10  17  27  45  67  93 126 161 194 226 268
#     4  10  19  31  47  67  92 125 165 198 228 271
#
# _framework density 15.978733
#
# number of rings (size 3 to 8) (size 9 to 14) (size 15 to 20)
#    0.000    2.250    3.750    0.750    0.000    1.750 
#    0.000    0.000    0.000    1.875    0.000    0.875 
#    0.000    2.000    0.000    0.000    0.000    0.000 
#
# Total GULP energy -793295.997694 kJ/mol
# GULP energy per Si atom -12395.249964 kJ/mol
# Density = 1.594236 g / cm^3
# Si number density = 15.978733 Si / 1000 Ang^3
#
#
#
# Elastic Constant Matrix: (Units=GPa)
#
#
# Indices 1 2 3 4 5 6 
#
# 1 38.5618 23.0940 40.8175 0.0000 0.0000 0.0000
# 2 23.0940 91.4940 52.5458 0.0000 0.0000 0.0000
# 3 40.8175 52.5458 118.5906 0.0000 0.0000 0.0000
# 4 0.0000 0.0000 0.0000 25.1936 0.0000 0.0000
# 5 0.0000 0.0000 0.0000 0.0000 25.5519 0.0000
# 6 0.0000 0.0000 0.0000 0.0000 0.0000 8.7352
#
#
#
# Elastic Compliance Matrix: (Units=1/GPa)
#
#
# Indices 1 2 3 4 5 6 
#
# 1 0.041416 -0.003041 -0.012908 0.000000 0.000000 0.000000
# 2 -0.003041 0.014884 -0.005548 0.000000 0.000000 0.000000
# 3 -0.012908 -0.005548 0.015333 0.000000 0.000000 0.000000
# 4 0.000000 0.000000 0.000000 0.039693 0.000000 0.000000
# 5 0.000000 0.000000 0.000000 0.000000 0.039136 0.000000
# 6 0.000000 0.000000 0.000000 0.000000 0.000000 0.114479
#
#
# Mechanical properties :
#
#
# Convention : Reuss Voigt Hill
#
# Bulk Modulus (GPa) = 34.91630 53.50679 44.21154
# Shear Modulus (GPa) = 15.74899 20.70875 18.22887
#
# Velocity S-wave (km/s) = 3.14287 3.60393 3.38127
# Velocity P-wave (km/s) = 5.92194 7.13279 6.55538
#
# Compressibility (1/GPa) = 0.02863992
#
# Stress axis : x y z
#
# Youngs Moduli (GPa) = 24.14513 67.18838 65.21767
#
# Poissons Ratio (x) = 0.20431 0.84180
# Poissons Ratio (y) = 0.07342 0.36183
# Poissons Ratio (z) = 0.31166 0.37276
#
# Static dielectric constant tensor:
#      x y z
#    x 2.806620 0.000000 0.000000 
#    y 0.000000 3.078300 0.000000 
#    z 0.000000 0.000000 3.067800 
# 
# 
# High freq. dielectric constant tensor:
#      x y z
#    x 1.589510 0.000000 0.000000 
#    y 0.000000 1.591380 0.000000 
#    z 0.000000 0.000000 1.609110 
# 
# From -- ./inp_files/38444.got.cif
#   From: 2010.03.12/outbox.cif.g09.slc.cpg/sg53_20_cif.got.tgz:38444.got - 2010.04.16 14:36:59.
