data_PCOD8217696
_publ_section_title
;
Structure prediction by ZEFSAII (Michael W. Deem and Ramdas Pophale) SiO2 
 PCOD8217696
Probable space group: P M N A
;
_chemical_formula_sum "Si O2"
_cell_formula_units_Z 48
_cell_length_a 9.182126
_cell_length_b 15.129195
_cell_length_c 21.431509
_cell_angle_alpha 90.000000
_cell_angle_beta 90.000000
_cell_angle_gamma 90.000000
_cell_volume 2977.226113
_symmetry_space_group_name_H-M "P M N A"
_symmetry_group_IT_number 53
_symmetry_cell_setting 'orthorhombic'
loop_
_space_group_symop_operation_xyz
x,y,z
1/2-x,-y,1/2+z
x,-y,-z
1/2-x,y,1/2-z
-x,-y,-z
1/2+x,y,1/2-z
-x,y,z
1/2+x,-y,1/2+z
loop_
_atom_site_type_symbol
_atom_site_label
_atom_site_fract_x
_atom_site_fract_y
_atom_site_fract_z
Si Si1 0.831507 0.800743 0.685465
Si Si2 0.171733 0.125600 0.547351
Si Si3 0.828340 0.938044 0.586897
Si Si4 0.339362 0.483940 0.573399
Si Si5 0.327815 0.702887 0.462988
Si Si6 0.168525 0.650081 0.587876
O O1 0.750000 0.794056 0.750000
O O2 0.765566 0.882948 0.645368
O O3 0.807462 0.709890 0.648406
O O4 0.000000 0.817134 0.699692
O O5 0.229188 0.102508 0.477968
O O6 0.260148 0.211197 0.570918
O O7 0.000000 0.145654 0.548684
O O8 0.210727 0.042171 0.592037
O O9 0.000000 0.925304 0.584732
O O10 0.345011 0.500000 0.500000
O O11 0.500000 0.500415 0.602257
O O12 0.292114 0.381342 0.581681
O O13 0.226106 0.551609 0.604916
O O14 0.500000 0.713020 0.472313
O O15 0.255661 0.692379 0.530736
O O16 0.000000 0.644610 0.568732
#
# Coordination Sequence:
#
# PCOD8217696 Si02
#       6
#     8   8   8   8   8   8
#     4  10  20  33  47  66  90 119 154 188 224 268
#     4   9  15  27  48  66  86 119 151 185 226 268
#     4   8  15  29  46  64  88 117 150 187 228 266
#     4   8  16  28  40  59  90 121 143 172 221 266
#     4  10  18  27  41  65  96 122 143 176 224 274
#     4  10  18  29  45  63  86 117 155 190 215 258
#
# _framework density 16.122389999999999
#
# number of rings (size 3 to 8) (size 9 to 14) (size 15 to 20)
#    0.000    2.833    1.667    3.000    0.000    5.000 
#    0.000    2.500    0.000    0.000    0.000    1.167 
#    0.000    2.667    0.000    0.000    0.000    0.000 
#
# Total GULP energy -594865.669717 kJ/mol
# GULP energy per Si atom -12393.034786 kJ/mol
# Density = 1.608569 g / cm^3
# Si number density = 16.122390 Si / 1000 Ang^3
#
#
#
# Elastic Constant Matrix: (Units=GPa)
#
#
# Indices 1 2 3 4 5 6 
#
# 1 74.4052 63.3296 31.9129 0.0000 0.0000 0.0000
# 2 63.3296 153.5595 36.9085 0.0000 0.0000 0.0000
# 3 31.9129 36.9085 54.3738 0.0000 0.0000 0.0000
# 4 0.0000 0.0000 0.0000 13.9980 0.0000 0.0000
# 5 0.0000 0.0000 0.0000 0.0000 18.1435 0.0000
# 6 0.0000 0.0000 0.0000 0.0000 0.0000 23.2498
#
#
#
# Elastic Compliance Matrix: (Units=1/GPa)
#
#
# Indices 1 2 3 4 5 6 
#
# 1 0.023717 -0.007690 -0.008700 0.000000 0.000000 0.000000
# 2 -0.007690 0.010275 -0.002461 0.000000 0.000000 0.000000
# 3 -0.008700 -0.002461 0.025168 0.000000 0.000000 0.000000
# 4 0.000000 0.000000 0.000000 0.071439 0.000000 0.000000
# 5 0.000000 0.000000 0.000000 0.000000 0.055116 0.000000
# 6 0.000000 0.000000 0.000000 0.000000 0.000000 0.043011
#
#
# Mechanical properties :
#
#
# Convention : Reuss Voigt Hill
#
# Bulk Modulus (GPa) = 46.60353 60.73784 53.67069
# Shear Modulus (GPa) = 18.27618 21.09077 19.68348
#
# Velocity S-wave (km/s) = 3.37054 3.62078 3.49790
# Velocity P-wave (km/s) = 6.64200 7.43202 7.04809
#
# Compressibility (1/GPa) = 0.02145760
#
# Stress axis : x y z
#
# Youngs Moduli (GPa) = 42.16459 97.32215 39.73300
#
# Poissons Ratio (x) = 0.74840 0.34567
# Poissons Ratio (y) = 0.32424 0.09780
# Poissons Ratio (z) = 0.36682 0.23954
#
# Static dielectric constant tensor:
#      x y z
#    x 2.971400 0.000000 0.000000 
#    y 0.000000 3.615910 0.000000 
#    z 0.000000 0.000000 2.623510 
# 
# 
# High freq. dielectric constant tensor:
#      x y z
#    x 1.610280 0.000000 0.000000 
#    y 0.000000 1.641160 0.000000 
#    z 0.000000 0.000000 1.554810 
# 
# From -- ./inp_files/30476.got.cif
#   From: 2010.03.12/outbox.cif.g09.slc.cpg/sg53_16_cif.got.tgz:30476.got - 2010.04.16 14:36:59.
