data_PCOD8217993
_publ_section_title
;
Structure prediction by ZEFSAII (Michael W. Deem and Ramdas Pophale) SiO2 
 PCOD8217993
Probable space group: P M N A
;
_chemical_formula_sum "Si O2"
_cell_formula_units_Z 64
_cell_length_a 9.079292
_cell_length_b 16.742991
_cell_length_c 25.519373
_cell_angle_alpha 90.000000
_cell_angle_beta 90.000000
_cell_angle_gamma 90.000000
_cell_volume 3879.314835
_symmetry_space_group_name_H-M "P M N A"
_symmetry_group_IT_number 53
_symmetry_cell_setting 'orthorhombic'
loop_
_space_group_symop_operation_xyz
x,y,z
1/2-x,-y,1/2+z
x,-y,-z
1/2-x,y,1/2-z
-x,-y,-z
1/2+x,y,1/2-z
-x,y,z
1/2+x,-y,1/2+z
loop_
_atom_site_type_symbol
_atom_site_label
_atom_site_fract_x
_atom_site_fract_y
_atom_site_fract_z
Si Si1 0.168692 0.405963 0.496708
Si Si2 0.172159 0.412451 0.197535
Si Si3 0.826939 0.839198 0.561212
Si Si4 0.834080 0.002632 0.062276
Si Si5 0.168321 0.848180 0.440496
Si Si6 0.325733 0.316960 0.404905
Si Si7 0.673234 0.405069 0.697013
Si Si8 0.830274 0.322471 0.603348
O O1 0.187090 0.500000 0.500000
O O2 0.273174 0.373499 0.451622
O O3 0.220431 0.368678 0.551405
O O4 0.000000 0.380606 0.484611
O O5 0.250000 0.380871 0.250000
O O6 0.222571 0.357878 0.149334
O O7 0.218851 0.503548 0.185072
O O8 0.000000 0.406504 0.207427
O O9 0.761206 0.922584 0.582381
O O10 0.788077 0.826144 0.500098
O O11 0.751344 0.768775 0.593680
O O12 0.000000 0.838358 0.571770
O O13 0.000000 0.010922 0.083508
O O14 0.765621 0.919858 0.083227
O O15 0.829098 0.000000 0.000000
O O16 0.194111 0.771753 0.404225
O O17 0.000000 0.877152 0.439771
O O18 0.500000 0.306185 0.409139
O O19 0.750000 0.375101 0.750000
O O20 0.500000 0.395032 0.703472
O O21 0.727388 0.349523 0.650270
O O22 0.000000 0.342267 0.616241
#
# Coordination Sequence:
#
# PCOD8217993 Si02
#       8
#     8   8   8   8   8   8   8   8
#     4  10  20  33  48  68  97 134 170 198 236 295
#     4   9  20  36  52  71  95 125 165 211 254 294
#     4  10  18  31  48  68  97 133 168 197 237 291
#     4   9  17  28  44  68  96 126 163 201 242 285
#     4   9  17  30  46  66  97 132 165 199 237 286
#     4  11  21  32  48  72 102 129 161 206 251 291
#     4  10  20  35  53  72  94 125 166 210 255 295
#     4  10  19  32  48  71 100 130 165 204 242 287
#
# _framework density 16.497758000000001
#
# number of rings (size 3 to 8) (size 9 to 14) (size 15 to 20)
#    0.000    2.250    1.250    2.250    0.000    4.750 
#    0.000    0.000    0.000    0.000    0.000    0.875 
#    0.000    2.000    0.000    0.000    0.000    0.000 
#
# Total GULP energy -793786.795214 kJ/mol
# GULP energy per Si atom -12402.918675 kJ/mol
# Density = 1.646021 g / cm^3
# Si number density = 16.497758 Si / 1000 Ang^3
#
#
#
# Elastic Constant Matrix: (Units=GPa)
#
#
# Indices 1 2 3 4 5 6 
#
# 1 84.6559 51.0442 49.9911 0.0000 0.0000 0.0000
# 2 51.0442 101.7370 53.5038 0.0000 0.0000 0.0000
# 3 49.9911 53.5038 94.9392 0.0000 0.0000 0.0000
# 4 0.0000 0.0000 0.0000 12.9754 0.0000 0.0000
# 5 0.0000 0.0000 0.0000 0.0000 26.1383 0.0000
# 6 0.0000 0.0000 0.0000 0.0000 0.0000 31.0774
#
#
#
# Elastic Compliance Matrix: (Units=1/GPa)
#
#
# Indices 1 2 3 4 5 6 
#
# 1 0.019598 -0.006262 -0.006791 0.000000 0.000000 0.000000
# 2 -0.006262 0.015970 -0.005703 0.000000 0.000000 0.000000
# 3 -0.006791 -0.005703 0.017323 0.000000 0.000000 0.000000
# 4 0.000000 0.000000 0.000000 0.077069 0.000000 0.000000
# 5 0.000000 0.000000 0.000000 0.000000 0.038258 0.000000
# 6 0.000000 0.000000 0.000000 0.000000 0.000000 0.032178
#
#
# Mechanical properties :
#
#
# Convention : Reuss Voigt Hill
#
# Bulk Modulus (GPa) = 65.01850 65.60117 65.30983
# Shear Modulus (GPa) = 20.57330 22.49107 21.53218
#
# Velocity S-wave (km/s) = 3.53517 3.69627 3.61662
# Velocity P-wave (km/s) = 7.49395 7.62014 7.55731
#
# Compressibility (1/GPa) = 0.01538024
#
# Stress axis : x y z
#
# Youngs Moduli (GPa) = 51.02529 62.61698 57.72752
#
# Poissons Ratio (x) = 0.39208 0.39201
# Poissons Ratio (y) = 0.31950 0.32922
# Poissons Ratio (z) = 0.34650 0.35710
#
# Static dielectric constant tensor:
#      x y z
#    x 3.165130 0.000000 0.000000 
#    y 0.000000 3.187930 0.000000 
#    z 0.000000 0.000000 2.876000 
# 
# 
# High freq. dielectric constant tensor:
#      x y z
#    x 1.643690 0.000000 0.000000 
#    y 0.000000 1.640450 0.000000 
#    z 0.000000 0.000000 1.599220 
# 
# From -- ./inp_files/34450.got.cif
#   From: 2010.03.12/outbox.cif.g09.slc.cpg/sg53_18_cif.got.tgz:34450.got - 2010.04.16 14:36:59.
