data_PCOD8217533
_publ_section_title
;
Structure prediction by ZEFSAII (Michael W. Deem and Ramdas Pophale) SiO2 
 PCOD8217533
Probable space group: P M N A
;
_chemical_formula_sum "Si O2"
_cell_formula_units_Z 64
_cell_length_a 9.191297
_cell_length_b 13.441138
_cell_length_c 32.129105
_cell_angle_alpha 90.000000
_cell_angle_beta 90.000000
_cell_angle_gamma 90.000000
_cell_volume 3969.277548
_symmetry_space_group_name_H-M "P M N A"
_symmetry_group_IT_number 53
_symmetry_cell_setting 'orthorhombic'
loop_
_space_group_symop_operation_xyz
x,y,z
1/2-x,-y,1/2+z
x,-y,-z
1/2-x,y,1/2-z
-x,-y,-z
1/2+x,y,1/2-z
-x,y,z
1/2+x,-y,1/2+z
loop_
_atom_site_type_symbol
_atom_site_label
_atom_site_fract_x
_atom_site_fract_y
_atom_site_fract_z
Si Si1 0.838164 0.924507 0.961307
Si Si2 0.658535 0.773504 0.003218
Si Si3 0.341758 0.082205 0.924588
Si Si4 0.666739 0.540653 0.208300
Si Si5 0.662047 0.777472 0.211306
Si Si6 0.332604 0.447224 0.624872
Si Si7 0.836387 0.212587 0.866309
Si Si8 0.329557 0.434706 0.959704
O O1 0.000000 0.910428 0.942919
O O2 0.731155 0.973307 0.926993
O O3 0.777846 0.812450 0.970202
O O4 0.846313 0.000000 0.000000
O O5 0.500000 0.744857 0.983106
O O6 0.630796 0.871404 0.030421
O O7 0.716681 0.678661 0.029375
O O8 0.500000 0.074321 0.901820
O O9 0.227258 0.158409 0.905778
O O10 0.750000 0.500645 0.250000
O O11 0.500000 0.500172 0.207916
O O12 0.664397 0.658914 0.210047
O O13 0.749280 0.507178 0.165507
O O14 0.750000 0.819436 0.250000
O O15 0.500000 0.819142 0.213878
O O16 0.738214 0.824172 0.171511
O O17 0.500000 0.485201 0.625047
O O18 0.327028 0.329403 0.627695
O O19 0.256045 0.475949 0.580970
O O20 0.000000 0.177712 0.858300
O O21 0.500000 0.440689 0.948786
O O22 0.288998 0.500000 0.000000
#
# Coordination Sequence:
#
# PCOD8217533 Si02
#       8
#     8   8   8   8   8   8   8   8
#     4   9  17  27  40  58  79 101 127 163 206 248
#     4   9  17  29  43  58  77 103 136 172 210 251
#     4  10  17  26  41  59  79 103 133 169 208 249
#     4   9  16  26  41  59  80 104 135 171 211 256
#     4   9  16  25  36  51  73 102 135 168 201 241
#     4  10  19  29  42  59  82 110 142 179 217 254
#     4  10  18  26  38  56  78 105 136 171 209 248
#     4  10  20  33  47  62  82 112 150 187 221 258
#
# _framework density 16.123840999999999
#
# number of rings (size 3 to 8) (size 9 to 14) (size 15 to 20)
#    0.000    2.500    1.250    2.250    0.000    6.750 
#    0.000    0.000    0.000    0.000    0.000    0.000 
#    0.000    0.000    0.000    1.125    0.000   16.000 
#
# Total GULP energy -792916.468607 kJ/mol
# GULP energy per Si atom -12389.319822 kJ/mol
# Density = 1.608714 g / cm^3
# Si number density = 16.123841 Si / 1000 Ang^3
#
#
#
# Elastic Constant Matrix: (Units=GPa)
#
#
# Indices 1 2 3 4 5 6 
#
# 1 134.9080 17.1111 58.2416 0.0000 0.0000 0.0000
# 2 17.1111 22.5893 14.8100 0.0000 0.0000 0.0000
# 3 58.2416 14.8100 70.3776 0.0000 0.0000 0.0000
# 4 0.0000 0.0000 0.0000 7.6401 0.0000 0.0000
# 5 0.0000 0.0000 0.0000 0.0000 28.2783 0.0000
# 6 0.0000 0.0000 0.0000 0.0000 0.0000 8.7667
#
#
#
# Elastic Compliance Matrix: (Units=1/GPa)
#
#
# Indices 1 2 3 4 5 6 
#
# 1 0.011696 -0.002916 -0.009065 0.000000 0.000000 0.000000
# 2 -0.002916 0.052081 -0.008546 0.000000 0.000000 0.000000
# 3 -0.009065 -0.008546 0.023510 0.000000 0.000000 0.000000
# 4 0.000000 0.000000 0.000000 0.130889 0.000000 0.000000
# 5 0.000000 0.000000 0.000000 0.000000 0.035363 0.000000
# 6 0.000000 0.000000 0.000000 0.000000 0.000000 0.114068
#
#
# Mechanical properties :
#
#
# Convention : Reuss Voigt Hill
#
# Bulk Modulus (GPa) = 21.63073 45.35559 33.49316
# Shear Modulus (GPa) = 11.79045 18.11783 14.95414
#
# Velocity S-wave (km/s) = 2.70708 3.35575 3.04872
# Velocity P-wave (km/s) = 4.81825 6.57308 5.76285
#
# Compressibility (1/GPa) = 0.04623053
#
# Stress axis : x y z
#
# Youngs Moduli (GPa) = 85.49927 19.20093 42.53553
#
# Poissons Ratio (x) = 0.05599 0.38560
# Poissons Ratio (y) = 0.24932 0.36353
# Poissons Ratio (z) = 0.77509 0.16410
#
# Static dielectric constant tensor:
#      x y z
#    x 3.459630 0.000000 0.000000 
#    y 0.000000 2.542020 0.000000 
#    z 0.000000 0.000000 5.851220 
# 
# 
# High freq. dielectric constant tensor:
#      x y z
#    x 1.643230 0.000000 0.000000 
#    y 0.000000 1.550740 0.000000 
#    z 0.000000 0.000000 1.597680 
# 
# From -- ./inp_files/38513.got.cif
#   From: 2010.03.12/outbox.cif.g09.slc.cpg/sg53_20_cif.got.tgz:38513.got - 2010.04.16 14:36:59.
