data_PCOD8217398
_publ_section_title
;
Structure prediction by ZEFSAII (Michael W. Deem and Ramdas Pophale) SiO2 
 PCOD8217398
Probable space group: P N N A
;
_chemical_formula_sum "Si O2"
_cell_formula_units_Z 36
_cell_length_a 12.380546
_cell_length_b 23.301351
_cell_length_c 4.945849
_cell_angle_alpha 90.000000
_cell_angle_beta 90.000000
_cell_angle_gamma 90.000000
_cell_volume 1426.795572
_symmetry_space_group_name_H-M "P N N A"
_symmetry_group_IT_number 52
_symmetry_cell_setting 'orthorhombic'
loop_
_space_group_symop_operation_xyz
x,y,z
1/2-x,-y,z
x,1/2-y,1/2-z
1/2-x,1/2+y,1/2-z
-x,-y,-z
1/2+x,y,-z
-x,1/2+y,1/2+z
1/2+x,1/2-y,1/2+z
loop_
_atom_site_type_symbol
_atom_site_label
_atom_site_fract_x
_atom_site_fract_y
_atom_site_fract_z
Si Si1 0.195302 0.322504 0.016938
Si Si2 0.947129 0.439125 0.448408
Si Si3 0.804213 0.439131 0.948123
Si Si4 0.875878 0.250000 0.250000
Si Si5 0.443529 0.822850 0.983290
O O1 0.216565 0.390294 0.990742
O O2 0.304625 0.289123 0.948182
O O3 0.096554 0.306014 0.816445
O O4 0.154908 0.305728 0.316525
O O5 0.907998 0.433676 0.140842
O O6 0.036693 0.390793 0.499365
O O7 0.000000 0.500000 0.500000
O O8 0.843949 0.431042 0.641790
O O9 0.750000 0.500000 0.997252
O O10 0.946798 0.210051 0.054466
#
# Coordination Sequence:
#
# PCOD8217398 Si02
#       5
#     8   8   8   4   8
#     4  12  27  48  74 109 145 195 247 303 370 437
#     4  12  24  45  73 107 149 189 241 307 366 438
#     4  12  24  45  73 107 149 191 242 306 366 439
#     4  12  28  50  76 106 156 192 254 306 372 440
#     4  12  27  48  74 109 145 194 248 301 368 440
#
# _framework density 25.231366999999999
#
# number of rings (size 3 to 8) (size 9 to 14) (size 15 to 20)
#    0.000    0.000    2.222    8.000    0.000    1.778 
#    0.000    0.000    0.000    0.000    0.000    0.000 
#    0.000    0.000    0.000    0.000    0.000    0.000 
#
# Total GULP energy -446846.874537 kJ/mol
# GULP energy per Si atom -12412.413182 kJ/mol
# Density = 2.517394 g / cm^3
# Si number density = 25.231367 Si / 1000 Ang^3
#
#
#
# Elastic Constant Matrix: (Units=GPa)
#
#
# Indices 1 2 3 4 5 6 
#
# 1 100.2269 21.3083 15.0525 0.0000 0.0000 0.0000
# 2 21.3083 106.2272 -10.6538 0.0000 0.0000 0.0000
# 3 15.0525 -10.6538 93.4500 0.0000 0.0000 0.0000
# 4 0.0000 0.0000 0.0000 20.6437 0.0000 0.0000
# 5 0.0000 0.0000 0.0000 0.0000 34.9879 0.0000
# 6 0.0000 0.0000 0.0000 0.0000 0.0000 61.1053
#
#
#
# Elastic Compliance Matrix: (Units=1/GPa)
#
#
# Indices 1 2 3 4 5 6 
#
# 1 0.010781 -0.002364 -0.002006 0.000000 0.000000 0.000000
# 2 -0.002364 0.010041 0.001525 0.000000 0.000000 0.000000
# 3 -0.002006 0.001525 0.011198 0.000000 0.000000 0.000000
# 4 0.000000 0.000000 0.000000 0.048441 0.000000 0.000000
# 5 0.000000 0.000000 0.000000 0.000000 0.028581 0.000000
# 6 0.000000 0.000000 0.000000 0.000000 0.000000 0.016365
#
#
# Mechanical properties :
#
#
# Convention : Reuss Voigt Hill
#
# Bulk Modulus (GPa) = 37.97768 39.03533 38.50651
# Shear Modulus (GPa) = 35.74661 41.62719 38.68690
#
# Velocity S-wave (km/s) = 3.76806 4.06620 3.91997
# Velocity P-wave (km/s) = 5.83228 6.12780 5.98186
#
# Compressibility (1/GPa) = 0.02633126
#
# Stress axis : x y z
#
# Youngs Moduli (GPa) = 92.75414 99.59233 89.30213
#
# Poissons Ratio (x) = 0.23542 0.17915
# Poissons Ratio (y) = 0.21925 -0.13623
# Poissons Ratio (z) = 0.18607 -0.15192
#
# Static dielectric constant tensor:
#      x y z
#    x 4.428470 0.000000 0.000000 
#    y 0.000000 4.900010 0.000000 
#    z 0.000000 0.000000 4.682180 
# 
# 
# High freq. dielectric constant tensor:
#      x y z
#    x 2.006590 0.000000 0.000000 
#    y 0.000000 2.038000 0.000000 
#    z 0.000000 0.000000 2.014090 
# 
# From -- ./inp_files/1224.got.cif
#   From: 2010.06.25/outbox.cif.g09.slc.cpg/sg52_1_cif.got.tgz:1224.got - 2010.06.26 19:32:48.
