data_PCOD8217591
_publ_section_title
;
Structure prediction by ZEFSAII (Michael W. Deem and Ramdas Pophale) SiO2 
 PCOD8217591
Probable space group: P M N A
;
_chemical_formula_sum "Si O2"
_cell_formula_units_Z 56
_cell_length_a 14.900227
_cell_length_b 15.892577
_cell_length_c 12.170886
_cell_angle_alpha 90.000000
_cell_angle_beta 90.000000
_cell_angle_gamma 90.000000
_cell_volume 2882.102377
_symmetry_space_group_name_H-M "P M N A"
_symmetry_group_IT_number 53
_symmetry_cell_setting 'orthorhombic'
loop_
_space_group_symop_operation_xyz
x,y,z
1/2-x,-y,1/2+z
x,-y,-z
1/2-x,y,1/2-z
-x,-y,-z
1/2+x,y,1/2-z
-x,y,z
1/2+x,-y,1/2+z
loop_
_atom_site_type_symbol
_atom_site_label
_atom_site_fract_x
_atom_site_fract_y
_atom_site_fract_z
Si Si1 0.679466 0.617623 0.992852
Si Si2 0.099555 0.057308 0.395301
Si Si3 0.100274 0.506218 0.336266
Si Si4 0.323364 0.379429 0.663223
Si Si5 0.598706 0.788532 0.409506
Si Si6 0.792303 0.809796 0.502357
Si Si7 0.349274 0.101383 0.785792
O O1 0.602975 0.584126 0.077230
O O2 0.774608 0.593893 0.049867
O O3 0.672819 0.716532 0.971815
O O4 0.666546 0.568618 0.877249
O O5 0.175372 0.131065 0.396096
O O6 0.000000 0.098011 0.394960
O O7 0.117356 0.000000 0.500000
O O8 0.107737 0.991652 0.295373
O O9 0.130010 0.538530 0.215876
O O10 0.000000 0.470624 0.327960
O O11 0.250000 0.342293 0.750000
O O12 0.393249 0.305958 0.637108
O O13 0.500000 0.795714 0.468436
O O14 0.683340 0.811323 0.488759
O O15 0.594920 0.850561 0.306310
O O16 0.846445 0.841969 0.395768
O O17 0.250000 0.083645 0.750000
#
# Coordination Sequence:
#
# PCOD8217591 Si02
#       7
#     8   8   8   8   8   8   8
#     4   9  17  29  44  67  98 127 158 200 253 301
#     4   9  17  28  44  66  92 124 159 195 237 283
#     4  10  18  28  46  73  98 124 164 210 253 299
#     4   9  17  29  44  69 102 131 160 202 258 306
#     4  10  17  27  47  73  99 125 155 195 245 297
#     4   9  18  30  44  68  97 125 157 197 245 292
#     4   9  16  28  46  67  96 126 156 197 244 291
#
# _framework density 19.430260000000001
#
# number of rings (size 3 to 8) (size 9 to 14) (size 15 to 20)
#    0.000    2.714    0.000    4.714    0.000    1.714 
#    0.000    0.000    0.000   15.857    0.000  176.000 
#    0.000    0.000    0.000    0.000    0.000    0.000 
#
# Total GULP energy -693762.769193 kJ/mol
# GULP energy per Si atom -12388.620878 kJ/mol
# Density = 1.938604 g / cm^3
# Si number density = 19.430260 Si / 1000 Ang^3
#
#
#
# Elastic Constant Matrix: (Units=GPa)
#
#
# Indices 1 2 3 4 5 6 
#
# 1 123.3525 66.2890 26.8782 0.0000 0.0000 0.0000
# 2 66.2890 143.1782 49.1115 0.0000 0.0000 0.0000
# 3 26.8782 49.1115 42.1756 0.0000 0.0000 0.0000
# 4 0.0000 0.0000 0.0000 28.4214 0.0000 0.0000
# 5 0.0000 0.0000 0.0000 0.0000 9.1679 0.0000
# 6 0.0000 0.0000 0.0000 0.0000 0.0000 19.3528
#
#
#
# Elastic Compliance Matrix: (Units=1/GPa)
#
#
# Indices 1 2 3 4 5 6 
#
# 1 0.010871 -0.004424 -0.001777 0.000000 0.000000 0.000000
# 2 -0.004424 0.013429 -0.012819 0.000000 0.000000 0.000000
# 3 -0.001777 -0.012819 0.039770 0.000000 0.000000 0.000000
# 4 0.000000 0.000000 0.000000 0.035185 0.000000 0.000000
# 5 0.000000 0.000000 0.000000 0.000000 0.109076 0.000000
# 6 0.000000 0.000000 0.000000 0.000000 0.000000 0.051672
#
#
# Mechanical properties :
#
#
# Convention : Reuss Voigt Hill
#
# Bulk Modulus (GPa) = 38.41496 65.91818 52.16657
# Shear Modulus (GPa) = 16.30155 22.48358 19.39257
#
# Velocity S-wave (km/s) = 2.89965 3.40537 3.16264
# Velocity P-wave (km/s) = 5.56994 7.03287 6.34372
#
# Compressibility (1/GPa) = 0.02603152
#
# Stress axis : x y z
#
# Youngs Moduli (GPa) = 91.98502 74.46403 25.14486
#
# Poissons Ratio (x) = 0.32941 0.04468
# Poissons Ratio (y) = 0.40691 0.32232
# Poissons Ratio (z) = 0.16346 0.95452
#
# Static dielectric constant tensor:
#      x y z
#    x 3.646040 0.000000 0.000000 
#    y 0.000000 3.644700 0.000000 
#    z 0.000000 0.000000 3.354220 
# 
# 
# High freq. dielectric constant tensor:
#      x y z
#    x 1.753050 0.000000 0.000000 
#    y 0.000000 1.751610 0.000000 
#    z 0.000000 0.000000 1.702600 
# 
# From -- ./inp_files/22948.got.cif
#   From: 2010.03.12/outbox.cif.g09.slc.cpg/sg53_12_cif.got.tgz:22948.got - 2010.04.16 14:36:59.
