data_PCOD8217945
_publ_section_title
;
Structure prediction by ZEFSAII (Michael W. Deem and Ramdas Pophale) SiO2 
 PCOD8217945
Probable space group: P M N A
;
_chemical_formula_sum "Si O2"
_cell_formula_units_Z 48
_cell_length_a 8.728728
_cell_length_b 11.851754
_cell_length_c 26.031449
_cell_angle_alpha 90.000000
_cell_angle_beta 90.000000
_cell_angle_gamma 90.000000
_cell_volume 2692.972584
_symmetry_space_group_name_H-M "P M N A"
_symmetry_group_IT_number 53
_symmetry_cell_setting 'orthorhombic'
loop_
_space_group_symop_operation_xyz
x,y,z
1/2-x,-y,1/2+z
x,-y,-z
1/2-x,y,1/2-z
-x,-y,-z
1/2+x,y,1/2-z
-x,y,z
1/2+x,-y,1/2+z
loop_
_atom_site_type_symbol
_atom_site_label
_atom_site_fract_x
_atom_site_fract_y
_atom_site_fract_z
Si Si1 0.829237 0.353401 0.536588
Si Si2 0.819695 0.271163 0.430896
Si Si3 0.819160 0.335440 0.805602
Si Si4 0.180091 0.490002 0.376574
Si Si5 0.680693 0.968143 0.557331
Si Si6 0.826969 0.163882 0.616402
O O1 0.752001 0.336316 0.481045
O O2 0.750032 0.447446 0.572710
O O3 0.826489 0.232965 0.563846
O O4 0.000000 0.397015 0.526256
O O5 0.792090 0.355330 0.382281
O O6 0.727286 0.156589 0.424586
O O7 0.000000 0.243782 0.437530
O O8 0.750000 0.317452 0.750000
O O9 0.763816 0.457237 0.827280
O O10 0.765585 0.230541 0.840129
O O11 0.000000 0.335888 0.802339
O O12 0.000000 0.519126 0.371345
O O13 0.500000 0.980691 0.557846
O O14 0.742999 0.000000 0.500000
O O15 0.748575 0.046123 0.602251
O O16 0.000000 0.143288 0.636123
#
# Coordination Sequence:
#
# PCOD8217945 Si02
#       6
#     8   8   8   8   8   8
#     4   8  14  26  47  73 102 136 175 217 254 302
#     4  10  18  30  50  74 105 147 188 219 255 311
#     4  11  22  38  60  83 108 135 171 220 277 327
#     4   9  18  32  51  78 107 137 178 222 266 316
#     4  11  22  33  47  73 113 152 186 224 267 315
#     4  10  19  34  56  79 105 139 185 227 266 314
#
# _framework density 17.824169999999999
#
# number of rings (size 3 to 8) (size 9 to 14) (size 15 to 20)
#    0.000    2.167    1.667    4.000    0.000    3.333 
#    0.000    0.000    0.000    4.000    0.000    2.333 
#    0.000    0.000    0.000    0.000    0.000    0.000 
#
# Total GULP energy -594889.767441 kJ/mol
# GULP energy per Si atom -12393.536822 kJ/mol
# Density = 1.778360 g / cm^3
# Si number density = 17.824170 Si / 1000 Ang^3
#
#
#
# Elastic Constant Matrix: (Units=GPa)
#
#
# Indices 1 2 3 4 5 6 
#
# 1 92.1201 36.1458 38.5906 0.0000 0.0000 0.0000
# 2 36.1458 101.3092 41.0927 0.0000 0.0000 0.0000
# 3 38.5906 41.0927 89.6662 0.0000 0.0000 0.0000
# 4 0.0000 0.0000 0.0000 12.7826 0.0000 0.0000
# 5 0.0000 0.0000 0.0000 0.0000 22.4239 0.0000
# 6 0.0000 0.0000 0.0000 0.0000 0.0000 26.2464
#
#
#
# Elastic Compliance Matrix: (Units=1/GPa)
#
#
# Indices 1 2 3 4 5 6 
#
# 1 0.014010 -0.003136 -0.004592 0.000000 0.000000 0.000000
# 2 -0.003136 0.012826 -0.004529 0.000000 0.000000 0.000000
# 3 -0.004592 -0.004529 0.015204 0.000000 0.000000 0.000000
# 4 0.000000 0.000000 0.000000 0.078231 0.000000 0.000000
# 5 0.000000 0.000000 0.000000 0.000000 0.044595 0.000000
# 6 0.000000 0.000000 0.000000 0.000000 0.000000 0.038100
#
#
# Mechanical properties :
#
#
# Convention : Reuss Voigt Hill
#
# Bulk Modulus (GPa) = 57.05503 57.19484 57.12493
# Shear Modulus (GPa) = 21.42951 23.44168 22.43560
#
# Velocity S-wave (km/s) = 3.47114 3.63045 3.55169
# Velocity P-wave (km/s) = 6.93862 7.05206 6.99557
#
# Compressibility (1/GPa) = 0.01752694
#
# Stress axis : x y z
#
# Youngs Moduli (GPa) = 71.37960 77.96404 65.77055
#
# Poissons Ratio (x) = 0.24447 0.30205
# Poissons Ratio (y) = 0.22382 0.29785
# Poissons Ratio (z) = 0.32781 0.35307
#
# Static dielectric constant tensor:
#      x y z
#    x 3.148630 0.000000 0.000000 
#    y 0.000000 3.312380 0.000000 
#    z 0.000000 0.000000 3.147090 
# 
# 
# High freq. dielectric constant tensor:
#      x y z
#    x 1.673340 0.000000 0.000000 
#    y 0.000000 1.691870 0.000000 
#    z 0.000000 0.000000 1.661350 
# 
# From -- ./inp_files/33891.got.cif
#   From: 2010.03.12/outbox.cif.g09.slc.cpg/sg53_17_cif.got.tgz:33891.got - 2010.04.16 14:36:59.
