data_PCOD8217042
_publ_section_title
;
Structure prediction by ZEFSAII (Michael W. Deem and Ramdas Pophale) SiO2 
 PCOD8217042
Probable space group: P N N A
;
_chemical_formula_sum "Si O2"
_cell_formula_units_Z 40
_cell_length_a 13.525671
_cell_length_b 16.449608
_cell_length_c 8.867748
_cell_angle_alpha 90.000000
_cell_angle_beta 90.000000
_cell_angle_gamma 90.000000
_cell_volume 1973.002863
_symmetry_space_group_name_H-M "P N N A"
_symmetry_group_IT_number 52
_symmetry_cell_setting 'orthorhombic'
loop_
_space_group_symop_operation_xyz
x,y,z
1/2-x,-y,z
x,1/2-y,1/2-z
1/2-x,1/2+y,1/2-z
-x,-y,-z
1/2+x,y,-z
-x,1/2+y,1/2+z
1/2+x,1/2-y,1/2+z
loop_
_atom_site_type_symbol
_atom_site_label
_atom_site_fract_x
_atom_site_fract_y
_atom_site_fract_z
Si Si1 0.847843 0.166528 0.315471
Si Si2 0.037096 0.531291 0.659627
Si Si3 0.357337 0.915321 0.635755
Si Si4 0.547082 0.679383 0.873271
Si Si5 0.639883 0.988958 0.661123
O O1 0.805745 0.250000 0.250000
O O2 0.906388 0.117420 0.182733
O O3 0.755044 0.113383 0.369541
O O4 0.913460 0.194934 0.458206
O O5 0.110877 0.459156 0.710468
O O6 0.000000 0.500000 0.500000
O O7 0.937452 0.546193 0.754335
O O8 0.430289 0.839211 0.608813
O O9 0.369130 0.986978 0.513427
O O10 0.564572 0.750000 0.750000
O O11 0.606712 0.602854 0.808199
O O12 0.750000 0.000000 0.726240
#
# Coordination Sequence:
#
# PCOD8217042 Si02
#       5
#     8   8   8   8   8
#     4  12  25  42  66 102 140 175 219 289 355 397
#     4  11  24  42  66  97 133 176 227 281 334 405
#     4  11  21  46  71  91 126 188 232 269 338 425
#     4  11  23  41  66  99 133 171 223 278 342 407
#     4  11  20  42  73  92 121 181 233 268 326 417
#
# _framework density 20.273665000000001
#
# number of rings (size 3 to 8) (size 9 to 14) (size 15 to 20)
#    0.000    0.800    6.000    2.400    5.600    1.600 
#    0.000    2.000    0.000    0.000    0.000    0.000 
#    0.000    0.000    0.000    0.000    0.000    0.000 
#
# Total GULP energy -495671.998121 kJ/mol
# GULP energy per Si atom -12391.799953 kJ/mol
# Density = 2.022752 g / cm^3
# Si number density = 20.273665 Si / 1000 Ang^3
#
#
#
# Elastic Constant Matrix: (Units=GPa)
#
#
# Indices 1 2 3 4 5 6 
#
# 1 120.8105 50.3785 38.6346 0.0000 0.0000 0.0000
# 2 50.3785 114.1022 54.1959 0.0000 0.0000 0.0000
# 3 38.6346 54.1959 114.1367 0.0000 0.0000 0.0000
# 4 0.0000 0.0000 0.0000 42.6326 0.0000 0.0000
# 5 0.0000 0.0000 0.0000 0.0000 24.6566 0.0000
# 6 0.0000 0.0000 0.0000 0.0000 0.0000 27.5776
#
#
#
# Elastic Compliance Matrix: (Units=1/GPa)
#
#
# Indices 1 2 3 4 5 6 
#
# 1 0.010404 -0.003771 -0.001731 0.000000 0.000000 0.000000
# 2 -0.003771 0.012683 -0.004746 0.000000 0.000000 0.000000
# 3 -0.001731 -0.004746 0.011601 0.000000 0.000000 0.000000
# 4 0.000000 0.000000 0.000000 0.023456 0.000000 0.000000
# 5 0.000000 0.000000 0.000000 0.000000 0.040557 0.000000
# 6 0.000000 0.000000 0.000000 0.000000 0.000000 0.036261
#
#
# Mechanical properties :
#
#
# Convention : Reuss Voigt Hill
#
# Bulk Modulus (GPa) = 70.46370 70.60747 70.53558
# Shear Modulus (GPa) = 31.21311 32.69605 31.95458
#
# Velocity S-wave (km/s) = 3.92802 4.02024 3.97440
# Velocity P-wave (km/s) = 7.44340 7.51349 7.47853
#
# Compressibility (1/GPa) = 0.01419170
#
# Stress axis : x y z
#
# Youngs Moduli (GPa) = 96.12072 78.84329 86.20079
#
# Poissons Ratio (x) = 0.29734 0.14920
# Poissons Ratio (y) = 0.36250 0.40910
# Poissons Ratio (z) = 0.16637 0.37418
#
# Static dielectric constant tensor:
#      x y z
#    x 3.985840 0.000000 0.000000 
#    y 0.000000 3.628000 0.000000 
#    z 0.000000 0.000000 3.644410 
# 
# 
# High freq. dielectric constant tensor:
#      x y z
#    x 1.808290 0.000000 0.000000 
#    y 0.000000 1.788760 0.000000 
#    z 0.000000 0.000000 1.778790 
# 
# From -- ./inp_files/10233.got.cif
#   From: 2010.06.25/outbox.cif.g09.slc.cpg/sg52_6_cif.got.tgz:10233.got - 2010.06.26 19:32:48.
