data_PCOD8217602
_publ_section_title
;
Structure prediction by ZEFSAII (Michael W. Deem and Ramdas Pophale) SiO2 
 PCOD8217602
Probable space group: P M N A
;
_chemical_formula_sum "Si O2"
_cell_formula_units_Z 56
_cell_length_a 14.066744
_cell_length_b 9.450064
_cell_length_c 26.231914
_cell_angle_alpha 90.000000
_cell_angle_beta 90.000000
_cell_angle_gamma 90.000000
_cell_volume 3487.051114
_symmetry_space_group_name_H-M "P M N A"
_symmetry_group_IT_number 53
_symmetry_cell_setting 'orthorhombic'
loop_
_space_group_symop_operation_xyz
x,y,z
1/2-x,-y,1/2+z
x,-y,-z
1/2-x,y,1/2-z
-x,-y,-z
1/2+x,y,1/2-z
-x,y,z
1/2+x,-y,1/2+z
loop_
_atom_site_type_symbol
_atom_site_label
_atom_site_fract_x
_atom_site_fract_y
_atom_site_fract_z
Si Si1 0.214172 0.783874 0.367878
Si Si2 0.110355 0.965570 0.287381
Si Si3 0.107135 0.527493 0.227117
Si Si4 0.109229 0.209700 0.360706
Si Si5 0.889599 0.025942 0.557321
Si Si6 0.710660 0.478748 0.168953
Si Si7 0.894163 0.161466 0.814383
O O1 0.206711 0.614276 0.368274
O O2 0.324143 0.834901 0.362724
O O3 0.163051 0.842154 0.317694
O O4 0.170276 0.843425 0.419971
O O5 0.134778 0.120245 0.309765
O O6 0.000000 0.932862 0.295978
O O7 0.135796 0.959456 0.227069
O O8 0.137059 0.497623 0.284861
O O9 0.181675 0.452633 0.188799
O O10 0.111430 0.694412 0.217787
O O11 0.000000 0.468812 0.217814
O O12 0.129668 0.114864 0.410285
O O13 0.178289 0.344037 0.363952
O O14 0.000000 0.259853 0.359840
O O15 0.000000 0.069058 0.559265
O O16 0.854748 0.000000 0.500000
O O17 0.000000 0.134261 0.835756
#
# Coordination Sequence:
#
# PCOD8217602 Si02
#       7
#     8   8   8   8   8   8   8
#     4  10  17  28  48  69  87 120 160 190 225 271
#     4   9  16  27  43  64  92 126 155 182 219 264
#     4   9  17  28  42  63  97 132 156 182 214 258
#     4   9  18  30  45  67  95 121 149 188 231 271
#     4   9  19  36  53  68  88 116 151 193 243 287
#     4  10  18  28  44  68  94 124 158 186 222 266
#     4   9  16  27  44  66  93 123 160 191 210 255
#
# _framework density 16.059415999999999
#
# number of rings (size 3 to 8) (size 9 to 14) (size 15 to 20)
#    0.000    2.714    1.429    2.143    0.000    1.714 
#   10.286    0.714    0.000    3.000    0.000    0.000 
#    0.000    4.571    0.000    0.000    0.000    0.000 
#
# Total GULP energy -694224.732539 kJ/mol
# GULP energy per Si atom -12396.870224 kJ/mol
# Density = 1.602286 g / cm^3
# Si number density = 16.059416 Si / 1000 Ang^3
#
#
#
# Elastic Constant Matrix: (Units=GPa)
#
#
# Indices 1 2 3 4 5 6 
#
# 1 87.9624 43.9525 40.5823 0.0000 0.0000 0.0000
# 2 43.9525 79.5829 40.6530 0.0000 0.0000 0.0000
# 3 40.5823 40.6530 72.0188 0.0000 0.0000 0.0000
# 4 0.0000 0.0000 0.0000 14.0829 0.0000 0.0000
# 5 0.0000 0.0000 0.0000 0.0000 20.3816 0.0000
# 6 0.0000 0.0000 0.0000 0.0000 0.0000 21.4208
#
#
#
# Elastic Compliance Matrix: (Units=1/GPa)
#
#
# Indices 1 2 3 4 5 6 
#
# 1 0.017460 -0.006488 -0.006176 0.000000 0.000000 0.000000
# 2 -0.006488 0.020068 -0.007672 0.000000 0.000000 0.000000
# 3 -0.006176 -0.007672 0.021696 0.000000 0.000000 0.000000
# 4 0.000000 0.000000 0.000000 0.071008 0.000000 0.000000
# 5 0.000000 0.000000 0.000000 0.000000 0.049064 0.000000
# 6 0.000000 0.000000 0.000000 0.000000 0.000000 0.046684
#
#
# Mechanical properties :
#
#
# Convention : Reuss Voigt Hill
#
# Bulk Modulus (GPa) = 53.90355 54.43774 54.17064
# Shear Modulus (GPa) = 18.32609 18.80215 18.56412
#
# Velocity S-wave (km/s) = 3.38175 3.42539 3.40364
# Velocity P-wave (km/s) = 6.99187 7.04384 7.01790
#
# Compressibility (1/GPa) = 0.01855165
#
# Stress axis : x y z
#
# Youngs Moduli (GPa) = 57.27464 49.83160 46.09109
#
# Poissons Ratio (x) = 0.32329 0.28467
# Poissons Ratio (y) = 0.37158 0.35361
# Poissons Ratio (z) = 0.35374 0.38230
#
# Static dielectric constant tensor:
#      x y z
#    x 3.290500 0.000000 0.000000 
#    y 0.000000 2.929940 0.000000 
#    z 0.000000 0.000000 2.765830 
# 
# 
# High freq. dielectric constant tensor:
#      x y z
#    x 1.623630 0.000000 0.000000 
#    y 0.000000 1.605620 0.000000 
#    z 0.000000 0.000000 1.570260 
# 
# From -- ./inp_files/38924.got.cif
#   From: 2010.03.12/outbox.cif.g09.slc.cpg/sg53_20_cif.got.tgz:38924.got - 2010.04.16 14:36:59.
