data_PCOD8217632
_publ_section_title
;
Structure prediction by ZEFSAII (Michael W. Deem and Ramdas Pophale) SiO2 
 PCOD8217632
Probable space group: P M N A
;
_chemical_formula_sum "Si O2"
_cell_formula_units_Z 64
_cell_length_a 8.793380
_cell_length_b 14.926775
_cell_length_c 29.447027
_cell_angle_alpha 90.000000
_cell_angle_beta 90.000000
_cell_angle_gamma 90.000000
_cell_volume 3865.122673
_symmetry_space_group_name_H-M "P M N A"
_symmetry_group_IT_number 53
_symmetry_cell_setting 'orthorhombic'
loop_
_space_group_symop_operation_xyz
x,y,z
1/2-x,-y,1/2+z
x,-y,-z
1/2-x,y,1/2-z
-x,-y,-z
1/2+x,y,1/2-z
-x,y,z
1/2+x,-y,1/2+z
loop_
_atom_site_type_symbol
_atom_site_label
_atom_site_fract_x
_atom_site_fract_y
_atom_site_fract_z
Si Si1 0.324068 0.131152 0.053440
Si Si2 0.679302 0.824194 0.459519
Si Si3 0.678007 0.552665 0.938426
Si Si4 0.824919 0.290450 0.378726
Si Si5 0.180504 0.002337 0.202949
Si Si6 0.319928 0.041766 0.890014
Si Si7 0.323235 0.205896 0.295069
Si Si8 0.180017 0.365833 0.531576
O O1 0.500000 0.118687 0.040034
O O2 0.296418 0.223832 0.079427
O O3 0.267615 0.049924 0.085185
O O4 0.227976 0.132637 0.007398
O O5 0.500000 0.834115 0.454094
O O6 0.762541 0.874984 0.418942
O O7 0.727230 0.721202 0.454274
O O8 0.500000 0.559295 0.946372
O O9 0.724616 0.609492 0.894065
O O10 0.721062 0.447596 0.933587
O O11 0.744867 0.600541 0.983165
O O12 0.718304 0.267704 0.337082
O O13 0.000000 0.285328 0.363128
O O14 0.250000 0.963640 0.250000
O O15 0.236048 0.104988 0.196967
O O16 0.000000 0.992473 0.204435
O O17 0.245903 0.949468 0.159792
O O18 0.500000 0.044792 0.884561
O O19 0.250000 0.247659 0.250000
O O20 0.500000 0.205775 0.287591
O O21 0.000000 0.343324 0.531177
#
# Coordination Sequence:
#
# PCOD8217632 Si02
#       8
#     8   8   8   8   8   8   8   8
#     4  10  20  34  51  70  97 135 175 207 241 292
#     4  12  24  34  47  70 102 137 171 212 255 294
#     4   8  15  28  52  75  94 124 164 204 243 290
#     4  10  17  30  51  75 100 129 166 206 246 294
#     4  10  20  34  52  74 101 130 165 207 251 296
#     4  11  22  36  53  72  96 133 175 211 250 296
#     4  10  20  32  48  71 100 133 165 202 246 294
#     4   9  16  32  52  71  94 127 168 205 242 291
#
# _framework density 16.558337000000002
#
# number of rings (size 3 to 8) (size 9 to 14) (size 15 to 20)
#    0.000    2.000    2.500    3.375    0.000    4.000 
#    0.000    1.875    0.000    0.000    0.000    0.875 
#    0.000    2.000    0.000    0.000    0.000    0.000 
#
# Total GULP energy -793517.248859 kJ/mol
# GULP energy per Si atom -12398.707013 kJ/mol
# Density = 1.652065 g / cm^3
# Si number density = 16.558337 Si / 1000 Ang^3
#
#
#
# Elastic Constant Matrix: (Units=GPa)
#
#
# Indices 1 2 3 4 5 6 
#
# 1 54.2194 20.2255 32.7515 0.0000 0.0000 0.0000
# 2 20.2255 74.2375 35.2700 0.0000 0.0000 0.0000
# 3 32.7515 35.2700 105.0635 0.0000 0.0000 0.0000
# 4 0.0000 0.0000 0.0000 16.4734 0.0000 0.0000
# 5 0.0000 0.0000 0.0000 0.0000 29.6474 0.0000
# 6 0.0000 0.0000 0.0000 0.0000 0.0000 8.6569
#
#
#
# Elastic Compliance Matrix: (Units=1/GPa)
#
#
# Indices 1 2 3 4 5 6 
#
# 1 0.023450 -0.003469 -0.006145 0.000000 0.000000 0.000000
# 2 -0.003469 0.016540 -0.004471 0.000000 0.000000 0.000000
# 3 -0.006145 -0.004471 0.012935 0.000000 0.000000 0.000000
# 4 0.000000 0.000000 0.000000 0.060704 0.000000 0.000000
# 5 0.000000 0.000000 0.000000 0.000000 0.033730 0.000000
# 6 0.000000 0.000000 0.000000 0.000000 0.000000 0.115515
#
#
# Mechanical properties :
#
#
# Convention : Reuss Voigt Hill
#
# Bulk Modulus (GPa) = 40.39892 45.55716 42.97804
# Shear Modulus (GPa) = 16.70595 20.64044 18.67319
#
# Velocity S-wave (km/s) = 3.17979 3.53445 3.36180
# Velocity P-wave (km/s) = 6.15892 6.65051 6.40943
#
# Compressibility (1/GPa) = 0.02475314
#
# Stress axis : x y z
#
# Youngs Moduli (GPa) = 42.64417 60.46120 77.31145
#
# Poissons Ratio (x) = 0.20974 0.47511
# Poissons Ratio (y) = 0.14794 0.34566
# Poissons Ratio (z) = 0.26207 0.27032
#
# Static dielectric constant tensor:
#      x y z
#    x 2.975670 0.000000 0.000000 
#    y 0.000000 3.269120 0.000000 
#    z 0.000000 0.000000 3.326380 
# 
# 
# High freq. dielectric constant tensor:
#      x y z
#    x 1.630280 0.000000 0.000000 
#    y 0.000000 1.621710 0.000000 
#    z 0.000000 0.000000 1.625650 
# 
# From -- ./inp_files/38413.got.cif
#   From: 2010.03.12/outbox.cif.g09.slc.cpg/sg53_20_cif.got.tgz:38413.got - 2010.04.16 14:36:59.
