data_PCOD8217481
_publ_section_title
;
Structure prediction by ZEFSAII (Michael W. Deem and Ramdas Pophale) SiO2 
 PCOD8217481
Probable space group: P M N A
;
_chemical_formula_sum "Si O2"
_cell_formula_units_Z 48
_cell_length_a 19.265897
_cell_length_b 13.130132
_cell_length_c 10.580251
_cell_angle_alpha 90.000000
_cell_angle_beta 90.000000
_cell_angle_gamma 90.000000
_cell_volume 2676.420188
_symmetry_space_group_name_H-M "P M N A"
_symmetry_group_IT_number 53
_symmetry_cell_setting 'orthorhombic'
loop_
_space_group_symop_operation_xyz
x,y,z
1/2-x,-y,1/2+z
x,-y,-z
1/2-x,y,1/2-z
-x,-y,-z
1/2+x,y,1/2-z
-x,y,z
1/2+x,-y,1/2+z
loop_
_atom_site_type_symbol
_atom_site_label
_atom_site_fract_x
_atom_site_fract_y
_atom_site_fract_z
Si Si1 0.500000 0.539124 0.857551
Si Si2 0.220320 0.391035 0.059618
Si Si3 0.078094 0.049861 0.863448
Si Si4 0.115291 0.251899 0.954096
Si Si5 0.079659 0.840363 0.778540
Si Si6 0.000000 0.411806 0.892425
Si Si7 0.356803 0.347318 0.184024
O O1 0.500000 0.453164 0.750467
O O2 0.431164 0.604648 0.839558
O O3 0.500000 0.500000 0.000000
O O4 0.302505 0.370676 0.072783
O O5 0.177050 0.391094 0.188889
O O6 0.207372 0.500000 0.000000
O O7 0.191564 0.299955 0.971594
O O8 0.121669 0.155523 0.857179
O O9 0.000000 0.079833 0.825448
O O10 0.105806 0.958538 0.772649
O O11 0.079424 0.000000 0.000000
O O12 0.067845 0.342857 0.903801
O O13 0.081925 0.208408 0.081955
O O14 0.130876 0.774705 0.690075
O O15 0.000000 0.834791 0.732342
O O16 0.000000 0.500000 0.000000
#
# Coordination Sequence:
#
# PCOD8217481 Si02
#       7
#     4   8   8   8   8   4   8
#     4  12  24  36  51  75 107 145 186 232 262 323
#     4  10  20  32  48  73 105 140 179 224 274 330
#     4   8  13  22  41  75 112 129 151 206 280 326
#     4  10  16  27  46  78 110 133 162 220 286 327
#     4   9  14  26  48  77 109 133 166 221 271 323
#     4  12  20  30  52  81 109 139 177 228 279 321
#     4  10  20  34  50  72 101 144 184 215 268 325
#
# _framework density 17.934405000000002
#
# number of rings (size 3 to 8) (size 9 to 14) (size 15 to 20)
#    0.000    2.167    2.500    5.000    0.000    0.000 
#    0.000    0.000    0.000    0.000    0.000   70.000 
#    0.000    0.000    0.000    0.000    0.000    0.000 
#
# Total GULP energy -594686.313613 kJ/mol
# GULP energy per Si atom -12389.298200 kJ/mol
# Density = 1.789359 g / cm^3
# Si number density = 17.934405 Si / 1000 Ang^3
#
#
#
# Elastic Constant Matrix: (Units=GPa)
#
#
# Indices 1 2 3 4 5 6 
#
# 1 119.5106 65.3650 23.5244 0.0000 0.0000 0.0000
# 2 65.3650 168.3905 38.9270 0.0000 0.0000 0.0000
# 3 23.5244 38.9270 44.0238 0.0000 0.0000 0.0000
# 4 0.0000 0.0000 0.0000 12.5237 0.0000 0.0000
# 5 0.0000 0.0000 0.0000 0.0000 14.6375 0.0000
# 6 0.0000 0.0000 0.0000 0.0000 0.0000 19.4542
#
#
#
# Elastic Compliance Matrix: (Units=1/GPa)
#
#
# Indices 1 2 3 4 5 6 
#
# 1 0.010856 -0.003611 -0.002608 0.000000 0.000000 0.000000
# 2 -0.003611 0.008666 -0.005733 0.000000 0.000000 0.000000
# 3 -0.002608 -0.005733 0.029177 0.000000 0.000000 0.000000
# 4 0.000000 0.000000 0.000000 0.079849 0.000000 0.000000
# 5 0.000000 0.000000 0.000000 0.000000 0.068318 0.000000
# 6 0.000000 0.000000 0.000000 0.000000 0.000000 0.051403
#
#
# Mechanical properties :
#
#
# Convention : Reuss Voigt Hill
#
# Bulk Modulus (GPa) = 40.32977 65.28419 52.80698
# Shear Modulus (GPa) = 17.82932 22.93030 20.37981
#
# Velocity S-wave (km/s) = 3.15642 3.57958 3.37464
# Velocity P-wave (km/s) = 5.98500 7.31883 6.68526
#
# Compressibility (1/GPa) = 0.02479558
#
# Stress axis : x y z
#
# Youngs Moduli (GPa) = 92.11624 115.39951 34.27304
#
# Poissons Ratio (x) = 0.41672 0.08938
# Poissons Ratio (y) = 0.33264 0.19648
# Poissons Ratio (z) = 0.24023 0.66155
#
# Static dielectric constant tensor:
#      x y z
#    x 3.347020 0.000000 0.000000 
#    y 0.000000 3.876600 0.000000 
#    z 0.000000 0.000000 3.033320 
# 
# 
# High freq. dielectric constant tensor:
#      x y z
#    x 1.683730 0.000000 0.000000 
#    y 0.000000 1.713680 0.000000 
#    z 0.000000 0.000000 1.637350 
# 
# From -- ./inp_files/17802.got.cif
#   From: 2010.03.12/outbox.cif.g09.slc.cpg/sg53_9_cif.got.tgz:17802.got - 2010.04.16 14:36:59.
