data_PCOD8217980
_publ_section_title
;
Structure prediction by ZEFSAII (Michael W. Deem and Ramdas Pophale) SiO2 
 PCOD8217980
Probable space group: P M N A
;
_chemical_formula_sum "Si O2"
_cell_formula_units_Z 40
_cell_length_a 18.263997
_cell_length_b 9.031891
_cell_length_c 14.647243
_cell_angle_alpha 90.000000
_cell_angle_beta 90.000000
_cell_angle_gamma 90.000000
_cell_volume 2416.186211
_symmetry_space_group_name_H-M "P M N A"
_symmetry_group_IT_number 53
_symmetry_cell_setting 'orthorhombic'
loop_
_space_group_symop_operation_xyz
x,y,z
1/2-x,-y,1/2+z
x,-y,-z
1/2-x,y,1/2-z
-x,-y,-z
1/2+x,y,1/2-z
-x,y,z
1/2+x,-y,1/2+z
loop_
_atom_site_type_symbol
_atom_site_label
_atom_site_fract_x
_atom_site_fract_y
_atom_site_fract_z
Si Si1 0.701093 0.844647 0.828190
Si Si2 0.918807 0.857272 0.440387
Si Si3 0.917982 0.980548 0.244666
Si Si4 0.695849 0.915434 0.409231
Si Si5 0.210094 0.671970 0.493263
O O1 0.750000 0.774080 0.750000
O O2 0.621298 0.871584 0.783257
O O3 0.734589 0.000982 0.864368
O O4 0.701342 0.721729 0.903534
O O5 0.922924 0.875498 0.331999
O O6 0.868052 0.713557 0.450174
O O7 0.000000 0.823877 0.479259
O O8 0.887706 0.000000 0.500000
O O9 0.871063 0.905945 0.162620
O O10 0.000000 0.017437 0.208688
O O11 0.723716 0.752011 0.438310
O O12 0.668156 0.000000 0.500000
O O13 0.226660 0.500000 0.500000
#
# Coordination Sequence:
#
# PCOD8217980 Si02
#       5
#     8   8   8   8   8
#     4   9  17  33  51  73  99 129 167 211 250 291
#     4  10  18  31  51  74 102 133 167 204 247 298
#     4  10  18  30  56  79  96 127 170 213 253 293
#     4   9  18  34  53  73 100 129 171 213 247 294
#     4  11  20  32  49  76 104 136 167 203 257 305
#
# _framework density 16.555015000000001
#
# number of rings (size 3 to 8) (size 9 to 14) (size 15 to 20)
#    0.000    2.200    4.000    0.600    0.000    0.800 
#    3.600    0.000    0.000    0.600    0.000    0.000 
#    0.000    0.000    0.000    0.000    0.000    0.000 
#
# Total GULP energy -495596.742872 kJ/mol
# GULP energy per Si atom -12389.918572 kJ/mol
# Density = 1.651734 g / cm^3
# Si number density = 16.555015 Si / 1000 Ang^3
#
#
#
# Elastic Constant Matrix: (Units=GPa)
#
#
# Indices 1 2 3 4 5 6 
#
# 1 122.5331 45.3962 55.2488 0.0000 0.0000 0.0000
# 2 45.3962 95.5470 32.8780 0.0000 0.0000 0.0000
# 3 55.2488 32.8780 98.7019 0.0000 0.0000 0.0000
# 4 0.0000 0.0000 0.0000 15.3321 0.0000 0.0000
# 5 0.0000 0.0000 0.0000 0.0000 28.6705 0.0000
# 6 0.0000 0.0000 0.0000 0.0000 0.0000 14.7330
#
#
#
# Elastic Compliance Matrix: (Units=1/GPa)
#
#
# Indices 1 2 3 4 5 6 
#
# 1 0.012049 -0.003845 -0.005464 0.000000 0.000000 0.000000
# 2 -0.003845 0.013048 -0.002194 0.000000 0.000000 0.000000
# 3 -0.005464 -0.002194 0.013921 0.000000 0.000000 0.000000
# 4 0.000000 0.000000 0.000000 0.065222 0.000000 0.000000
# 5 0.000000 0.000000 0.000000 0.000000 0.034879 0.000000
# 6 0.000000 0.000000 0.000000 0.000000 0.000000 0.067875
#
#
# Mechanical properties :
#
#
# Convention : Reuss Voigt Hill
#
# Bulk Modulus (GPa) = 62.45211 64.86976 63.66093
# Shear Modulus (GPa) = 21.24616 23.96439 22.60528
#
# Velocity S-wave (km/s) = 3.58630 3.80881 3.69923
# Velocity P-wave (km/s) = 7.41314 7.65586 7.53547
#
# Compressibility (1/GPa) = 0.01601227
#
# Stress axis : x y z
#
# Youngs Moduli (GPa) = 82.99455 76.64169 71.83482
#
# Poissons Ratio (x) = 0.29466 0.39249
# Poissons Ratio (y) = 0.31908 0.15762
# Poissons Ratio (z) = 0.45347 0.16817
#
# Static dielectric constant tensor:
#      x y z
#    x 3.525980 0.000000 0.000000 
#    y 0.000000 2.620150 0.000000 
#    z 0.000000 0.000000 3.060190 
# 
# 
# High freq. dielectric constant tensor:
#      x y z
#    x 1.640990 0.000000 0.000000 
#    y 0.000000 1.579840 0.000000 
#    z 0.000000 0.000000 1.656010 
# 
# From -- ./inp_files/23410.got.cif
#   From: 2010.03.12/outbox.cif.g09.slc.cpg/sg53_12_cif.got.tgz:23410.got - 2010.04.16 14:36:59.
