data_PCOD8217601
_publ_section_title
;
Structure prediction by ZEFSAII (Michael W. Deem and Ramdas Pophale) SiO2 
 PCOD8217601
Probable space group: P M N A
;
_chemical_formula_sum "Si O2"
_cell_formula_units_Z 48
_cell_length_a 10.398208
_cell_length_b 10.204475
_cell_length_c 26.737516
_cell_angle_alpha 90.000000
_cell_angle_beta 90.000000
_cell_angle_gamma 90.000000
_cell_volume 2837.071128
_symmetry_space_group_name_H-M "P M N A"
_symmetry_group_IT_number 53
_symmetry_cell_setting 'orthorhombic'
loop_
_space_group_symop_operation_xyz
x,y,z
1/2-x,-y,1/2+z
x,-y,-z
1/2-x,y,1/2-z
-x,-y,-z
1/2+x,y,1/2-z
-x,y,z
1/2+x,-y,1/2+z
loop_
_atom_site_type_symbol
_atom_site_label
_atom_site_fract_x
_atom_site_fract_y
_atom_site_fract_z
Si Si1 0.646535 0.622027 0.536125
Si Si2 0.742661 0.480769 0.364269
Si Si3 0.000000 0.794158 0.311891
Si Si4 0.000000 0.206125 0.800599
Si Si5 0.000000 0.483446 0.310520
Si Si6 0.740793 0.207598 0.633907
Si Si7 0.650668 0.133755 0.528185
Si Si8 0.000000 0.483177 0.199240
O O1 0.657136 0.500000 0.500000
O O2 0.500000 0.641548 0.554225
O O3 0.735447 0.596238 0.583765
O O4 0.698283 0.749909 0.507757
O O5 0.874341 0.434150 0.339209
O O6 0.735930 0.636199 0.373722
O O7 0.626719 0.433937 0.328984
O O8 0.000000 0.853355 0.255614
O O9 0.000000 0.638952 0.307546
O O10 0.873934 0.840838 0.341744
O O11 0.873173 0.158608 0.829805
O O12 0.000000 0.361417 0.797424
O O13 0.000000 0.423154 0.254894
O O14 0.727463 0.138562 0.580184
O O15 0.500000 0.150508 0.540315
O O16 0.682280 0.000000 0.500000
#
# Coordination Sequence:
#
# PCOD8217601 Si02
#       8
#     8   8   4   4   4   8   8   4
#     4  10  18  29  50  73  95 124 164 198 236 284
#     4  10  17  28  46  72  97 131 161 197 244 287
#     4   9  18  28  42  71 103 130 157 197 244 295
#     4   9  16  26  46  69  97 130 165 195 238 289
#     4   9  18  28  40  68 109 129 153 199 248 293
#     4  10  17  29  47  70 101 129 158 199 246 283
#     4  10  20  33  50  74  98 128 165 205 244 285
#     4   9  16  26  44  68  97 133 165 193 238 291
#
# _framework density 16.918856999999999
#
# number of rings (size 3 to 8) (size 9 to 14) (size 15 to 20)
#    0.000    2.333    3.333    1.000    0.000    4.000 
#    0.000    1.667    0.000    0.000    0.000    7.000 
#    0.000    0.000    0.000    0.000    0.000    0.000 
#
# Total GULP energy -595210.210912 kJ/mol
# GULP energy per Si atom -12400.212727 kJ/mol
# Density = 1.688035 g / cm^3
# Si number density = 16.918857 Si / 1000 Ang^3
#
#
#
# Elastic Constant Matrix: (Units=GPa)
#
#
# Indices 1 2 3 4 5 6 
#
# 1 134.5740 17.6610 77.5448 0.0000 0.0000 0.0000
# 2 17.6610 48.7759 30.5071 0.0000 0.0000 0.0000
# 3 77.5448 30.5071 158.2257 0.0000 0.0000 0.0000
# 4 0.0000 0.0000 0.0000 13.3331 0.0000 0.0000
# 5 0.0000 0.0000 0.0000 0.0000 19.4265 0.0000
# 6 0.0000 0.0000 0.0000 0.0000 0.0000 9.0645
#
#
#
# Elastic Compliance Matrix: (Units=1/GPa)
#
#
# Indices 1 2 3 4 5 6 
#
# 1 0.010374 -0.000655 -0.004958 0.000000 0.000000 0.000000
# 2 -0.000655 0.023355 -0.004182 0.000000 0.000000 0.000000
# 3 -0.004958 -0.004182 0.009556 0.000000 0.000000 0.000000
# 4 0.000000 0.000000 0.000000 0.075001 0.000000 0.000000
# 5 0.000000 0.000000 0.000000 0.000000 0.051476 0.000000
# 6 0.000000 0.000000 0.000000 0.000000 0.000000 0.110321
#
#
# Mechanical properties :
#
#
# Convention : Reuss Voigt Hill
#
# Bulk Modulus (GPa) = 42.20326 65.88905 54.04615
# Shear Modulus (GPa) = 16.25644 22.75566 19.50605
#
# Velocity S-wave (km/s) = 3.10312 3.67139 3.39915
# Velocity P-wave (km/s) = 6.15124 7.54989 6.88617
#
# Compressibility (1/GPa) = 0.02369485
#
# Stress axis : x y z
#
# Youngs Moduli (GPa) = 96.39890 42.81783 104.64567
#
# Poissons Ratio (x) = 0.02806 0.51879
# Poissons Ratio (y) = 0.06317 0.43761
# Poissons Ratio (z) = 0.47791 0.17906
#
# Static dielectric constant tensor:
#      x y z
#    x 3.175030 0.000000 0.000000 
#    y 0.000000 2.640390 0.000000 
#    z 0.000000 0.000000 3.277160 
# 
# 
# High freq. dielectric constant tensor:
#      x y z
#    x 1.645700 0.000000 0.000000 
#    y 0.000000 1.590290 0.000000 
#    z 0.000000 0.000000 1.671600 
# 
# From -- ./inp_files/34971.got.cif
#   From: 2010.03.12/outbox.cif.g09.slc.cpg/sg53_18_cif.got.tgz:34971.got - 2010.04.16 14:36:59.
