data_PCOD8217211
_publ_section_title
;
Structure prediction by ZEFSAII (Michael W. Deem and Ramdas Pophale) SiO2 
 PCOD8217211
Probable space group: P N N A
;
_chemical_formula_sum "Si O2"
_cell_formula_units_Z 60
_cell_length_a 25.762674
_cell_length_b 9.601687
_cell_length_c 11.778636
_cell_angle_alpha 90.000000
_cell_angle_beta 90.000000
_cell_angle_gamma 90.000000
_cell_volume 2913.623849
_symmetry_space_group_name_H-M "P N N A"
_symmetry_group_IT_number 52
_symmetry_cell_setting 'orthorhombic'
loop_
_space_group_symop_operation_xyz
x,y,z
1/2-x,-y,z
x,1/2-y,1/2-z
1/2-x,1/2+y,1/2-z
-x,-y,-z
1/2+x,y,-z
-x,1/2+y,1/2+z
1/2+x,1/2-y,1/2+z
loop_
_atom_site_type_symbol
_atom_site_label
_atom_site_fract_x
_atom_site_fract_y
_atom_site_fract_z
Si Si1 0.394073 0.750000 0.250000
Si Si2 0.105422 0.827429 0.006699
Si Si3 0.698392 0.810929 0.625853
Si Si4 0.044696 0.976979 0.204617
Si Si5 0.612127 0.349437 0.095925
Si Si6 0.553556 0.556785 0.958500
Si Si7 0.923235 0.552448 0.332652
Si Si8 0.186050 0.133324 0.422114
O O1 0.433681 0.868927 0.212733
O O2 0.356253 0.779019 0.354314
O O3 0.163608 0.777779 0.037725
O O4 0.071220 0.692912 0.971952
O O5 0.078315 0.896989 0.113620
O O6 0.106926 0.932086 0.900498
O O7 0.687546 0.750000 0.750000
O O8 0.758431 0.794308 0.594132
O O9 0.683713 0.973597 0.620446
O O10 0.051700 0.901453 0.326065
O O11 0.984239 0.979309 0.170219
O O12 0.602424 0.440945 0.208005
O O13 0.585180 0.199956 0.105988
O O14 0.591234 0.428117 0.983455
O O15 0.672834 0.345011 0.057998
O O16 0.500000 0.500000 0.000000
#
# Coordination Sequence:
#
# PCOD8217211 Si02
#       8
#     4   8   8   8   8   8   8   8
#     4  12  22  38  64 104 140 166 222 274 344 420
#     4  12  25  42  66 106 133 175 234 287 331 407
#     4  11  23  44  72 102 137 170 221 296 358 406
#     4  12  25  39  66 101 142 182 222 289 343 414
#     4  11  23  47  67  91 140 188 220 284 344 402
#     4  12  23  39  66  93 136 178 223 275 348 404
#     4  11  27  45  67  94 143 188 237 275 330 411
#     4  11  23  43  69 102 131 183 219 278 363 413
#
# _framework density 20.592911999999998
#
# number of rings (size 3 to 8) (size 9 to 14) (size 15 to 20)
#    0.000    0.533    4.667    4.000    3.733    0.533 
#    0.000    0.000   11.733    0.000    0.000    0.000 
#    0.000    0.000    0.000    0.000    0.000    0.000 
#
# Total GULP energy -743808.347416 kJ/mol
# GULP energy per Si atom -12396.805790 kJ/mol
# Density = 2.054604 g / cm^3
# Si number density = 20.592912 Si / 1000 Ang^3
#
#
#
# Elastic Constant Matrix: (Units=GPa)
#
#
# Indices 1 2 3 4 5 6 
#
# 1 123.3911 68.1729 67.3561 0.0000 0.0000 0.0000
# 2 68.1729 121.4442 44.6640 0.0000 0.0000 0.0000
# 3 67.3561 44.6640 94.6333 0.0000 0.0000 0.0000
# 4 0.0000 0.0000 0.0000 41.9622 0.0000 0.0000
# 5 0.0000 0.0000 0.0000 0.0000 31.8919 0.0000
# 6 0.0000 0.0000 0.0000 0.0000 0.0000 36.2133
#
#
#
# Elastic Compliance Matrix: (Units=1/GPa)
#
#
# Indices 1 2 3 4 5 6 
#
# 1 0.016062 -0.005822 -0.008684 0.000000 0.000000 0.000000
# 2 -0.005822 0.012074 -0.001555 0.000000 0.000000 0.000000
# 3 -0.008684 -0.001555 0.017482 0.000000 0.000000 0.000000
# 4 0.000000 0.000000 0.000000 0.023831 0.000000 0.000000
# 5 0.000000 0.000000 0.000000 0.000000 0.031356 0.000000
# 6 0.000000 0.000000 0.000000 0.000000 0.000000 0.027614
#
#
# Mechanical properties :
#
#
# Convention : Reuss Voigt Hill
#
# Bulk Modulus (GPa) = 74.09751 77.76164 75.92958
# Shear Modulus (GPa) = 30.29585 32.63185 31.46385
#
# Velocity S-wave (km/s) = 3.83976 3.98504 3.91307
# Velocity P-wave (km/s) = 7.46448 7.68228 7.57416
#
# Compressibility (1/GPa) = 0.01349573
#
# Stress axis : x y z
#
# Youngs Moduli (GPa) = 62.26059 82.81978 57.20272
#
# Poissons Ratio (x) = 0.48221 0.49674
# Poissons Ratio (y) = 0.36251 0.08893
# Poissons Ratio (z) = 0.54067 0.12875
#
# Static dielectric constant tensor:
#      x y z
#    x 3.907590 0.000000 0.000000 
#    y 0.000000 3.977480 0.000000 
#    z 0.000000 0.000000 4.550670 
# 
# 
# High freq. dielectric constant tensor:
#      x y z
#    x 1.808980 0.000000 0.000000 
#    y 0.000000 1.819040 0.000000 
#    z 0.000000 0.000000 1.803630 
# 
# From -- ./inp_files/22908.got.cif
#   From: 2010.06.25/outbox.cif.g09.slc.cpg/sg52_12_cif.got.tgz:22908.got - 2010.06.26 19:32:48.
