data_PCOD8217585
_publ_section_title
;
Structure prediction by ZEFSAII (Michael W. Deem and Ramdas Pophale) SiO2 
 PCOD8217585
Probable space group: P M N A
;
_chemical_formula_sum "Si O2"
_cell_formula_units_Z 48
_cell_length_a 8.683429
_cell_length_b 31.358781
_cell_length_c 9.181589
_cell_angle_alpha 90.000000
_cell_angle_beta 90.000000
_cell_angle_gamma 90.000000
_cell_volume 2500.162737
_symmetry_space_group_name_H-M "P M N A"
_symmetry_group_IT_number 53
_symmetry_cell_setting 'orthorhombic'
loop_
_space_group_symop_operation_xyz
x,y,z
1/2-x,-y,1/2+z
x,-y,-z
1/2-x,y,1/2-z
-x,-y,-z
1/2+x,y,1/2-z
-x,y,z
1/2+x,-y,1/2+z
loop_
_atom_site_type_symbol
_atom_site_label
_atom_site_fract_x
_atom_site_fract_y
_atom_site_fract_z
Si Si1 0.679962 0.712817 0.090882
Si Si2 0.181998 0.117189 0.589844
Si Si3 0.317725 0.459464 0.091537
Si Si4 0.821895 0.042244 0.093518
Si Si5 0.317737 0.203750 0.588331
Si Si6 0.679951 0.380585 0.908531
O O1 0.750000 0.709635 0.250000
O O2 0.500000 0.722873 0.100014
O O3 0.762268 0.752586 0.006417
O O4 0.713316 0.666325 0.019964
O O5 0.250000 0.108789 0.750000
O O6 0.227637 0.079604 0.482646
O O7 0.247706 0.160893 0.517682
O O8 0.000000 0.120274 0.604235
O O9 0.250000 0.463412 0.250000
O O10 0.500000 0.458204 0.102545
O O11 0.260300 0.500000 0.000000
O O12 0.252654 0.416440 0.016135
O O13 0.750000 0.033048 0.250000
O O14 0.000000 0.055472 0.107895
O O15 0.801822 0.000000 0.000000
O O16 0.250000 0.206184 0.750000
O O17 0.500000 0.200654 0.588642
O O18 0.750000 0.386298 0.750000
O O19 0.500000 0.387201 0.887295
#
# Coordination Sequence:
#
# PCOD8217585 Si02
#       6
#     8   8   8   8   8   8
#     4   9  15  25  42  67  99 132 168 210 258 305
#     4  11  21  35  56  82 113 147 184 226 272 319
#     4  10  21  36  53  75 102 132 169 211 256 308
#     4  11  24  41  61  85 113 145 182 223 269 321
#     4  10  17  27  45  72 105 138 176 218 262 311
#     4   9  18  31  49  74 103 134 170 213 257 307
#
# _framework density 19.198751000000001
#
# number of rings (size 3 to 8) (size 9 to 14) (size 15 to 20)
#    0.000    2.000    0.000    7.000    0.000    4.333 
#    0.000    0.000    0.000    1.000    0.000    4.667 
#    0.000    0.000    0.000    0.000    0.000    0.000 
#
# Total GULP energy -594948.138695 kJ/mol
# GULP energy per Si atom -12394.752889 kJ/mol
# Density = 1.915505 g / cm^3
# Si number density = 19.198751 Si / 1000 Ang^3
#
#
#
# Elastic Constant Matrix: (Units=GPa)
#
#
# Indices 1 2 3 4 5 6 
#
# 1 127.0801 65.1409 34.9042 0.0000 0.0000 0.0000
# 2 65.1409 166.6998 51.3360 0.0000 0.0000 0.0000
# 3 34.9042 51.3360 83.4722 0.0000 0.0000 0.0000
# 4 0.0000 0.0000 0.0000 15.3410 0.0000 0.0000
# 5 0.0000 0.0000 0.0000 0.0000 22.8289 0.0000
# 6 0.0000 0.0000 0.0000 0.0000 0.0000 -24.4793
#
#
#
# Elastic Compliance Matrix: (Units=1/GPa)
#
#
# Indices 1 2 3 4 5 6 
#
# 1 0.010166 -0.003286 -0.002230 0.000000 0.000000 0.000000
# 2 -0.003286 0.008462 -0.003830 0.000000 0.000000 0.000000
# 3 -0.002230 -0.003830 0.015268 0.000000 0.000000 0.000000
# 4 0.000000 0.000000 0.000000 0.065185 0.000000 0.000000
# 5 0.000000 0.000000 0.000000 0.000000 0.043804 0.000000
# 6 0.000000 0.000000 0.000000 0.000000 0.000000 -0.040851
#
#
# Mechanical properties :
#
#
# Convention : Reuss Voigt Hill
#
# Bulk Modulus (GPa) = 65.77265 75.55713 70.66489
# Shear Modulus (GPa) = 39.74719 17.79621 28.77170
#
# Velocity S-wave (km/s) = 4.55499 3.04788 3.87541
# Velocity P-wave (km/s) = 7.87383 7.19908 7.54400
#
# Compressibility (1/GPa) = 0.01520389
#
# Stress axis : x y z
#
# Youngs Moduli (GPa) = 98.36876 118.17027 65.49492
#
# Poissons Ratio (x) = 0.38827 0.14606
# Poissons Ratio (y) = 0.32321 0.25088
# Poissons Ratio (z) = 0.21938 0.45265
#
# Static dielectric constant tensor:
#      x y z
#    x 3.586990 0.000000 0.000000 
#    y 0.000000 4.806990 0.000000 
#    z 0.000000 0.000000 3.087110 
# 
# 
# High freq. dielectric constant tensor:
#      x y z
#    x 1.756730 0.000000 0.000000 
#    y 0.000000 1.781510 0.000000 
#    z 0.000000 0.000000 1.693350 
# 
# From -- ./inp_files/6718.got.cif
#   From: 2010.03.12/outbox.cif.g09.slc.cpg/sg53_4_cif.got.tgz:6718.got - 2010.04.16 14:36:59.
