data_PCOD8217375
_publ_section_title
;
Structure prediction by ZEFSAII (Michael W. Deem and Ramdas Pophale) SiO2 
 PCOD8217375
Probable space group: P N N A
;
_chemical_formula_sum "Si O2"
_cell_formula_units_Z 40
_cell_length_a 18.430389
_cell_length_b 15.713170
_cell_length_c 6.131286
_cell_angle_alpha 90.000000
_cell_angle_beta 90.000000
_cell_angle_gamma 90.000000
_cell_volume 1775.619417
_symmetry_space_group_name_H-M "P N N A"
_symmetry_group_IT_number 52
_symmetry_cell_setting 'orthorhombic'
loop_
_space_group_symop_operation_xyz
x,y,z
1/2-x,-y,z
x,1/2-y,1/2-z
1/2-x,1/2+y,1/2-z
-x,-y,-z
1/2+x,y,-z
-x,1/2+y,1/2+z
1/2+x,1/2-y,1/2+z
loop_
_atom_site_type_symbol
_atom_site_label
_atom_site_fract_x
_atom_site_fract_y
_atom_site_fract_z
Si Si1 0.555984 0.440912 0.626252
Si Si2 0.078113 0.845102 0.813718
Si Si3 0.306409 0.157582 0.148194
Si Si4 0.200345 0.426766 0.629068
Si Si5 0.848849 0.025382 0.520056
O O1 0.500000 0.500000 0.500000
O O2 0.508987 0.356972 0.684440
O O3 0.620604 0.416493 0.465911
O O4 0.586753 0.481557 0.846048
O O5 0.098049 0.750000 0.750000
O O6 0.114937 0.912954 0.655451
O O7 0.112867 0.859502 0.053024
O O8 0.299387 0.250000 0.250000
O O9 0.295593 0.083429 0.330451
O O10 0.246924 0.155448 0.948653
O O11 0.250000 0.500000 0.515773
O O12 0.194563 0.449774 0.887948
#
# Coordination Sequence:
#
# PCOD8217375 Si02
#       5
#     8   8   8   8   8
#     4  12  24  43  71 108 141 187 249 300 365 446
#     4  12  25  43  72 107 141 191 245 299 382 442
#     4  12  26  46  75 107 148 196 249 312 378 443
#     4  12  25  42  72 105 141 191 252 297 369 442
#     4  12  23  43  77 101 143 193 242 310 359 452
#
# _framework density 22.527349000000001
#
# number of rings (size 3 to 8) (size 9 to 14) (size 15 to 20)
#    0.000    0.000   10.000    0.600    2.800    0.800 
#    0.000    0.000    4.400    0.000    0.000    0.000 
#    0.000    0.000    0.000    0.000    0.000    0.000 
#
# Total GULP energy -495591.846107 kJ/mol
# GULP energy per Si atom -12389.796153 kJ/mol
# Density = 2.247608 g / cm^3
# Si number density = 22.527349 Si / 1000 Ang^3
#
#
#
# Elastic Constant Matrix: (Units=GPa)
#
#
# Indices 1 2 3 4 5 6 
#
# 1 130.9649 40.7322 56.0617 0.0000 0.0000 0.0000
# 2 40.7322 86.2112 74.5958 0.0000 0.0000 0.0000
# 3 56.0617 74.5958 147.4895 0.0000 0.0000 0.0000
# 4 0.0000 0.0000 0.0000 43.4913 0.0000 0.0000
# 5 0.0000 0.0000 0.0000 0.0000 56.4198 0.0000
# 6 0.0000 0.0000 0.0000 0.0000 0.0000 26.0050
#
#
#
# Elastic Compliance Matrix: (Units=1/GPa)
#
#
# Indices 1 2 3 4 5 6 
#
# 1 0.009390 -0.002397 -0.002357 0.000000 0.000000 0.000000
# 2 -0.002397 0.021238 -0.009830 0.000000 0.000000 0.000000
# 3 -0.002357 -0.009830 0.012648 0.000000 0.000000 0.000000
# 4 0.000000 0.000000 0.000000 0.022993 0.000000 0.000000
# 5 0.000000 0.000000 0.000000 0.000000 0.017724 0.000000
# 6 0.000000 0.000000 0.000000 0.000000 0.000000 0.038454
#
#
# Mechanical properties :
#
#
# Convention : Reuss Voigt Hill
#
# Bulk Modulus (GPa) = 70.88605 78.60501 74.74553
# Shear Modulus (GPa) = 31.98601 38.06829 35.02715
#
# Velocity S-wave (km/s) = 3.77221 4.11526 3.94746
# Velocity P-wave (km/s) = 7.10688 7.58613 7.35041
#
# Compressibility (1/GPa) = 0.01410715
#
# Stress axis : x y z
#
# Youngs Moduli (GPa) = 106.49532 47.08562 79.06509
#
# Poissons Ratio (x) = 0.11288 0.18634
# Poissons Ratio (y) = 0.25530 0.77723
# Poissons Ratio (z) = 0.25098 0.46286
#
# Static dielectric constant tensor:
#      x y z
#    x 4.680530 0.000000 0.000000 
#    y 0.000000 4.072670 0.000000 
#    z 0.000000 0.000000 4.382300 
# 
# 
# High freq. dielectric constant tensor:
#      x y z
#    x 1.900150 0.000000 0.000000 
#    y 0.000000 1.864940 0.000000 
#    z 0.000000 0.000000 1.903130 
# 
# From -- ./inp_files/3202.got.cif
#   From: 2010.06.25/outbox.cif.g09.slc.cpg/sg52_2_cif.got.tgz:3202.got - 2010.06.26 19:32:48.
