data_PCOD8217830
_publ_section_title
;
Structure prediction by ZEFSAII (Michael W. Deem and Ramdas Pophale) SiO2 
 PCOD8217830
Probable space group: P M N A
;
_chemical_formula_sum "Si O2"
_cell_formula_units_Z 64
_cell_length_a 8.900904
_cell_length_b 17.202564
_cell_length_c 25.740349
_cell_angle_alpha 90.000000
_cell_angle_beta 90.000000
_cell_angle_gamma 90.000000
_cell_volume 3941.320301
_symmetry_space_group_name_H-M "P M N A"
_symmetry_group_IT_number 53
_symmetry_cell_setting 'orthorhombic'
loop_
_space_group_symop_operation_xyz
x,y,z
1/2-x,-y,1/2+z
x,-y,-z
1/2-x,y,1/2-z
-x,-y,-z
1/2+x,y,1/2-z
-x,y,z
1/2+x,-y,1/2+z
loop_
_atom_site_type_symbol
_atom_site_label
_atom_site_fract_x
_atom_site_fract_y
_atom_site_fract_z
Si Si1 0.826530 0.409202 0.497297
Si Si2 0.823035 0.415895 0.196966
Si Si3 0.677783 0.834737 0.558575
Si Si4 0.821939 0.999290 0.057927
Si Si5 0.322716 0.830767 0.438094
Si Si6 0.321626 0.325713 0.402591
Si Si7 0.677219 0.405996 0.696377
Si Si8 0.823269 0.319876 0.601092
O O1 0.794113 0.500000 0.500000
O O2 0.727030 0.376261 0.451335
O O3 0.775271 0.369856 0.551009
O O4 0.000000 0.391118 0.485634
O O5 0.750000 0.385299 0.250000
O O6 0.757967 0.363156 0.150286
O O7 0.776366 0.504744 0.185691
O O8 0.000000 0.407423 0.202433
O O9 0.500000 0.832022 0.561497
O O10 0.734629 0.918226 0.582891
O O11 0.725359 0.825417 0.498446
O O12 0.743084 0.762358 0.591611
O O13 0.000000 0.001176 0.054939
O O14 0.776102 0.917082 0.084423
O O15 0.756104 0.000000 0.000000
O O16 0.500000 0.815133 0.431216
O O17 0.228465 0.768919 0.405544
O O18 0.500000 0.326396 0.401297
O O19 0.750000 0.376907 0.750000
O O20 0.500000 0.395784 0.700259
O O21 0.739314 0.353775 0.650457
O O22 0.000000 0.323404 0.610837
#
# Coordination Sequence:
#
# PCOD8217830 Si02
#       8
#     8   8   8   8   8   8   8   8
#     4  10  21  33  43  60  91 128 157 181 220 275
#     4   9  19  33  49  69  90 116 152 194 233 272
#     4   8  13  23  41  66  93 118 148 191 230 264
#     4   7  11  20  38  63  88 116 151 186 222 266
#     4   9  15  26  44  65  90 122 155 187 225 270
#     4  10  18  29  47  70  92 116 152 193 230 267
#     4  10  20  35  52  68  88 116 154 195 234 271
#     4  11  21  31  45  67  95 123 153 188 228 274
#
# _framework density 16.238213999999999
#
# number of rings (size 3 to 8) (size 9 to 14) (size 15 to 20)
#    0.000    2.750    1.250    3.000    0.000    1.750 
#    0.000    0.000    0.000    4.125    0.000    0.875 
#    0.000    2.000    0.000    0.000    0.000    0.000 
#
# Total GULP energy -793042.609181 kJ/mol
# GULP energy per Si atom -12391.290768 kJ/mol
# Density = 1.620126 g / cm^3
# Si number density = 16.238214 Si / 1000 Ang^3
#
#
#
# Elastic Constant Matrix: (Units=GPa)
#
#
# Indices 1 2 3 4 5 6 
#
# 1 28.3548 24.2174 25.9811 0.0000 0.0000 0.0000
# 2 24.2174 133.7060 63.9119 0.0000 0.0000 0.0000
# 3 25.9811 63.9119 100.5235 0.0000 0.0000 0.0000
# 4 0.0000 0.0000 0.0000 15.2006 0.0000 0.0000
# 5 0.0000 0.0000 0.0000 0.0000 21.0467 0.0000
# 6 0.0000 0.0000 0.0000 0.0000 0.0000 11.9077
#
#
#
# Elastic Compliance Matrix: (Units=1/GPa)
#
#
# Indices 1 2 3 4 5 6 
#
# 1 0.047612 -0.003939 -0.009802 0.000000 0.000000 0.000000
# 2 -0.003939 0.011070 -0.006020 0.000000 0.000000 0.000000
# 3 -0.009802 -0.006020 0.016309 0.000000 0.000000 0.000000
# 4 0.000000 0.000000 0.000000 0.065787 0.000000 0.000000
# 5 0.000000 0.000000 0.000000 0.000000 0.047513 0.000000
# 6 0.000000 0.000000 0.000000 0.000000 0.000000 0.083979
#
#
# Mechanical properties :
#
#
# Convention : Reuss Voigt Hill
#
# Bulk Modulus (GPa) = 28.19261 54.53390 41.36326
# Shear Modulus (GPa) = 15.45041 19.52926 17.48983
#
# Velocity S-wave (km/s) = 3.08796 3.47172 3.28545
# Velocity P-wave (km/s) = 5.48758 7.05174 6.31825
#
# Compressibility (1/GPa) = 0.03547029
#
# Stress axis : x y z
#
# Youngs Moduli (GPa) = 21.00296 90.33238 61.31599
#
# Poissons Ratio (x) = 0.35577 0.60100
# Poissons Ratio (y) = 0.08272 0.36915
# Poissons Ratio (z) = 0.20586 0.54384
#
# Static dielectric constant tensor:
#      x y z
#    x 2.822380 0.000000 0.000000 
#    y 0.000000 3.644420 0.000000 
#    z 0.000000 0.000000 2.927970 
# 
# 
# High freq. dielectric constant tensor:
#      x y z
#    x 1.602800 0.000000 0.000000 
#    y 0.000000 1.639220 0.000000 
#    z 0.000000 0.000000 1.589680 
# 
# From -- ./inp_files/34452.got.cif
#   From: 2010.03.12/outbox.cif.g09.slc.cpg/sg53_18_cif.got.tgz:34452.got - 2010.04.16 14:36:59.
