data_PCOD8217428
_publ_section_title
;
Structure prediction by ZEFSAII (Michael W. Deem and Ramdas Pophale) SiO2 
 PCOD8217428
Probable space group: P N N A
;
_chemical_formula_sum "Si O2"
_cell_formula_units_Z 40
_cell_length_a 23.609954
_cell_length_b 6.642408
_cell_length_c 11.668275
_cell_angle_alpha 90.000000
_cell_angle_beta 90.000000
_cell_angle_gamma 90.000000
_cell_volume 1829.899949
_symmetry_space_group_name_H-M "P N N A"
_symmetry_group_IT_number 52
_symmetry_cell_setting 'orthorhombic'
loop_
_space_group_symop_operation_xyz
x,y,z
1/2-x,-y,z
x,1/2-y,1/2-z
1/2-x,1/2+y,1/2-z
-x,-y,-z
1/2+x,y,-z
-x,1/2+y,1/2+z
1/2+x,1/2-y,1/2+z
loop_
_atom_site_type_symbol
_atom_site_label
_atom_site_fract_x
_atom_site_fract_y
_atom_site_fract_z
Si Si1 0.026472 0.250000 0.250000
Si Si2 0.859750 0.812233 0.378451
Si Si3 0.291045 0.322532 0.374050
Si Si4 0.250000 0.000000 0.542623
Si Si5 0.952739 0.118039 0.435101
Si Si6 0.904678 0.001885 0.939873
O O1 0.062487 0.368110 0.346103
O O2 0.981529 0.107988 0.311282
O O3 0.876521 0.750000 0.250000
O O4 0.793149 0.869485 0.380122
O O5 0.874136 0.630499 0.463391
O O6 0.893097 0.007347 0.423538
O O7 0.250000 0.500000 0.415768
O O8 0.270379 0.250000 0.250000
O O9 0.287803 0.142835 0.463811
O O10 0.356189 0.388943 0.366834
O O11 0.944853 0.336429 0.495808
O O12 0.000000 0.000000 0.500000
#
# Coordination Sequence:
#
# PCOD8217428 Si02
#       6
#     4   8   8   4   8   8
#     4  12  28  46  76 106 152 186 244 304 366 434
#     4  12  28  50  77 103 150 196 249 304 371 439
#     4  12  26  43  75 106 151 187 236 302 369 438
#     4  12  26  50  70 112 140 198 246 298 374 442
#     4  12  27  48  73 106 149 195 243 300 368 444
#     4  12  28  48  72 114 144 193 248 302 369 450
#
# _framework density 21.859117000000001
#
# number of rings (size 3 to 8) (size 9 to 14) (size 15 to 20)
#    0.000    0.000    7.000    1.800    9.800    1.600 
#    1.800    0.000    0.000    0.000    0.000    0.000 
#    0.000    0.000    0.000    0.000    0.000    0.000 
#
# Total GULP energy -495843.698247 kJ/mol
# GULP energy per Si atom -12396.092456 kJ/mol
# Density = 2.180937 g / cm^3
# Si number density = 21.859117 Si / 1000 Ang^3
#
#
#
# Elastic Constant Matrix: (Units=GPa)
#
#
# Indices 1 2 3 4 5 6 
#
# 1 122.1366 45.0222 36.9117 0.0000 0.0000 0.0000
# 2 45.0222 112.6777 45.2177 0.0000 0.0000 0.0000
# 3 36.9117 45.2177 115.8913 0.0000 0.0000 0.0000
# 4 0.0000 0.0000 0.0000 43.1450 0.0000 0.0000
# 5 0.0000 0.0000 0.0000 0.0000 179.5494 0.0000
# 6 0.0000 0.0000 0.0000 0.0000 0.0000 19.0804
#
#
#
# Elastic Compliance Matrix: (Units=1/GPa)
#
#
# Indices 1 2 3 4 5 6 
#
# 1 0.009949 -0.003206 -0.001918 0.000000 0.000000 0.000000
# 2 -0.003206 0.011555 -0.003488 0.000000 0.000000 0.000000
# 3 -0.001918 -0.003488 0.010600 0.000000 0.000000 0.000000
# 4 0.000000 0.000000 0.000000 0.023178 0.000000 0.000000
# 5 0.000000 0.000000 0.000000 0.000000 0.005569 0.000000
# 6 0.000000 0.000000 0.000000 0.000000 0.000000 0.052410
#
#
# Mechanical properties :
#
#
# Convention : Reuss Voigt Hill
#
# Bulk Modulus (GPa) = 67.19406 67.22323 67.20864
# Shear Modulus (GPa) = 36.91549 63.25857 50.08703
#
# Velocity S-wave (km/s) = 4.11395 5.38535 4.79200
# Velocity P-wave (km/s) = 7.30564 8.33601 7.83778
#
# Compressibility (1/GPa) = 0.01488227
#
# Stress axis : x y z
#
# Youngs Moduli (GPa) = 100.51431 86.54070 94.33576
#
# Poissons Ratio (x) = 0.27741 0.18094
# Poissons Ratio (y) = 0.32220 0.32900
# Poissons Ratio (z) = 0.19279 0.30182
#
# Static dielectric constant tensor:
#      x y z
#    x 3.984320 0.000000 0.000000 
#    y 0.000000 4.044530 0.000000 
#    z 0.000000 0.000000 3.682730 
# 
# 
# High freq. dielectric constant tensor:
#      x y z
#    x 1.876440 0.000000 0.000000 
#    y 0.000000 1.867940 0.000000 
#    z 0.000000 0.000000 1.866860 
# 
# From -- ./inp_files/22694.got.cif
#   From: 2010.06.25/outbox.cif.g09.slc.cpg/sg52_12_cif.got.tgz:22694.got - 2010.06.26 19:32:48.
