data_PCOD8217756
_publ_section_title
;
Structure prediction by ZEFSAII (Michael W. Deem and Ramdas Pophale) SiO2 
 PCOD8217756
Probable space group: P M N A
;
_chemical_formula_sum "Si O2"
_cell_formula_units_Z 60
_cell_length_a 14.110049
_cell_length_b 11.235751
_cell_length_c 22.884344
_cell_angle_alpha 90.000000
_cell_angle_beta 90.000000
_cell_angle_gamma 90.000000
_cell_volume 3628.015180
_symmetry_space_group_name_H-M "P M N A"
_symmetry_group_IT_number 53
_symmetry_cell_setting 'orthorhombic'
loop_
_space_group_symop_operation_xyz
x,y,z
1/2-x,-y,1/2+z
x,-y,-z
1/2-x,y,1/2-z
-x,-y,-z
1/2+x,y,1/2-z
-x,y,z
1/2+x,-y,1/2+z
loop_
_atom_site_type_symbol
_atom_site_label
_atom_site_fract_x
_atom_site_fract_y
_atom_site_fract_z
Si Si1 0.227857 0.382333 0.847360
Si Si2 0.106273 0.074956 0.708235
Si Si3 0.258842 0.124547 0.889856
Si Si4 0.108176 0.011711 0.171089
Si Si5 0.892235 0.352504 0.734562
Si Si6 0.891748 0.813386 0.924264
Si Si7 0.110683 0.543019 0.934048
Si Si8 0.221751 0.000000 0.000000
O O1 0.259439 0.266448 0.884463
O O2 0.323661 0.421728 0.811899
O O3 0.144631 0.364070 0.800498
O O4 0.186225 0.476207 0.893039
O O5 0.170185 0.051836 0.652064
O O6 0.112089 0.213425 0.722470
O O7 0.000000 0.034552 0.692893
O O8 0.148231 0.998512 0.762777
O O9 0.153483 0.084177 0.872586
O O10 0.284922 0.076680 0.954527
O O11 0.121234 0.143377 0.143376
O O12 0.000000 0.971349 0.174577
O O13 0.000000 0.401888 0.729160
O O14 0.855439 0.679209 0.929633
O O15 0.000000 0.818532 0.943744
O O16 0.839353 0.900608 0.967921
O O17 0.000000 0.526142 0.914418
O O18 0.123539 0.500000 0.000000
#
# Coordination Sequence:
#
# PCOD8217756 Si02
#       8
#     8   8   8   8   8   8   8   4
#     4  10  18  29  50  73  97 129 159 198 247 291
#     4   9  16  28  46  69  94 118 152 200 246 280
#     4  10  18  28  44  70  95 122 159 194 235 287
#     4   9  16  26  45  68  92 119 147 191 243 284
#     4   9  17  29  48  76 101 120 155 203 247 291
#     4   9  18  31  45  68  97 126 160 193 232 290
#     4  10  20  32  47  69 100 134 164 197 240 290
#     4  10  19  30  47  66  96 130 160 198 236 280
#
# _framework density 16.537969
#
# number of rings (size 3 to 8) (size 9 to 14) (size 15 to 20)
#    0.000    2.533    1.333    1.800    0.000    1.067 
#    0.000    0.333   11.733    0.400    0.000    0.933 
#    0.000    0.000    0.000    0.000    0.000    0.000 
#
# Total GULP energy -743383.954890 kJ/mol
# GULP energy per Si atom -12389.732581 kJ/mol
# Density = 1.650033 g / cm^3
# Si number density = 16.537969 Si / 1000 Ang^3
#
#
#
# Elastic Constant Matrix: (Units=GPa)
#
#
# Indices 1 2 3 4 5 6 
#
# 1 63.9512 17.4468 39.8245 0.0000 0.0000 0.0000
# 2 17.4468 66.8324 39.6879 0.0000 0.0000 0.0000
# 3 39.8245 39.6879 114.9345 0.0000 0.0000 0.0000
# 4 0.0000 0.0000 0.0000 29.1559 0.0000 0.0000
# 5 0.0000 0.0000 0.0000 0.0000 23.9741 0.0000
# 6 0.0000 0.0000 0.0000 0.0000 0.0000 15.7432
#
#
#
# Elastic Compliance Matrix: (Units=1/GPa)
#
#
# Indices 1 2 3 4 5 6 
#
# 1 0.020042 -0.001394 -0.006463 0.000000 0.000000 0.000000
# 2 -0.001394 0.018919 -0.006050 0.000000 0.000000 0.000000
# 3 -0.006463 -0.006050 0.013029 0.000000 0.000000 0.000000
# 4 0.000000 0.000000 0.000000 0.034298 0.000000 0.000000
# 5 0.000000 0.000000 0.000000 0.000000 0.041712 0.000000
# 6 0.000000 0.000000 0.000000 0.000000 0.000000 0.063520
#
#
# Mechanical properties :
#
#
# Convention : Reuss Voigt Hill
#
# Bulk Modulus (GPa) = 41.36266 48.84851 45.10558
# Shear Modulus (GPa) = 21.98830 23.69188 22.84009
#
# Velocity S-wave (km/s) = 3.65028 3.78904 3.72031
# Velocity P-wave (km/s) = 6.54454 6.98167 6.76664
#
# Compressibility (1/GPa) = 0.02417640
#
# Stress axis : x y z
#
# Youngs Moduli (GPa) = 49.89510 52.85554 76.75047
#
# Poissons Ratio (x) = 0.07368 0.49605
# Poissons Ratio (y) = 0.06955 0.46435
# Poissons Ratio (z) = 0.32248 0.31978
#
# Static dielectric constant tensor:
#      x y z
#    x 3.222440 0.000000 0.000000 
#    y 0.000000 2.967410 0.000000 
#    z 0.000000 0.000000 3.327310 
# 
# 
# High freq. dielectric constant tensor:
#      x y z
#    x 1.624360 0.000000 0.000000 
#    y 0.000000 1.608650 0.000000 
#    z 0.000000 0.000000 1.641160 
# 
# From -- ./inp_files/32612.got.cif
#   From: 2010.03.12/outbox.cif.g09.slc.cpg/sg53_17_cif.got.tgz:32612.got - 2010.04.16 14:36:59.
