data_PCOD8217006
_publ_section_title
;
Structure prediction by ZEFSAII (Michael W. Deem and Ramdas Pophale) SiO2 
 PCOD8217006
Probable space group: P N N A
;
_chemical_formula_sum "Si O2"
_cell_formula_units_Z 40
_cell_length_a 12.833451
_cell_length_b 9.095664
_cell_length_c 14.648694
_cell_angle_alpha 90.000000
_cell_angle_beta 90.000000
_cell_angle_gamma 90.000000
_cell_volume 1709.923861
_symmetry_space_group_name_H-M "P N N A"
_symmetry_group_IT_number 52
_symmetry_cell_setting 'orthorhombic'
loop_
_space_group_symop_operation_xyz
x,y,z
1/2-x,-y,z
x,1/2-y,1/2-z
1/2-x,1/2+y,1/2-z
-x,-y,-z
1/2+x,y,-z
-x,1/2+y,1/2+z
1/2+x,1/2-y,1/2+z
loop_
_atom_site_type_symbol
_atom_site_label
_atom_site_fract_x
_atom_site_fract_y
_atom_site_fract_z
Si Si1 0.691770 0.350168 0.557229
Si Si2 0.488081 0.092690 0.847665
Si Si3 0.365089 0.497479 0.815232
Si Si4 0.377721 0.298450 0.982378
Si Si5 0.052984 0.225508 0.895618
O O1 0.750000 0.500000 0.578701
O O2 0.600629 0.328003 0.634519
O O3 0.779559 0.223123 0.551177
O O4 0.642643 0.346954 0.456834
O O5 0.403619 0.154041 0.920370
O O6 0.442265 0.107844 0.744346
O O7 0.506545 0.916905 0.856759
O O8 0.250000 0.500000 0.770051
O O9 0.357693 0.437273 0.917944
O O10 0.401405 0.667514 0.817710
O O11 0.476190 0.329747 0.046436
#
# Coordination Sequence:
#
# PCOD8217006 Si02
#       5
#     8   8   8   8   8
#     4  11  19  40  70  93 118 174 233 260 311 401
#     4  11  24  38  65  98 129 170 222 277 325 395
#     4  12  26  39  63 101 141 164 210 290 353 373
#     4  11  22  42  69  91 127 176 227 269 318 410
#     4  11  22  40  67  97 126 172 223 267 325 405
#
# _framework density 23.392855000000001
#
# number of rings (size 3 to 8) (size 9 to 14) (size 15 to 20)
#    0.000    0.800    6.000    3.000    2.800    1.600 
#    0.000    0.000   17.600    0.000    0.000    0.000 
#    0.000    0.000    0.000    0.000    0.000    0.000 
#
# Total GULP energy -495620.914131 kJ/mol
# GULP energy per Si atom -12390.522853 kJ/mol
# Density = 2.333961 g / cm^3
# Si number density = 23.392855 Si / 1000 Ang^3
#
#
#
# Elastic Constant Matrix: (Units=GPa)
#
#
# Indices 1 2 3 4 5 6 
#
# 1 133.9330 20.7506 43.0232 0.0000 0.0000 0.0000
# 2 20.7506 68.5207 13.6306 0.0000 0.0000 0.0000
# 3 43.0232 13.6306 64.5943 0.0000 0.0000 0.0000
# 4 0.0000 0.0000 0.0000 33.2238 0.0000 0.0000
# 5 0.0000 0.0000 0.0000 0.0000 34.7652 0.0000
# 6 0.0000 0.0000 0.0000 0.0000 0.0000 28.0518
#
#
#
# Elastic Compliance Matrix: (Units=1/GPa)
#
#
# Indices 1 2 3 4 5 6 
#
# 1 0.009690 -0.001723 -0.006090 0.000000 0.000000 0.000000
# 2 -0.001723 0.015540 -0.002132 0.000000 0.000000 0.000000
# 3 -0.006090 -0.002132 0.019988 0.000000 0.000000 0.000000
# 4 0.000000 0.000000 0.000000 0.030099 0.000000 0.000000
# 5 0.000000 0.000000 0.000000 0.000000 0.028764 0.000000
# 6 0.000000 0.000000 0.000000 0.000000 0.000000 0.035648
#
#
# Mechanical properties :
#
#
# Convention : Reuss Voigt Hill
#
# Bulk Modulus (GPa) = 39.48286 46.87297 43.17792
# Shear Modulus (GPa) = 29.75107 31.85105 30.80106
#
# Velocity S-wave (km/s) = 3.57010 3.69395 3.63255
# Velocity P-wave (km/s) = 5.82314 6.18664 6.00764
#
# Compressibility (1/GPa) = 0.02532744
#
# Stress axis : x y z
#
# Youngs Moduli (GPa) = 103.20200 64.35029 50.03117
#
# Poissons Ratio (x) = 0.11087 0.30471
# Poissons Ratio (y) = 0.17781 0.10665
# Poissons Ratio (z) = 0.62853 0.13718
#
# Static dielectric constant tensor:
#      x y z
#    x 4.392700 0.000000 0.000000 
#    y 0.000000 3.951190 0.000000 
#    z 0.000000 0.000000 3.960240 
# 
# 
# High freq. dielectric constant tensor:
#      x y z
#    x 1.929970 0.000000 0.000000 
#    y 0.000000 1.920910 0.000000 
#    z 0.000000 0.000000 1.893490 
# 
# From -- ./inp_files/26906.got.cif
#   From: 2010.06.25/outbox.cif.g09.slc.cpg/sg52_14_cif.got.tgz:26906.got - 2010.06.26 19:32:48.
