data_PCOD8217995
_publ_section_title
;
Structure prediction by ZEFSAII (Michael W. Deem and Ramdas Pophale) SiO2 
 PCOD8217995
Probable space group: P M N A
;
_chemical_formula_sum "Si O2"
_cell_formula_units_Z 48
_cell_length_a 14.261880
_cell_length_b 9.653797
_cell_length_c 19.771982
_cell_angle_alpha 90.000000
_cell_angle_beta 90.000000
_cell_angle_gamma 90.000000
_cell_volume 2722.232074
_symmetry_space_group_name_H-M "P M N A"
_symmetry_group_IT_number 53
_symmetry_cell_setting 'orthorhombic'
loop_
_space_group_symop_operation_xyz
x,y,z
1/2-x,-y,1/2+z
x,-y,-z
1/2-x,y,1/2-z
-x,-y,-z
1/2+x,y,1/2-z
-x,y,z
1/2+x,-y,1/2+z
loop_
_atom_site_type_symbol
_atom_site_label
_atom_site_fract_x
_atom_site_fract_y
_atom_site_fract_z
Si Si1 0.796553 0.268237 0.112083
Si Si2 0.850293 0.056849 0.222223
Si Si3 0.110861 0.482675 0.203274
Si Si4 0.895585 0.775723 0.162409
Si Si5 0.104193 0.286189 0.322617
Si Si6 0.610647 0.159026 0.515183
O O1 0.837481 0.410768 0.140598
O O2 0.682566 0.267925 0.119155
O O3 0.827359 0.254234 0.034565
O O4 0.843213 0.141079 0.152525
O O5 0.750000 0.017976 0.250000
O O6 0.899896 0.910671 0.209780
O O7 0.905337 0.147555 0.277320
O O8 0.146485 0.642762 0.202118
O O9 0.139854 0.412201 0.274563
O O10 0.000000 0.463922 0.194420
O O11 0.000000 0.732021 0.143724
O O12 0.848141 0.807035 0.089860
O O13 0.000000 0.314761 0.353561
O O14 0.500000 0.190947 0.506267
O O15 0.631760 0.000000 0.500000
#
# Coordination Sequence:
#
# PCOD8217995 Si02
#       6
#     8   8   8   8   8   8
#     4  10  18  31  48  69  97 131 167 199 238 289
#     4   9  17  28  46  70  94 127 162 201 244 287
#     4   9  18  30  46  70 100 125 153 197 245 294
#     4  10  19  30  46  73 103 130 156 189 244 298
#     4   9  18  32  50  70  93 126 168 209 243 280
#     4  10  19  30  49  75 103 132 160 195 238 292
#
# _framework density 17.632587999999998
#
# number of rings (size 3 to 8) (size 9 to 14) (size 15 to 20)
#    0.000    2.500    1.667    2.500    0.000    3.333 
#    0.000    2.500    0.000    0.500    0.000    2.333 
#    0.000    0.000    0.000    0.000    0.000    0.000 
#
# Total GULP energy -594871.005331 kJ/mol
# GULP energy per Si atom -12393.145944 kJ/mol
# Density = 1.759246 g / cm^3
# Si number density = 17.632588 Si / 1000 Ang^3
#
#
#
# Elastic Constant Matrix: (Units=GPa)
#
#
# Indices 1 2 3 4 5 6 
#
# 1 54.5107 13.4648 17.0494 0.0000 0.0000 0.0000
# 2 13.4648 120.8688 25.5602 0.0000 0.0000 0.0000
# 3 17.0494 25.5602 54.7345 0.0000 0.0000 0.0000
# 4 0.0000 0.0000 0.0000 14.7785 0.0000 0.0000
# 5 0.0000 0.0000 0.0000 0.0000 19.8060 0.0000
# 6 0.0000 0.0000 0.0000 0.0000 0.0000 15.8493
#
#
#
# Elastic Compliance Matrix: (Units=1/GPa)
#
#
# Indices 1 2 3 4 5 6 
#
# 1 0.020441 -0.001033 -0.005885 0.000000 0.000000 0.000000
# 2 -0.001033 0.009232 -0.003990 0.000000 0.000000 0.000000
# 3 -0.005885 -0.003990 0.021966 0.000000 0.000000 0.000000
# 4 0.000000 0.000000 0.000000 0.067666 0.000000 0.000000
# 5 0.000000 0.000000 0.000000 0.000000 0.050490 0.000000
# 6 0.000000 0.000000 0.000000 0.000000 0.000000 0.063094
#
#
# Mechanical properties :
#
#
# Convention : Reuss Voigt Hill
#
# Bulk Modulus (GPa) = 33.52918 38.02921 35.77920
# Shear Modulus (GPa) = 18.89325 21.68941 20.29133
#
# Velocity S-wave (km/s) = 3.27692 3.51105 3.39600
# Velocity P-wave (km/s) = 5.77706 6.16855 5.97601
#
# Compressibility (1/GPa) = 0.02982477
#
# Stress axis : x y z
#
# Youngs Moduli (GPa) = 48.92198 108.31706 45.52440
#
# Poissons Ratio (x) = 0.11185 0.26791
# Poissons Ratio (y) = 0.05052 0.18163
# Poissons Ratio (z) = 0.28790 0.43215
#
# Static dielectric constant tensor:
#      x y z
#    x 0.291810 0.000000 0.000000 
#    y 0.000000 3.391500 0.000000 
#    z 0.000000 0.000000 3.017810 
# 
# 
# High freq. dielectric constant tensor:
#      x y z
#    x 1.667920 0.000000 0.000000 
#    y 0.000000 1.685530 0.000000 
#    z 0.000000 0.000000 1.646670 
# 
# From -- ./inp_files/28260.got.cif
#   From: 2010.03.12/outbox.cif.g09.slc.cpg/sg53_15_cif.got.tgz:28260.got - 2010.04.16 14:36:59.
