data_PCOD8217198
_publ_section_title
;
Structure prediction by ZEFSAII (Michael W. Deem and Ramdas Pophale) SiO2 
 PCOD8217198
Probable space group: P N N A
;
_chemical_formula_sum "Si O2"
_cell_formula_units_Z 56
_cell_length_a 20.406321
_cell_length_b 8.501344
_cell_length_c 14.871016
_cell_angle_alpha 90.000000
_cell_angle_beta 90.000000
_cell_angle_gamma 90.000000
_cell_volume 2579.841026
_symmetry_space_group_name_H-M "P N N A"
_symmetry_group_IT_number 52
_symmetry_cell_setting 'orthorhombic'
loop_
_space_group_symop_operation_xyz
x,y,z
1/2-x,-y,z
x,1/2-y,1/2-z
1/2-x,1/2+y,1/2-z
-x,-y,-z
1/2+x,y,-z
-x,1/2+y,1/2+z
1/2+x,1/2-y,1/2+z
loop_
_atom_site_type_symbol
_atom_site_label
_atom_site_fract_x
_atom_site_fract_y
_atom_site_fract_z
Si Si1 0.897238 0.668623 0.967712
Si Si2 0.184658 0.430658 0.732692
Si Si3 0.012996 0.760799 0.853433
Si Si4 0.270459 0.683062 0.152226
Si Si5 0.198572 0.634975 0.486926
Si Si6 0.144644 0.897986 0.593270
Si Si7 0.586449 0.027023 0.075196
O O1 0.832473 0.717172 0.912259
O O2 0.958876 0.653507 0.901538
O O3 0.884311 0.501727 0.012493
O O4 0.919733 0.793526 0.043840
O O5 0.250000 0.500000 0.686823
O O6 0.192331 0.250000 0.750000
O O7 0.177962 0.500929 0.831250
O O8 0.125064 0.475758 0.669122
O O9 0.992287 0.750000 0.750000
O O10 0.085792 0.697783 0.863447
O O11 0.017407 0.937953 0.899481
O O12 0.250000 0.500000 0.155803
O O13 0.287551 0.750000 0.250000
O O14 0.211953 0.791948 0.112112
O O15 0.250000 0.500000 0.513707
O O16 0.201634 0.782006 0.556290
O O17 0.125173 0.564169 0.494765
#
# Coordination Sequence:
#
# PCOD8217198 Si02
#       7
#     8   8   8   8   8   8   8
#     4  12  24  44  71  97 131 184 238 279 341 415
#     4  12  27  39  66 104 145 179 222 280 351 425
#     4  11  24  45  67  96 136 178 236 287 342 404
#     4  12  26  45  70  99 136 176 222 286 348 405
#     4  11  23  41  68  98 137 172 220 279 345 424
#     4  11  25  43  68  99 137 183 225 282 349 415
#     4  11  24  42  67  99 136 182 222 285 346 411
#
# _framework density 21.706764
#
# number of rings (size 3 to 8) (size 9 to 14) (size 15 to 20)
#    0.000    0.571    5.714    2.143    8.000    0.000 
#    0.000    0.000    0.000    0.857    0.000    0.000 
#    0.000    0.000    0.000    0.000    0.000    0.000 
#
# Total GULP energy -694250.130442 kJ/mol
# GULP energy per Si atom -12397.323758 kJ/mol
# Density = 2.165736 g / cm^3
# Si number density = 21.706764 Si / 1000 Ang^3
#
#
#
# Elastic Constant Matrix: (Units=GPa)
#
#
# Indices 1 2 3 4 5 6 
#
# 1 54.9376 22.8436 21.3831 0.0000 0.0000 0.0000
# 2 22.8436 139.6522 46.7975 0.0000 0.0000 0.0000
# 3 21.3831 46.7975 113.0995 0.0000 0.0000 0.0000
# 4 0.0000 0.0000 0.0000 42.6140 0.0000 0.0000
# 5 0.0000 0.0000 0.0000 0.0000 25.0305 0.0000
# 6 0.0000 0.0000 0.0000 0.0000 0.0000 25.9597
#
#
#
# Elastic Compliance Matrix: (Units=1/GPa)
#
#
# Indices 1 2 3 4 5 6 
#
# 1 0.020298 -0.002362 -0.002860 0.000000 0.000000 0.000000
# 2 -0.002362 0.008588 -0.003107 0.000000 0.000000 0.000000
# 3 -0.002860 -0.003107 0.010668 0.000000 0.000000 0.000000
# 4 0.000000 0.000000 0.000000 0.023466 0.000000 0.000000
# 5 0.000000 0.000000 0.000000 0.000000 0.039951 0.000000
# 6 0.000000 0.000000 0.000000 0.000000 0.000000 0.038521
#
#
# Mechanical properties :
#
#
# Convention : Reuss Voigt Hill
#
# Bulk Modulus (GPa) = 43.67595 54.41531 49.04563
# Shear Modulus (GPa) = 30.15987 33.16518 31.66253
#
# Velocity S-wave (km/s) = 3.73154 3.91304 3.82337
# Velocity P-wave (km/s) = 6.22338 6.74823 6.49111
#
# Compressibility (1/GPa) = 0.02289589
#
# Stress axis : x y z
#
# Youngs Moduli (GPa) = 49.26637 116.43981 93.73676
#
# Poissons Ratio (x) = 0.27500 0.26812
# Poissons Ratio (y) = 0.11635 0.29124
# Poissons Ratio (z) = 0.14092 0.36178
#
# Static dielectric constant tensor:
#      x y z
#    x 3.769630 0.000000 0.000000 
#    y 0.000000 4.181590 0.000000 
#    z 0.000000 0.000000 4.090630 
# 
# 
# High freq. dielectric constant tensor:
#      x y z
#    x 1.837170 0.000000 0.000000 
#    y 0.000000 1.868640 0.000000 
#    z 0.000000 0.000000 1.858340 
# 
# From -- ./inp_files/28776.got.cif
#   From: 2010.06.25/outbox.cif.g09.slc.cpg/sg52_15_cif.got.tgz:28776.got - 2010.06.26 19:32:48.
