data_PCOD8217674
_publ_section_title
;
Structure prediction by ZEFSAII (Michael W. Deem and Ramdas Pophale) SiO2 
 PCOD8217674
Probable space group: P M N A
;
_chemical_formula_sum "Si O2"
_cell_formula_units_Z 64
_cell_length_a 9.389753
_cell_length_b 18.278497
_cell_length_c 24.499635
_cell_angle_alpha 90.000000
_cell_angle_beta 90.000000
_cell_angle_gamma 90.000000
_cell_volume 4204.886370
_symmetry_space_group_name_H-M "P M N A"
_symmetry_group_IT_number 53
_symmetry_cell_setting 'orthorhombic'
loop_
_space_group_symop_operation_xyz
x,y,z
1/2-x,-y,1/2+z
x,-y,-z
1/2-x,y,1/2-z
-x,-y,-z
1/2+x,y,1/2-z
-x,y,z
1/2+x,-y,1/2+z
loop_
_atom_site_type_symbol
_atom_site_label
_atom_site_fract_x
_atom_site_fract_y
_atom_site_fract_z
Si Si1 0.660988 0.605407 0.044184
Si Si2 0.836819 0.117932 0.507633
Si Si3 0.668097 0.954066 0.695450
Si Si4 0.837115 0.677433 0.894247
Si Si5 0.335144 0.784323 0.698325
Si Si6 0.340157 0.548570 0.921430
Si Si7 0.664669 0.263731 0.514748
Si Si8 0.336349 0.013748 0.089626
O O1 0.500000 0.627948 0.059765
O O2 0.712490 0.536109 0.080856
O O3 0.762618 0.675339 0.053941
O O4 0.666537 0.578628 0.982406
O O5 0.736546 0.185428 0.522322
O O6 0.791415 0.080859 0.450112
O O7 0.000000 0.144634 0.503654
O O8 0.818931 0.060966 0.556567
O O9 0.750000 0.981524 0.750000
O O10 0.500000 0.972225 0.700292
O O11 0.697430 0.868639 0.686715
O O12 0.734384 0.992494 0.642165
O O13 0.778995 0.738227 0.852858
O O14 0.756887 0.600717 0.884284
O O15 0.000000 0.659372 0.883337
O O16 0.811835 0.711111 0.953250
O O17 0.250000 0.755059 0.750000
O O18 0.500000 0.771353 0.709927
O O19 0.500000 0.552833 0.898793
O O20 0.500000 0.257389 0.530894
O O21 0.500000 0.024083 0.108568
#
# Coordination Sequence:
#
# PCOD8217674 Si02
#       8
#     8   8   8   8   8   8   8   8
#     4   8  14  25  38  53  77 105 132 164 197 229
#     4   9  18  31  45  61  85 116 145 176 215 258
#     4  10  19  31  47  65  86 112 143 180 218 255
#     4   9  17  27  38  55  81 108 134 169 208 242
#     4   9  18  30  41  56  79 106 136 170 207 243
#     4   8  14  24  38  55  74 101 136 165 191 230
#     4  10  18  26  39  60  83 108 140 172 204 247
#     4   9  18  32  47  63  84 112 146 179 214 258
#
# _framework density 15.220387000000001
#
# number of rings (size 3 to 8) (size 9 to 14) (size 15 to 20)
#    0.000    3.000    0.000    3.000    0.000    4.000 
#    0.000    3.750    0.000    0.000    0.000    0.000 
#    0.000    1.000    0.000    7.000    0.000    5.500 
#
# Total GULP energy -793295.343502 kJ/mol
# GULP energy per Si atom -12395.239742 kJ/mol
# Density = 1.518574 g / cm^3
# Si number density = 15.220387 Si / 1000 Ang^3
#
#
#
# Elastic Constant Matrix: (Units=GPa)
#
#
# Indices 1 2 3 4 5 6 
#
# 1 78.5125 47.9400 32.3512 0.0000 0.0000 0.0000
# 2 47.9400 81.7292 14.1064 0.0000 0.0000 0.0000
# 3 32.3512 14.1064 54.1132 0.0000 0.0000 0.0000
# 4 0.0000 0.0000 0.0000 17.6918 0.0000 0.0000
# 5 0.0000 0.0000 0.0000 0.0000 22.7822 0.0000
# 6 0.0000 0.0000 0.0000 0.0000 0.0000 28.4931
#
#
#
# Elastic Compliance Matrix: (Units=1/GPa)
#
#
# Indices 1 2 3 4 5 6 
#
# 1 0.025526 -0.012920 -0.011893 0.000000 0.000000 0.000000
# 2 -0.012920 0.019352 0.002680 0.000000 0.000000 0.000000
# 3 -0.011893 0.002680 0.024891 0.000000 0.000000 0.000000
# 4 0.000000 0.000000 0.000000 0.056523 0.000000 0.000000
# 5 0.000000 0.000000 0.000000 0.000000 0.043894 0.000000
# 6 0.000000 0.000000 0.000000 0.000000 0.000000 0.035096
#
#
# Mechanical properties :
#
#
# Convention : Reuss Voigt Hill
#
# Bulk Modulus (GPa) = 39.21165 44.79444 42.00305
# Shear Modulus (GPa) = 19.37607 21.79060 20.58334
#
# Velocity S-wave (km/s) = 3.57183 3.78785 3.68142
# Velocity P-wave (km/s) = 6.54440 6.97315 6.76217
#
# Compressibility (1/GPa) = 0.02550262
#
# Stress axis : x y z
#
# Youngs Moduli (GPa) = 39.17505 51.67490 40.17486
#
# Poissons Ratio (x) = 0.66766 0.47779
# Poissons Ratio (y) = 0.50616 -0.10766
# Poissons Ratio (z) = 0.46590 -0.13847
#
# Static dielectric constant tensor:
#      x y z
#    x 3.007150 0.000000 0.000000 
#    y 0.000000 3.005060 0.000000 
#    z 0.000000 0.000000 2.683470 
# 
# 
# High freq. dielectric constant tensor:
#      x y z
#    x 1.588840 0.000000 0.000000 
#    y 0.000000 1.577310 0.000000 
#    z 0.000000 0.000000 1.540480 
# 
# From -- ./inp_files/34469.got.cif
#   From: 2010.03.12/outbox.cif.g09.slc.cpg/sg53_18_cif.got.tgz:34469.got - 2010.04.16 14:36:59.
