data_PCOD8217920
_publ_section_title
;
Structure prediction by ZEFSAII (Michael W. Deem and Ramdas Pophale) SiO2 
 PCOD8217920
Probable space group: P M N A
;
_chemical_formula_sum "Si O2"
_cell_formula_units_Z 48
_cell_length_a 10.034602
_cell_length_b 28.361573
_cell_length_c 9.399753
_cell_angle_alpha 90.000000
_cell_angle_beta 90.000000
_cell_angle_gamma 90.000000
_cell_volume 2675.142418
_symmetry_space_group_name_H-M "P M N A"
_symmetry_group_IT_number 53
_symmetry_cell_setting 'orthorhombic'
loop_
_space_group_symop_operation_xyz
x,y,z
1/2-x,-y,1/2+z
x,-y,-z
1/2-x,y,1/2-z
-x,-y,-z
1/2+x,y,1/2-z
-x,y,z
1/2+x,-y,1/2+z
loop_
_atom_site_type_symbol
_atom_site_label
_atom_site_fract_x
_atom_site_fract_y
_atom_site_fract_z
Si Si1 0.254578 0.391976 0.919146
Si Si2 0.000000 0.449460 0.924795
Si Si3 0.000000 0.046611 0.410230
Si Si4 0.154142 0.704025 0.383092
Si Si5 0.000000 0.547095 0.413079
Si Si6 0.155805 0.191763 0.612514
Si Si7 0.500000 0.049790 0.421964
Si Si8 0.745569 0.109870 0.084238
O O1 0.250000 0.386743 0.750000
O O2 0.122288 0.417010 0.976348
O O3 0.284424 0.338873 0.979302
O O4 0.372335 0.425396 0.967760
O O5 0.000000 0.460194 0.756875
O O6 0.000000 0.500000 0.000000
O O7 0.000000 0.036052 0.243194
O O8 0.127422 0.075505 0.457009
O O9 0.000000 0.000000 0.500000
O O10 0.250000 0.709287 0.250000
O O11 0.158570 0.755468 0.456419
O O12 0.000000 0.691419 0.340225
O O13 0.000000 0.500000 0.500000
O O14 0.250000 0.187517 0.750000
O O15 0.223297 0.158661 0.495971
O O16 0.000000 0.178690 0.647062
O O17 0.623871 0.082169 0.466375
O O18 0.500000 0.000000 0.500000
O O19 0.750000 0.122295 0.250000
#
# Coordination Sequence:
#
# PCOD8217920 Si02
#       8
#     8   4   4   8   4   8   4   8
#     4   9  17  29  47  72  97 131 167 208 253 308
#     4  10  20  32  47  70 102 132 165 206 257 304
#     4  10  20  36  57  78 106 144 183 224 269 316
#     4   9  17  30  50  77 106 133 168 218 266 308
#     4  10  18  30  49  70  94 126 171 208 251 304
#     4  10  21  36  56  85 114 141 178 229 278 320
#     4  10  22  36  55  82 108 140 185 228 265 318
#     4  10  21  38  57  79 111 150 182 216 268 327
#
# _framework density 17.942969999999999
#
# number of rings (size 3 to 8) (size 9 to 14) (size 15 to 20)
#    0.000    2.333    1.667    1.000    4.667    1.333 
#    0.000    0.000    0.000    2.000    0.000    0.000 
#    0.000    0.000    0.000    0.000    0.000    0.000 
#
# Total GULP energy -594697.768283 kJ/mol
# GULP energy per Si atom -12389.536839 kJ/mol
# Density = 1.790213 g / cm^3
# Si number density = 17.942970 Si / 1000 Ang^3
#
#
#
# Elastic Constant Matrix: (Units=GPa)
#
#
# Indices 1 2 3 4 5 6 
#
# 1 167.7236 88.1148 32.3163 0.0000 0.0000 0.0000
# 2 88.1148 187.1071 54.8446 0.0000 0.0000 0.0000
# 3 32.3163 54.8446 37.2125 0.0000 0.0000 0.0000
# 4 0.0000 0.0000 0.0000 29.7566 0.0000 0.0000
# 5 0.0000 0.0000 0.0000 0.0000 20.1777 0.0000
# 6 0.0000 0.0000 0.0000 0.0000 0.0000 -33.3621
#
#
#
# Elastic Compliance Matrix: (Units=1/GPa)
#
#
# Indices 1 2 3 4 5 6 
#
# 1 0.008049 -0.003066 -0.002471 0.000000 0.000000 0.000000
# 2 -0.003066 0.010578 -0.012927 0.000000 0.000000 0.000000
# 3 -0.002471 -0.012927 0.048070 0.000000 0.000000 0.000000
# 4 0.000000 0.000000 0.000000 0.033606 0.000000 0.000000
# 5 0.000000 0.000000 0.000000 0.000000 0.049560 0.000000
# 6 0.000000 0.000000 0.000000 0.000000 0.000000 -0.029974
#
#
# Mechanical properties :
#
#
# Convention : Reuss Voigt Hill
#
# Bulk Modulus (GPa) = 33.59181 82.51050 58.05116
# Shear Modulus (GPa) = 29.98695 17.76562 23.87628
#
# Velocity S-wave (km/s) = 4.09251 3.15002 3.65180
# Velocity P-wave (km/s) = 6.41043 7.70162 7.08550
#
# Compressibility (1/GPa) = 0.02976916
#
# Stress axis : x y z
#
# Youngs Moduli (GPa) = 124.23589 94.53912 20.80298
#
# Poissons Ratio (x) = 0.28989 0.05140
# Poissons Ratio (y) = 0.38095 0.26891
# Poissons Ratio (z) = 0.30697 1.22207
#
# Static dielectric constant tensor:
#      x y z
#    x 3.692880 0.000000 0.000000 
#    y 0.000000 3.768710 0.000000 
#    z 0.000000 0.000000 2.842180 
# 
# 
# High freq. dielectric constant tensor:
#      x y z
#    x 1.720560 0.000000 0.000000 
#    y 0.000000 1.718560 0.000000 
#    z 0.000000 0.000000 1.636230 
# 
# From -- ./inp_files/6867.got.cif
#   From: 2010.03.12/outbox.cif.g09.slc.cpg/sg53_4_cif.got.tgz:6867.got - 2010.04.16 14:36:59.
