data_PCOD8217474
_publ_section_title
;
Structure prediction by ZEFSAII (Michael W. Deem and Ramdas Pophale) SiO2 
 PCOD8217474
Probable space group: P M N A
;
_chemical_formula_sum "Si O2"
_cell_formula_units_Z 64
_cell_length_a 8.755674
_cell_length_b 20.479452
_cell_length_c 23.163506
_cell_angle_alpha 90.000000
_cell_angle_beta 90.000000
_cell_angle_gamma 90.000000
_cell_volume 4153.480815
_symmetry_space_group_name_H-M "P M N A"
_symmetry_group_IT_number 53
_symmetry_cell_setting 'orthorhombic'
loop_
_space_group_symop_operation_xyz
x,y,z
1/2-x,-y,1/2+z
x,-y,-z
1/2-x,y,1/2-z
-x,-y,-z
1/2+x,y,1/2-z
-x,y,z
1/2+x,-y,1/2+z
loop_
_atom_site_type_symbol
_atom_site_label
_atom_site_fract_x
_atom_site_fract_y
_atom_site_fract_z
Si Si1 0.680937 0.108783 0.399147
Si Si2 0.330758 0.972071 0.435820
Si Si3 0.820473 0.710430 0.480321
Si Si4 0.319277 0.674301 0.893559
Si Si5 0.178519 0.146848 0.519566
Si Si6 0.820170 0.550222 0.927125
Si Si7 0.180291 0.791996 0.687180
Si Si8 0.320506 0.574691 0.051072
O O1 0.500000 0.116837 0.396132
O O2 0.736113 0.138639 0.459297
O O3 0.758576 0.144493 0.345778
O O4 0.726606 0.031519 0.395145
O O5 0.500000 0.949565 0.417507
O O6 0.223176 0.908183 0.433281
O O7 0.332692 0.000000 0.500000
O O8 0.756012 0.701650 0.545311
O O9 0.773770 0.781597 0.455537
O O10 0.769848 0.650747 0.437736
O O11 0.000000 0.706057 0.487254
O O12 0.500000 0.662936 0.892725
O O13 0.233817 0.604953 0.880951
O O14 0.268751 0.725906 0.845124
O O15 0.000000 0.142503 0.506778
O O16 0.773321 0.475974 0.907972
O O17 0.000000 0.554207 0.938685
O O18 0.721394 0.562616 0.984402
O O19 0.250000 0.790195 0.750000
O O20 0.000000 0.797757 0.690791
O O21 0.500000 0.564221 0.061195
#
# Coordination Sequence:
#
# PCOD8217474 Si02
#       8
#     8   8   8   8   8   8   8   8
#     4  10  19  31  44  58  80 108 138 172 213 253
#     4   8  16  28  39  56  81 107 135 168 206 251
#     4   8  14  24  38  56  78 105 138 169 198 237
#     4   9  17  31  44  54  74 106 136 165 205 253
#     4  10  16  25  41  62  83 107 141 176 207 244
#     4  10  17  24  36  56  76  95 131 174 202 231
#     4  11  22  35  49  64  82 104 139 179 218 258
#     4   9  15  25  37  50  74 108 136 160 198 241
#
# _framework density 15.408761999999999
#
# number of rings (size 3 to 8) (size 9 to 14) (size 15 to 20)
#    0.000    2.625    1.250    4.875    0.000    3.750 
#    0.000    1.875    0.000    0.000    0.000    0.000 
#    0.000    0.000    0.000    1.125    0.000   16.000 
#
# Total GULP energy -792851.011991 kJ/mol
# GULP energy per Si atom -12388.297062 kJ/mol
# Density = 1.537369 g / cm^3
# Si number density = 15.408762 Si / 1000 Ang^3
#
#
#
# Elastic Constant Matrix: (Units=GPa)
#
#
# Indices 1 2 3 4 5 6 
#
# 1 52.3594 44.6852 20.0829 0.0000 0.0000 0.0000
# 2 44.6852 165.3063 45.3386 0.0000 0.0000 0.0000
# 3 20.0829 45.3386 40.4160 0.0000 0.0000 0.0000
# 4 0.0000 0.0000 0.0000 15.1949 0.0000 0.0000
# 5 0.0000 0.0000 0.0000 0.0000 12.2190 0.0000
# 6 0.0000 0.0000 0.0000 0.0000 0.0000 14.9836
#
#
#
# Elastic Compliance Matrix: (Units=1/GPa)
#
#
# Indices 1 2 3 4 5 6 
#
# 1 0.026253 -0.005083 -0.007344 0.000000 0.000000 0.000000
# 2 -0.005083 0.009722 -0.008380 0.000000 0.000000 0.000000
# 3 -0.007344 -0.008380 0.037793 0.000000 0.000000 0.000000
# 4 0.000000 0.000000 0.000000 0.065812 0.000000 0.000000
# 5 0.000000 0.000000 0.000000 0.000000 0.081840 0.000000
# 6 0.000000 0.000000 0.000000 0.000000 0.000000 0.066739
#
#
# Mechanical properties :
#
#
# Convention : Reuss Voigt Hill
#
# Bulk Modulus (GPa) = 31.09979 53.14389 42.12184
# Shear Modulus (GPa) = 14.68471 18.34449 16.51460
#
# Velocity S-wave (km/s) = 3.09044 3.45414 3.27734
# Velocity P-wave (km/s) = 5.74120 7.10439 6.45886
#
# Compressibility (1/GPa) = 0.03215456
#
# Stress axis : x y z
#
# Youngs Moduli (GPa) = 38.09073 102.86230 26.46005
#
# Poissons Ratio (x) = 0.52280 0.19432
# Poissons Ratio (y) = 0.19360 0.22174
# Poissons Ratio (z) = 0.27973 0.86202
#
# Static dielectric constant tensor:
#      x y z
#    x 2.923070 0.000000 0.000000 
#    y 0.000000 3.848560 0.000000 
#    z 0.000000 0.000000 2.428910 
# 
# 
# High freq. dielectric constant tensor:
#      x y z
#    x 1.593730 0.000000 0.000000 
#    y 0.000000 1.617150 0.000000 
#    z 0.000000 0.000000 1.502540 
# 
# From -- ./inp_files/34572.got.cif
#   From: 2010.03.12/outbox.cif.g09.slc.cpg/sg53_18_cif.got.tgz:34572.got - 2010.04.16 14:36:59.
