data_PCOD8217734
_publ_section_title
;
Structure prediction by ZEFSAII (Michael W. Deem and Ramdas Pophale) SiO2 
 PCOD8217734
Probable space group: P M N A
;
_chemical_formula_sum "Si O2"
_cell_formula_units_Z 56
_cell_length_a 9.001043
_cell_length_b 18.901520
_cell_length_c 18.573323
_cell_angle_alpha 90.000000
_cell_angle_beta 90.000000
_cell_angle_gamma 90.000000
_cell_volume 3159.942485
_symmetry_space_group_name_H-M "P M N A"
_symmetry_group_IT_number 53
_symmetry_cell_setting 'orthorhombic'
loop_
_space_group_symop_operation_xyz
x,y,z
1/2-x,-y,1/2+z
x,-y,-z
1/2-x,y,1/2-z
-x,-y,-z
1/2+x,y,1/2-z
-x,y,z
1/2+x,-y,1/2+z
loop_
_atom_site_type_symbol
_atom_site_label
_atom_site_fract_x
_atom_site_fract_y
_atom_site_fract_z
Si Si1 0.175729 0.366220 0.825882
Si Si2 0.173716 0.055034 0.326874
Si Si3 0.825806 0.429040 0.539811
Si Si4 0.173628 0.285250 0.465820
Si Si5 0.327830 0.788250 0.825449
Si Si6 0.673771 0.223523 0.597418
Si Si7 0.676393 0.920351 0.327756
O O1 0.250000 0.384721 0.750000
O O2 0.236392 0.420783 0.885799
O O3 0.222107 0.286559 0.848532
O O4 0.000000 0.375351 0.819060
O O5 0.250000 0.056818 0.250000
O O6 0.201506 0.133189 0.359278
O O7 0.000000 0.037448 0.320605
O O8 0.256388 0.990259 0.368600
O O9 0.773864 0.500000 0.500000
O O10 0.785450 0.365714 0.485036
O O11 0.000000 0.430377 0.558362
O O12 0.229422 0.267812 0.384935
O O13 0.249570 0.231452 0.520674
O O14 0.000000 0.270761 0.471318
O O15 0.250000 0.773409 0.750000
O O16 0.500000 0.778477 0.808892
O O17 0.500000 0.226779 0.584423
O O18 0.725457 0.148778 0.628717
O O19 0.750000 0.913508 0.250000
O O20 0.500000 0.926563 0.320971
#
# Coordination Sequence:
#
# PCOD8217734 Si02
#       7
#     8   8   8   8   8   8   8
#     4  10  19  32  51  75 102 131 166 202 236 280
#     4   9  16  27  43  63  88 118 154 194 236 279
#     4   9  18  34  55  76 101 132 161 194 240 290
#     4   9  18  33  52  72  94 122 157 193 233 285
#     4   9  18  32  50  71  92 118 155 198 239 280
#     4   9  19  32  46  68  97 127 159 196 236 280
#     4  10  18  28  43  65  93 123 158 197 236 279
#
# _framework density 17.721841999999999
#
# number of rings (size 3 to 8) (size 9 to 14) (size 15 to 20)
#    0.000    2.714    0.000    2.571    0.000    3.143 
#    0.000    1.429    0.000    6.000    0.000    0.000 
#    0.000    0.000    0.000    0.000    0.000    0.000 
#
# Total GULP energy -694110.233316 kJ/mol
# GULP energy per Si atom -12394.825595 kJ/mol
# Density = 1.768151 g / cm^3
# Si number density = 17.721842 Si / 1000 Ang^3
#
#
#
# Elastic Constant Matrix: (Units=GPa)
#
#
# Indices 1 2 3 4 5 6 
#
# 1 61.4101 39.4680 45.9682 0.0000 0.0000 0.0000
# 2 39.4680 108.9787 72.4117 0.0000 0.0000 0.0000
# 3 45.9682 72.4117 126.2682 0.0000 0.0000 0.0000
# 4 0.0000 0.0000 0.0000 26.3373 0.0000 0.0000
# 5 0.0000 0.0000 0.0000 0.0000 27.2718 0.0000
# 6 0.0000 0.0000 0.0000 0.0000 0.0000 28.2348
#
#
#
# Elastic Compliance Matrix: (Units=1/GPa)
#
#
# Indices 1 2 3 4 5 6 
#
# 1 0.023737 -0.004612 -0.005996 0.000000 0.000000 0.000000
# 2 -0.004612 0.015721 -0.007337 0.000000 0.000000 0.000000
# 3 -0.005996 -0.007337 0.014310 0.000000 0.000000 0.000000
# 4 0.000000 0.000000 0.000000 0.037969 0.000000 0.000000
# 5 0.000000 0.000000 0.000000 0.000000 0.036668 0.000000
# 6 0.000000 0.000000 0.000000 0.000000 0.000000 0.035417
#
#
# Mechanical properties :
#
#
# Convention : Reuss Voigt Hill
#
# Bulk Modulus (GPa) = 55.93614 68.03918 61.98766
# Shear Modulus (GPa) = 24.31051 25.62275 24.96663
#
# Velocity S-wave (km/s) = 3.70778 3.80653 3.75748
# Velocity P-wave (km/s) = 7.06838 7.60235 7.34022
#
# Compressibility (1/GPa) = 0.01787753
#
# Stress axis : x y z
#
# Youngs Moduli (GPa) = 42.12870 63.60746 69.88058
#
# Poissons Ratio (x) = 0.29337 0.41904
# Poissons Ratio (y) = 0.19431 0.51270
# Poissons Ratio (z) = 0.25262 0.46667
#
# Static dielectric constant tensor:
#      x y z
#    x 3.285920 0.000000 0.000000 
#    y 0.000000 3.855450 0.000000 
#    z 0.000000 0.000000 3.134860 
# 
# 
# High freq. dielectric constant tensor:
#      x y z
#    x 1.688790 0.000000 0.000000 
#    y 0.000000 1.686640 0.000000 
#    z 0.000000 0.000000 1.663420 
# 
# From -- ./inp_files/26722.got.cif
#   From: 2010.03.12/outbox.cif.g09.slc.cpg/sg53_14_cif.got.tgz:26722.got - 2010.04.16 14:36:59.
