data_PCOD8217930
_publ_section_title
;
Structure prediction by ZEFSAII (Michael W. Deem and Ramdas Pophale) SiO2 
 PCOD8217930
Probable space group: P M N A
;
_chemical_formula_sum "Si O2"
_cell_formula_units_Z 64
_cell_length_a 9.152957
_cell_length_b 16.865238
_cell_length_c 25.437626
_cell_angle_alpha 90.000000
_cell_angle_beta 90.000000
_cell_angle_gamma 90.000000
_cell_volume 3926.724880
_symmetry_space_group_name_H-M "P M N A"
_symmetry_group_IT_number 53
_symmetry_cell_setting 'orthorhombic'
loop_
_space_group_symop_operation_xyz
x,y,z
1/2-x,-y,1/2+z
x,-y,-z
1/2-x,y,1/2-z
-x,-y,-z
1/2+x,y,1/2-z
-x,y,z
1/2+x,-y,1/2+z
loop_
_atom_site_type_symbol
_atom_site_label
_atom_site_fract_x
_atom_site_fract_y
_atom_site_fract_z
Si Si1 0.331588 0.347109 0.060079
Si Si2 0.164744 0.500000 0.937460
Si Si3 0.328990 0.908963 0.695890
Si Si4 0.829014 0.822168 0.603344
Si Si5 0.328990 0.908963 0.304110
Si Si6 0.326401 0.910881 1.000000
Si Si7 0.829014 0.822168 0.396656
Si Si8 0.668412 0.652891 0.060079
O O1 0.500000 0.371386 0.061923
O O2 0.241705 0.420661 0.084029
O O3 0.300303 0.271105 0.096128
O O4 0.285696 0.327489 1.000000
O O5 0.241705 0.420661 0.915971
O O6 0.000000 0.500000 0.916895
O O7 0.176140 0.500000 0.000000
O O8 0.250000 0.887986 0.750000
O O9 0.500000 0.892441 0.702529
O O10 0.263903 0.851282 0.652316
O O11 0.298306 1.000000 0.679753
O O12 0.768803 0.867047 0.551858
O O13 0.000000 0.840360 0.612568
O O14 0.250000 0.887986 0.250000
O O15 0.500000 0.892441 0.297471
O O16 0.263903 0.851282 0.347684
O O17 0.500000 0.908400 1.000000
O O18 0.268803 0.867047 0.051858
O O19 0.265177 0.000000 0.000000
O O20 0.800303 0.728895 0.403872
O O21 0.000000 0.840361 0.387432
O O22 0.500000 0.628614 0.061923
#
# Coordination Sequence:
#
# PCOD8217930 Si02
#       8
#     8   8   8   8   8   8   8   8
#     4   9  16  28  45  67  96 128 162 196 232 281
#     4   9  17  27  41  63  92 127 164 197 237 280
#     4  10  21  36  52  70  93 124 164 208 250 288
#     4  10  18  30  49  73  98 127 162 199 240 286
#     4  10  21  36  52  70  93 124 164 208 250 288
#     4   9  16  26  43  68  97 128 160 191 229 283
#     4  10  18  30  49  73  98 127 162 199 240 286
#     4   9  16  28  45  67  96 128 162 196 232 281
#
# _framework density 16.298570000000002
#
# number of rings (size 3 to 8) (size 9 to 14) (size 15 to 20)
#    0.000    2.500    1.250    1.875    0.000    5.000 
#    0.000    0.625    0.000    2.250    0.000    0.875 
#    0.000    0.000    0.000    0.000    0.000    0.000 
#
# Total GULP energy -793644.191526 kJ/mol
# GULP energy per Si atom -12400.690493 kJ/mol
# Density = 1.626147 g / cm^3
# Si number density = 16.298570 Si / 1000 Ang^3
#
#
#
# Elastic Constant Matrix: (Units=GPa)
#
#
# Indices 1 2 3 4 5 6 
#
# 1 86.4757 63.2851 51.6630 0.0000 0.0000 0.0000
# 2 63.2851 120.3593 56.8362 0.0000 0.0000 0.0000
# 3 51.6630 56.8362 91.5933 0.0000 0.0000 0.0000
# 4 0.0000 0.0000 0.0000 13.1673 0.0000 0.0000
# 5 0.0000 0.0000 0.0000 0.0000 25.1488 0.0000
# 6 0.0000 0.0000 0.0000 0.0000 0.0000 24.9167
#
#
#
# Elastic Compliance Matrix: (Units=1/GPa)
#
#
# Indices 1 2 3 4 5 6 
#
# 1 0.021798 -0.007999 -0.007331 0.000000 0.000000 0.000000
# 2 -0.007999 0.014688 -0.004602 0.000000 0.000000 0.000000
# 3 -0.007331 -0.004602 0.017909 0.000000 0.000000 0.000000
# 4 0.000000 0.000000 0.000000 0.075946 0.000000 0.000000
# 5 0.000000 0.000000 0.000000 0.000000 0.039763 0.000000
# 6 0.000000 0.000000 0.000000 0.000000 0.000000 0.040134
#
#
# Mechanical properties :
#
#
# Convention : Reuss Voigt Hill
#
# Bulk Modulus (GPa) = 68.82813 71.33296 70.08055
# Shear Modulus (GPa) = 19.61199 21.08950 20.35074
#
# Velocity S-wave (km/s) = 3.47262 3.60105 3.53742
# Velocity P-wave (km/s) = 7.64199 7.81994 7.73148
#
# Compressibility (1/GPa) = 0.01452894
#
# Stress axis : x y z
#
# Youngs Moduli (GPa) = 45.87564 68.08369 55.83870
#
# Poissons Ratio (x) = 0.54463 0.40937
# Poissons Ratio (y) = 0.36698 0.25698
# Poissons Ratio (z) = 0.33633 0.31333
#
# Static dielectric constant tensor:
#      x y z
#    x 2.984680 0.000000 0.000000 
#    y 0.000000 3.154250 0.000000 
#    z 0.000000 0.000000 2.827970 
# 
# 
# High freq. dielectric constant tensor:
#      x y z
#    x 1.618960 0.000000 0.000000 
#    y 0.000000 1.632170 0.000000 
#    z 0.000000 0.000000 1.593840 
# 
# From -- ./inp_files/34343.got.cif
#   From: 2010.03.12/outbox.cif.g09.slc.cpg/sg53_18_cif.got.tgz:34343.got - 2010.04.16 14:36:59.
