data_PCOD8217787
_publ_section_title
;
Structure prediction by ZEFSAII (Michael W. Deem and Ramdas Pophale) SiO2 
 PCOD8217787
Probable space group: P M N A
;
_chemical_formula_sum "Si O2"
_cell_formula_units_Z 56
_cell_length_a 9.099038
_cell_length_b 13.200553
_cell_length_c 28.347692
_cell_angle_alpha 90.000000
_cell_angle_beta 90.000000
_cell_angle_gamma 90.000000
_cell_volume 3404.907432
_symmetry_space_group_name_H-M "P M N A"
_symmetry_group_IT_number 53
_symmetry_cell_setting 'orthorhombic'
loop_
_space_group_symop_operation_xyz
x,y,z
1/2-x,-y,1/2+z
x,-y,-z
1/2-x,y,1/2-z
-x,-y,-z
1/2+x,y,1/2-z
-x,y,z
1/2+x,-y,1/2+z
loop_
_atom_site_type_symbol
_atom_site_label
_atom_site_fract_x
_atom_site_fract_y
_atom_site_fract_z
Si Si1 0.172456 0.897992 0.023246
Si Si2 0.665738 0.408164 0.946058
Si Si3 0.669011 0.572509 0.612853
Si Si4 0.668406 0.307935 0.475026
Si Si5 0.664562 0.804863 0.105550
Si Si6 0.672997 0.514508 0.797505
Si Si7 0.672910 0.719487 0.202674
O O1 0.237915 0.883171 0.075677
O O2 0.000000 0.907597 0.030057
O O3 0.216021 0.806052 0.988290
O O4 0.237425 0.000000 0.000000
O O5 0.500000 0.452739 0.948644
O O6 0.774930 0.479836 0.918216
O O7 0.664595 0.302810 0.919210
O O8 0.728155 0.389879 0.998690
O O9 0.500000 0.553149 0.626740
O O10 0.685858 0.674529 0.581210
O O11 0.765048 0.583085 0.660016
O O12 0.500000 0.326847 0.490924
O O13 0.500000 0.848918 0.107783
O O14 0.726471 0.788593 0.158740
O O15 0.750000 0.553065 0.750000
O O16 0.500000 0.531022 0.793430
O O17 0.715043 0.397502 0.807223
O O18 0.750000 0.759858 0.250000
O O19 0.500000 0.728803 0.209664
#
# Coordination Sequence:
#
# PCOD8217787 Si02
#       7
#     8   8   8   8   8   8   8
#     4   9  18  33  51  69  89 115 151 193 235 281
#     4  10  18  29  43  62  91 124 156 188 222 261
#     4  11  20  29  43  63  91 125 156 187 226 266
#     4   9  19  32  44  64  91 118 151 188 227 276
#     4   9  17  30  45  65  93 122 151 186 227 271
#     4  10  19  32  46  64  91 123 161 194 224 264
#     4   9  17  29  43  63  91 121 153 186 218 259
#
# _framework density 16.446850000000001
#
# number of rings (size 3 to 8) (size 9 to 14) (size 15 to 20)
#    0.000    2.429    1.429    1.714    0.000    4.857 
#    0.000    0.000    0.000    0.000    0.000    1.000 
#    0.000    2.286    0.000    0.000    0.000    0.000 
#
# Total GULP energy -694286.198677 kJ/mol
# GULP energy per Si atom -12397.967834 kJ/mol
# Density = 1.640942 g / cm^3
# Si number density = 16.446850 Si / 1000 Ang^3
#
#
#
# Elastic Constant Matrix: (Units=GPa)
#
#
# Indices 1 2 3 4 5 6 
#
# 1 66.4733 24.5187 48.9112 0.0000 0.0000 0.0000
# 2 24.5187 40.1213 37.6978 0.0000 0.0000 0.0000
# 3 48.9112 37.6978 144.4235 0.0000 0.0000 0.0000
# 4 0.0000 0.0000 0.0000 20.5632 0.0000 0.0000
# 5 0.0000 0.0000 0.0000 0.0000 32.9527 0.0000
# 6 0.0000 0.0000 0.0000 0.0000 0.0000 14.2234
#
#
#
# Elastic Compliance Matrix: (Units=1/GPa)
#
#
# Indices 1 2 3 4 5 6 
#
# 1 0.022052 -0.008558 -0.005234 0.000000 0.000000 0.000000
# 2 -0.008558 0.036345 -0.006589 0.000000 0.000000 0.000000
# 3 -0.005234 -0.006589 0.010417 0.000000 0.000000 0.000000
# 4 0.000000 0.000000 0.000000 0.048631 0.000000 0.000000
# 5 0.000000 0.000000 0.000000 0.000000 0.030347 0.000000
# 6 0.000000 0.000000 0.000000 0.000000 0.000000 0.070307
#
#
# Mechanical properties :
#
#
# Convention : Reuss Voigt Hill
#
# Bulk Modulus (GPa) = 35.64880 52.58596 44.11738
# Shear Modulus (GPa) = 18.64217 22.87388 20.75803
#
# Velocity S-wave (km/s) = 3.37037 3.73336 3.55650
# Velocity P-wave (km/s) = 6.07191 7.11524 6.61418
#
# Compressibility (1/GPa) = 0.02805143
#
# Stress axis : x y z
#
# Youngs Moduli (GPa) = 45.34813 27.51414 96.00137
#
# Poissons Ratio (x) = 0.23546 0.50250
# Poissons Ratio (y) = 0.38809 0.63251
# Poissons Ratio (z) = 0.23737 0.18128
#
# Static dielectric constant tensor:
#      x y z
#    x 3.207680 0.000000 0.000000 
#    y 0.000000 2.836300 0.000000 
#    z 0.000000 0.000000 3.321020 
# 
# 
# High freq. dielectric constant tensor:
#      x y z
#    x 1.639780 0.000000 0.000000 
#    y 0.000000 1.580880 0.000000 
#    z 0.000000 0.000000 1.638490 
# 
# From -- ./inp_files/38376.got.cif
#   From: 2010.03.12/outbox.cif.g09.slc.cpg/sg53_20_cif.got.tgz:38376.got - 2010.04.16 14:36:59.
