data_PCOD8217178
_publ_section_title
;
Structure prediction by ZEFSAII (Michael W. Deem and Ramdas Pophale) SiO2 
 PCOD8217178
Probable space group: P N N A
;
_chemical_formula_sum "Si O2"
_cell_formula_units_Z 52
_cell_length_a 20.431123
_cell_length_b 21.320992
_cell_length_c 5.236920
_cell_angle_alpha 90.000000
_cell_angle_beta 90.000000
_cell_angle_gamma 90.000000
_cell_volume 2281.264200
_symmetry_space_group_name_H-M "P N N A"
_symmetry_group_IT_number 52
_symmetry_cell_setting 'orthorhombic'
loop_
_space_group_symop_operation_xyz
x,y,z
1/2-x,-y,z
x,1/2-y,1/2-z
1/2-x,1/2+y,1/2-z
-x,-y,-z
1/2+x,y,-z
-x,1/2+y,1/2+z
1/2+x,1/2-y,1/2+z
loop_
_atom_site_type_symbol
_atom_site_label
_atom_site_fract_x
_atom_site_fract_y
_atom_site_fract_z
Si Si1 0.954102 0.876304 0.177382
Si Si2 0.346647 0.372848 0.788589
Si Si3 0.750000 0.500000 0.601946
Si Si4 0.609169 0.178357 0.678074
Si Si5 0.777802 0.599149 0.954128
Si Si6 0.369067 0.512027 0.761804
Si Si7 0.907019 0.178593 0.786937
O O1 0.921160 0.834201 0.398454
O O2 0.935897 0.950034 0.204189
O O3 0.031641 0.868111 0.195428
O O4 0.929878 0.857857 0.896723
O O5 0.385908 0.438973 0.801669
O O6 0.363979 0.331577 0.541638
O O7 0.267468 0.384186 0.799000
O O8 0.363292 0.334549 0.041485
O O9 0.729819 0.562938 0.758987
O O10 0.684733 0.481744 0.456506
O O11 0.604104 0.250000 0.750000
O O12 0.686083 0.159558 0.665143
O O13 0.834742 0.547315 0.001729
O O14 0.931469 0.250000 0.750000
#
# Coordination Sequence:
#
# PCOD8217178 Si02
#       7
#     8   8   4   8   8   8   8
#     4  11  25  45  71  99 133 179 237 288 343 401
#     4  12  25  43  72 100 138 183 229 283 347 423
#     4  12  16  40  66  98 148 168 214 266 370 432
#     4  11  23  41  69 101 131 174 231 290 344 403
#     4  11  23  38  68 102 137 177 216 281 361 419
#     4  11  23  39  71 105 133 175 218 293 356 413
#     4  12  28  48  67  93 138 196 238 279 334 403
#
# _framework density 22.794377000000001
#
# number of rings (size 3 to 8) (size 9 to 14) (size 15 to 20)
#    0.000    0.615    4.615    3.692    0.000    1.846 
#    0.000    4.615    0.000    0.000    0.000    0.000 
#    0.000    0.000    0.000    0.000    0.000    0.000 
#
# Total GULP energy -644587.368993 kJ/mol
# GULP energy per Si atom -12395.910942 kJ/mol
# Density = 2.274250 g / cm^3
# Si number density = 22.794377 Si / 1000 Ang^3
#
#
#
# Elastic Constant Matrix: (Units=GPa)
#
#
# Indices 1 2 3 4 5 6 
#
# 1 62.7521 4.2785 21.0622 0.0000 0.0000 0.0000
# 2 4.2785 68.0764 15.6487 0.0000 0.0000 0.0000
# 3 21.0622 15.6487 115.9386 0.0000 0.0000 0.0000
# 4 0.0000 0.0000 0.0000 29.1854 0.0000 0.0000
# 5 0.0000 0.0000 0.0000 0.0000 30.6560 0.0000
# 6 0.0000 0.0000 0.0000 0.0000 0.0000 32.1211
#
#
#
# Elastic Compliance Matrix: (Units=1/GPa)
#
#
# Indices 1 2 3 4 5 6 
#
# 1 0.016980 -0.000370 -0.003035 0.000000 0.000000 0.000000
# 2 -0.000370 0.015168 -0.001980 0.000000 0.000000 0.000000
# 3 -0.003035 -0.001980 0.009444 0.000000 0.000000 0.000000
# 4 0.000000 0.000000 0.000000 0.034264 0.000000 0.000000
# 5 0.000000 0.000000 0.000000 0.000000 0.032620 0.000000
# 6 0.000000 0.000000 0.000000 0.000000 0.000000 0.031132
#
#
# Mechanical properties :
#
#
# Convention : Reuss Voigt Hill
#
# Bulk Modulus (GPa) = 32.44403 36.52732 34.48567
# Shear Modulus (GPa) = 31.12355 32.11099 31.61727
#
# Velocity S-wave (km/s) = 3.69915 3.75737 3.72837
# Velocity P-wave (km/s) = 5.70168 5.90621 5.80484
#
# Compressibility (1/GPa) = 0.03082231
#
# Stress axis : x y z
#
# Youngs Moduli (GPa) = 58.89452 65.92922 105.88918
#
# Poissons Ratio (x) = 0.02436 0.32135
# Poissons Ratio (y) = 0.02176 0.20967
# Poissons Ratio (z) = 0.17873 0.13055
#
# Static dielectric constant tensor:
#      x y z
#    x 3.976470 0.000000 0.000000 
#    y 0.000000 4.592000 0.000000 
#    z 0.000000 0.000000 4.286760 
# 
# 
# High freq. dielectric constant tensor:
#      x y z
#    x 1.884330 0.000000 0.000000 
#    y 0.000000 1.899870 0.000000 
#    z 0.000000 0.000000 1.914040 
# 
# From -- ./inp_files/4457.got.cif
#   From: 2010.06.25/outbox.cif.g09.slc.cpg/sg52_3_cif.got.tgz:4457.got - 2010.06.26 19:32:48.
