data_PCOD8217551
_publ_section_title
;
Structure prediction by ZEFSAII (Michael W. Deem and Ramdas Pophale) SiO2 
 PCOD8217551
Probable space group: P M N A
;
_chemical_formula_sum "Si O2"
_cell_formula_units_Z 40
_cell_length_a 8.752065
_cell_length_b 26.365592
_cell_length_c 9.306933
_cell_angle_alpha 90.000000
_cell_angle_beta 90.000000
_cell_angle_gamma 90.000000
_cell_volume 2147.606200
_symmetry_space_group_name_H-M "P M N A"
_symmetry_group_IT_number 53
_symmetry_cell_setting 'orthorhombic'
loop_
_space_group_symop_operation_xyz
x,y,z
1/2-x,-y,1/2+z
x,-y,-z
1/2-x,y,1/2-z
-x,-y,-z
1/2+x,y,1/2-z
-x,y,z
1/2+x,-y,1/2+z
loop_
_atom_site_type_symbol
_atom_site_label
_atom_site_fract_x
_atom_site_fract_y
_atom_site_fract_z
Si Si1 0.319928 0.452853 0.592956
Si Si2 0.181264 0.254316 0.409261
Si Si3 0.180938 0.356520 0.092949
Si Si4 0.821655 0.155623 0.093683
Si Si5 0.678157 0.955115 0.595368
O O1 0.257036 0.500000 0.500000
O O2 0.250000 0.454042 0.750000
O O3 0.500000 0.456578 0.609687
O O4 0.270332 0.401786 0.511765
O O5 0.250000 0.252159 0.250000
O O6 0.249368 0.305440 0.479720
O O7 0.238817 0.202633 0.489814
O O8 0.000000 0.256841 0.408465
O O9 0.250000 0.366886 0.250000
O O10 0.000000 0.351179 0.108440
O O11 0.750000 0.151365 0.250000
O O12 0.792620 0.100365 0.021007
O O13 0.000000 0.168176 0.105589
O O14 0.750000 0.958384 0.750000
O O15 0.500000 0.964304 0.615674
O O16 0.751002 0.000000 0.500000
#
# Coordination Sequence:
#
# PCOD8217551 Si02
#       5
#     8   8   8   8   8
#     4  10  22  38  56  79 105 134 168 205 245 290
#     4  10  17  26  43  68  97 126 160 200 243 288
#     4  10  19  32  51  76 104 132 164 200 242 291
#     4   9  15  25  42  64  92 123 157 198 243 288
#     4   9  18  31  47  69  96 126 161 201 245 293
#
# _framework density 18.625389999999999
#
# number of rings (size 3 to 8) (size 9 to 14) (size 15 to 20)
#    0.000    2.400    0.000    6.000    0.000    3.200 
#    0.000    0.000    0.000    1.200    0.000    2.800 
#    0.000    0.000    0.000    0.000    0.000    0.000 
#
# Total GULP energy -495642.291137 kJ/mol
# GULP energy per Si atom -12391.057278 kJ/mol
# Density = 1.858300 g / cm^3
# Si number density = 18.625390 Si / 1000 Ang^3
#
#
#
# Elastic Constant Matrix: (Units=GPa)
#
#
# Indices 1 2 3 4 5 6 
#
# 1 91.6693 68.8683 27.4396 0.0000 0.0000 0.0000
# 2 68.8683 219.8304 66.2154 0.0000 0.0000 0.0000
# 3 27.4396 66.2154 69.8002 0.0000 0.0000 0.0000
# 4 0.0000 0.0000 0.0000 19.8150 0.0000 0.0000
# 5 0.0000 0.0000 0.0000 0.0000 20.1476 0.0000
# 6 0.0000 0.0000 0.0000 0.0000 0.0000 35.8075
#
#
#
# Elastic Compliance Matrix: (Units=1/GPa)
#
#
# Indices 1 2 3 4 5 6 
#
# 1 0.014452 -0.003943 -0.001941 0.000000 0.000000 0.000000
# 2 -0.003943 0.007445 -0.005512 0.000000 0.000000 0.000000
# 3 -0.001941 -0.005512 0.020319 0.000000 0.000000 0.000000
# 4 0.000000 0.000000 0.000000 0.050467 0.000000 0.000000
# 5 0.000000 0.000000 0.000000 0.000000 0.049634 0.000000
# 6 0.000000 0.000000 0.000000 0.000000 0.000000 0.027927
#
#
# Mechanical properties :
#
#
# Convention : Reuss Voigt Hill
#
# Bulk Modulus (GPa) = 51.48481 78.48294 64.98387
# Shear Modulus (GPa) = 25.06154 29.73913 27.40034
#
# Velocity S-wave (km/s) = 3.67216 4.00021 3.83969
# Velocity P-wave (km/s) = 6.75885 7.97274 7.39076
#
# Compressibility (1/GPa) = 0.01942321
#
# Stress axis : x y z
#
# Youngs Moduli (GPa) = 69.19500 134.32729 49.21576
#
# Poissons Ratio (x) = 0.52963 0.09552
# Poissons Ratio (y) = 0.27283 0.27129
# Poissons Ratio (z) = 0.13430 0.74043
#
# Static dielectric constant tensor:
#      x y z
#    x 3.438420 0.000000 0.000000 
#    y 0.000000 4.881920 0.000000 
#    z 0.000000 0.000000 2.954090 
# 
# 
# High freq. dielectric constant tensor:
#      x y z
#    x 1.730220 0.000000 0.000000 
#    y 0.000000 1.761640 0.000000 
#    z 0.000000 0.000000 1.655880 
# 
# From -- ./inp_files/6439.got.cif
#   From: 2010.03.12/outbox.cif.g09.slc.cpg/sg53_4_cif.got.tgz:6439.got - 2010.04.16 14:36:59.
