data_PCOD8217631
_publ_section_title
;
Structure prediction by ZEFSAII (Michael W. Deem and Ramdas Pophale) SiO2 
 PCOD8217631
Probable space group: P M N A
;
_chemical_formula_sum "Si O2"
_cell_formula_units_Z 64
_cell_length_a 9.491571
_cell_length_b 10.353731
_cell_length_c 38.180032
_cell_angle_alpha 90.000000
_cell_angle_beta 90.000000
_cell_angle_gamma 90.000000
_cell_volume 3752.072886
_symmetry_space_group_name_H-M "P M N A"
_symmetry_group_IT_number 53
_symmetry_cell_setting 'orthorhombic'
loop_
_space_group_symop_operation_xyz
x,y,z
1/2-x,-y,1/2+z
x,-y,-z
1/2-x,y,1/2-z
-x,-y,-z
1/2+x,y,1/2-z
-x,y,z
1/2+x,-y,1/2+z
loop_
_atom_site_type_symbol
_atom_site_label
_atom_site_fract_x
_atom_site_fract_y
_atom_site_fract_z
Si Si1 0.337454 0.159366 0.536951
Si Si2 0.837923 0.425137 0.716654
Si Si3 0.166822 0.970090 0.356462
Si Si4 0.167541 0.733836 0.403217
Si Si5 0.666933 0.508177 0.858425
Si Si6 0.832911 0.228369 0.393974
Si Si7 0.162544 0.137539 0.042883
Si Si8 0.661600 0.121018 0.782808
O O1 0.500000 0.181079 0.546845
O O2 0.240776 0.257756 0.558870
O O3 0.312147 0.190065 0.496193
O O4 0.292777 0.012198 0.545164
O O5 0.750000 0.475255 0.750000
O O6 0.777295 0.492133 0.681392
O O7 0.819915 0.272923 0.711246
O O8 0.000000 0.462314 0.723319
O O9 0.218565 0.107469 0.370783
O O10 0.000000 0.960056 0.355607
O O11 0.223485 0.856021 0.381097
O O12 0.222902 0.951120 0.317003
O O13 0.222097 0.605500 0.383678
O O14 0.000000 0.733939 0.408355
O O15 0.500000 0.498641 0.856845
O O16 0.718631 0.644062 0.873833
O O17 0.759256 0.222676 0.431669
O O18 0.000000 0.227797 0.399811
O O19 0.000000 0.153836 0.053660
O O20 0.750000 0.070281 0.750000
O O21 0.500000 0.084868 0.775825
#
# Coordination Sequence:
#
# PCOD8217631 Si02
#       8
#     8   8   8   8   8   8   8   8
#     4   9  18  32  50  73  99 127 159 197 243 291
#     4   9  16  29  48  68  92 124 159 194 236 282
#     4   9  16  28  48  71  94 120 155 197 237 278
#     4  10  17  30  51  74  96 123 161 202 239 277
#     4   9  18  32  50  72 101 131 158 197 248 288
#     4  10  19  32  51  74  96 125 165 200 235 286
#     4   9  18  33  50  70 100 131 156 193 248 293
#     4   9  16  28  46  68  94 122 154 194 239 282
#
# _framework density 17.057238000000002
#
# number of rings (size 3 to 8) (size 9 to 14) (size 15 to 20)
#    0.000    2.750    2.500    0.750    0.000    0.500 
#    0.000    5.625    0.000    3.750    0.000    0.000 
#    0.000    0.000    0.000    0.000    0.000    0.000 
#
# Total GULP energy -793528.670651 kJ/mol
# GULP energy per Si atom -12398.885479 kJ/mol
# Density = 1.701841 g / cm^3
# Si number density = 17.057238 Si / 1000 Ang^3
#
#
#
# Elastic Constant Matrix: (Units=GPa)
#
#
# Indices 1 2 3 4 5 6 
#
# 1 43.8723 28.2905 51.8043 0.0000 0.0000 0.0000
# 2 28.2905 98.4562 62.1043 0.0000 0.0000 0.0000
# 3 51.8043 62.1043 149.1940 0.0000 0.0000 0.0000
# 4 0.0000 0.0000 0.0000 27.9461 0.0000 0.0000
# 5 0.0000 0.0000 0.0000 0.0000 32.8504 0.0000
# 6 0.0000 0.0000 0.0000 0.0000 0.0000 12.4168
#
#
#
# Elastic Compliance Matrix: (Units=1/GPa)
#
#
# Indices 1 2 3 4 5 6 
#
# 1 0.039586 -0.003667 -0.012219 0.000000 0.000000 0.000000
# 2 -0.003667 0.014113 -0.004601 0.000000 0.000000 0.000000
# 3 -0.012219 -0.004601 0.012861 0.000000 0.000000 0.000000
# 4 0.000000 0.000000 0.000000 0.035783 0.000000 0.000000
# 5 0.000000 0.000000 0.000000 0.000000 0.030441 0.000000
# 6 0.000000 0.000000 0.000000 0.000000 0.000000 0.080536
#
#
# Mechanical properties :
#
#
# Convention : Reuss Voigt Hill
#
# Bulk Modulus (GPa) = 39.08548 63.99121 51.53835
# Shear Modulus (GPa) = 19.02415 24.59755 21.81085
#
# Velocity S-wave (km/s) = 3.34325 3.80157 3.57975
# Velocity P-wave (km/s) = 6.15363 7.54097 6.88235
#
# Compressibility (1/GPa) = 0.02558495
#
# Stress axis : x y z
#
# Youngs Moduli (GPa) = 25.26130 70.85645 77.75567
#
# Poissons Ratio (x) = 0.25985 0.95009
# Poissons Ratio (y) = 0.09264 0.35778
# Poissons Ratio (z) = 0.30866 0.32604
#
# Static dielectric constant tensor:
#      x y z
#    x 2.894340 0.000000 0.000000 
#    y 0.000000 3.078210 0.000000 
#    z 0.000000 0.000000 3.336910 
# 
# 
# High freq. dielectric constant tensor:
#      x y z
#    x 1.628220 0.000000 0.000000 
#    y 0.000000 1.635150 0.000000 
#    z 0.000000 0.000000 1.671090 
# 
# From -- ./inp_files/38717.got.cif
#   From: 2010.03.12/outbox.cif.g09.slc.cpg/sg53_20_cif.got.tgz:38717.got - 2010.04.16 14:36:59.
