data_PCOD8217498
_publ_section_title
;
Structure prediction by ZEFSAII (Michael W. Deem and Ramdas Pophale) SiO2 
 PCOD8217498
Probable space group: P M N A
;
_chemical_formula_sum "Si O2"
_cell_formula_units_Z 64
_cell_length_a 8.968416
_cell_length_b 20.536844
_cell_length_c 22.140267
_cell_angle_alpha 90.000000
_cell_angle_beta 90.000000
_cell_angle_gamma 90.000000
_cell_volume 4077.859918
_symmetry_space_group_name_H-M "P M N A"
_symmetry_group_IT_number 53
_symmetry_cell_setting 'orthorhombic'
loop_
_space_group_symop_operation_xyz
x,y,z
1/2-x,-y,1/2+z
x,-y,-z
1/2-x,y,1/2-z
-x,-y,-z
1/2+x,y,1/2-z
-x,y,z
1/2+x,-y,1/2+z
loop_
_atom_site_type_symbol
_atom_site_label
_atom_site_fract_x
_atom_site_fract_y
_atom_site_fract_z
Si Si1 0.177885 0.139638 0.314383
Si Si2 0.175884 0.251868 0.110699
Si Si3 0.176449 0.040393 0.413861
Si Si4 0.327310 0.638252 0.461993
Si Si5 0.825924 0.620092 0.586132
Si Si6 0.169710 0.779371 0.027190
Si Si7 0.824204 0.906571 0.459590
Si Si8 0.165550 0.495747 0.927615
O O1 0.250000 0.127731 0.250000
O O2 0.239522 0.205753 0.342715
O O3 0.232374 0.078183 0.354726
O O4 0.000000 0.143918 0.309589
O O5 0.236261 0.324896 0.123369
O O6 0.000000 0.249477 0.122728
O O7 0.217626 0.230795 0.042562
O O8 0.238227 0.076409 0.473637
O O9 0.000000 0.042747 0.417806
O O10 0.228268 0.964430 0.413968
O O11 0.500000 0.633346 0.486128
O O12 0.212067 0.627984 0.516015
O O13 0.302440 0.711396 0.436328
O O14 0.297942 0.580875 0.412478
O O15 0.776271 0.546557 0.605318
O O16 0.000000 0.628680 0.598190
O O17 0.261364 0.836457 0.059901
O O18 0.000000 0.801192 0.030519
O O19 0.000000 0.901037 0.459529
O O20 0.000000 0.513468 0.905222
O O21 0.176068 0.500000 0.000000
#
# Coordination Sequence:
#
# PCOD8217498 Si02
#       8
#     8   8   8   8   8   8   8   8
#     4  11  21  34  49  65  84 109 139 176 216 256
#     4  10  19  31  43  57  79 107 140 173 208 254
#     4   8  16  29  45  62  82 106 137 170 208 256
#     4   8  15  25  34  47  74 108 138 165 201 246
#     4  10  17  23  35  54  74  98 132 175 210 237
#     4   9  16  25  38  59  83 106 135 175 213 245
#     4   9  15  27  45  62  80 108 139 171 208 253
#     4   8  13  23  35  46  67 103 138 166 198 238
#
# _framework density 15.694506000000001
#
# number of rings (size 3 to 8) (size 9 to 14) (size 15 to 20)
#    0.000    2.875    1.250    4.125    0.000    4.250 
#    0.000    2.500    0.000    0.000    0.000    0.000 
#    0.000    0.000    0.000    1.125    0.000   16.125 
#
# Total GULP energy -792863.733561 kJ/mol
# GULP energy per Si atom -12388.495837 kJ/mol
# Density = 1.565878 g / cm^3
# Si number density = 15.694506 Si / 1000 Ang^3
#
#
#
# Elastic Constant Matrix: (Units=GPa)
#
#
# Indices 1 2 3 4 5 6 
#
# 1 63.7112 45.8603 21.9967 0.0000 0.0000 0.0000
# 2 45.8603 166.6887 40.6849 0.0000 0.0000 0.0000
# 3 21.9967 40.6849 41.6203 0.0000 0.0000 0.0000
# 4 0.0000 0.0000 0.0000 9.5787 0.0000 0.0000
# 5 0.0000 0.0000 0.0000 0.0000 10.2462 0.0000
# 6 0.0000 0.0000 0.0000 0.0000 0.0000 28.7690
#
#
#
# Elastic Compliance Matrix: (Units=1/GPa)
#
#
# Indices 1 2 3 4 5 6 
#
# 1 0.021092 -0.004048 -0.007190 0.000000 0.000000 0.000000
# 2 -0.004048 0.008656 -0.006322 0.000000 0.000000 0.000000
# 3 -0.007190 -0.006322 0.034007 0.000000 0.000000 0.000000
# 4 0.000000 0.000000 0.000000 0.104399 0.000000 0.000000
# 5 0.000000 0.000000 0.000000 0.000000 0.097597 0.000000
# 6 0.000000 0.000000 0.000000 0.000000 0.000000 0.034760
#
#
# Mechanical properties :
#
#
# Convention : Reuss Voigt Hill
#
# Bulk Modulus (GPa) = 34.92333 54.34490 44.63411
# Shear Modulus (GPa) = 14.48535 20.61731 17.55133
#
# Velocity S-wave (km/s) = 3.04132 3.62838 3.34774
# Velocity P-wave (km/s) = 5.88499 7.22879 6.59122
#
# Compressibility (1/GPa) = 0.02863416
#
# Stress axis : x y z
#
# Youngs Moduli (GPa) = 47.41095 115.52716 29.40582
#
# Poissons Ratio (x) = 0.46765 0.21144
# Poissons Ratio (y) = 0.19192 0.18590
# Poissons Ratio (z) = 0.34090 0.73037
#
# Static dielectric constant tensor:
#      x y z
#    x 2.863890 0.000000 0.000000 
#    y 0.000000 3.617950 0.000000 
#    z 0.000000 0.000000 2.461160 
# 
# 
# High freq. dielectric constant tensor:
#      x y z
#    x 1.597050 0.000000 0.000000 
#    y 0.000000 1.629500 0.000000 
#    z 0.000000 0.000000 1.513630 
# 
# From -- ./inp_files/31373.got.cif
#   From: 2010.03.12/outbox.cif.g09.slc.cpg/sg53_16_cif.got.tgz:31373.got - 2010.04.16 14:36:59.
