data_PCOD8217544
_publ_section_title
;
Structure prediction by ZEFSAII (Michael W. Deem and Ramdas Pophale) SiO2 
 PCOD8217544
Probable space group: P M N A
;
_chemical_formula_sum "Si O2"
_cell_formula_units_Z 56
_cell_length_a 8.761595
_cell_length_b 20.745891
_cell_length_c 16.909210
_cell_angle_alpha 90.000000
_cell_angle_beta 90.000000
_cell_angle_gamma 90.000000
_cell_volume 3073.537978
_symmetry_space_group_name_H-M "P M N A"
_symmetry_group_IT_number 53
_symmetry_cell_setting 'orthorhombic'
loop_
_space_group_symop_operation_xyz
x,y,z
1/2-x,-y,1/2+z
x,-y,-z
1/2-x,y,1/2-z
-x,-y,-z
1/2+x,y,1/2-z
-x,y,z
1/2+x,-y,1/2+z
loop_
_atom_site_type_symbol
_atom_site_label
_atom_site_fract_x
_atom_site_fract_y
_atom_site_fract_z
Si Si1 0.820402 0.577438 0.834753
Si Si2 0.821807 0.084278 0.954519
Si Si3 0.324996 0.781949 0.511683
Si Si4 0.179253 0.971289 0.610952
Si Si5 0.831742 0.464771 0.583026
Si Si6 0.320596 0.648684 0.982198
Si Si7 0.678496 0.850801 0.673951
O O1 0.750000 0.595807 0.750000
O O2 0.778398 0.503515 0.857739
O O3 0.761860 0.627235 0.901249
O O4 0.000000 0.584125 0.828578
O O5 0.762326 0.041976 0.879855
O O6 0.000000 0.071307 0.972432
O O7 0.796020 0.161562 0.946272
O O8 0.720399 0.059161 0.026597
O O9 0.500000 0.758986 0.510021
O O10 0.218007 0.721568 0.494086
O O11 0.280355 0.809405 0.597365
O O12 0.000000 0.980453 0.621248
O O13 0.243649 0.921478 0.674849
O O14 0.844762 0.500000 0.500000
O O15 0.769045 0.393799 0.558999
O O16 0.000000 0.461214 0.622790
O O17 0.500000 0.639935 0.967991
O O18 0.750000 0.814136 0.750000
O O19 0.500000 0.860044 0.682634
#
# Coordination Sequence:
#
# PCOD8217544 Si02
#       7
#     8   8   8   8   8   8   8
#     4  11  21  33  51  73  98 127 161 200 239 283
#     4   9  16  28  44  63  88 115 145 187 230 265
#     4   9  19  32  46  66  94 126 159 192 228 274
#     4  10  17  26  43  65  86 112 148 189 229 271
#     4   8  16  32  50  70  96 124 156 196 240 281
#     4  10  20  33  50  71  99 131 161 197 239 286
#     4  10  20  33  46  63  90 124 158 194 234 277
#
# _framework density 18.220044000000001
#
# number of rings (size 3 to 8) (size 9 to 14) (size 15 to 20)
#    0.000    2.429    0.000    6.429    0.000    7.143 
#    0.000    1.429    0.000    0.000    0.000    1.000 
#    0.000    2.286    0.000    0.000    0.000    0.000 
#
# Total GULP energy -693896.429222 kJ/mol
# GULP energy per Si atom -12391.007665 kJ/mol
# Density = 1.817857 g / cm^3
# Si number density = 18.220044 Si / 1000 Ang^3
#
#
#
# Elastic Constant Matrix: (Units=GPa)
#
#
# Indices 1 2 3 4 5 6 
#
# 1 88.0345 37.1833 5.9674 0.0000 0.0000 0.0000
# 2 37.1833 117.4420 7.6949 0.0000 0.0000 0.0000
# 3 5.9674 7.6949 8.4558 0.0000 0.0000 0.0000
# 4 0.0000 0.0000 0.0000 9.6307 0.0000 0.0000
# 5 0.0000 0.0000 0.0000 0.0000 22.0728 0.0000
# 6 0.0000 0.0000 0.0000 0.0000 0.0000 29.6606
#
#
#
# Elastic Compliance Matrix: (Units=1/GPa)
#
#
# Indices 1 2 3 4 5 6 
#
# 1 0.013388 -0.003849 -0.005945 0.000000 0.000000 0.000000
# 2 -0.003849 0.010161 -0.006531 0.000000 0.000000 0.000000
# 3 -0.005945 -0.006531 0.128401 0.000000 0.000000 0.000000
# 4 0.000000 0.000000 0.000000 0.103834 0.000000 0.000000
# 5 0.000000 0.000000 0.000000 0.000000 0.045305 0.000000
# 6 0.000000 0.000000 0.000000 0.000000 0.000000 0.033715
#
#
# Mechanical properties :
#
#
# Convention : Reuss Voigt Hill
#
# Bulk Modulus (GPa) = 8.38225 35.06929 21.72577
# Shear Modulus (GPa) = 12.27836 23.14527 17.71181
#
# Velocity S-wave (km/s) = 2.59876 3.56802 3.12124
# Velocity P-wave (km/s) = 3.68989 6.02194 4.99395
#
# Compressibility (1/GPa) = 0.11929975
#
# Stress axis : x y z
#
# Youngs Moduli (GPa) = 74.69385 98.41123 7.78813
#
# Poissons Ratio (x) = 0.37881 0.04630
# Poissons Ratio (y) = 0.28751 0.05086
# Poissons Ratio (z) = 0.44407 0.64269
#
# Static dielectric constant tensor:
#      x y z
#    x 3.335980 0.000000 0.000000 
#    y 0.000000 3.862910 0.000000 
#    z 0.000000 0.000000 3.249240 
# 
# 
# High freq. dielectric constant tensor:
#      x y z
#    x 1.714010 0.000000 0.000000 
#    y 0.000000 1.705340 0.000000 
#    z 0.000000 0.000000 1.658600 
# 
# From -- ./inp_files/31057.got.cif
#   From: 2010.03.12/outbox.cif.g09.slc.cpg/sg53_16_cif.got.tgz:31057.got - 2010.04.16 14:36:59.
