data_PCOD8217149
_publ_section_title
;
Structure prediction by ZEFSAII (Michael W. Deem and Ramdas Pophale) SiO2 
 PCOD8217149
Probable space group: P N N A
;
_chemical_formula_sum "Si O2"
_cell_formula_units_Z 48
_cell_length_a 8.732261
_cell_length_b 27.444009
_cell_length_c 9.361851
_cell_angle_alpha 90.000000
_cell_angle_beta 90.000000
_cell_angle_gamma 90.000000
_cell_volume 2243.551204
_symmetry_space_group_name_H-M "P N N A"
_symmetry_group_IT_number 52
_symmetry_cell_setting 'orthorhombic'
loop_
_space_group_symop_operation_xyz
x,y,z
1/2-x,-y,z
x,1/2-y,1/2-z
1/2-x,1/2+y,1/2-z
-x,-y,-z
1/2+x,y,-z
-x,1/2+y,1/2+z
1/2+x,1/2-y,1/2+z
loop_
_atom_site_type_symbol
_atom_site_label
_atom_site_fract_x
_atom_site_fract_y
_atom_site_fract_z
Si Si1 0.062374 0.609365 0.632878
Si Si2 0.023880 0.693023 0.415538
Si Si3 0.247205 0.865230 0.594193
Si Si4 0.248536 0.443038 0.407567
Si Si5 0.226783 0.754160 0.599183
Si Si6 0.423953 0.384922 0.188336
O O1 0.004925 0.656750 0.548490
O O2 0.919546 0.572801 0.644304
O O3 0.115010 0.625906 0.789443
O O4 0.206434 0.583908 0.554911
O O5 0.860977 0.714943 0.374969
O O6 0.092778 0.665387 0.278070
O O7 0.129649 0.738247 0.461920
O O8 0.285701 0.808426 0.571203
O O9 0.401809 0.893071 0.638362
O O10 0.190011 0.885846 0.444435
O O11 0.250000 0.500000 0.435566
O O12 0.375938 0.429981 0.288666
O O13 0.133224 0.750000 0.750000
#
# Coordination Sequence:
#
# PCOD8217149 Si02
#       6
#     8   8   8   8   8   8
#     4  11  22  42  68  94 130 164 210 265 326 375
#     4  11  22  42  61  90 128 176 212 262 302 371
#     4  12  24  42  63  97 133 174 212 266 317 373
#     4  11  24  44  70  98 122 163 213 264 325 400
#     4  12  23  39  61  94 130 168 228 255 299 368
#     4  11  24  43  64  91 133 169 212 264 329 377
#
# _framework density 21.394653000000002
#
# number of rings (size 3 to 8) (size 9 to 14) (size 15 to 20)
#    0.000    0.667    3.333    6.500    0.000    0.000 
#    3.000    4.167    0.000    0.000    0.000    0.000 
#    0.000    0.000    0.000    0.000    0.000    0.000 
#
# Total GULP energy -595352.939935 kJ/mol
# GULP energy per Si atom -12403.186249 kJ/mol
# Density = 2.134596 g / cm^3
# Si number density = 21.394653 Si / 1000 Ang^3
#
#
#
# Elastic Constant Matrix: (Units=GPa)
#
#
# Indices 1 2 3 4 5 6 
#
# 1 86.2854 8.3175 22.6486 0.0000 0.0000 0.0000
# 2 8.3175 80.9944 12.2516 0.0000 0.0000 0.0000
# 3 22.6486 12.2516 108.4886 0.0000 0.0000 0.0000
# 4 0.0000 0.0000 0.0000 15.9667 0.0000 0.0000
# 5 0.0000 0.0000 0.0000 0.0000 40.4979 0.0000
# 6 0.0000 0.0000 0.0000 0.0000 0.0000 22.2435
#
#
#
# Elastic Compliance Matrix: (Units=1/GPa)
#
#
# Indices 1 2 3 4 5 6 
#
# 1 0.012324 -0.000892 -0.002472 0.000000 0.000000 0.000000
# 2 -0.000892 0.012626 -0.001240 0.000000 0.000000 0.000000
# 3 -0.002472 -0.001240 0.009874 0.000000 0.000000 0.000000
# 4 0.000000 0.000000 0.000000 0.062630 0.000000 0.000000
# 5 0.000000 0.000000 0.000000 0.000000 0.024693 0.000000
# 6 0.000000 0.000000 0.000000 0.000000 0.000000 0.044957
#
#
# Mechanical properties :
#
#
# Convention : Reuss Voigt Hill
#
# Bulk Modulus (GPa) = 39.03724 40.24487 39.64105
# Shear Modulus (GPa) = 27.04904 31.24500 29.14702
#
# Velocity S-wave (km/s) = 3.55954 3.82568 3.69501
# Velocity P-wave (km/s) = 5.93124 6.19403 6.06406
#
# Compressibility (1/GPa) = 0.02561657
#
# Stress axis : x y z
#
# Youngs Moduli (GPa) = 81.14047 79.20410 101.27959
#
# Poissons Ratio (x) = 0.07062 0.25038
# Poissons Ratio (y) = 0.07235 0.12555
# Poissons Ratio (z) = 0.20059 0.09819
#
# Static dielectric constant tensor:
#      x y z
#    x 3.903130 0.000000 0.000000 
#    y 0.000000 3.685890 0.000000 
#    z 0.000000 0.000000 4.034350 
# 
# 
# High freq. dielectric constant tensor:
#      x y z
#    x 1.837690 0.000000 0.000000 
#    y 0.000000 1.822290 0.000000 
#    z 0.000000 0.000000 1.852000 
# 
# From -- ./inp_files/7708.got.cif
#   From: 2010.06.25/outbox.cif.g09.slc.cpg/sg52_4_cif.got.tgz:7708.got - 2010.06.26 19:32:48.
