data_PCOD8217838
_publ_section_title
;
Structure prediction by ZEFSAII (Michael W. Deem and Ramdas Pophale) SiO2 
 PCOD8217838
Probable space group: P M N A
;
_chemical_formula_sum "Si O2"
_cell_formula_units_Z 64
_cell_length_a 9.202829
_cell_length_b 22.766653
_cell_length_c 15.312081
_cell_angle_alpha 90.000000
_cell_angle_beta 90.000000
_cell_angle_gamma 90.000000
_cell_volume 3208.150684
_symmetry_space_group_name_H-M "P M N A"
_symmetry_group_IT_number 53
_symmetry_cell_setting 'orthorhombic'
loop_
_space_group_symop_operation_xyz
x,y,z
1/2-x,-y,1/2+z
x,-y,-z
1/2-x,y,1/2-z
-x,-y,-z
1/2+x,y,1/2-z
-x,y,z
1/2+x,-y,1/2+z
loop_
_atom_site_type_symbol
_atom_site_label
_atom_site_fract_x
_atom_site_fract_y
_atom_site_fract_z
Si Si1 0.338194 0.388742 0.609217
Si Si2 0.671240 0.983278 0.600154
Si Si3 0.655234 0.565479 0.968034
Si Si4 0.166189 0.738979 0.164839
Si Si5 0.666400 0.809427 0.025612
Si Si6 0.339219 0.517853 0.671981
Si Si7 0.174273 0.135817 0.342007
Si Si8 0.330190 0.906352 0.167679
O O1 0.500000 0.390580 0.566684
O O2 0.208735 0.387503 0.539069
O O3 0.323263 0.331656 0.669158
O O4 0.314429 0.448312 0.663133
O O5 0.500000 0.976798 0.620991
O O6 0.754984 0.924581 0.626807
O O7 0.698032 0.000000 0.500000
O O8 0.743368 0.033110 0.658788
O O9 0.500000 0.588486 0.930158
O O10 0.791616 0.559897 0.905564
O O11 0.626297 0.500000 0.000000
O O12 0.250000 0.763682 0.250000
O O13 0.233244 0.760686 0.072605
O O14 0.000000 0.760638 0.170495
O O15 0.500000 0.788702 0.034163
O O16 0.690607 0.869608 0.079035
O O17 0.705848 0.818597 0.922631
O O18 0.250000 0.543335 0.750000
O O19 0.500000 0.533780 0.694378
O O20 0.250000 0.156387 0.250000
O O21 0.000000 0.129058 0.328726
O O22 0.250000 0.874235 0.250000
O O23 0.500000 0.917038 0.187455
#
# Coordination Sequence:
#
# PCOD8217838 Si02
#       8
#     8   8   8   8   8   8   8   8
#     4   9  19  34  51  75 106 143 181 222 272 324
#     4  11  22  36  57  85 115 148 185 225 272 328
#     4   9  17  29  47  72 101 136 177 219 266 320
#     4  11  23  38  59  85 115 148 187 233 283 339
#     4  10  23  41  60  82 111 147 186 232 283 333
#     4  10  18  29  47  72 107 144 180 221 266 320
#     4  11  23  41  63  87 114 146 186 231 280 334
#     4  11  22  37  56  80 112 149 185 223 273 330
#
# _framework density 19.949187999999999
#
# number of rings (size 3 to 8) (size 9 to 14) (size 15 to 20)
#    0.000    1.750    1.250    3.375    0.000    6.500 
#    0.000    0.000    0.000    0.750    0.000    1.750 
#    0.000    0.000    0.000    0.000    0.000    0.000 
#
# Total GULP energy -792870.317891 kJ/mol
# GULP energy per Si atom -12388.598717 kJ/mol
# Density = 1.990378 g / cm^3
# Si number density = 19.949188 Si / 1000 Ang^3
#
#
#
# Elastic Constant Matrix: (Units=GPa)
#
#
# Indices 1 2 3 4 5 6 
#
# 1 148.6223 25.4949 70.2109 0.0000 0.0000 0.0000
# 2 25.4949 21.0155 16.7844 0.0000 0.0000 0.0000
# 3 70.2109 16.7844 123.8032 0.0000 0.0000 0.0000
# 4 0.0000 0.0000 0.0000 14.1572 0.0000 0.0000
# 5 0.0000 0.0000 0.0000 0.0000 40.2004 0.0000
# 6 0.0000 0.0000 0.0000 0.0000 0.0000 33.4615
#
#
#
# Elastic Compliance Matrix: (Units=1/GPa)
#
#
# Indices 1 2 3 4 5 6 
#
# 1 0.010506 -0.008956 -0.004744 0.000000 0.000000 0.000000
# 2 -0.008956 0.060997 -0.003190 0.000000 0.000000 0.000000
# 3 -0.004744 -0.003190 0.011200 0.000000 0.000000 0.000000
# 4 0.000000 0.000000 0.000000 0.070635 0.000000 0.000000
# 5 0.000000 0.000000 0.000000 0.000000 0.024875 0.000000
# 6 0.000000 0.000000 0.000000 0.000000 0.000000 0.029885
#
#
# Mechanical properties :
#
#
# Convention : Reuss Voigt Hill
#
# Bulk Modulus (GPa) = 20.44052 57.60237 39.02145
# Shear Modulus (GPa) = 19.36574 29.62721 24.49648
#
# Velocity S-wave (km/s) = 3.11907 3.85792 3.50800
# Velocity P-wave (km/s) = 4.82079 6.98441 6.00092
#
# Compressibility (1/GPa) = 0.04892243
#
# Stress axis : x y z
#
# Youngs Moduli (GPa) = 95.18452 16.39412 89.28456
#
# Poissons Ratio (x) = 0.14683 0.42355
# Poissons Ratio (y) = 0.85252 0.28484
# Poissons Ratio (z) = 0.45154 0.05230
#
# Static dielectric constant tensor:
#      x y z
#    x 3.638500 0.000000 0.000000 
#    y 0.000000 3.274000 0.000000 
#    z 0.000000 0.000000 3.650490 
# 
# 
# High freq. dielectric constant tensor:
#      x y z
#    x 1.798840 0.000000 0.000000 
#    y 0.000000 1.743130 0.000000 
#    z 0.000000 0.000000 1.775960 
# 
# From -- ./inp_files/21007.got.cif
#   From: 2010.03.12/outbox.cif.g09.slc.cpg/sg53_11_cif.got.tgz:21007.got - 2010.04.16 14:36:59.
