data_PCOD8217752
_publ_section_title
;
Structure prediction by ZEFSAII (Michael W. Deem and Ramdas Pophale) SiO2 
 PCOD8217752
Probable space group: P M N A
;
_chemical_formula_sum "Si O2"
_cell_formula_units_Z 64
_cell_length_a 9.506156
_cell_length_b 18.884932
_cell_length_c 21.366297
_cell_angle_alpha 90.000000
_cell_angle_beta 90.000000
_cell_angle_gamma 90.000000
_cell_volume 3835.744079
_symmetry_space_group_name_H-M "P M N A"
_symmetry_group_IT_number 53
_symmetry_cell_setting 'orthorhombic'
loop_
_space_group_symop_operation_xyz
x,y,z
1/2-x,-y,1/2+z
x,-y,-z
1/2-x,y,1/2-z
-x,-y,-z
1/2+x,y,1/2-z
-x,y,z
1/2+x,-y,1/2+z
loop_
_atom_site_type_symbol
_atom_site_label
_atom_site_fract_x
_atom_site_fract_y
_atom_site_fract_z
Si Si1 0.662888 0.667800 0.002783
Si Si2 0.655668 0.295016 0.308247
Si Si3 0.335640 0.950296 0.440461
Si Si4 0.833816 0.169549 0.506090
Si Si5 0.838673 0.837588 0.885084
Si Si6 0.839766 0.587822 0.900256
Si Si7 0.838779 0.027368 0.188864
Si Si8 0.346055 0.467352 0.931004
O O1 0.500000 0.662213 0.981106
O O2 0.701535 0.748170 0.020722
O O3 0.759815 0.639666 0.947351
O O4 0.688455 0.616607 0.063277
O O5 0.750000 0.280797 0.250000
O O6 0.500000 0.277584 0.284955
O O7 0.695639 0.241917 0.364060
O O8 0.667547 0.375278 0.332626
O O9 0.500000 0.930601 0.442474
O O10 0.242098 0.878855 0.442072
O O11 0.295125 0.986141 0.374452
O O12 0.297783 0.000000 0.500000
O O13 0.769054 0.144963 0.440153
O O14 0.000000 0.155473 0.505848
O O15 0.000000 0.846258 0.909603
O O16 0.813737 0.889872 0.826515
O O17 0.769817 0.510332 0.891555
O O18 0.000000 0.578462 0.923403
O O19 0.750000 0.004706 0.250000
O O20 0.000000 0.011712 0.205835
O O21 0.500000 0.478066 0.900116
O O22 0.345160 0.500000 0.000000
#
# Coordination Sequence:
#
# PCOD8217752 Si02
#       8
#     8   8   8   8   8   8   8   8
#     4   9  18  31  45  66  96 127 157 191 241 295
#     4  10  21  32  45  65  94 131 170 209 245 290
#     4  10  20  37  56  73 102 140 171 203 256 318
#     4  11  21  31  50  78 103 131 169 213 252 294
#     4  10  19  35  51  68  99 138 172 203 249 302
#     4  10  18  28  44  67  92 121 160 203 241 280
#     4  10  21  36  56  76  99 134 172 212 255 304
#     4   8  15  28  44  62  89 123 153 184 229 286
#
# _framework density 16.685158999999999
#
# number of rings (size 3 to 8) (size 9 to 14) (size 15 to 20)
#    0.000    2.250    2.500    1.875    0.000    5.500 
#    0.000    0.000    0.000    0.000    0.000    0.875 
#    0.000    0.000    0.000    0.000    0.000    0.000 
#
# Total GULP energy -793252.786251 kJ/mol
# GULP energy per Si atom -12394.574785 kJ/mol
# Density = 1.664718 g / cm^3
# Si number density = 16.685159 Si / 1000 Ang^3
#
#
#
# Elastic Constant Matrix: (Units=GPa)
#
#
# Indices 1 2 3 4 5 6 
#
# 1 89.7509 54.3673 42.4996 0.0000 0.0000 0.0000
# 2 54.3673 99.1322 36.1379 0.0000 0.0000 0.0000
# 3 42.4996 36.1379 71.6771 0.0000 0.0000 0.0000
# 4 0.0000 0.0000 0.0000 23.1830 0.0000 0.0000
# 5 0.0000 0.0000 0.0000 0.0000 24.3736 0.0000
# 6 0.0000 0.0000 0.0000 0.0000 0.0000 32.0552
#
#
#
# Elastic Compliance Matrix: (Units=1/GPa)
#
#
# Indices 1 2 3 4 5 6 
#
# 1 0.019554 -0.007960 -0.007580 0.000000 0.000000 0.000000
# 2 -0.007960 0.015600 -0.003145 0.000000 0.000000 0.000000
# 3 -0.007580 -0.003145 0.020032 0.000000 0.000000 0.000000
# 4 0.000000 0.000000 0.000000 0.043135 0.000000 0.000000
# 5 0.000000 0.000000 0.000000 0.000000 0.041028 0.000000
# 6 0.000000 0.000000 0.000000 0.000000 0.000000 0.031196
#
#
# Mechanical properties :
#
#
# Convention : Reuss Voigt Hill
#
# Bulk Modulus (GPa) = 56.13785 58.50773 57.32279
# Shear Modulus (GPa) = 23.38040 24.42604 23.90322
#
# Velocity S-wave (km/s) = 3.74741 3.83030 3.78908
# Velocity P-wave (km/s) = 7.24172 7.39618 7.31936
#
# Compressibility (1/GPa) = 0.01781329
#
# Stress axis : x y z
#
# Youngs Moduli (GPa) = 51.14148 64.10343 49.92052
#
# Poissons Ratio (x) = 0.51029 0.37842
# Poissons Ratio (y) = 0.40711 0.15700
# Poissons Ratio (z) = 0.38768 0.20161
#
# Static dielectric constant tensor:
#      x y z
#    x 3.217250 0.000000 0.000000 
#    y 0.000000 3.433030 0.000000 
#    z 0.000000 0.000000 2.737930 
# 
# 
# High freq. dielectric constant tensor:
#      x y z
#    x 1.649680 0.000000 0.000000 
#    y 0.000000 1.646930 0.000000 
#    z 0.000000 0.000000 1.596680 
# 
# From -- ./inp_files/34460.got.cif
#   From: 2010.03.12/outbox.cif.g09.slc.cpg/sg53_18_cif.got.tgz:34460.got - 2010.04.16 14:36:59.
