data_PCOD8217405
_publ_section_title
;
Structure prediction by ZEFSAII (Michael W. Deem and Ramdas Pophale) SiO2 
 PCOD8217405
Probable space group: P N N A
;
_chemical_formula_sum "Si O2"
_cell_formula_units_Z 24
_cell_length_a 10.579771
_cell_length_b 5.040187
_cell_length_c 18.302412
_cell_angle_alpha 90.000000
_cell_angle_beta 90.000000
_cell_angle_gamma 90.000000
_cell_volume 975.958261
_symmetry_space_group_name_H-M "P N N A"
_symmetry_group_IT_number 52
_symmetry_cell_setting 'orthorhombic'
loop_
_space_group_symop_operation_xyz
x,y,z
1/2-x,-y,z
x,1/2-y,1/2-z
1/2-x,1/2+y,1/2-z
-x,-y,-z
1/2+x,y,-z
-x,1/2+y,1/2+z
1/2+x,1/2-y,1/2+z
loop_
_atom_site_type_symbol
_atom_site_label
_atom_site_fract_x
_atom_site_fract_y
_atom_site_fract_z
Si Si1 0.112247 0.115075 0.048517
Si Si2 0.250000 0.500000 0.967774
Si Si3 0.005379 0.991966 0.202322
Si Si4 0.750000 0.000000 0.128694
O O1 0.250000 0.000000 0.026553
O O2 0.131115 0.420571 0.021076
O O3 0.093198 0.067233 0.133914
O O4 0.000000 0.000000 0.000000
O O5 0.296637 0.255769 0.917222
O O6 0.064422 0.750000 0.250000
O O7 0.867007 0.900323 0.176835
O O8 0.993277 0.250000 0.250000
#
# Coordination Sequence:
#
# PCOD8217405 Si02
#       4
#     8   4   8   4
#     4  12  28  50  82 116 157 208 271 338 405 489
#     4  12  24  47  84 115 154 200 280 334 404 463
#     4  12  28  47  75 112 164 211 263 325 412 488
#     4  12  24  47  78 115 158 206 268 338 398 485
#
# _framework density 24.591217
#
# number of rings (size 3 to 8) (size 9 to 14) (size 15 to 20)
#    0.000    0.000    5.000    3.000    4.667    4.000 
#    0.000    0.000    0.000    0.000    0.000    0.000 
#    0.000    0.000    0.000    0.000    0.000    0.000 
#
# Total GULP energy -297403.631088 kJ/mol
# GULP energy per Si atom -12391.817962 kJ/mol
# Density = 2.453525 g / cm^3
# Si number density = 24.591217 Si / 1000 Ang^3
#
#
#
# Elastic Constant Matrix: (Units=GPa)
#
#
# Indices 1 2 3 4 5 6 
#
# 1 136.1323 42.7234 53.0098 0.0000 0.0000 0.0000
# 2 42.7234 164.3282 82.9842 0.0000 0.0000 0.0000
# 3 53.0098 82.9842 183.2807 0.0000 0.0000 0.0000
# 4 0.0000 0.0000 0.0000 56.5200 0.0000 0.0000
# 5 0.0000 0.0000 0.0000 0.0000 13.9895 0.0000
# 6 0.0000 0.0000 0.0000 0.0000 0.0000 11.6856
#
#
#
# Elastic Compliance Matrix: (Units=1/GPa)
#
#
# Indices 1 2 3 4 5 6 
#
# 1 0.008472 -0.001251 -0.001884 0.000000 0.000000 0.000000
# 2 -0.001251 0.008074 -0.003294 0.000000 0.000000 0.000000
# 3 -0.001884 -0.003294 0.007492 0.000000 0.000000 0.000000
# 4 0.000000 0.000000 0.000000 0.017693 0.000000 0.000000
# 5 0.000000 0.000000 0.000000 0.000000 0.071482 0.000000
# 6 0.000000 0.000000 0.000000 0.000000 0.000000 0.085576
#
#
# Mechanical properties :
#
#
# Convention : Reuss Voigt Hill
#
# Bulk Modulus (GPa) = 89.44073 93.46400 91.45236
# Shear Modulus (GPa) = 23.21547 36.77392 29.99469
#
# Velocity S-wave (km/s) = 3.07588 3.87125 3.49626
# Velocity P-wave (km/s) = 7.00462 7.62048 7.31903
#
# Compressibility (1/GPa) = 0.01118059
#
# Stress axis : x y z
#
# Youngs Moduli (GPa) = 118.03507 123.85374 133.47078
#
# Poissons Ratio (x) = 0.15498 0.25143
# Poissons Ratio (y) = 0.14770 0.43962
# Poissons Ratio (z) = 0.22235 0.40795
#
# Static dielectric constant tensor:
#      x y z
#    x 5.006510 0.000000 0.000000 
#    y 0.000000 4.909340 0.000000 
#    z 0.000000 0.000000 10.812950 
# 
# 
# High freq. dielectric constant tensor:
#      x y z
#    x 1.971050 0.000000 0.000000 
#    y 0.000000 1.991290 0.000000 
#    z 0.000000 0.000000 1.999580 
# 
# From -- ./inp_files/31748.got.cif
#   From: 2010.06.25/outbox.cif.g09.slc.cpg/sg52_16_cif.got.tgz:31748.got - 2010.06.26 19:32:48.
