data_PCOD8217304
_publ_section_title
;
Structure prediction by ZEFSAII (Michael W. Deem and Ramdas Pophale) SiO2 
 PCOD8217304
Probable space group: P N N A
;
_chemical_formula_sum "Si O2"
_cell_formula_units_Z 40
_cell_length_a 9.547096
_cell_length_b 10.911893
_cell_length_c 16.240061
_cell_angle_alpha 90.000000
_cell_angle_beta 90.000000
_cell_angle_gamma 90.000000
_cell_volume 1691.839049
_symmetry_space_group_name_H-M "P N N A"
_symmetry_group_IT_number 52
_symmetry_cell_setting 'orthorhombic'
loop_
_space_group_symop_operation_xyz
x,y,z
1/2-x,-y,z
x,1/2-y,1/2-z
1/2-x,1/2+y,1/2-z
-x,-y,-z
1/2+x,y,-z
-x,1/2+y,1/2+z
1/2+x,1/2-y,1/2+z
loop_
_atom_site_type_symbol
_atom_site_label
_atom_site_fract_x
_atom_site_fract_y
_atom_site_fract_z
Si Si1 0.883426 0.164721 0.175871
Si Si2 0.446484 0.729715 0.483544
Si Si3 0.818710 0.121422 0.553914
Si Si4 0.079776 0.386846 0.651562
Si Si5 0.682078 0.623471 0.757367
O O1 0.939818 0.250000 0.250000
O O2 0.719252 0.196219 0.162939
O O3 0.978696 0.183137 0.097237
O O4 0.896645 0.020220 0.191343
O O5 0.532372 0.849641 0.512819
O O6 0.287512 0.765409 0.460667
O O7 0.451235 0.622877 0.553332
O O8 0.853922 0.093409 0.648866
O O9 0.750000 0.000000 0.513966
O O10 0.949892 0.333768 0.701913
O O11 0.750000 0.500000 0.717875
O O12 0.776191 0.750000 0.750000
#
# Coordination Sequence:
#
# PCOD8217304 Si02
#       5
#     8   8   8   8   8
#     4  11  27  46  73 109 143 194 252 306 374 449
#     4  12  24  49  74 104 152 189 251 302 378 442
#     4  11  26  44  74 107 146 192 248 302 373 444
#     4  11  25  48  74 104 148 197 243 309 374 447
#     4  11  25  44  74 105 145 192 247 304 375 442
#
# _framework density 23.642910000000001
#
# number of rings (size 3 to 8) (size 9 to 14) (size 15 to 20)
#    0.000    0.800    4.000    1.800    8.400    0.000 
#    7.200    0.000    0.000    0.000    0.000    0.000 
#    0.000    0.000    0.000    0.000    0.000    0.000 
#
# Total GULP energy -495704.608702 kJ/mol
# GULP energy per Si atom -12392.615218 kJ/mol
# Density = 2.358910 g / cm^3
# Si number density = 23.642910 Si / 1000 Ang^3
#
#
#
# Elastic Constant Matrix: (Units=GPa)
#
#
# Indices 1 2 3 4 5 6 
#
# 1 100.7322 8.1395 37.7241 0.0000 0.0000 0.0000
# 2 8.1395 120.4730 23.7649 0.0000 0.0000 0.0000
# 3 37.7241 23.7649 125.9490 0.0000 0.0000 0.0000
# 4 0.0000 0.0000 0.0000 35.3511 0.0000 0.0000
# 5 0.0000 0.0000 0.0000 0.0000 29.5799 0.0000
# 6 0.0000 0.0000 0.0000 0.0000 0.0000 28.5674
#
#
#
# Elastic Compliance Matrix: (Units=1/GPa)
#
#
# Indices 1 2 3 4 5 6 
#
# 1 0.011183 -0.000098 -0.003331 0.000000 0.000000 0.000000
# 2 -0.000098 0.008622 -0.001597 0.000000 0.000000 0.000000
# 3 -0.003331 -0.001597 0.009239 0.000000 0.000000 0.000000
# 4 0.000000 0.000000 0.000000 0.028288 0.000000 0.000000
# 5 0.000000 0.000000 0.000000 0.000000 0.033807 0.000000
# 6 0.000000 0.000000 0.000000 0.000000 0.000000 0.035005
#
#
# Mechanical properties :
#
#
# Convention : Reuss Voigt Hill
#
# Bulk Modulus (GPa) = 52.65838 54.04569 53.35204
# Shear Modulus (GPa) = 35.08115 37.20141 36.14128
#
# Velocity S-wave (km/s) = 3.85618 3.97100 3.91401
# Velocity P-wave (km/s) = 6.49212 6.62827 6.56054
#
# Compressibility (1/GPa) = 0.01899033
#
# Stress axis : x y z
#
# Youngs Moduli (GPa) = 89.42416 115.97728 108.23934
#
# Poissons Ratio (x) = 0.01142 0.36053
# Poissons Ratio (y) = 0.00881 0.17290
# Poissons Ratio (z) = 0.29786 0.18527
#
# Static dielectric constant tensor:
#      x y z
#    x 4.563510 0.000000 0.000000 
#    y 0.000000 4.644010 0.000000 
#    z 0.000000 0.000000 4.120180 
# 
# 
# High freq. dielectric constant tensor:
#      x y z
#    x 1.941880 0.000000 0.000000 
#    y 0.000000 1.936860 0.000000 
#    z 0.000000 0.000000 1.933050 
# 
# From -- ./inp_files/30900.got.cif
#   From: 2010.06.25/outbox.cif.g09.slc.cpg/sg52_16_cif.got.tgz:30900.got - 2010.06.26 19:32:48.
