data_PCOD8217192
_publ_section_title
;
Structure prediction by ZEFSAII (Michael W. Deem and Ramdas Pophale) SiO2 
 PCOD8217192
Probable space group: P N N A
;
_chemical_formula_sum "Si O2"
_cell_formula_units_Z 40
_cell_length_a 8.662506
_cell_length_b 22.793305
_cell_length_c 9.065041
_cell_angle_alpha 90.000000
_cell_angle_beta 90.000000
_cell_angle_gamma 90.000000
_cell_volume 1789.866431
_symmetry_space_group_name_H-M "P N N A"
_symmetry_group_IT_number 52
_symmetry_cell_setting 'orthorhombic'
loop_
_space_group_symop_operation_xyz
x,y,z
1/2-x,-y,z
x,1/2-y,1/2-z
1/2-x,1/2+y,1/2-z
-x,-y,-z
1/2+x,y,-z
-x,1/2+y,1/2+z
1/2+x,1/2-y,1/2+z
loop_
_atom_site_type_symbol
_atom_site_label
_atom_site_fract_x
_atom_site_fract_y
_atom_site_fract_z
Si Si1 0.420166 0.639215 0.205655
Si Si2 0.093740 0.707750 0.565996
Si Si3 0.624536 0.455297 0.550481
Si Si4 0.396228 0.852633 0.848136
Si Si5 0.586813 0.836554 0.566984
O O1 0.475236 0.697199 0.297098
O O2 0.424487 0.583529 0.310772
O O3 0.252039 0.649957 0.136244
O O4 0.546435 0.625199 0.078122
O O5 0.267827 0.697498 0.622803
O O6 0.075300 0.770006 0.488559
O O7 0.052911 0.660612 0.439318
O O8 0.750000 0.500000 0.609714
O O9 0.500000 0.500000 0.500000
O O10 0.670247 0.414761 0.408317
O O11 0.446394 0.851625 0.678410
#
# Coordination Sequence:
#
# PCOD8217192 Si02
#       5
#     8   8   8   8   8
#     4  11  25  43  66 100 134 176 224 266 328 400
#     4  11  23  41  63  95 138 181 214 256 326 405
#     4  11  23  45  70  92 125 172 224 279 330 389
#     4  11  23  41  67  97 129 176 226 267 323 396
#     4  12  24  42  66 100 141 173 213 276 327 390
#
# _framework density 22.348037000000001
#
# number of rings (size 3 to 8) (size 9 to 14) (size 15 to 20)
#    0.000    0.800    0.000    9.600    0.000    4.800 
#    0.000    7.000    0.000    0.000    0.000    0.000 
#    0.000    0.000    0.000    0.000    0.000    0.000 
#
# Total GULP energy -495687.874325 kJ/mol
# GULP energy per Si atom -12392.196858 kJ/mol
# Density = 2.229717 g / cm^3
# Si number density = 22.348037 Si / 1000 Ang^3
#
#
#
# Elastic Constant Matrix: (Units=GPa)
#
#
# Indices 1 2 3 4 5 6 
#
# 1 117.1793 50.2722 54.1226 0.0000 0.0000 0.0000
# 2 50.2722 116.7005 78.8508 0.0000 0.0000 0.0000
# 3 54.1226 78.8508 165.8966 0.0000 0.0000 0.0000
# 4 0.0000 0.0000 0.0000 33.5048 0.0000 0.0000
# 5 0.0000 0.0000 0.0000 0.0000 47.6576 0.0000
# 6 0.0000 0.0000 0.0000 0.0000 0.0000 33.4068
#
#
#
# Elastic Compliance Matrix: (Units=1/GPa)
#
#
# Indices 1 2 3 4 5 6 
#
# 1 0.010880 -0.003371 -0.001947 0.000000 0.000000 0.000000
# 2 -0.003371 0.013667 -0.005396 0.000000 0.000000 0.000000
# 3 -0.001947 -0.005396 0.009228 0.000000 0.000000 0.000000
# 4 0.000000 0.000000 0.000000 0.029846 0.000000 0.000000
# 5 0.000000 0.000000 0.000000 0.000000 0.020983 0.000000
# 6 0.000000 0.000000 0.000000 0.000000 0.000000 0.029934
#
#
# Mechanical properties :
#
#
# Convention : Reuss Voigt Hill
#
# Bulk Modulus (GPa) = 80.99918 85.14084 83.07001
# Shear Modulus (GPa) = 35.69335 37.34925 36.52130
#
# Velocity S-wave (km/s) = 4.00078 4.09253 4.04692
# Velocity P-wave (km/s) = 7.59373 7.77896 7.68690
#
# Compressibility (1/GPa) = 0.01234580
#
# Stress axis : x y z
#
# Youngs Moduli (GPa) = 91.91589 73.16790 108.36694
#
# Poissons Ratio (x) = 0.24666 0.21100
# Poissons Ratio (y) = 0.30986 0.58477
# Poissons Ratio (z) = 0.17897 0.39483
#
# Static dielectric constant tensor:
#      x y z
#    x 4.228820 0.000000 0.000000 
#    y 0.000000 3.962270 0.000000 
#    z 0.000000 0.000000 4.394430 
# 
# 
# High freq. dielectric constant tensor:
#      x y z
#    x 1.893560 0.000000 0.000000 
#    y 0.000000 1.859740 0.000000 
#    z 0.000000 0.000000 1.899270 
# 
# From -- ./inp_files/7391.got.cif
#   From: 2010.06.25/outbox.cif.g09.slc.cpg/sg52_4_cif.got.tgz:7391.got - 2010.06.26 19:32:48.
