data_PCOD8217447
_publ_section_title
;
Structure prediction by ZEFSAII (Michael W. Deem and Ramdas Pophale) SiO2 
 PCOD8217447
Probable space group: P N N A
;
_chemical_formula_sum "Si O2"
_cell_formula_units_Z 20
_cell_length_a 26.869154
_cell_length_b 5.924794
_cell_length_c 5.008084
_cell_angle_alpha 90.000000
_cell_angle_beta 90.000000
_cell_angle_gamma 90.000000
_cell_volume 797.257938
_symmetry_space_group_name_H-M "P N N A"
_symmetry_group_IT_number 52
_symmetry_cell_setting 'orthorhombic'
loop_
_space_group_symop_operation_xyz
x,y,z
1/2-x,-y,z
x,1/2-y,1/2-z
1/2-x,1/2+y,1/2-z
-x,-y,-z
1/2+x,y,-z
-x,1/2+y,1/2+z
1/2+x,1/2-y,1/2+z
loop_
_atom_site_type_symbol
_atom_site_label
_atom_site_fract_x
_atom_site_fract_y
_atom_site_fract_z
Si Si1 0.555406 0.093567 0.501664
Si Si2 0.626000 0.750000 0.750000
Si Si3 0.802017 0.898987 0.007735
O O1 0.567094 0.250000 0.250000
O O2 0.500000 0.000000 0.500000
O O3 0.592660 0.883732 0.533433
O O4 0.565106 0.250000 0.750000
O O5 0.659147 0.592493 0.562920
O O6 0.790993 0.750000 0.750000
O O7 0.750000 0.000000 0.110852
O O8 0.824600 0.750000 0.250000
#
# Coordination Sequence:
#
# PCOD8217447 Si02
#       3
#     8   4   8
#     4  12  28  53  82 117 161 211 268 329 401 475
#     4  12  30  52  84 120 166 212 270 336 406 476
#     4  12  28  54  82 117 164 215 269 333 409 484
#
# _framework density 25.085979999999999
#
# number of rings (size 3 to 8) (size 9 to 14) (size 15 to 20)
#    0.000    0.000    4.000    3.600    0.000    9.600 
#    0.000    0.000    0.000    0.000    0.000    0.000 
#    0.000    0.000    0.000    0.000    0.000    0.000 
#
# Total GULP energy -248148.360040 kJ/mol
# GULP energy per Si atom -12407.418002 kJ/mol
# Density = 2.502888 g / cm^3
# Si number density = 25.085980 Si / 1000 Ang^3
#
#
#
# Elastic Constant Matrix: (Units=GPa)
#
#
# Indices 1 2 3 4 5 6 
#
# 1 188.7721 100.5825 47.5926 0.0000 0.0000 0.0000
# 2 100.5825 187.8531 93.7724 0.0000 0.0000 0.0000
# 3 47.5926 93.7724 196.0247 0.0000 0.0000 0.0000
# 4 0.0000 0.0000 0.0000 71.1935 0.0000 0.0000
# 5 0.0000 0.0000 0.0000 0.0000 21.7077 0.0000
# 6 0.0000 0.0000 0.0000 0.0000 0.0000 10.6936
#
#
#
# Elastic Compliance Matrix: (Units=1/GPa)
#
#
# Indices 1 2 3 4 5 6 
#
# 1 0.007414 -0.004035 0.000130 0.000000 0.000000 0.000000
# 2 -0.004035 0.009189 -0.003416 0.000000 0.000000 0.000000
# 3 0.000130 -0.003416 0.006704 0.000000 0.000000 0.000000
# 4 0.000000 0.000000 0.000000 0.014046 0.000000 0.000000
# 5 0.000000 0.000000 0.000000 0.000000 0.046067 0.000000
# 6 0.000000 0.000000 0.000000 0.000000 0.000000 0.093514
#
#
# Mechanical properties :
#
#
# Convention : Reuss Voigt Hill
#
# Bulk Modulus (GPa) = 115.39981 117.39388 116.39684
# Shear Modulus (GPa) = 25.71162 42.76580 34.23871
#
# Velocity S-wave (km/s) = 3.20494 4.13336 3.69840
# Velocity P-wave (km/s) = 7.73286 8.34732 8.04596
#
# Compressibility (1/GPa) = 0.00866553
#
# Stress axis : x y z
#
# Youngs Moduli (GPa) = 134.87124 108.82652 149.16469
#
# Poissons Ratio (x) = 0.43910 -0.01939
# Poissons Ratio (y) = 0.54418 0.50956
# Poissons Ratio (z) = -0.01753 0.37176
#
# Static dielectric constant tensor:
#      x y z
#    x 4.667220 0.000000 0.000000 
#    y 0.000000 4.787470 0.000000 
#    z 0.000000 0.000000 6.048140 
# 
# 
# High freq. dielectric constant tensor:
#      x y z
#    x 2.022760 0.000000 0.000000 
#    y 0.000000 2.024430 0.000000 
#    z 0.000000 0.000000 2.010130 
# 
# From -- ./inp_files/5403.got.cif
#   From: 2010.06.25/outbox.cif.g09.slc.cpg/sg52_3_cif.got.tgz:5403.got - 2010.06.26 19:32:48.
