data_PCOD8217144
_publ_section_title
;
Structure prediction by ZEFSAII (Michael W. Deem and Ramdas Pophale) SiO2 
 PCOD8217144
Probable space group: P N N A
;
_chemical_formula_sum "Si O2"
_cell_formula_units_Z 48
_cell_length_a 20.017193
_cell_length_b 19.839742
_cell_length_c 5.444173
_cell_angle_alpha 90.000000
_cell_angle_beta 90.000000
_cell_angle_gamma 90.000000
_cell_volume 2162.076787
_symmetry_space_group_name_H-M "P N N A"
_symmetry_group_IT_number 52
_symmetry_cell_setting 'orthorhombic'
loop_
_space_group_symop_operation_xyz
x,y,z
1/2-x,-y,z
x,1/2-y,1/2-z
1/2-x,1/2+y,1/2-z
-x,-y,-z
1/2+x,y,-z
-x,1/2+y,1/2+z
1/2+x,1/2-y,1/2+z
loop_
_atom_site_type_symbol
_atom_site_label
_atom_site_fract_x
_atom_site_fract_y
_atom_site_fract_z
Si Si1 0.139306 0.447606 0.381451
Si Si2 0.814952 0.180132 0.318892
Si Si3 0.712109 0.429022 0.113723
Si Si4 0.000243 0.065890 0.329296
Si Si5 0.385859 0.410987 0.484639
Si Si6 0.449874 0.318702 0.116723
O O1 0.171584 0.415598 0.629672
O O2 0.156069 0.527394 0.372127
O O3 0.058891 0.437301 0.374924
O O4 0.164608 0.420427 0.120611
O O5 0.778650 0.250000 0.250000
O O6 0.764567 0.129865 0.450954
O O7 0.833509 0.145586 0.061503
O O8 0.880889 0.198029 0.477123
O O9 0.750000 0.500000 0.131003
O O10 0.926534 0.059333 0.214755
O O11 0.004198 0.142758 0.444922
O O12 0.000000 0.000000 0.500000
O O13 0.439250 0.378768 0.306164
O O14 0.476590 0.250000 0.250000
#
# Coordination Sequence:
#
# PCOD8217144 Si02
#       6
#     8   8   8   8   8   8
#     4  12  25  43  67 101 136 178 226 279 344 411
#     4  11  24  43  67 101 134 179 231 290 339 406
#     4  12  26  42  69  97 138 180 230 281 335 402
#     4  11  24  40  67 102 136 172 224 282 351 415
#     4  11  22  41  70  99 133 168 222 289 347 393
#     4  11  23  40  71 101 133 173 225 288 347 400
#
# _framework density 22.200876000000001
#
# number of rings (size 3 to 8) (size 9 to 14) (size 15 to 20)
#    0.000    0.667    5.000    3.000    4.667    0.000 
#    0.000    0.833    3.667    0.000    0.000    0.000 
#    0.000    0.000    0.000    0.000    0.000    0.000 
#
# Total GULP energy -594727.030062 kJ/mol
# GULP energy per Si atom -12390.146460 kJ/mol
# Density = 2.215035 g / cm^3
# Si number density = 22.200876 Si / 1000 Ang^3
#
#
#
# Elastic Constant Matrix: (Units=GPa)
#
#
# Indices 1 2 3 4 5 6 
#
# 1 51.1528 21.8689 11.4619 0.0000 0.0000 0.0000
# 2 21.8689 145.2648 22.2373 0.0000 0.0000 0.0000
# 3 11.4619 22.2373 99.4532 0.0000 0.0000 0.0000
# 4 0.0000 0.0000 0.0000 33.6189 0.0000 0.0000
# 5 0.0000 0.0000 0.0000 0.0000 22.1325 0.0000
# 6 0.0000 0.0000 0.0000 0.0000 0.0000 31.4613
#
#
#
# Elastic Compliance Matrix: (Units=1/GPa)
#
#
# Indices 1 2 3 4 5 6 
#
# 1 0.021198 -0.002917 -0.001791 0.000000 0.000000 0.000000
# 2 -0.002917 0.007529 -0.001347 0.000000 0.000000 0.000000
# 3 -0.001791 -0.001347 0.010563 0.000000 0.000000 0.000000
# 4 0.000000 0.000000 0.000000 0.029745 0.000000 0.000000
# 5 0.000000 0.000000 0.000000 0.000000 0.045182 0.000000
# 6 0.000000 0.000000 0.000000 0.000000 0.000000 0.031785
#
#
# Mechanical properties :
#
#
# Convention : Reuss Voigt Hill
#
# Bulk Modulus (GPa) = 36.79272 45.22298 41.00785
# Shear Modulus (GPa) = 29.90923 33.46271 31.68597
#
# Velocity S-wave (km/s) = 3.67442 3.88657 3.78198
# Velocity P-wave (km/s) = 5.88306 6.36826 6.13046
#
# Compressibility (1/GPa) = 0.02717929
#
# Stress axis : x y z
#
# Youngs Moduli (GPa) = 47.17507 132.81299 94.67339
#
# Poissons Ratio (x) = 0.38742 0.16954
# Poissons Ratio (y) = 0.13761 0.12756
# Poissons Ratio (z) = 0.08448 0.17894
#
# Static dielectric constant tensor:
#      x y z
#    x 3.973510 0.000000 0.000000 
#    y 0.000000 4.032120 0.000000 
#    z 0.000000 0.000000 4.434980 
# 
# 
# High freq. dielectric constant tensor:
#      x y z
#    x 1.849350 0.000000 0.000000 
#    y 0.000000 1.870180 0.000000 
#    z 0.000000 0.000000 1.886210 
# 
# From -- ./inp_files/4349.got.cif
#   From: 2010.06.25/outbox.cif.g09.slc.cpg/sg52_3_cif.got.tgz:4349.got - 2010.06.26 19:32:48.
