data_PCOD8217446
_publ_section_title
;
Structure prediction by ZEFSAII (Michael W. Deem and Ramdas Pophale) SiO2 
 PCOD8217446
Probable space group: P N N A
;
_chemical_formula_sum "Si O2"
_cell_formula_units_Z 24
_cell_length_a 9.271020
_cell_length_b 9.463491
_cell_length_c 10.196521
_cell_angle_alpha 90.000000
_cell_angle_beta 90.000000
_cell_angle_gamma 90.000000
_cell_volume 894.604152
_symmetry_space_group_name_H-M "P N N A"
_symmetry_group_IT_number 52
_symmetry_cell_setting 'orthorhombic'
loop_
_space_group_symop_operation_xyz
x,y,z
1/2-x,-y,z
x,1/2-y,1/2-z
1/2-x,1/2+y,1/2-z
-x,-y,-z
1/2+x,y,-z
-x,1/2+y,1/2+z
1/2+x,1/2-y,1/2+z
loop_
_atom_site_type_symbol
_atom_site_label
_atom_site_fract_x
_atom_site_fract_y
_atom_site_fract_z
Si Si1 0.316259 0.349575 0.133120
Si Si2 0.750000 0.500000 0.325956
Si Si3 0.588791 0.228509 0.022378
Si Si4 0.072543 0.750000 0.750000
O O1 0.250000 0.500000 0.172358
O O2 0.265924 0.250000 0.250000
O O3 0.254812 0.698994 0.995395
O O4 0.489243 0.331523 0.113503
O O5 0.623961 0.424719 0.414881
O O6 0.825186 0.386340 0.231684
O O7 0.521916 0.219280 0.878012
#
# Coordination Sequence:
#
# PCOD8217446 Si02
#       4
#     8   4   8   4
#     4  12  30  50  81 119 165 215 274 340 415 496
#     4  12  30  54  80 124 164 220 274 346 416 496
#     4  12  28  51  82 117 164 212 277 337 411 489
#     4  12  28  48  86 112 166 210 274 332 422 488
#
# _framework density 26.827508999999999
#
# number of rings (size 3 to 8) (size 9 to 14) (size 15 to 20)
#    0.000    0.000    5.000    2.000   11.667    0.000 
#    0.000    0.000    0.000    0.000    0.000    0.000 
#    0.000    0.000    0.000    0.000    0.000    0.000 
#
# Total GULP energy -297410.088098 kJ/mol
# GULP energy per Si atom -12392.087004 kJ/mol
# Density = 2.676645 g / cm^3
# Si number density = 26.827509 Si / 1000 Ang^3
#
#
#
# Elastic Constant Matrix: (Units=GPa)
#
#
# Indices 1 2 3 4 5 6 
#
# 1 143.0048 54.1784 40.1160 0.0000 0.0000 0.0000
# 2 54.1784 187.0991 58.3337 0.0000 0.0000 0.0000
# 3 40.1160 58.3337 99.0695 0.0000 0.0000 0.0000
# 4 0.0000 0.0000 0.0000 50.0763 0.0000 0.0000
# 5 0.0000 0.0000 0.0000 0.0000 7.0659 0.0000
# 6 0.0000 0.0000 0.0000 0.0000 0.0000 60.1581
#
#
#
# Elastic Compliance Matrix: (Units=1/GPa)
#
#
# Indices 1 2 3 4 5 6 
#
# 1 0.008289 -0.001658 -0.002380 0.000000 0.000000 0.000000
# 2 -0.001658 0.006878 -0.003379 0.000000 0.000000 0.000000
# 3 -0.002380 -0.003379 0.013047 0.000000 0.000000 0.000000
# 4 0.000000 0.000000 0.000000 0.019970 0.000000 0.000000
# 5 0.000000 0.000000 0.000000 0.000000 0.141525 0.000000
# 6 0.000000 0.000000 0.000000 0.000000 0.000000 0.016623
#
#
# Mechanical properties :
#
#
# Convention : Reuss Voigt Hill
#
# Bulk Modulus (GPa) = 74.73560 81.60330 78.16945
# Shear Modulus (GPa) = 22.16067 41.89641 32.02854
#
# Velocity S-wave (km/s) = 2.87721 3.95612 3.45899
# Velocity P-wave (km/s) = 6.24148 7.16600 6.71966
#
# Compressibility (1/GPa) = 0.01338050
#
# Stress axis : x y z
#
# Youngs Moduli (GPa) = 120.64781 145.38495 76.64584
#
# Poissons Ratio (x) = 0.24106 0.18241
# Poissons Ratio (y) = 0.20005 0.25896
# Poissons Ratio (z) = 0.28714 0.49120
#
# Static dielectric constant tensor:
#      x y z
#    x 5.420660 0.000000 0.000000 
#    y 0.000000 4.760440 0.000000 
#    z 0.000000 0.000000 4.766610 
# 
# 
# High freq. dielectric constant tensor:
#      x y z
#    x 2.105870 0.000000 0.000000 
#    y 0.000000 2.065760 0.000000 
#    z 0.000000 0.000000 2.090810 
# 
# From -- ./inp_files/17479.got.cif
#   From: 2010.06.25/outbox.cif.g09.slc.cpg/sg52_9_cif.got.tgz:17479.got - 2010.06.26 19:32:48.
