data_PCOD8217239
_publ_section_title
;
Structure prediction by ZEFSAII (Michael W. Deem and Ramdas Pophale) SiO2 
 PCOD8217239
Probable space group: P N N A
;
_chemical_formula_sum "Si O2"
_cell_formula_units_Z 44
_cell_length_a 7.873761
_cell_length_b 16.330417
_cell_length_c 16.995655
_cell_angle_alpha 90.000000
_cell_angle_beta 90.000000
_cell_angle_gamma 90.000000
_cell_volume 2185.331920
_symmetry_space_group_name_H-M "P N N A"
_symmetry_group_IT_number 52
_symmetry_cell_setting 'orthorhombic'
loop_
_space_group_symop_operation_xyz
x,y,z
1/2-x,-y,z
x,1/2-y,1/2-z
1/2-x,1/2+y,1/2-z
-x,-y,-z
1/2+x,y,-z
-x,1/2+y,1/2+z
1/2+x,1/2-y,1/2+z
loop_
_atom_site_type_symbol
_atom_site_label
_atom_site_fract_x
_atom_site_fract_y
_atom_site_fract_z
Si Si1 0.458592 0.583213 0.548834
Si Si2 0.367010 0.063430 0.530592
Si Si3 0.799425 0.833483 0.907734
Si Si4 0.250000 0.000000 0.823508
Si Si5 0.346944 0.854521 0.394104
Si Si6 0.898322 0.562649 0.729837
O O1 0.500000 0.500000 0.500000
O O2 0.620695 0.620124 0.592225
O O3 0.390513 0.653010 0.490918
O O4 0.319387 0.569965 0.617108
O O5 0.272245 0.100556 0.455846
O O6 0.454437 0.136443 0.580011
O O7 0.250000 0.000000 0.581783
O O8 0.500000 0.000000 0.500000
O O9 0.783486 0.737851 0.890059
O O10 0.912711 0.869752 0.837992
O O11 0.090793 0.973768 0.767759
O O12 0.333835 0.897157 0.310040
O O13 0.750000 0.500000 0.705040
#
# Coordination Sequence:
#
# PCOD8217239 Si02
#       6
#     8   8   8   4   8   8
#     4  12  20  39  68  99 132 179 229 271 330 423
#     4   9  19  40  62  86 115 169 228 266 316 400
#     4  12  22  39  65  98 140 172 216 288 349 394
#     4  12  24  40  70 106 124 176 242 268 328 410
#     4  11  24  40  65  97 133 172 221 290 349 392
#     4  12  24  43  67  94 135 183 222 278 341 416
#
# _framework density 20.134242
#
# number of rings (size 3 to 8) (size 9 to 14) (size 15 to 20)
#    0.000    0.727    5.455    3.273    1.273    0.000 
#    0.000    0.000    4.000    0.000    0.000    0.000 
#    0.000    0.000    0.000    0.000    0.000    0.000 
#
# Total GULP energy -545109.723742 kJ/mol
# GULP energy per Si atom -12388.857358 kJ/mol
# Density = 2.008842 g / cm^3
# Si number density = 20.134242 Si / 1000 Ang^3
#
#
#
# Elastic Constant Matrix: (Units=GPa)
#
#
# Indices 1 2 3 4 5 6 
#
# 1 115.9522 45.7463 16.3553 0.0000 0.0000 0.0000
# 2 45.7463 119.1048 31.7735 0.0000 0.0000 0.0000
# 3 16.3553 31.7735 79.1934 0.0000 0.0000 0.0000
# 4 0.0000 0.0000 0.0000 28.0144 0.0000 0.0000
# 5 0.0000 0.0000 0.0000 0.0000 34.7960 0.0000
# 6 0.0000 0.0000 0.0000 0.0000 0.0000 32.8455
#
#
#
# Elastic Compliance Matrix: (Units=1/GPa)
#
#
# Indices 1 2 3 4 5 6 
#
# 1 0.010190 -0.003754 -0.000598 0.000000 0.000000 0.000000
# 2 -0.003754 0.010785 -0.003552 0.000000 0.000000 0.000000
# 3 -0.000598 -0.003552 0.014176 0.000000 0.000000 0.000000
# 4 0.000000 0.000000 0.000000 0.035696 0.000000 0.000000
# 5 0.000000 0.000000 0.000000 0.000000 0.028739 0.000000
# 6 0.000000 0.000000 0.000000 0.000000 0.000000 0.030446
#
#
# Mechanical properties :
#
#
# Convention : Reuss Voigt Hill
#
# Bulk Modulus (GPa) = 51.69954 55.77785 53.73869
# Shear Modulus (GPa) = 32.83259 33.82285 33.32772
#
# Velocity S-wave (km/s) = 4.04255 4.10306 4.07292
# Velocity P-wave (km/s) = 6.89368 7.08590 6.99045
#
# Compressibility (1/GPa) = 0.01934253
#
# Stress axis : x y z
#
# Youngs Moduli (GPa) = 98.13800 92.71775 70.54197
#
# Poissons Ratio (x) = 0.34808 0.04220
# Poissons Ratio (y) = 0.36842 0.25056
# Poissons Ratio (z) = 0.05871 0.32933
#
# Static dielectric constant tensor:
#      x y z
#    x 4.468410 0.000000 0.000000 
#    y 0.000000 4.057080 0.000000 
#    z 0.000000 0.000000 3.570040 
# 
# 
# High freq. dielectric constant tensor:
#      x y z
#    x 1.802410 0.000000 0.000000 
#    y 0.000000 1.777580 0.000000 
#    z 0.000000 0.000000 1.781140 
# 
# From -- ./inp_files/31183.got.cif
#   From: 2010.06.25/outbox.cif.g09.slc.cpg/sg52_16_cif.got.tgz:31183.got - 2010.06.26 19:32:48.
