data_PCOD8217215
_publ_section_title
;
Structure prediction by ZEFSAII (Michael W. Deem and Ramdas Pophale) SiO2 
 PCOD8217215
Probable space group: P N N A
;
_chemical_formula_sum "Si O2"
_cell_formula_units_Z 44
_cell_length_a 16.599659
_cell_length_b 13.668238
_cell_length_c 7.675686
_cell_angle_alpha 90.000000
_cell_angle_beta 90.000000
_cell_angle_gamma 90.000000
_cell_volume 1741.521735
_symmetry_space_group_name_H-M "P N N A"
_symmetry_group_IT_number 52
_symmetry_cell_setting 'orthorhombic'
loop_
_space_group_symop_operation_xyz
x,y,z
1/2-x,-y,z
x,1/2-y,1/2-z
1/2-x,1/2+y,1/2-z
-x,-y,-z
1/2+x,y,-z
-x,1/2+y,1/2+z
1/2+x,1/2-y,1/2+z
loop_
_atom_site_type_symbol
_atom_site_label
_atom_site_fract_x
_atom_site_fract_y
_atom_site_fract_z
Si Si1 0.523703 0.640782 0.209555
Si Si2 0.822314 0.445899 0.333714
Si Si3 0.584047 0.653715 0.854199
Si Si4 0.231159 0.328971 0.099771
Si Si5 0.371503 0.537477 0.315347
Si Si6 0.753492 0.750000 0.250000
O O1 0.554156 0.750000 0.250000
O O2 0.588964 0.556120 0.253106
O O3 0.440945 0.620829 0.313465
O O4 0.515799 0.636034 0.000185
O O5 0.750000 0.500000 0.222865
O O6 0.826721 0.517425 0.503264
O O7 0.798367 0.331911 0.355959
O O8 0.560306 0.750000 0.750000
O O9 0.673468 0.660424 0.938472
O O10 0.582440 0.562864 0.724950
O O11 0.213175 0.250000 0.250000
O O12 0.194021 0.430614 0.169913
O O13 0.194423 0.298126 0.909434
#
# Coordination Sequence:
#
# PCOD8217215 Si02
#       6
#     8   8   8   8   8   4
#     4  12  25  46  71 105 148 191 239 304 383 447
#     4  12  25  46  76 106 142 196 254 305 369 448
#     4  11  23  43  70  98 140 192 250 304 368 443
#     4  11  23  44  72 105 144 190 249 311 368 443
#     4  12  26  44  70 108 145 190 239 311 378 445
#     4  12  24  46  76 108 144 198 260 310 372 446
#
# _framework density 25.265257999999999
#
# number of rings (size 3 to 8) (size 9 to 14) (size 15 to 20)
#    0.000    0.364    2.727    7.636    2.545    0.000 
#    1.636    0.000    0.000    0.000    0.000    0.000 
#    0.000    0.000    0.000    0.000    0.000    0.000 
#
# Total GULP energy -545170.813132 kJ/mol
# GULP energy per Si atom -12390.245753 kJ/mol
# Density = 2.520775 g / cm^3
# Si number density = 25.265258 Si / 1000 Ang^3
#
#
#
# Elastic Constant Matrix: (Units=GPa)
#
#
# Indices 1 2 3 4 5 6 
#
# 1 95.8417 37.3407 29.3751 0.0000 0.0000 0.0000
# 2 37.3407 113.4145 34.4386 0.0000 0.0000 0.0000
# 3 29.3751 34.4386 132.3113 0.0000 0.0000 0.0000
# 4 0.0000 0.0000 0.0000 46.7003 0.0000 0.0000
# 5 0.0000 0.0000 0.0000 0.0000 18.0932 0.0000
# 6 0.0000 0.0000 0.0000 0.0000 0.0000 33.0238
#
#
#
# Elastic Compliance Matrix: (Units=1/GPa)
#
#
# Indices 1 2 3 4 5 6 
#
# 1 0.012364 -0.003515 -0.001830 0.000000 0.000000 0.000000
# 2 -0.003515 0.010573 -0.001972 0.000000 0.000000 0.000000
# 3 -0.001830 -0.001972 0.008477 0.000000 0.000000 0.000000
# 4 0.000000 0.000000 0.000000 0.021413 0.000000 0.000000
# 5 0.000000 0.000000 0.000000 0.000000 0.055269 0.000000
# 6 0.000000 0.000000 0.000000 0.000000 0.000000 0.030281
#
#
# Mechanical properties :
#
#
# Convention : Reuss Voigt Hill
#
# Bulk Modulus (GPa) = 59.59047 60.43070 60.01058
# Shear Modulus (GPa) = 31.52463 35.59100 33.55781
#
# Velocity S-wave (km/s) = 3.53618 3.75733 3.64843
# Velocity P-wave (km/s) = 6.34901 6.54169 6.44607
#
# Compressibility (1/GPa) = 0.01678121
#
# Stress axis : x y z
#
# Youngs Moduli (GPa) = 80.87794 94.57845 117.96010
#
# Poissons Ratio (x) = 0.33245 0.21588
# Poissons Ratio (y) = 0.28429 0.23258
# Poissons Ratio (z) = 0.14802 0.18648
#
# Static dielectric constant tensor:
#      x y z
#    x 4.190160 0.000000 0.000000 
#    y 0.000000 4.690910 0.000000 
#    z 0.000000 0.000000 4.520270 
# 
# 
# High freq. dielectric constant tensor:
#      x y z
#    x 1.983000 0.000000 0.000000 
#    y 0.000000 2.025360 0.000000 
#    z 0.000000 0.000000 1.999410 
# 
# From -- ./inp_files/11974.got.cif
#   From: 2010.06.25/outbox.cif.g09.slc.cpg/sg52_6_cif.got.tgz:11974.got - 2010.06.26 19:32:48.
