data_PCOD8217486
_publ_section_title
;
Structure prediction by ZEFSAII (Michael W. Deem and Ramdas Pophale) SiO2 
 PCOD8217486
Probable space group: P M N A
;
_chemical_formula_sum "Si O2"
_cell_formula_units_Z 44
_cell_length_a 13.644496
_cell_length_b 16.898888
_cell_length_c 10.331240
_cell_angle_alpha 90.000000
_cell_angle_beta 90.000000
_cell_angle_gamma 90.000000
_cell_volume 2382.144360
_symmetry_space_group_name_H-M "P M N A"
_symmetry_group_IT_number 53
_symmetry_cell_setting 'orthorhombic'
loop_
_space_group_symop_operation_xyz
x,y,z
1/2-x,-y,1/2+z
x,-y,-z
1/2-x,y,1/2-z
-x,-y,-z
1/2+x,y,1/2-z
-x,y,z
1/2+x,-y,1/2+z
loop_
_atom_site_type_symbol
_atom_site_label
_atom_site_fract_x
_atom_site_fract_y
_atom_site_fract_z
Si Si1 0.747933 0.431232 0.898977
Si Si2 0.889650 0.292015 0.855350
Si Si3 0.733298 0.169740 0.512875
Si Si4 0.250000 0.939763 0.250000
Si Si5 0.613245 0.295172 0.941899
Si Si6 0.390228 0.948703 0.628550
O O1 0.750000 0.463465 0.750000
O O2 0.831487 0.366209 0.909685
O O3 0.648016 0.387285 0.947714
O O4 0.771112 0.500000 0.000000
O O5 0.861842 0.214335 0.933053
O O6 0.868410 0.271074 0.706493
O O7 0.000000 0.315208 0.880065
O O8 0.773072 0.110555 0.622103
O O9 0.820349 0.232668 0.475566
O O10 0.688844 0.122800 0.390112
O O11 0.152959 0.994297 0.238963
O O12 0.500000 0.289649 0.986253
O O13 0.500000 0.918941 0.667844
O O14 0.397958 0.000000 0.500000
#
# Coordination Sequence:
#
# PCOD8217486 Si02
#       6
#     8   8   8   4   8   8
#     4   9  18  32  50  76 105 133 167 211 260 314
#     4   9  16  28  50  75  96 125 166 213 258 302
#     4  10  16  30  49  72  96 127 169 214 255 302
#     4  10  18  30  46  72 100 126 160 210 260 310
#     4   9  17  29  49  74  97 127 166 209 258 304
#     4   9  19  31  47  70  95 127 163 201 254 311
#
# _framework density 18.470752999999998
#
# number of rings (size 3 to 8) (size 9 to 14) (size 15 to 20)
#    0.000    2.727    1.818    1.636    0.000    2.182 
#    0.000    0.909    8.000    3.273    0.000    0.000 
#    0.000    0.000    0.000    0.000    0.000    0.000 
#
# Total GULP energy -545162.547648 kJ/mol
# GULP energy per Si atom -12390.057901 kJ/mol
# Density = 1.842871 g / cm^3
# Si number density = 18.470753 Si / 1000 Ang^3
#
#
#
# Elastic Constant Matrix: (Units=GPa)
#
#
# Indices 1 2 3 4 5 6 
#
# 1 104.9365 38.0919 15.1161 0.0000 0.0000 0.0000
# 2 38.0919 90.0183 36.4674 0.0000 0.0000 0.0000
# 3 15.1161 36.4674 38.8469 0.0000 0.0000 0.0000
# 4 0.0000 0.0000 0.0000 31.5536 0.0000 0.0000
# 5 0.0000 0.0000 0.0000 0.0000 16.2592 0.0000
# 6 0.0000 0.0000 0.0000 0.0000 0.0000 14.1783
#
#
#
# Elastic Compliance Matrix: (Units=1/GPa)
#
#
# Indices 1 2 3 4 5 6 
#
# 1 0.011260 -0.004824 0.000147 0.000000 0.000000 0.000000
# 2 -0.004824 0.019993 -0.016891 0.000000 0.000000 0.000000
# 3 0.000147 -0.016891 0.041541 0.000000 0.000000 0.000000
# 4 0.000000 0.000000 0.000000 0.031692 0.000000 0.000000
# 5 0.000000 0.000000 0.000000 0.000000 0.061504 0.000000
# 6 0.000000 0.000000 0.000000 0.000000 0.000000 0.070530
#
#
# Mechanical properties :
#
#
# Convention : Reuss Voigt Hill
#
# Bulk Modulus (GPa) = 33.71792 45.90584 39.81188
# Shear Modulus (GPa) = 17.26866 22.00665 19.63766
#
# Velocity S-wave (km/s) = 3.06096 3.45546 3.26417
# Velocity P-wave (km/s) = 5.54861 6.38964 5.98392
#
# Compressibility (1/GPa) = 0.02965782
#
# Stress axis : x y z
#
# Youngs Moduli (GPa) = 88.81354 50.01720 24.07244
#
# Poissons Ratio (x) = 0.24130 -0.00355
# Poissons Ratio (y) = 0.42846 0.40661
# Poissons Ratio (z) = -0.01310 0.84485
#
# Static dielectric constant tensor:
#      x y z
#    x 3.662440 0.000000 0.000000 
#    y 0.000000 3.445510 0.000000 
#    z 0.000000 0.000000 3.004350 
# 
# 
# High freq. dielectric constant tensor:
#      x y z
#    x 1.721800 0.000000 0.000000 
#    y 0.000000 1.716400 0.000000 
#    z 0.000000 0.000000 1.666710 
# 
# From -- ./inp_files/15871.got.cif
#   From: 2010.03.12/outbox.cif.g09.slc.cpg/sg53_8_cif.got.tgz:15871.got - 2010.04.16 14:36:59.
