data_PCOD8217966
_publ_section_title
;
Structure prediction by ZEFSAII (Michael W. Deem and Ramdas Pophale) SiO2 
 PCOD8217966
Probable space group: P M N A
;
_chemical_formula_sum "Si O2"
_cell_formula_units_Z 64
_cell_length_a 8.951789
_cell_length_b 11.316943
_cell_length_c 33.900581
_cell_angle_alpha 90.000000
_cell_angle_beta 90.000000
_cell_angle_gamma 90.000000
_cell_volume 3434.362290
_symmetry_space_group_name_H-M "P M N A"
_symmetry_group_IT_number 53
_symmetry_cell_setting 'orthorhombic'
loop_
_space_group_symop_operation_xyz
x,y,z
1/2-x,-y,1/2+z
x,-y,-z
1/2-x,y,1/2-z
-x,-y,-z
1/2+x,y,1/2-z
-x,y,z
1/2+x,-y,1/2+z
loop_
_atom_site_type_symbol
_atom_site_label
_atom_site_fract_x
_atom_site_fract_y
_atom_site_fract_z
Si Si1 0.675614 0.280613 0.445953
Si Si2 0.324255 0.348378 0.862933
Si Si3 0.171210 0.770840 0.478358
Si Si4 0.175808 0.130672 0.127846
Si Si5 0.823276 0.110249 0.602019
Si Si6 0.177405 0.499215 0.710268
Si Si7 0.327714 0.523718 0.061623
Si Si8 0.178089 0.749586 0.791036
O O1 0.500000 0.280647 0.448094
O O2 0.735957 0.200268 0.482129
O O3 0.731338 0.227620 0.404053
O O4 0.733333 0.412654 0.452362
O O5 0.500000 0.345249 0.870253
O O6 0.266162 0.214785 0.868741
O O7 0.279310 0.398090 0.820651
O O8 0.260957 0.436745 0.896080
O O9 0.226098 0.854427 0.442447
O O10 0.191703 0.632605 0.468192
O O11 0.000000 0.799107 0.487548
O O12 0.223008 0.166817 0.172326
O O13 0.000000 0.116580 0.125175
O O14 0.247143 0.006999 0.117032
O O15 0.000000 0.093798 0.604152
O O16 0.250000 0.450212 0.750000
O O17 0.254272 0.622058 0.698679
O O18 0.000000 0.518078 0.714057
O O19 0.500000 0.484093 0.063932
O O20 0.250000 0.797770 0.750000
O O21 0.000000 0.739716 0.785915
#
# Coordination Sequence:
#
# PCOD8217966 Si02
#       8
#     8   8   8   8   8   8   8   8
#     4  11  22  33  48  74 107 138 168 205 252 307
#     4   8  16  32  53  75  98 128 166 208 252 297
#     4   9  19  35  53  75 102 132 169 215 260 297
#     4  10  23  39  52  73 106 138 169 211 258 300
#     4   9  19  37  58  75  95 131 179 220 250 292
#     4  10  18  30  51  79 109 134 160 198 248 306
#     4   9  17  32  53  74  99 130 166 210 257 302
#     4  10  20  36  56  78 106 135 166 205 250 300
#
# _framework density 18.635193000000001
#
# number of rings (size 3 to 8) (size 9 to 14) (size 15 to 20)
#    0.000    2.500    0.000    4.500    0.000    5.000 
#    0.000    6.875    0.000    3.000    0.000    0.000 
#    0.000    0.000    0.000    0.000    0.000    0.000 
#
# Total GULP energy -793352.181649 kJ/mol
# GULP energy per Si atom -12396.127838 kJ/mol
# Density = 1.859278 g / cm^3
# Si number density = 18.635193 Si / 1000 Ang^3
#
#
#
# Elastic Constant Matrix: (Units=GPa)
#
#
# Indices 1 2 3 4 5 6 
#
# 1 54.5824 35.5982 55.7785 0.0000 0.0000 0.0000
# 2 35.5982 74.9086 59.2362 0.0000 0.0000 0.0000
# 3 55.7785 59.2362 145.1350 0.0000 0.0000 0.0000
# 4 0.0000 0.0000 0.0000 23.1234 0.0000 0.0000
# 5 0.0000 0.0000 0.0000 0.0000 44.8948 0.0000
# 6 0.0000 0.0000 0.0000 0.0000 0.0000 21.3622
#
#
#
# Elastic Compliance Matrix: (Units=1/GPa)
#
#
# Indices 1 2 3 4 5 6 
#
# 1 0.033445 -0.008460 -0.009401 0.000000 0.000000 0.000000
# 2 -0.008460 0.021852 -0.005667 0.000000 0.000000 0.000000
# 3 -0.009401 -0.005667 0.012816 0.000000 0.000000 0.000000
# 4 0.000000 0.000000 0.000000 0.043246 0.000000 0.000000
# 5 0.000000 0.000000 0.000000 0.000000 0.022274 0.000000
# 6 0.000000 0.000000 0.000000 0.000000 0.000000 0.046812
#
#
# Mechanical properties :
#
#
# Convention : Reuss Voigt Hill
#
# Bulk Modulus (GPa) = 47.49049 63.98354 55.73702
# Shear Modulus (GPa) = 21.32012 26.14362 23.73187
#
# Velocity S-wave (km/s) = 3.38609 3.74962 3.57248
# Velocity P-wave (km/s) = 6.38961 7.29078 6.85502
#
# Compressibility (1/GPa) = 0.02105685
#
# Stress axis : x y z
#
# Youngs Moduli (GPa) = 29.89959 45.76340 78.02654
#
# Poissons Ratio (x) = 0.38716 0.73352
# Poissons Ratio (y) = 0.25295 0.44220
# Poissons Ratio (z) = 0.28108 0.25935
#
# Static dielectric constant tensor:
#      x y z
#    x 3.255290 0.000000 0.000000 
#    y 0.000000 3.332630 0.000000 
#    z 0.000000 0.000000 3.717460 
# 
# 
# High freq. dielectric constant tensor:
#      x y z
#    x 1.708620 0.000000 0.000000 
#    y 0.000000 1.711160 0.000000 
#    z 0.000000 0.000000 1.735860 
# 
# From -- ./inp_files/38159.got.cif
#   From: 2010.03.12/outbox.cif.g09.slc.cpg/sg53_20_cif.got.tgz:38159.got - 2010.04.16 14:36:59.
