data_PCOD8217937
_publ_section_title
;
Structure prediction by ZEFSAII (Michael W. Deem and Ramdas Pophale) SiO2 
 PCOD8217937
Probable space group: P M N A
;
_chemical_formula_sum "Si O2"
_cell_formula_units_Z 48
_cell_length_a 15.946414
_cell_length_b 7.831466
_cell_length_c 21.072961
_cell_angle_alpha 90.000000
_cell_angle_beta 90.000000
_cell_angle_gamma 90.000000
_cell_volume 2631.671427
_symmetry_space_group_name_H-M "P M N A"
_symmetry_group_IT_number 53
_symmetry_cell_setting 'orthorhombic'
loop_
_space_group_symop_operation_xyz
x,y,z
1/2-x,-y,1/2+z
x,-y,-z
1/2-x,y,1/2-z
-x,-y,-z
1/2+x,y,1/2-z
-x,y,z
1/2+x,-y,1/2+z
loop_
_atom_site_type_symbol
_atom_site_label
_atom_site_fract_x
_atom_site_fract_y
_atom_site_fract_z
Si Si1 0.814957 0.029880 0.807002
Si Si2 0.405498 0.300069 0.998992
Si Si3 0.901107 0.293342 0.234354
Si Si4 0.905382 0.178192 0.368668
Si Si5 0.668155 0.170844 0.873454
Si Si6 0.402871 0.329497 0.754579
O O1 0.750000 0.030309 0.750000
O O2 0.856175 0.840863 0.813769
O O3 0.761508 0.085911 0.869033
O O4 0.885383 0.173665 0.793532
O O5 0.500000 0.223491 0.989148
O O6 0.342900 0.245249 0.943328
O O7 0.411681 0.500000 0.000000
O O8 0.363197 0.235809 0.064905
O O9 0.864994 0.260754 0.305662
O O10 0.879827 0.491226 0.219170
O O11 0.000000 0.255819 0.230754
O O12 0.000000 0.243721 0.372379
O O13 0.900960 0.974983 0.361108
O O14 0.651746 0.313937 0.819366
O O15 0.500000 0.331839 0.774007
#
# Coordination Sequence:
#
# PCOD8217937 Si02
#       6
#     8   8   8   8   8   8
#     4  10  20  32  46  71 103 138 167 208 263 309
#     4  10  20  33  49  73 103 141 186 214 242 300
#     4  10  19  33  52  73 100 135 175 214 253 303
#     4  10  18  30  50  71  96 137 175 207 244 294
#     4  11  20  32  46  73 105 140 169 212 262 306
#     4  10  19  32  51  71  96 134 175 213 254 305
#
# _framework density 18.239360000000001
#
# number of rings (size 3 to 8) (size 9 to 14) (size 15 to 20)
#    0.000    1.833    3.333    3.500    0.000    6.000 
#    3.000    0.000    0.000    0.000    0.000    0.000 
#    0.000   13.333    0.000    0.000    0.000    0.000 
#
# Total GULP energy -594870.714996 kJ/mol
# GULP energy per Si atom -12393.139896 kJ/mol
# Density = 1.819785 g / cm^3
# Si number density = 18.239360 Si / 1000 Ang^3
#
#
#
# Elastic Constant Matrix: (Units=GPa)
#
#
# Indices 1 2 3 4 5 6 
#
# 1 57.8730 35.1645 28.9548 0.0000 0.0000 0.0000
# 2 35.1645 120.7622 19.1388 0.0000 0.0000 0.0000
# 3 28.9548 19.1388 58.0482 0.0000 0.0000 0.0000
# 4 0.0000 0.0000 0.0000 24.0159 0.0000 0.0000
# 5 0.0000 0.0000 0.0000 0.0000 -4.3583 0.0000
# 6 0.0000 0.0000 0.0000 0.0000 0.0000 21.5220
#
#
#
# Elastic Compliance Matrix: (Units=1/GPa)
#
#
# Indices 1 2 3 4 5 6 
#
# 1 0.026528 -0.005938 -0.011275 0.000000 0.000000 0.000000
# 2 -0.005938 0.010066 -0.000357 0.000000 0.000000 0.000000
# 3 -0.011275 -0.000357 0.022969 0.000000 0.000000 0.000000
# 4 0.000000 0.000000 0.000000 0.041639 0.000000 0.000000
# 5 0.000000 0.000000 0.000000 0.000000 -0.229447 0.000000
# 6 0.000000 0.000000 0.000000 0.000000 0.000000 0.046464
#
#
# Mechanical properties :
#
#
# Convention : Reuss Voigt Hill
#
# Bulk Modulus (GPa) = 40.94341 44.79994 42.87168
# Shear Modulus (GPa) = -129.87037 18.46426 -55.70305
#
# Velocity S-wave (km/s) = -8.44736 3.18517 -5.53230
# Velocity P-wave (km/s) = 8.52334 6.17597 4.15360
#
# Compressibility (1/GPa) = 0.02442396
#
# Stress axis : x y z
#
# Youngs Moduli (GPa) = 37.69606 99.34088 43.53762
#
# Poissons Ratio (x) = 0.58987 0.49087
# Poissons Ratio (y) = 0.22383 0.01555
# Poissons Ratio (z) = 0.42501 0.03548
#
# Static dielectric constant tensor:
#      x y z
#    x 3.420840 0.000000 0.000000 
#    y 0.000000 3.580420 0.000000 
#    z 0.000000 0.000000 3.339950 
# 
# 
# High freq. dielectric constant tensor:
#      x y z
#    x 1.677110 0.000000 0.000000 
#    y 0.000000 1.725380 0.000000 
#    z 0.000000 0.000000 1.660980 
# 
# From -- ./inp_files/32276.got.cif
#   From: 2010.03.12/outbox.cif.g09.slc.cpg/sg53_17_cif.got.tgz:32276.got - 2010.04.16 14:36:59.
