data_PCOD8217387
_publ_section_title
;
Structure prediction by ZEFSAII (Michael W. Deem and Ramdas Pophale) SiO2 
 PCOD8217387
Probable space group: P N N A
;
_chemical_formula_sum "Si O2"
_cell_formula_units_Z 36
_cell_length_a 23.609630
_cell_length_b 6.675971
_cell_length_c 10.519568
_cell_angle_alpha 90.000000
_cell_angle_beta 90.000000
_cell_angle_gamma 90.000000
_cell_volume 1658.064908
_symmetry_space_group_name_H-M "P N N A"
_symmetry_group_IT_number 52
_symmetry_cell_setting 'orthorhombic'
loop_
_space_group_symop_operation_xyz
x,y,z
1/2-x,-y,z
x,1/2-y,1/2-z
1/2-x,1/2+y,1/2-z
-x,-y,-z
1/2+x,y,-z
-x,1/2+y,1/2+z
1/2+x,1/2-y,1/2+z
loop_
_atom_site_type_symbol
_atom_site_label
_atom_site_fract_x
_atom_site_fract_y
_atom_site_fract_z
Si Si1 0.250000 0.500000 0.552368
Si Si2 0.518687 0.750000 0.250000
Si Si3 0.402819 0.986419 0.574704
Si Si4 0.554168 0.091991 0.939039
Si Si5 0.654430 0.708925 0.600377
Si Si6 0.822790 0.750000 0.250000
O O1 0.286365 0.358992 0.459753
O O2 0.214149 0.352959 0.641208
O O3 0.554949 0.648683 0.137687
O O4 0.471577 0.905142 0.201517
O O5 0.435200 0.802144 0.510682
O O6 0.362148 0.919295 0.688754
O O7 0.365642 0.086685 0.464504
O O8 0.611002 0.965791 0.936313
O O9 0.500000 0.000000 0.000000
O O10 0.661349 0.750000 0.750000
#
# Coordination Sequence:
#
# PCOD8217387 Si02
#       6
#     4   4   8   8   8   4
#     4  12  26  50  72 110 134 196 244 308 368 422
#     4  12  24  41  76 106 150 189 236 298 368 430
#     4  12  25  48  72 113 143 191 246 303 366 443
#     4  12  25  45  69 108 150 189 237 292 367 444
#     4  12  28  49  74 105 152 193 247 296 367 442
#     4  12  24  47  80 100 144 177 250 308 358 422
#
# _framework density 21.712057999999999
#
# number of rings (size 3 to 8) (size 9 to 14) (size 15 to 20)
#    0.000    0.000    4.444    6.000    3.111    1.778 
#    2.000    0.000    0.000    0.000    0.000    0.000 
#    0.000    0.000    0.000    0.000    0.000    0.000 
#
# Total GULP energy -446044.367942 kJ/mol
# GULP energy per Si atom -12390.121332 kJ/mol
# Density = 2.166264 g / cm^3
# Si number density = 21.712058 Si / 1000 Ang^3
#
#
#
# Elastic Constant Matrix: (Units=GPa)
#
#
# Indices 1 2 3 4 5 6 
#
# 1 127.0689 52.2957 61.5256 0.0000 0.0000 0.0000
# 2 52.2957 110.8614 53.3241 0.0000 0.0000 0.0000
# 3 61.5256 53.3241 149.5882 0.0000 0.0000 0.0000
# 4 0.0000 0.0000 0.0000 53.2869 0.0000 0.0000
# 5 0.0000 0.0000 0.0000 0.0000 46.4218 0.0000
# 6 0.0000 0.0000 0.0000 0.0000 0.0000 22.9586
#
#
#
# Elastic Compliance Matrix: (Units=1/GPa)
#
#
# Indices 1 2 3 4 5 6 
#
# 1 0.010902 -0.003604 -0.003199 0.000000 0.000000 0.000000
# 2 -0.003604 0.012078 -0.002823 0.000000 0.000000 0.000000
# 3 -0.003199 -0.002823 0.009007 0.000000 0.000000 0.000000
# 4 0.000000 0.000000 0.000000 0.018766 0.000000 0.000000
# 5 0.000000 0.000000 0.000000 0.000000 0.021542 0.000000
# 6 0.000000 0.000000 0.000000 0.000000 0.000000 0.043557
#
#
# Mechanical properties :
#
#
# Convention : Reuss Voigt Hill
#
# Bulk Modulus (GPa) = 78.52580 80.20101 79.36340
# Shear Modulus (GPa) = 35.88084 39.22500 37.55292
#
# Velocity S-wave (km/s) = 4.06960 4.25502 4.16334
# Velocity P-wave (km/s) = 7.63725 7.82042 7.72938
#
# Compressibility (1/GPa) = 0.01273467
#
# Stress axis : x y z
#
# Youngs Moduli (GPa) = 91.72628 82.79316 111.02069
#
# Poissons Ratio (x) = 0.29837 0.35519
# Poissons Ratio (y) = 0.33057 0.31345
# Poissons Ratio (z) = 0.29346 0.23375
#
# Static dielectric constant tensor:
#      x y z
#    x 3.415320 0.000000 0.000000 
#    y 0.000000 3.903610 0.000000 
#    z 0.000000 0.000000 4.033070 
# 
# 
# High freq. dielectric constant tensor:
#      x y z
#    x 1.870290 0.000000 0.000000 
#    y 0.000000 1.861920 0.000000 
#    z 0.000000 0.000000 1.875700 
# 
# From -- ./inp_files/22096.got.cif
#   From: 2010.06.25/outbox.cif.g09.slc.cpg/sg52_12_cif.got.tgz:22096.got - 2010.06.26 19:32:48.
