data_PCOD8217074
_publ_section_title
;
Structure prediction by ZEFSAII (Michael W. Deem and Ramdas Pophale) SiO2 
 PCOD8217074
Probable space group: P N N A
;
_chemical_formula_sum "Si O2"
_cell_formula_units_Z 56
_cell_length_a 20.883619
_cell_length_b 8.285255
_cell_length_c 15.077114
_cell_angle_alpha 90.000000
_cell_angle_beta 90.000000
_cell_angle_gamma 90.000000
_cell_volume 2608.734366
_symmetry_space_group_name_H-M "P N N A"
_symmetry_group_IT_number 52
_symmetry_cell_setting 'orthorhombic'
loop_
_space_group_symop_operation_xyz
x,y,z
1/2-x,-y,z
x,1/2-y,1/2-z
1/2-x,1/2+y,1/2-z
-x,-y,-z
1/2+x,y,-z
-x,1/2+y,1/2+z
1/2+x,1/2-y,1/2+z
loop_
_atom_site_type_symbol
_atom_site_label
_atom_site_fract_x
_atom_site_fract_y
_atom_site_fract_z
Si Si1 0.891400 0.685521 0.960171
Si Si2 0.181615 0.557981 0.735826
Si Si3 0.012685 0.759739 0.855128
Si Si4 0.267030 0.689005 0.151671
Si Si5 0.197172 0.632103 0.487290
Si Si6 0.141034 0.910001 0.584040
Si Si7 0.589525 0.025724 0.077237
O O1 0.827819 0.742493 0.908200
O O2 0.949157 0.674297 0.890879
O O3 0.873430 0.510972 0.996545
O O4 0.915784 0.790255 0.044937
O O5 0.250000 0.500000 0.701886
O O6 0.174802 0.750000 0.750000
O O7 0.167182 0.482966 0.833619
O O8 0.131509 0.490038 0.665819
O O9 0.008087 0.750000 0.750000
O O10 0.075173 0.669427 0.886878
O O11 0.021034 0.942089 0.897410
O O12 0.250000 0.500000 0.149943
O O13 0.280265 0.750000 0.250000
O O14 0.208685 0.793421 0.110497
O O15 0.250000 0.500000 0.515222
O O16 0.196212 0.777674 0.559925
O O17 0.125804 0.557088 0.492775
#
# Coordination Sequence:
#
# PCOD8217074 Si02
#       7
#     8   8   8   8   8   8   8
#     4  12  26  40  72  97 128 178 236 273 335 414
#     4  12  25  38  65 101 140 175 214 270 346 414
#     4  11  22  49  67  90 133 177 229 281 341 401
#     4  12  26  44  66  99 133 174 221 284 340 393
#     4  11  21  40  68  95 137 170 213 273 340 409
#     4  11  24  42  66  99 136 176 216 284 338 400
#     4  11  23  42  66  98 133 178 216 277 344 405
#
# _framework density 21.466346999999999
#
# number of rings (size 3 to 8) (size 9 to 14) (size 15 to 20)
#    0.000    0.571    7.143    2.143    4.000    0.000 
#    0.000    0.000    0.000    0.000    0.000    0.000 
#    0.000    0.000    0.000    0.000    0.000    0.000 
#
# Total GULP energy -693990.241696 kJ/mol
# GULP energy per Si atom -12392.682887 kJ/mol
# Density = 2.141749 g / cm^3
# Si number density = 21.466347 Si / 1000 Ang^3
#
#
#
# Elastic Constant Matrix: (Units=GPa)
#
#
# Indices 1 2 3 4 5 6 
#
# 1 73.8819 30.9396 40.7096 0.0000 0.0000 0.0000
# 2 30.9396 83.6591 45.2146 0.0000 0.0000 0.0000
# 3 40.7096 45.2146 120.4244 0.0000 0.0000 0.0000
# 4 0.0000 0.0000 0.0000 28.3566 0.0000 0.0000
# 5 0.0000 0.0000 0.0000 0.0000 22.6205 0.0000
# 6 0.0000 0.0000 0.0000 0.0000 0.0000 27.3624
#
#
#
# Elastic Compliance Matrix: (Units=1/GPa)
#
#
# Indices 1 2 3 4 5 6 
#
# 1 0.017716 -0.004159 -0.004427 0.000000 0.000000 0.000000
# 2 -0.004159 0.015973 -0.004591 0.000000 0.000000 0.000000
# 3 -0.004427 -0.004591 0.011524 0.000000 0.000000 0.000000
# 4 0.000000 0.000000 0.000000 0.035265 0.000000 0.000000
# 5 0.000000 0.000000 0.000000 0.000000 0.044208 0.000000
# 6 0.000000 0.000000 0.000000 0.000000 0.000000 0.036547
#
#
# Mechanical properties :
#
#
# Convention : Reuss Voigt Hill
#
# Bulk Modulus (GPa) = 53.02750 56.85477 54.94114
# Shear Modulus (GPa) = 25.78988 26.40802 26.09895
#
# Velocity S-wave (km/s) = 3.46990 3.51123 3.49063
# Velocity P-wave (km/s) = 6.38826 6.55602 6.47268
#
# Compressibility (1/GPa) = 0.01885814
#
# Stress axis : x y z
#
# Youngs Moduli (GPa) = 56.44484 62.60641 86.77201
#
# Poissons Ratio (x) = 0.26039 0.38418
# Poissons Ratio (y) = 0.23477 0.39838
# Poissons Ratio (z) = 0.24991 0.28743
#
# Static dielectric constant tensor:
#      x y z
#    x 3.903240 0.000000 0.000000 
#    y 0.000000 3.983150 0.000000 
#    z 0.000000 0.000000 4.149320 
# 
# 
# High freq. dielectric constant tensor:
#      x y z
#    x 1.832230 0.000000 0.000000 
#    y 0.000000 1.836710 0.000000 
#    z 0.000000 0.000000 1.854000 
# 
# From -- ./inp_files/28775.got.cif
#   From: 2010.06.25/outbox.cif.g09.slc.cpg/sg52_15_cif.got.tgz:28775.got - 2010.06.26 19:32:48.
