data_PCOD8217079
_publ_section_title
;
Structure prediction by ZEFSAII (Michael W. Deem and Ramdas Pophale) SiO2 
 PCOD8217079
Probable space group: P N N A
;
_chemical_formula_sum "Si O2"
_cell_formula_units_Z 56
_cell_length_a 15.024399
_cell_length_b 9.318331
_cell_length_c 19.266414
_cell_angle_alpha 90.000000
_cell_angle_beta 90.000000
_cell_angle_gamma 90.000000
_cell_volume 2697.342715
_symmetry_space_group_name_H-M "P N N A"
_symmetry_group_IT_number 52
_symmetry_cell_setting 'orthorhombic'
loop_
_space_group_symop_operation_xyz
x,y,z
1/2-x,-y,z
x,1/2-y,1/2-z
1/2-x,1/2+y,1/2-z
-x,-y,-z
1/2+x,y,-z
-x,1/2+y,1/2+z
1/2+x,1/2-y,1/2+z
loop_
_atom_site_type_symbol
_atom_site_label
_atom_site_fract_x
_atom_site_fract_y
_atom_site_fract_z
Si Si1 0.034498 0.955707 0.108015
Si Si2 0.404135 0.744602 0.832243
Si Si3 0.614566 0.765024 0.518547
Si Si4 0.072747 0.950909 0.356838
Si Si5 0.172902 0.599681 0.277214
Si Si6 0.711042 0.161821 0.455197
Si Si7 0.949325 0.780256 0.561581
O O1 0.063843 0.885633 0.034796
O O2 0.103645 0.881821 0.161092
O O3 0.938764 0.898605 0.136632
O O4 0.041297 0.124727 0.097918
O O5 0.381083 0.750000 0.750000
O O6 0.477969 0.623586 0.845316
O O7 0.316238 0.698050 0.875717
O O8 0.630217 0.865146 0.585654
O O9 0.707595 0.736069 0.479594
O O10 0.542532 0.839932 0.468794
O O11 0.124485 0.972759 0.286370
O O12 0.066754 0.116456 0.374955
O O13 0.250000 0.500000 0.306738
O O14 0.211600 0.750000 0.250000
O O15 0.627596 0.200856 0.504051
O O16 0.750000 0.000000 0.461989
#
# Coordination Sequence:
#
# PCOD8217079 Si02
#       7
#     8   8   8   8   8   8   8
#     4  11  24  44  66  97 136 183 215 281 358 402
#     4  11  22  49  73  91 132 188 233 278 348 415
#     4  11  23  43  66  98 134 170 227 278 336 400
#     4  11  21  41  69  92 132 178 217 281 334 408
#     4  12  26  42  63  97 135 177 223 275 349 418
#     4  12  25  41  73 102 131 183 231 280 340 412
#     4  12  25  40  68 102 136 170 227 280 340 409
#
# _framework density 20.761174
#
# number of rings (size 3 to 8) (size 9 to 14) (size 15 to 20)
#    0.000    0.571    8.571    1.714    6.000    0.000 
#    0.000    1.429    0.000    0.000    0.000    0.000 
#    0.000    0.000    0.000    0.000    0.000    0.000 
#
# Total GULP energy -694051.028388 kJ/mol
# GULP energy per Si atom -12393.768364 kJ/mol
# Density = 2.071392 g / cm^3
# Si number density = 20.761174 Si / 1000 Ang^3
#
#
#
# Elastic Constant Matrix: (Units=GPa)
#
#
# Indices 1 2 3 4 5 6 
#
# 1 104.3103 4.5152 38.7579 0.0000 0.0000 0.0000
# 2 4.5152 106.9581 28.1225 0.0000 0.0000 0.0000
# 3 38.7579 28.1225 95.5218 0.0000 0.0000 0.0000
# 4 0.0000 0.0000 0.0000 28.9827 0.0000 0.0000
# 5 0.0000 0.0000 0.0000 0.0000 76.1475 0.0000
# 6 0.0000 0.0000 0.0000 0.0000 0.0000 23.0166
#
#
#
# Elastic Compliance Matrix: (Units=1/GPa)
#
#
# Indices 1 2 3 4 5 6 
#
# 1 0.011350 0.000793 -0.004839 0.000000 0.000000 0.000000
# 2 0.000793 0.010189 -0.003322 0.000000 0.000000 0.000000
# 3 -0.004839 -0.003322 0.013410 0.000000 0.000000 0.000000
# 4 0.000000 0.000000 0.000000 0.034503 0.000000 0.000000
# 5 0.000000 0.000000 0.000000 0.000000 0.013132 0.000000
# 6 0.000000 0.000000 0.000000 0.000000 0.000000 0.043447
#
#
# Mechanical properties :
#
#
# Convention : Reuss Voigt Hill
#
# Bulk Modulus (GPa) = 49.46820 49.95349 49.71084
# Shear Modulus (GPa) = 33.89699 41.32233 37.60966
#
# Velocity S-wave (km/s) = 4.04506 4.46619 4.26083
# Velocity P-wave (km/s) = 6.75986 7.12103 6.94279
#
# Compressibility (1/GPa) = 0.02021501
#
# Stress axis : x y z
#
# Youngs Moduli (GPa) = 88.10247 98.14185 74.57044
#
# Poissons Ratio (x) = -0.07784 0.36084
# Poissons Ratio (y) = -0.06988 0.24770
# Poissons Ratio (z) = 0.42632 0.32599
#
# Static dielectric constant tensor:
#      x y z
#    x 3.966430 0.000000 0.000000 
#    y 0.000000 3.691240 0.000000 
#    z 0.000000 0.000000 3.871300 
# 
# 
# High freq. dielectric constant tensor:
#      x y z
#    x 1.799890 0.000000 0.000000 
#    y 0.000000 1.813270 0.000000 
#    z 0.000000 0.000000 1.820410 
# 
# From -- ./inp_files/37332.got.cif
#   From: 2010.06.25/outbox.cif.g09.slc.cpg/sg52_19_cif.got.tgz:37332.got - 2010.06.26 19:32:48.
