data_PCOD8217943
_publ_section_title
;
Structure prediction by ZEFSAII (Michael W. Deem and Ramdas Pophale) SiO2 
 PCOD8217943
Probable space group: P M N A
;
_chemical_formula_sum "Si O2"
_cell_formula_units_Z 48
_cell_length_a 9.180129
_cell_length_b 13.785212
_cell_length_c 20.858909
_cell_angle_alpha 90.000000
_cell_angle_beta 90.000000
_cell_angle_gamma 90.000000
_cell_volume 2639.695444
_symmetry_space_group_name_H-M "P M N A"
_symmetry_group_IT_number 53
_symmetry_cell_setting 'orthorhombic'
loop_
_space_group_symop_operation_xyz
x,y,z
1/2-x,-y,1/2+z
x,-y,-z
1/2-x,y,1/2-z
-x,-y,-z
1/2+x,y,1/2-z
-x,y,z
1/2+x,-y,1/2+z
loop_
_atom_site_type_symbol
_atom_site_label
_atom_site_fract_x
_atom_site_fract_y
_atom_site_fract_z
Si Si1 0.336977 0.533527 0.573378
Si Si2 0.328241 0.069935 0.058015
Si Si3 0.667715 0.006719 0.313936
Si Si4 0.334116 0.777549 0.311972
Si Si5 0.339686 0.709469 0.956093
Si Si6 0.661524 0.355343 0.899943
O O1 0.339756 0.500000 0.500000
O O2 0.500000 0.534475 0.601548
O O3 0.271626 0.641703 0.583326
O O4 0.239543 0.458063 0.613869
O O5 0.500000 0.055649 0.069634
O O6 0.244315 0.047938 0.123244
O O7 0.285711 0.179776 0.039438
O O8 0.275847 0.000000 0.000000
O O9 0.750000 0.044519 0.250000
O O10 0.500000 0.041317 0.311107
O O11 0.678446 0.891866 0.318031
O O12 0.250000 0.738238 0.250000
O O13 0.500000 0.742587 0.308218
O O14 0.257422 0.732215 0.373359
O O15 0.500000 0.706319 0.923524
O O16 0.352176 0.663000 0.025409
O O17 0.500000 0.357118 0.868909
#
# Coordination Sequence:
#
# PCOD8217943 Si02
#       6
#     8   8   8   8   8   8
#     4   9  17  29  46  69  97 128 161 198 242 294
#     4  10  20  34  53  78 108 139 173 216 262 306
#     4  10  21  36  54  75 102 138 177 215 256 308
#     4  10  20  33  49  71  98 128 164 204 247 296
#     4   9  18  31  48  72 101 133 167 203 247 298
#     4  10  18  30  50  73  99 130 163 200 245 298
#
# _framework density 18.183916
#
# number of rings (size 3 to 8) (size 9 to 14) (size 15 to 20)
#    0.000    2.333    0.000    3.000    0.000    7.000 
#    0.000    0.000    0.000    1.000    0.000    2.333 
#    0.000    0.000    0.000    0.000    0.000    0.000 
#
# Total GULP energy -595101.758142 kJ/mol
# GULP energy per Si atom -12397.953295 kJ/mol
# Density = 1.814253 g / cm^3
# Si number density = 18.183916 Si / 1000 Ang^3
#
#
#
# Elastic Constant Matrix: (Units=GPa)
#
#
# Indices 1 2 3 4 5 6 
#
# 1 138.7184 59.8884 36.9235 0.0000 0.0000 0.0000
# 2 59.8884 78.6996 34.9120 0.0000 0.0000 0.0000
# 3 36.9235 34.9120 55.1835 0.0000 0.0000 0.0000
# 4 0.0000 0.0000 0.0000 18.0979 0.0000 0.0000
# 5 0.0000 0.0000 0.0000 0.0000 30.4853 0.0000
# 6 0.0000 0.0000 0.0000 0.0000 0.0000 28.9587
#
#
#
# Elastic Compliance Matrix: (Units=1/GPa)
#
#
# Indices 1 2 3 4 5 6 
#
# 1 0.011057 -0.007134 -0.002885 0.000000 0.000000 0.000000
# 2 -0.007134 0.022267 -0.009314 0.000000 0.000000 0.000000
# 3 -0.002885 -0.009314 0.025944 0.000000 0.000000 0.000000
# 4 0.000000 0.000000 0.000000 0.055255 0.000000 0.000000
# 5 0.000000 0.000000 0.000000 0.000000 0.032803 0.000000
# 6 0.000000 0.000000 0.000000 0.000000 0.000000 0.034532
#
#
# Mechanical properties :
#
#
# Convention : Reuss Voigt Hill
#
# Bulk Modulus (GPa) = 48.53796 59.56101 54.04949
# Shear Modulus (GPa) = 21.98861 24.90021 23.44441
#
# Velocity S-wave (km/s) = 3.48118 3.70449 3.59457
# Velocity P-wave (km/s) = 6.55049 7.15007 6.85684
#
# Compressibility (1/GPa) = 0.02060243
#
# Stress axis : x y z
#
# Youngs Moduli (GPa) = 90.44300 44.90904 38.54471
#
# Poissons Ratio (x) = 0.32039 0.11119
# Poissons Ratio (y) = 0.64524 0.35900
# Poissons Ratio (z) = 0.26089 0.41828
#
# Static dielectric constant tensor:
#      x y z
#    x 3.687560 0.000000 0.000000 
#    y 0.000000 3.382430 0.000000 
#    z 0.000000 0.000000 3.067530 
# 
# 
# High freq. dielectric constant tensor:
#      x y z
#    x 1.719770 0.000000 0.000000 
#    y 0.000000 1.700800 0.000000 
#    z 0.000000 0.000000 1.666850 
# 
# From -- ./inp_files/26294.got.cif
#   From: 2010.03.12/outbox.cif.g09.slc.cpg/sg53_14_cif.got.tgz:26294.got - 2010.04.16 14:36:59.
