data_PCOD8217170
_publ_section_title
;
Structure prediction by ZEFSAII (Michael W. Deem and Ramdas Pophale) SiO2 
 PCOD8217170
Probable space group: P N N A
;
_chemical_formula_sum "Si O2"
_cell_formula_units_Z 32
_cell_length_a 19.532660
_cell_length_b 5.966928
_cell_length_c 11.753230
_cell_angle_alpha 90.000000
_cell_angle_beta 90.000000
_cell_angle_gamma 90.000000
_cell_volume 1369.838673
_symmetry_space_group_name_H-M "P N N A"
_symmetry_group_IT_number 52
_symmetry_cell_setting 'orthorhombic'
loop_
_space_group_symop_operation_xyz
x,y,z
1/2-x,-y,z
x,1/2-y,1/2-z
1/2-x,1/2+y,1/2-z
-x,-y,-z
1/2+x,y,-z
-x,1/2+y,1/2+z
1/2+x,1/2-y,1/2+z
loop_
_atom_site_type_symbol
_atom_site_label
_atom_site_fract_x
_atom_site_fract_y
_atom_site_fract_z
Si Si1 0.750000 0.500000 0.561296
Si Si2 0.429676 0.437274 0.165912
Si Si3 0.862552 0.265883 0.058451
Si Si4 0.183168 0.250000 0.250000
Si Si5 0.458638 0.250000 0.750000
Si Si6 0.750000 0.000000 0.312911
O O1 0.813655 0.432370 0.483892
O O2 0.769681 0.709792 0.640423
O O3 0.456525 0.250000 0.250000
O O4 0.362123 0.534047 0.225268
O O5 0.494280 0.601448 0.167466
O O6 0.412902 0.356826 0.039357
O O7 0.907770 0.141787 0.155940
O O8 0.817900 0.474276 0.108525
O O9 0.744210 0.250000 0.250000
#
# Coordination Sequence:
#
# PCOD8217170 Si02
#       6
#     4   8   8   4   4   4
#     4  12  23  43  82 112 156 195 253 338 404 472
#     4  11  24  49  71 103 143 195 256 316 379 461
#     4  12  25  48  74 112 147 202 253 321 396 466
#     4  11  22  44  72 112 142 183 254 316 392 467
#     4  11  28  46  70 104 146 205 262 310 380 469
#     4  12  27  51  80 118 166 205 257 332 408 482
#
# _framework density 23.360413999999999
#
# number of rings (size 3 to 8) (size 9 to 14) (size 15 to 20)
#    0.000    0.500    3.750    4.500    0.000    2.000 
#    4.500    0.000    0.000    0.000    0.000    0.000 
#    0.000    0.000    0.000    0.000    0.000    0.000 
#
# Total GULP energy -396420.855537 kJ/mol
# GULP energy per Si atom -12388.151736 kJ/mol
# Density = 2.330724 g / cm^3
# Si number density = 23.360414 Si / 1000 Ang^3
#
#
#
# Elastic Constant Matrix: (Units=GPa)
#
#
# Indices 1 2 3 4 5 6 
#
# 1 140.6315 37.7189 83.1777 0.0000 0.0000 0.0000
# 2 37.7189 88.5937 48.1188 0.0000 0.0000 0.0000
# 3 83.1777 48.1188 169.5594 0.0000 0.0000 0.0000
# 4 0.0000 0.0000 0.0000 41.6461 0.0000 0.0000
# 5 0.0000 0.0000 0.0000 0.0000 56.0525 0.0000
# 6 0.0000 0.0000 0.0000 0.0000 0.0000 6.3183
#
#
#
# Elastic Compliance Matrix: (Units=1/GPa)
#
#
# Indices 1 2 3 4 5 6 
#
# 1 0.010291 -0.001938 -0.004498 0.000000 0.000000 0.000000
# 2 -0.001938 0.013709 -0.002940 0.000000 0.000000 0.000000
# 3 -0.004498 -0.002940 0.008939 0.000000 0.000000 0.000000
# 4 0.000000 0.000000 0.000000 0.024012 0.000000 0.000000
# 5 0.000000 0.000000 0.000000 0.000000 0.017840 0.000000
# 6 0.000000 0.000000 0.000000 0.000000 0.000000 0.158271
#
#
# Mechanical properties :
#
#
# Convention : Reuss Voigt Hill
#
# Bulk Modulus (GPa) = 70.48949 81.86839 76.17894
# Shear Modulus (GPa) = 19.48987 36.12132 27.80559
#
# Velocity S-wave (km/s) = 2.89158 3.93652 3.45380
# Velocity P-wave (km/s) = 6.43340 7.46883 6.97037
#
# Compressibility (1/GPa) = 0.01418651
#
# Stress axis : x y z
#
# Youngs Moduli (GPa) = 97.17016 72.94274 111.87497
#
# Poissons Ratio (x) = 0.14138 0.50325
# Poissons Ratio (y) = 0.18834 0.32888
# Poissons Ratio (z) = 0.43710 0.21443
#
# Static dielectric constant tensor:
#      x y z
#    x 4.427920 0.000000 0.000000 
#    y 0.000000 3.981680 0.000000 
#    z 0.000000 0.000000 4.472110 
# 
# 
# High freq. dielectric constant tensor:
#      x y z
#    x 1.942810 0.000000 0.000000 
#    y 0.000000 1.899440 0.000000 
#    z 0.000000 0.000000 1.944820 
# 
# From -- ./inp_files/21290.got.cif
#   From: 2010.06.25/outbox.cif.g09.slc.cpg/sg52_11_cif.got.tgz:21290.got - 2010.06.26 19:32:48.
