data_PCOD8217155
_publ_section_title
;
Structure prediction by ZEFSAII (Michael W. Deem and Ramdas Pophale) SiO2 
 PCOD8217155
Probable space group: P N N A
;
_chemical_formula_sum "Si O2"
_cell_formula_units_Z 48
_cell_length_a 14.882679
_cell_length_b 15.882558
_cell_length_c 9.320667
_cell_angle_alpha 90.000000
_cell_angle_beta 90.000000
_cell_angle_gamma 90.000000
_cell_volume 2203.172778
_symmetry_space_group_name_H-M "P N N A"
_symmetry_group_IT_number 52
_symmetry_cell_setting 'orthorhombic'
loop_
_space_group_symop_operation_xyz
x,y,z
1/2-x,-y,z
x,1/2-y,1/2-z
1/2-x,1/2+y,1/2-z
-x,-y,-z
1/2+x,y,-z
-x,1/2+y,1/2+z
1/2+x,1/2-y,1/2+z
loop_
_atom_site_type_symbol
_atom_site_label
_atom_site_fract_x
_atom_site_fract_y
_atom_site_fract_z
Si Si1 0.081358 0.186557 0.470798
Si Si2 0.655259 0.525064 0.625429
Si Si3 0.775224 0.327301 0.071239
Si Si4 0.449796 0.861843 0.154806
Si Si5 0.090329 0.663212 0.169757
Si Si6 0.839602 0.140958 0.130641
O O1 0.170474 0.155057 0.549258
O O2 0.065011 0.134176 0.325888
O O3 0.096163 0.283469 0.425496
O O4 0.002683 0.170139 0.584550
O O5 0.750000 0.500000 0.703109
O O6 0.593194 0.445279 0.587743
O O7 0.591385 0.587834 0.715422
O O8 0.689074 0.568295 0.478288
O O9 0.795519 0.228813 0.086719
O O10 0.806651 0.380888 0.209352
O O11 0.828963 0.360994 0.935242
O O12 0.553812 0.850461 0.123219
O O13 0.111073 0.750000 0.250000
#
# Coordination Sequence:
#
# PCOD8217155 Si02
#       6
#     8   8   8   8   8   8
#     4  11  23  42  74 103 137 191 240 287 354 428
#     4  12  26  44  70 106 143 182 234 296 361 426
#     4  11  22  42  70  98 135 182 239 290 341 418
#     4  11  22  45  71 103 140 188 237 294 359 415
#     4  12  24  44  70 104 140 184 241 289 352 426
#     4  11  22  45  65  97 138 181 233 297 344 416
#
# _framework density 21.786760000000001
#
# number of rings (size 3 to 8) (size 9 to 14) (size 15 to 20)
#    0.000    0.667    5.000    3.500    4.667    0.667 
#    6.000    0.833    0.000    0.000    0.000    0.000 
#    0.000    0.000    0.000    0.000    0.000    0.000 
#
# Total GULP energy -595306.630320 kJ/mol
# GULP energy per Si atom -12402.221465 kJ/mol
# Density = 2.173717 g / cm^3
# Si number density = 21.786760 Si / 1000 Ang^3
#
#
#
# Elastic Constant Matrix: (Units=GPa)
#
#
# Indices 1 2 3 4 5 6 
#
# 1 118.3165 10.9832 37.0684 0.0000 0.0000 0.0000
# 2 10.9832 85.5086 35.7740 0.0000 0.0000 0.0000
# 3 37.0684 35.7740 121.1236 0.0000 0.0000 0.0000
# 4 0.0000 0.0000 0.0000 22.2393 0.0000 0.0000
# 5 0.0000 0.0000 0.0000 0.0000 25.0292 0.0000
# 6 0.0000 0.0000 0.0000 0.0000 0.0000 24.9380
#
#
#
# Elastic Compliance Matrix: (Units=1/GPa)
#
#
# Indices 1 2 3 4 5 6 
#
# 1 0.009348 -0.000004 -0.002860 0.000000 0.000000 0.000000
# 2 -0.000004 0.013344 -0.003940 0.000000 0.000000 0.000000
# 3 -0.002860 -0.003940 0.010295 0.000000 0.000000 0.000000
# 4 0.000000 0.000000 0.000000 0.044965 0.000000 0.000000
# 5 0.000000 0.000000 0.000000 0.000000 0.039953 0.000000
# 6 0.000000 0.000000 0.000000 0.000000 0.000000 0.040099
#
#
# Mechanical properties :
#
#
# Convention : Reuss Voigt Hill
#
# Bulk Modulus (GPa) = 51.60178 54.73332 53.16755
# Shear Modulus (GPa) = 28.07856 30.51617 29.29737
#
# Velocity S-wave (km/s) = 3.59387 3.74662 3.67104
# Velocity P-wave (km/s) = 6.39981 6.62518 6.51347
#
# Compressibility (1/GPa) = 0.01937918
#
# Stress axis : x y z
#
# Youngs Moduli (GPa) = 106.97216 74.94266 97.13665
#
# Poissons Ratio (x) = 0.00033 0.27777
# Poissons Ratio (y) = 0.00047 0.38269
# Poissons Ratio (z) = 0.30590 0.29525
#
# Static dielectric constant tensor:
#      x y z
#    x 3.925370 0.000000 0.000000 
#    y 0.000000 3.882060 0.000000 
#    z 0.000000 0.000000 4.254900 
# 
# 
# High freq. dielectric constant tensor:
#      x y z
#    x 1.867070 0.000000 0.000000 
#    y 0.000000 1.840330 0.000000 
#    z 0.000000 0.000000 1.866790 
# 
# From -- ./inp_files/10509.got.cif
#   From: 2010.06.25/outbox.cif.g09.slc.cpg/sg52_6_cif.got.tgz:10509.got - 2010.06.26 19:32:48.
