data_PCOD8217371
_publ_section_title
;
Structure prediction by ZEFSAII (Michael W. Deem and Ramdas Pophale) SiO2 
 PCOD8217371
Probable space group: P N N A
;
_chemical_formula_sum "Si O2"
_cell_formula_units_Z 32
_cell_length_a 22.164458
_cell_length_b 7.407487
_cell_length_c 9.435627
_cell_angle_alpha 90.000000
_cell_angle_beta 90.000000
_cell_angle_gamma 90.000000
_cell_volume 1549.168930
_symmetry_space_group_name_H-M "P N N A"
_symmetry_group_IT_number 52
_symmetry_cell_setting 'orthorhombic'
loop_
_space_group_symop_operation_xyz
x,y,z
1/2-x,-y,z
x,1/2-y,1/2-z
1/2-x,1/2+y,1/2-z
-x,-y,-z
1/2+x,y,-z
-x,1/2+y,1/2+z
1/2+x,1/2-y,1/2+z
loop_
_atom_site_type_symbol
_atom_site_label
_atom_site_fract_x
_atom_site_fract_y
_atom_site_fract_z
Si Si1 0.316217 0.572040 0.153980
Si Si2 0.114147 0.110739 0.641198
Si Si3 0.506785 0.709087 0.527718
Si Si4 0.567475 0.750000 0.250000
Si Si5 0.107910 0.750000 0.250000
O O1 0.250000 0.500000 0.121897
O O2 0.315383 0.750000 0.250000
O O3 0.351242 0.427242 0.248317
O O4 0.346916 0.596322 0.000661
O O5 0.145890 0.250000 0.750000
O O6 0.048623 0.192264 0.601812
O O7 0.109653 0.927235 0.736134
O O8 0.500000 0.500000 0.500000
O O9 0.520190 0.787863 0.374923
O O10 0.567749 0.746878 0.611290
#
# Coordination Sequence:
#
# PCOD8217371 Si02
#       5
#     8   8   8   4   4
#     4  12  28  50  74 100 138 192 251 301 355 433
#     4  12  26  45  68 106 143 187 231 291 370 428
#     4  12  23  41  69 107 148 183 229 292 367 434
#     4  12  24  40  63 101 148 180 222 282 352 438
#     4  12  24  46  71 107 142 186 242 294 360 428
#
# _framework density 20.656236
#
# number of rings (size 3 to 8) (size 9 to 14) (size 15 to 20)
#    0.000    0.000    7.500    2.250    5.250    0.000 
#    2.250    0.000    0.000    0.000    0.000    0.000 
#    0.000    0.000    0.000    0.000    0.000    0.000 
#
# Total GULP energy -396572.860217 kJ/mol
# GULP energy per Si atom -12392.901882 kJ/mol
# Density = 2.060922 g / cm^3
# Si number density = 20.656236 Si / 1000 Ang^3
#
#
#
# Elastic Constant Matrix: (Units=GPa)
#
#
# Indices 1 2 3 4 5 6 
#
# 1 122.5950 52.4668 45.6273 0.0000 0.0000 0.0000
# 2 52.4668 168.7114 45.4979 0.0000 0.0000 0.0000
# 3 45.6273 45.4979 130.0271 0.0000 0.0000 0.0000
# 4 0.0000 0.0000 0.0000 43.3801 0.0000 0.0000
# 5 0.0000 0.0000 0.0000 0.0000 30.2559 0.0000
# 6 0.0000 0.0000 0.0000 0.0000 0.0000 12.7521
#
#
#
# Elastic Compliance Matrix: (Units=1/GPa)
#
#
# Indices 1 2 3 4 5 6 
#
# 1 0.010218 -0.002441 -0.002731 0.000000 0.000000 0.000000
# 2 -0.002441 0.007128 -0.001638 0.000000 0.000000 0.000000
# 3 -0.002731 -0.001638 0.009222 0.000000 0.000000 0.000000
# 4 0.000000 0.000000 0.000000 0.023052 0.000000 0.000000
# 5 0.000000 0.000000 0.000000 0.000000 0.033051 0.000000
# 6 0.000000 0.000000 0.000000 0.000000 0.000000 0.078418
#
#
# Mechanical properties :
#
#
# Convention : Reuss Voigt Hill
#
# Bulk Modulus (GPa) = 77.23096 78.72416 77.97756
# Shear Modulus (GPa) = 27.92881 35.79373 31.86127
#
# Velocity S-wave (km/s) = 3.68105 4.16724 3.93167
# Velocity P-wave (km/s) = 7.45229 7.83255 7.64479
#
# Compressibility (1/GPa) = 0.01294818
#
# Stress axis : x y z
#
# Youngs Moduli (GPa) = 97.86402 140.29080 108.43394
#
# Poissons Ratio (x) = 0.34247 0.29619
# Poissons Ratio (y) = 0.23890 0.17757
# Poissons Ratio (z) = 0.26731 0.22974
#
# Static dielectric constant tensor:
#      x y z
#    x 3.661130 0.000000 0.000000 
#    y 0.000000 3.775130 0.000000 
#    z 0.000000 0.000000 4.000720 
# 
# 
# High freq. dielectric constant tensor:
#      x y z
#    x 1.787290 0.000000 0.000000 
#    y 0.000000 1.836440 0.000000 
#    z 0.000000 0.000000 1.828830 
# 
# From -- ./inp_files/12863.got.cif
#   From: 2010.06.25/outbox.cif.g09.slc.cpg/sg52_7_cif.got.tgz:12863.got - 2010.06.26 19:32:48.
