data_PCOD8217046
_publ_section_title
;
Structure prediction by ZEFSAII (Michael W. Deem and Ramdas Pophale) SiO2 
 PCOD8217046
Probable space group: P N N A
;
_chemical_formula_sum "Si O2"
_cell_formula_units_Z 48
_cell_length_a 14.231752
_cell_length_b 10.781090
_cell_length_c 18.035595
_cell_angle_alpha 90.000000
_cell_angle_beta 90.000000
_cell_angle_gamma 90.000000
_cell_volume 2767.269861
_symmetry_space_group_name_H-M "P N N A"
_symmetry_group_IT_number 52
_symmetry_cell_setting 'orthorhombic'
loop_
_space_group_symop_operation_xyz
x,y,z
1/2-x,-y,z
x,1/2-y,1/2-z
1/2-x,1/2+y,1/2-z
-x,-y,-z
1/2+x,y,-z
-x,1/2+y,1/2+z
1/2+x,1/2-y,1/2+z
loop_
_atom_site_type_symbol
_atom_site_label
_atom_site_fract_x
_atom_site_fract_y
_atom_site_fract_z
Si Si1 0.787594 0.872328 0.068735
Si Si2 0.148092 0.997828 0.410099
Si Si3 0.451209 0.953428 0.640571
Si Si4 0.183805 0.387642 0.735642
Si Si5 0.373757 0.173220 0.550273
Si Si6 0.429057 0.785224 0.499458
O O1 0.834520 0.900311 0.148368
O O2 0.707413 0.766692 0.075943
O O3 0.868495 0.837841 0.010527
O O4 0.750000 0.000000 0.035345
O O5 0.160530 0.908930 0.481253
O O6 0.065180 0.955456 0.354409
O O7 0.250000 0.000000 0.369368
O O8 0.118690 0.134324 0.435489
O O9 0.413436 0.903891 0.719142
O O10 0.422991 0.858679 0.576527
O O11 0.404417 0.085810 0.619137
O O12 0.250000 0.500000 0.763502
O O13 0.226800 0.250000 0.750000
O O14 0.465176 0.250292 0.523580
#
# Coordination Sequence:
#
# PCOD8217046 Si02
#       6
#     8   8   8   8   8   8
#     4  11  21  30  45  71 101 140 171 197 253 312
#     4   9  15  28  54  77  92 119 161 220 267 294
#     4   9  18  29  48  74  96 129 162 210 262 289
#     4  11  21  32  48  71 104 141 171 202 247 314
#     4   9  18  31  49  71 100 128 164 214 258 300
#     4   9  17  30  47  72  99 125 166 208 256 301
#
# _framework density 17.345616
#
# number of rings (size 3 to 8) (size 9 to 14) (size 15 to 20)
#    0.000    2.333    3.333    3.000    0.000    0.667 
#    0.000    0.000    0.000    0.000    0.000   16.333 
#    0.000    0.000    0.000    0.000    0.000    0.000 
#
# Total GULP energy -594832.794644 kJ/mol
# GULP energy per Si atom -12392.349888 kJ/mol
# Density = 1.730614 g / cm^3
# Si number density = 17.345616 Si / 1000 Ang^3
#
#
#
# Elastic Constant Matrix: (Units=GPa)
#
#
# Indices 1 2 3 4 5 6 
#
# 1 112.4431 29.1520 33.9614 0.0000 0.0000 0.0000
# 2 29.1520 81.9460 19.4812 0.0000 0.0000 0.0000
# 3 33.9614 19.4812 50.8398 0.0000 0.0000 0.0000
# 4 0.0000 0.0000 0.0000 17.8795 0.0000 0.0000
# 5 0.0000 0.0000 0.0000 0.0000 23.6536 0.0000
# 6 0.0000 0.0000 0.0000 0.0000 0.0000 20.9231
#
#
#
# Elastic Compliance Matrix: (Units=1/GPa)
#
#
# Indices 1 2 3 4 5 6 
#
# 1 0.011593 -0.002512 -0.006782 0.000000 0.000000 0.000000
# 2 -0.002512 0.013971 -0.003675 0.000000 0.000000 0.000000
# 3 -0.006782 -0.003675 0.025608 0.000000 0.000000 0.000000
# 4 0.000000 0.000000 0.000000 0.055930 0.000000 0.000000
# 5 0.000000 0.000000 0.000000 0.000000 0.042277 0.000000
# 6 0.000000 0.000000 0.000000 0.000000 0.000000 0.047794
#
#
# Mechanical properties :
#
#
# Convention : Reuss Voigt Hill
#
# Bulk Modulus (GPa) = 39.62941 45.60200 42.61571
# Shear Modulus (GPa) = 21.59628 23.33354 22.46491
#
# Velocity S-wave (km/s) = 3.53236 3.67169 3.60270
# Velocity P-wave (km/s) = 6.28755 6.65751 6.47517
#
# Compressibility (1/GPa) = 0.02523378
#
# Stress axis : x y z
#
# Youngs Moduli (GPa) = 86.25983 71.57937 39.05012
#
# Poissons Ratio (x) = 0.17980 0.26482
# Poissons Ratio (y) = 0.21668 0.14352
# Poissons Ratio (z) = 0.58498 0.26308
#
# Static dielectric constant tensor:
#      x y z
#    x 3.379760 0.000000 0.000000 
#    y 0.000000 3.290430 0.000000 
#    z 0.000000 0.000000 2.850730 
# 
# 
# High freq. dielectric constant tensor:
#      x y z
#    x 1.673870 0.000000 0.000000 
#    y 0.000000 1.661540 0.000000 
#    z 0.000000 0.000000 1.626210 
# 
# From -- ./inp_files/33148.got.cif
#   From: 2010.06.25/outbox.cif.g09.slc.cpg/sg52_17_cif.got.tgz:33148.got - 2010.06.26 19:32:48.
