data_PCOD8217983
_publ_section_title
;
Structure prediction by ZEFSAII (Michael W. Deem and Ramdas Pophale) SiO2 
 PCOD8217983
Probable space group: P M N A
;
_chemical_formula_sum "Si O2"
_cell_formula_units_Z 52
_cell_length_a 32.798865
_cell_length_b 5.441766
_cell_length_c 20.162733
_cell_angle_alpha 90.000000
_cell_angle_beta 90.000000
_cell_angle_gamma 90.000000
_cell_volume 3598.720164
_symmetry_space_group_name_H-M "P M N A"
_symmetry_group_IT_number 53
_symmetry_cell_setting 'orthorhombic'
loop_
_space_group_symop_operation_xyz
x,y,z
1/2-x,-y,1/2+z
x,-y,-z
1/2-x,y,1/2-z
-x,-y,-z
1/2+x,y,1/2-z
-x,y,z
1/2+x,-y,1/2+z
loop_
_atom_site_type_symbol
_atom_site_label
_atom_site_fract_x
_atom_site_fract_y
_atom_site_fract_z
Si Si1 0.700797 0.166606 0.249360
Si Si2 0.545831 0.003149 0.421381
Si Si3 0.828894 0.688059 0.886171
Si Si4 0.089899 0.496128 0.920999
Si Si5 0.288042 0.669283 0.199158
Si Si6 0.754946 0.616272 0.066604
Si Si7 0.310344 0.000000 0.500000
O O1 0.750000 0.162742 0.250000
O O2 0.677567 0.157320 0.319577
O O3 0.686714 0.417443 0.211953
O O4 0.685793 0.916333 0.213311
O O5 0.500000 0.999332 0.392662
O O6 0.568147 0.754002 0.396222
O O7 0.544551 0.000000 0.500000
O O8 0.566867 0.255906 0.396351
O O9 0.865808 0.493239 0.884440
O O10 0.784779 0.575589 0.898812
O O11 0.840159 0.852217 0.950978
O O12 0.094273 0.500000 0.000000
O O13 0.250000 0.667256 0.250000
O O14 0.278111 0.686893 0.121206
O O15 0.734724 0.500000 0.000000
O O16 0.781214 0.850343 0.048310
#
# Coordination Sequence:
#
# PCOD8217983 Si02
#       7
#     8   8   8   8   8   8   4
#     4  10  19  31  46  56  77 108 141 164 199 267
#     4   9  18  32  46  59  78 107 137 165 206 268
#     4  11  21  30  42  64  83 109 135 176 225 268
#     4  10  20  29  44  63  84 104 133 174 223 263
#     4  10  18  31  45  57  74 106 139 164 203 263
#     4  10  20  30  42  62  80 106 135 179 222 266
#     4  10  20  28  42  54  87 102 126 168 228 270
#
# _framework density 14.449581
#
# number of rings (size 3 to 8) (size 9 to 14) (size 15 to 20)
#    0.000    2.000    3.077    3.692    7.538    1.846 
#    0.000    0.000    0.000    0.000    0.000    0.000 
#    0.000    0.000    0.000    0.000    0.000    0.000 
#
# Total GULP energy -644265.394756 kJ/mol
# GULP energy per Si atom -12389.719130 kJ/mol
# Density = 1.441669 g / cm^3
# Si number density = 14.449581 Si / 1000 Ang^3
#
#
#
# Elastic Constant Matrix: (Units=GPa)
#
#
# Indices 1 2 3 4 5 6 
#
# 1 38.3224 21.4714 28.0691 0.0000 0.0000 0.0000
# 2 21.4714 126.0785 36.0751 0.0000 0.0000 0.0000
# 3 28.0691 36.0751 72.6292 0.0000 0.0000 0.0000
# 4 0.0000 0.0000 0.0000 11.2766 0.0000 0.0000
# 5 0.0000 0.0000 0.0000 0.0000 437.7726 0.0000
# 6 0.0000 0.0000 0.0000 0.0000 0.0000 5.3812
#
#
#
# Elastic Compliance Matrix: (Units=1/GPa)
#
#
# Indices 1 2 3 4 5 6 
#
# 1 0.037105 -0.002583 -0.013057 0.000000 0.000000 0.000000
# 2 -0.002583 0.009425 -0.003683 0.000000 0.000000 0.000000
# 3 -0.013057 -0.003683 0.020644 0.000000 0.000000 0.000000
# 4 0.000000 0.000000 0.000000 0.088679 0.000000 0.000000
# 5 0.000000 0.000000 0.000000 0.000000 0.002284 0.000000
# 6 0.000000 0.000000 0.000000 0.000000 0.000000 0.185831
#
#
# Mechanical properties :
#
#
# Convention : Reuss Voigt Hill
#
# Bulk Modulus (GPa) = 35.05335 45.36236 40.20785
# Shear Modulus (GPa) = 12.75101 100.98038 56.86570
#
# Velocity S-wave (km/s) = 2.97383 8.36877 6.28013
# Velocity P-wave (km/s) = 6.00860 11.17334 8.97070
#
# Compressibility (1/GPa) = 0.02852795
#
# Stress axis : x y z
#
# Youngs Moduli (GPa) = 26.95035 106.09646 48.43947
#
# Poissons Ratio (x) = 0.27405 0.63248
# Poissons Ratio (y) = 0.06961 0.17842
# Poissons Ratio (z) = 0.35189 0.39079
#
# Static dielectric constant tensor:
#      x y z
#    x 2.508860 0.000000 0.000000 
#    y 0.000000 3.616740 0.000000 
#    z 0.000000 0.000000 2.254780 
# 
# 
# High freq. dielectric constant tensor:
#      x y z
#    x 1.491380 0.000000 0.000000 
#    y 0.000000 1.584600 0.000000 
#    z 0.000000 0.000000 1.515710 
# 
# From -- ./inp_files/33330.got.cif
#   From: 2010.03.12/outbox.cif.g09.slc.cpg/sg53_17_cif.got.tgz:33330.got - 2010.04.16 14:36:59.
