data_PCOD8217719
_publ_section_title
;
Structure prediction by ZEFSAII (Michael W. Deem and Ramdas Pophale) SiO2 
 PCOD8217719
Probable space group: P M N A
;
_chemical_formula_sum "Si O2"
_cell_formula_units_Z 64
_cell_length_a 8.903075
_cell_length_b 18.717818
_cell_length_c 24.895671
_cell_angle_alpha 90.000000
_cell_angle_beta 90.000000
_cell_angle_gamma 90.000000
_cell_volume 4148.767412
_symmetry_space_group_name_H-M "P M N A"
_symmetry_group_IT_number 53
_symmetry_cell_setting 'orthorhombic'
loop_
_space_group_symop_operation_xyz
x,y,z
1/2-x,-y,1/2+z
x,-y,-z
1/2-x,y,1/2-z
-x,-y,-z
1/2+x,y,1/2-z
-x,y,z
1/2+x,-y,1/2+z
loop_
_atom_site_type_symbol
_atom_site_label
_atom_site_fract_x
_atom_site_fract_y
_atom_site_fract_z
Si Si1 0.675047 0.112990 0.487169
Si Si2 0.167697 0.404218 0.454338
Si Si3 0.676832 0.689212 0.399432
Si Si4 0.327991 0.059958 0.805009
Si Si5 0.179331 0.740015 0.507940
Si Si6 0.829795 0.551088 0.422446
Si Si7 0.825152 0.980116 0.086642
Si Si8 0.174338 0.772195 0.304856
O O1 0.500000 0.131778 0.489947
O O2 0.766892 0.183496 0.470988
O O3 0.727905 0.081808 0.545054
O O4 0.707815 0.056179 0.440574
O O5 0.238113 0.323870 0.451435
O O6 0.166330 0.423893 0.516546
O O7 0.242854 0.469999 0.420684
O O8 0.000000 0.400720 0.431690
O O9 0.500000 0.692533 0.407259
O O10 0.754835 0.727090 0.449391
O O11 0.726701 0.606689 0.390117
O O12 0.726912 0.733924 0.348885
O O13 0.250000 0.033736 0.750000
O O14 0.500000 0.037623 0.800267
O O15 0.260905 0.021531 0.857196
O O16 0.306722 0.143809 0.813112
O O17 0.000000 0.737516 0.504259
O O18 0.000000 0.552049 0.399311
O O19 0.000000 0.970224 0.098598
O O20 0.250000 0.747271 0.250000
O O21 0.000000 0.749153 0.307033
#
# Coordination Sequence:
#
# PCOD8217719 Si02
#       8
#     8   8   8   8   8   8   8   8
#     4   9  18  31  45  63  87 118 148 178 219 263
#     4   7  12  23  39  56  77 106 137 168 204 240
#     4  11  20  28  40  60  85 113 143 176 211 251
#     4  10  20  32  48  67  86 110 144 182 220 258
#     4  10  18  28  42  61  84 112 145 179 212 252
#     4   8  13  25  41  55  75 106 140 170 200 239
#     4   9  18  32  47  62  87 118 147 178 216 262
#     4  10  20  33  46  62  83 109 140 176 214 251
#
# _framework density 15.426270000000001
#
# number of rings (size 3 to 8) (size 9 to 14) (size 15 to 20)
#    0.000    2.750    0.000    5.250    0.000    4.500 
#    0.000    6.875    0.000    0.000    0.000    0.000 
#    0.000    1.000    0.000    5.250    0.000    4.875 
#
# Total GULP energy -792929.565726 kJ/mol
# GULP energy per Si atom -12389.524464 kJ/mol
# Density = 1.539116 g / cm^3
# Si number density = 15.426270 Si / 1000 Ang^3
#
#
#
# Elastic Constant Matrix: (Units=GPa)
#
#
# Indices 1 2 3 4 5 6 
#
# 1 71.4987 41.6053 31.6546 0.0000 0.0000 0.0000
# 2 41.6053 92.4575 24.7573 0.0000 0.0000 0.0000
# 3 31.6546 24.7573 66.4222 0.0000 0.0000 0.0000
# 4 0.0000 0.0000 0.0000 39.2226 0.0000 0.0000
# 5 0.0000 0.0000 0.0000 0.0000 22.3956 0.0000
# 6 0.0000 0.0000 0.0000 0.0000 0.0000 8.8894
#
#
#
# Elastic Compliance Matrix: (Units=1/GPa)
#
#
# Indices 1 2 3 4 5 6 
#
# 1 0.021863 -0.007830 -0.007501 0.000000 0.000000 0.000000
# 2 -0.007830 0.014819 -0.001792 0.000000 0.000000 0.000000
# 3 -0.007501 -0.001792 0.019298 0.000000 0.000000 0.000000
# 4 0.000000 0.000000 0.000000 0.025496 0.000000 0.000000
# 5 0.000000 0.000000 0.000000 0.000000 0.044652 0.000000
# 6 0.000000 0.000000 0.000000 0.000000 0.000000 0.112493
#
#
# Mechanical properties :
#
#
# Convention : Reuss Voigt Hill
#
# Bulk Modulus (GPa) = 46.00956 47.37919 46.69438
# Shear Modulus (GPa) = 17.85005 22.92561 20.38783
#
# Velocity S-wave (km/s) = 3.40534 3.85923 3.63937
# Velocity P-wave (km/s) = 6.73439 7.11605 6.92785
#
# Compressibility (1/GPa) = 0.02173461
#
# Stress axis : x y z
#
# Youngs Moduli (GPa) = 45.73859 67.48094 51.81928
#
# Poissons Ratio (x) = 0.52837 0.38869
# Poissons Ratio (y) = 0.35813 0.09286
# Poissons Ratio (z) = 0.34308 0.12093
#
# Static dielectric constant tensor:
#      x y z
#    x 2.931970 0.000000 0.000000 
#    y 0.000000 3.362910 0.000000 
#    z 0.000000 0.000000 2.616280 
# 
# 
# High freq. dielectric constant tensor:
#      x y z
#    x 1.587590 0.000000 0.000000 
#    y 0.000000 1.595200 0.000000 
#    z 0.000000 0.000000 1.548560 
# 
# From -- ./inp_files/34433.got.cif
#   From: 2010.03.12/outbox.cif.g09.slc.cpg/sg53_18_cif.got.tgz:34433.got - 2010.04.16 14:36:59.
