data_PCOD8217157
_publ_section_title
;
Structure prediction by ZEFSAII (Michael W. Deem and Ramdas Pophale) SiO2 
 PCOD8217157
Probable space group: P N N A
;
_chemical_formula_sum "Si O2"
_cell_formula_units_Z 40
_cell_length_a 11.898014
_cell_length_b 18.137200
_cell_length_c 8.495605
_cell_angle_alpha 90.000000
_cell_angle_beta 90.000000
_cell_angle_gamma 90.000000
_cell_volume 1833.323180
_symmetry_space_group_name_H-M "P N N A"
_symmetry_group_IT_number 52
_symmetry_cell_setting 'orthorhombic'
loop_
_space_group_symop_operation_xyz
x,y,z
1/2-x,-y,z
x,1/2-y,1/2-z
1/2-x,1/2+y,1/2-z
-x,-y,-z
1/2+x,y,-z
-x,1/2+y,1/2+z
1/2+x,1/2-y,1/2+z
loop_
_atom_site_type_symbol
_atom_site_label
_atom_site_fract_x
_atom_site_fract_y
_atom_site_fract_z
Si Si1 0.151883 0.331832 0.796769
Si Si2 0.524111 0.469843 0.328141
Si Si3 0.184982 0.567859 0.139459
Si Si4 0.371957 0.827606 0.327645
Si Si5 0.609442 0.610867 0.181637
O O1 0.116070 0.250000 0.750000
O O2 0.077632 0.388505 0.692743
O O3 0.281953 0.347062 0.749726
O O4 0.131751 0.336595 0.983427
O O5 0.500000 0.500000 0.500000
O O6 0.399787 0.468646 0.259680
O O7 0.606239 0.526313 0.238480
O O8 0.250000 0.500000 0.055460
O O9 0.273465 0.618822 0.235055
O O10 0.117214 0.613190 0.007728
O O11 0.341852 0.750000 0.250000
O O12 0.495096 0.849256 0.263703
#
# Coordination Sequence:
#
# PCOD8217157 Si02
#       5
#     8   8   8   8   8
#     4  11  26  45  66 103 145 178 228 293 361 420
#     4  12  26  43  72 102 138 184 236 296 346 424
#     4  11  22  42  71  98 131 178 229 288 344 423
#     4  11  24  42  72 101 136 183 230 285 357 430
#     4  11  22  46  70  97 132 182 236 283 354 414
#
# _framework density 21.818301999999999
#
# number of rings (size 3 to 8) (size 9 to 14) (size 15 to 20)
#    0.000    0.800    4.000    4.200    2.800    4.000 
#    0.000    0.000    0.000    0.000    0.000    0.000 
#    0.000    0.000    0.000    0.000    0.000    0.000 
#
# Total GULP energy -495869.315461 kJ/mol
# GULP energy per Si atom -12396.732887 kJ/mol
# Density = 2.176864 g / cm^3
# Si number density = 21.818302 Si / 1000 Ang^3
#
#
#
# Elastic Constant Matrix: (Units=GPa)
#
#
# Indices 1 2 3 4 5 6 
#
# 1 93.3829 34.6037 30.1548 0.0000 0.0000 0.0000
# 2 34.6037 146.8684 26.8208 0.0000 0.0000 0.0000
# 3 30.1548 26.8208 80.9346 0.0000 0.0000 0.0000
# 4 0.0000 0.0000 0.0000 37.2972 0.0000 0.0000
# 5 0.0000 0.0000 0.0000 0.0000 16.4512 0.0000
# 6 0.0000 0.0000 0.0000 0.0000 0.0000 43.1071
#
#
#
# Elastic Compliance Matrix: (Units=1/GPa)
#
#
# Indices 1 2 3 4 5 6 
#
# 1 0.012860 -0.002294 -0.004031 0.000000 0.000000 0.000000
# 2 -0.002294 0.007657 -0.001683 0.000000 0.000000 0.000000
# 3 -0.004031 -0.001683 0.014415 0.000000 0.000000 0.000000
# 4 0.000000 0.000000 0.000000 0.026812 0.000000 0.000000
# 5 0.000000 0.000000 0.000000 0.000000 0.060786 0.000000
# 6 0.000000 0.000000 0.000000 0.000000 0.000000 0.023198
#
#
# Mechanical properties :
#
#
# Convention : Reuss Voigt Hill
#
# Bulk Modulus (GPa) = 52.86401 56.03828 54.45114
# Shear Modulus (GPa) = 29.75323 34.67821 32.21572
#
# Velocity S-wave (km/s) = 3.69681 3.99106 3.84675
# Velocity P-wave (km/s) = 6.51949 6.85405 6.68886
#
# Compressibility (1/GPa) = 0.01891646
#
# Stress axis : x y z
#
# Youngs Moduli (GPa) = 77.75810 130.60712 69.37073
#
# Poissons Ratio (x) = 0.29959 0.27966
# Poissons Ratio (y) = 0.17836 0.11673
# Poissons Ratio (z) = 0.31347 0.21977
#
# Static dielectric constant tensor:
#      x y z
#    x 4.341550 0.000000 0.000000 
#    y 0.000000 4.048580 0.000000 
#    z 0.000000 0.000000 3.576920 
# 
# 
# High freq. dielectric constant tensor:
#      x y z
#    x 1.877660 0.000000 0.000000 
#    y 0.000000 1.865540 0.000000 
#    z 0.000000 0.000000 1.831570 
# 
# From -- ./inp_files/8497.got.cif
#   From: 2010.06.25/outbox.cif.g09.slc.cpg/sg52_5_cif.got.tgz:8497.got - 2010.06.26 19:32:48.
