data_PCOD8217981
_publ_section_title
;
Structure prediction by ZEFSAII (Michael W. Deem and Ramdas Pophale) SiO2 
 PCOD8217981
Probable space group: P M N A
;
_chemical_formula_sum "Si O2"
_cell_formula_units_Z 64
_cell_length_a 16.949415
_cell_length_b 12.102810
_cell_length_c 16.964706
_cell_angle_alpha 90.000000
_cell_angle_beta 90.000000
_cell_angle_gamma 90.000000
_cell_volume 3480.064285
_symmetry_space_group_name_H-M "P M N A"
_symmetry_group_IT_number 53
_symmetry_cell_setting 'orthorhombic'
loop_
_space_group_symop_operation_xyz
x,y,z
1/2-x,-y,1/2+z
x,-y,-z
1/2-x,y,1/2-z
-x,-y,-z
1/2+x,y,1/2-z
-x,y,z
1/2+x,-y,1/2+z
loop_
_atom_site_type_symbol
_atom_site_label
_atom_site_fract_x
_atom_site_fract_y
_atom_site_fract_z
Si Si1 0.587479 0.956879 0.583995
Si Si2 0.253949 0.231123 0.553872
Si Si3 0.261963 0.027160 0.662940
Si Si4 0.706556 0.535916 0.090043
Si Si5 0.210484 0.789863 0.626328
Si Si6 0.587564 0.277787 0.479980
Si Si7 0.335537 0.613288 0.655324
Si Si8 0.592418 0.614343 0.822666
O O1 0.500000 0.005051 0.600876
O O2 0.586720 0.825169 0.580458
O O3 0.619652 0.000000 0.500000
O O4 0.645898 0.997881 0.651572
O O5 0.235378 0.121087 0.602324
O O6 0.207940 0.331562 0.595974
O O7 0.220429 0.214492 0.467153
O O8 0.348254 0.259159 0.549415
O O9 0.250000 0.074933 0.750000
O O10 0.209188 0.917092 0.653069
O O11 0.777327 0.489677 0.143785
O O12 0.625263 0.486727 0.124324
O O13 0.718764 0.500000 0.000000
O O14 0.282724 0.723858 0.667008
O O15 0.128702 0.731502 0.649708
O O16 0.500000 0.295032 0.517159
O O17 0.610457 0.379837 0.423388
O O18 0.389233 0.592401 0.731062
O O19 0.500000 0.620777 0.836373
#
# Coordination Sequence:
#
# PCOD8217981 Si02
#       8
#     8   8   8   8   8   8   8   8
#     4  10  18  32  56  84 113 145 185 234 282 333
#     4  11  21  37  58  82 116 158 205 235 278 348
#     4  12  22  34  55  86 122 160 193 230 286 357
#     4  11  20  39  61  86 110 156 199 241 283 343
#     4  10  19  37  60  85 112 147 194 245 288 342
#     4  10  18  30  56  89 118 143 178 236 297 343
#     4  10  19  35  59  87 121 142 181 242 302 347
#     4  11  23  38  62  90 114 144 194 255 306 342
#
# _framework density 18.390464999999999
#
# number of rings (size 3 to 8) (size 9 to 14) (size 15 to 20)
#    0.000    1.375    7.500    3.000    0.000    1.250 
#    0.000    1.875    0.000    5.250    0.000    0.000 
#    0.000    0.000    0.000    0.000    0.000    0.000 
#
# Total GULP energy -793530.227733 kJ/mol
# GULP energy per Si atom -12398.909808 kJ/mol
# Density = 1.834861 g / cm^3
# Si number density = 18.390465 Si / 1000 Ang^3
#
#
#
# Elastic Constant Matrix: (Units=GPa)
#
#
# Indices 1 2 3 4 5 6 
#
# 1 118.0054 29.0374 41.0505 0.0000 0.0000 0.0000
# 2 29.0374 89.7098 24.2341 0.0000 0.0000 0.0000
# 3 41.0505 24.2341 77.3123 0.0000 0.0000 0.0000
# 4 0.0000 0.0000 0.0000 25.6701 0.0000 0.0000
# 5 0.0000 0.0000 0.0000 0.0000 24.9676 0.0000
# 6 0.0000 0.0000 0.0000 0.0000 0.0000 18.1183
#
#
#
# Elastic Compliance Matrix: (Units=1/GPa)
#
#
# Indices 1 2 3 4 5 6 
#
# 1 0.010750 -0.002117 -0.005044 0.000000 0.000000 0.000000
# 2 -0.002117 0.012595 -0.002824 0.000000 0.000000 0.000000
# 3 -0.005044 -0.002824 0.016498 0.000000 0.000000 0.000000
# 4 0.000000 0.000000 0.000000 0.038956 0.000000 0.000000
# 5 0.000000 0.000000 0.000000 0.000000 0.040052 0.000000
# 6 0.000000 0.000000 0.000000 0.000000 0.000000 0.055193
#
#
# Mechanical properties :
#
#
# Convention : Reuss Voigt Hill
#
# Bulk Modulus (GPa) = 50.32029 52.63017 51.47523
# Shear Modulus (GPa) = 24.92047 26.46490 25.69269
#
# Velocity S-wave (km/s) = 3.68513 3.79760 3.74179
# Velocity P-wave (km/s) = 6.74748 6.92166 6.83512
#
# Compressibility (1/GPa) = 0.01987270
#
# Stress axis : x y z
#
# Youngs Moduli (GPa) = 93.02470 79.39575 60.61287
#
# Poissons Ratio (x) = 0.16807 0.30575
# Poissons Ratio (y) = 0.19692 0.17117
# Poissons Ratio (z) = 0.46924 0.22422
#
# Static dielectric constant tensor:
#      x y z
#    x 3.364890 0.000000 0.000000 
#    y 0.000000 3.497920 0.000000 
#    z 0.000000 0.000000 3.292770 
# 
# 
# High freq. dielectric constant tensor:
#      x y z
#    x 1.693760 0.000000 0.000000 
#    y 0.000000 1.708280 0.000000 
#    z 0.000000 0.000000 1.701160 
# 
# From -- ./inp_files/29130.got.cif
#   From: 2010.03.12/outbox.cif.g09.slc.cpg/sg53_15_cif.got.tgz:29130.got - 2010.04.16 14:36:59.
