data_PCOD8217751
_publ_section_title
;
Structure prediction by ZEFSAII (Michael W. Deem and Ramdas Pophale) SiO2 
 PCOD8217751
Probable space group: P M N A
;
_chemical_formula_sum "Si O2"
_cell_formula_units_Z 56
_cell_length_a 9.094848
_cell_length_b 18.966799
_cell_length_c 18.438231
_cell_angle_alpha 90.000000
_cell_angle_beta 90.000000
_cell_angle_gamma 90.000000
_cell_volume 3180.597686
_symmetry_space_group_name_H-M "P M N A"
_symmetry_group_IT_number 53
_symmetry_cell_setting 'orthorhombic'
loop_
_space_group_symop_operation_xyz
x,y,z
1/2-x,-y,1/2+z
x,-y,-z
1/2-x,y,1/2-z
-x,-y,-z
1/2+x,y,1/2-z
-x,y,z
1/2+x,-y,1/2+z
loop_
_atom_site_type_symbol
_atom_site_label
_atom_site_fract_x
_atom_site_fract_y
_atom_site_fract_z
Si Si1 0.171033 0.289273 0.674401
Si Si2 0.172800 0.134709 0.174225
Si Si3 0.671378 0.720539 0.598148
Si Si4 0.330740 0.785257 0.032275
Si Si5 0.672448 0.594557 0.827404
Si Si6 0.330146 0.930179 0.959701
Si Si7 0.668535 0.557541 0.175957
O O1 0.250000 0.273312 0.750000
O O2 0.216079 0.231035 0.615030
O O3 0.212826 0.367174 0.640081
O O4 0.000000 0.284744 0.691808
O O5 0.250000 0.117134 0.250000
O O6 0.206955 0.215650 0.153329
O O7 0.000000 0.120928 0.181315
O O8 0.236102 0.082859 0.112674
O O9 0.500000 0.702882 0.596931
O O10 0.723577 0.740640 0.518278
O O11 0.760981 0.651736 0.619335
O O12 0.500000 0.762489 0.018096
O O13 0.308553 0.867759 0.017719
O O14 0.750000 0.601014 0.750000
O O15 0.500000 0.609460 0.816605
O O16 0.700057 0.516881 0.865308
O O17 0.500000 0.937630 0.936283
O O18 0.272638 0.000000 0.000000
O O19 0.750000 0.550629 0.250000
O O20 0.500000 0.560675 0.196735
#
# Coordination Sequence:
#
# PCOD8217751 Si02
#       7
#     8   8   8   8   8   8   8
#     4   9  17  31  51  72  93 120 157 199 241 284
#     4  10  20  33  51  75 101 130 165 202 238 281
#     4  10  20  32  47  69  97 128 162 200 241 284
#     4   9  18  33  52  72  95 125 159 194 237 290
#     4  10  18  28  44  66  93 125 160 198 239 282
#     4   9  18  34  55  76 101 132 162 195 239 289
#     4   8  15  27  43  64  89 119 156 196 237 281
#
# _framework density 17.606753999999999
#
# number of rings (size 3 to 8) (size 9 to 14) (size 15 to 20)
#    0.000    2.714    0.000    1.714    0.000    4.286 
#    0.000    1.429    0.000    6.000    0.000    0.000 
#    0.000    0.000    0.000    0.000    0.000    0.000 
#
# Total GULP energy -693922.832826 kJ/mol
# GULP energy per Si atom -12391.479158 kJ/mol
# Density = 1.756668 g / cm^3
# Si number density = 17.606754 Si / 1000 Ang^3
#
#
#
# Elastic Constant Matrix: (Units=GPa)
#
#
# Indices 1 2 3 4 5 6 
#
# 1 71.9842 46.0806 51.0269 0.0000 0.0000 0.0000
# 2 46.0806 109.4536 70.5253 0.0000 0.0000 0.0000
# 3 51.0269 70.5253 111.4529 0.0000 0.0000 0.0000
# 4 0.0000 0.0000 0.0000 22.2746 0.0000 0.0000
# 5 0.0000 0.0000 0.0000 0.0000 28.4547 0.0000
# 6 0.0000 0.0000 0.0000 0.0000 0.0000 20.6646
#
#
#
# Elastic Compliance Matrix: (Units=1/GPa)
#
#
# Indices 1 2 3 4 5 6 
#
# 1 0.021887 -0.004657 -0.007074 0.000000 0.000000 0.000000
# 2 -0.004657 0.016416 -0.008256 0.000000 0.000000 0.000000
# 3 -0.007074 -0.008256 0.017436 0.000000 0.000000 0.000000
# 4 0.000000 0.000000 0.000000 0.044894 0.000000 0.000000
# 5 0.000000 0.000000 0.000000 0.000000 0.035144 0.000000
# 6 0.000000 0.000000 0.000000 0.000000 0.000000 0.048392
#
#
# Mechanical properties :
#
#
# Convention : Reuss Voigt Hill
#
# Bulk Modulus (GPa) = 63.42889 69.79513 66.61201
# Shear Modulus (GPa) = 21.79616 22.62931 22.21273
#
# Velocity S-wave (km/s) = 3.52226 3.58895 3.55576
# Velocity P-wave (km/s) = 7.25571 7.54329 7.40089
#
# Compressibility (1/GPa) = 0.01576569
#
# Stress axis : x y z
#
# Youngs Moduli (GPa) = 45.68819 60.91448 57.35414
#
# Poissons Ratio (x) = 0.28365 0.40574
# Poissons Ratio (y) = 0.21275 0.47352
# Poissons Ratio (z) = 0.32321 0.50292
#
# Static dielectric constant tensor:
#      x y z
#    x 3.305030 0.000000 0.000000 
#    y 0.000000 3.646800 0.000000 
#    z 0.000000 0.000000 3.009020 
# 
# 
# High freq. dielectric constant tensor:
#      x y z
#    x 1.686030 0.000000 0.000000 
#    y 0.000000 1.683700 0.000000 
#    z 0.000000 0.000000 1.654690 
# 
# From -- ./inp_files/20531.got.cif
#   From: 2010.03.12/outbox.cif.g09.slc.cpg/sg53_11_cif.got.tgz:20531.got - 2010.04.16 14:36:59.
