data_PCOD8217741
_publ_section_title
;
Structure prediction by ZEFSAII (Michael W. Deem and Ramdas Pophale) SiO2 
 PCOD8217741
Probable space group: P M N A
;
_chemical_formula_sum "Si O2"
_cell_formula_units_Z 56
_cell_length_a 9.176110
_cell_length_b 16.026278
_cell_length_c 24.753762
_cell_angle_alpha 90.000000
_cell_angle_beta 90.000000
_cell_angle_gamma 90.000000
_cell_volume 3640.260759
_symmetry_space_group_name_H-M "P M N A"
_symmetry_group_IT_number 53
_symmetry_cell_setting 'orthorhombic'
loop_
_space_group_symop_operation_xyz
x,y,z
1/2-x,-y,1/2+z
x,-y,-z
1/2-x,y,1/2-z
-x,-y,-z
1/2+x,y,1/2-z
-x,y,z
1/2+x,-y,1/2+z
loop_
_atom_site_type_symbol
_atom_site_label
_atom_site_fract_x
_atom_site_fract_y
_atom_site_fract_z
Si Si1 0.171683 0.526511 0.416461
Si Si2 0.672295 0.198488 0.489474
Si Si3 0.327628 0.632101 0.982737
Si Si4 0.171523 0.880124 0.409231
Si Si5 0.668849 0.784350 0.197769
Si Si6 0.828571 0.592277 0.303698
Si Si7 0.660090 0.032256 0.439323
O O1 0.213009 0.433626 0.435586
O O2 0.227559 0.594921 0.459867
O O3 0.233549 0.543573 0.356383
O O4 0.000000 0.537225 0.415109
O O5 0.500000 0.206373 0.499344
O O6 0.739191 0.284860 0.468936
O O7 0.747479 0.172447 0.545183
O O8 0.706004 0.129716 0.442714
O O9 0.500000 0.650621 0.983754
O O10 0.216407 0.838996 0.353007
O O11 0.000000 0.876359 0.420383
O O12 0.222934 0.976831 0.406902
O O13 0.750000 0.820247 0.250000
O O14 0.500000 0.793033 0.209647
O O15 0.712085 0.688673 0.186906
O O16 0.750000 0.557342 0.250000
O O17 0.000000 0.578559 0.296280
O O18 0.500000 0.022866 0.412274
O O19 0.651492 0.000000 0.500000
#
# Coordination Sequence:
#
# PCOD8217741 Si02
#       7
#     8   8   8   8   8   8   8
#     4   8  15  28  45  63  85 111 140 176 217 254
#     4  10  19  29  41  61  89 116 139 168 210 253
#     4   9  16  28  46  64  82 111 146 177 212 254
#     4  10  18  28  44  64  84 110 145 178 204 239
#     4   9  18  29  42  62  86 111 140 172 204 243
#     4   9  16  28  43  60  84 112 140 170 205 247
#     4   8  16  29  41  57  84 113 137 164 205 250
#
# _framework density 15.383514
#
# number of rings (size 3 to 8) (size 9 to 14) (size 15 to 20)
#    0.000    3.000    0.000    3.429    0.000    6.571 
#    0.000    5.714    0.000    0.000    0.000    1.000 
#    0.000    2.286    0.000    0.000    0.000    0.000 
#
# Total GULP energy -694124.691292 kJ/mol
# GULP energy per Si atom -12395.083773 kJ/mol
# Density = 1.534850 g / cm^3
# Si number density = 15.383514 Si / 1000 Ang^3
#
#
#
# Elastic Constant Matrix: (Units=GPa)
#
#
# Indices 1 2 3 4 5 6 
#
# 1 54.5977 42.2038 38.8109 0.0000 0.0000 0.0000
# 2 42.2038 108.9328 52.5820 0.0000 0.0000 0.0000
# 3 38.8109 52.5820 106.1583 0.0000 0.0000 0.0000
# 4 0.0000 0.0000 0.0000 22.5206 0.0000 0.0000
# 5 0.0000 0.0000 0.0000 0.0000 22.0656 0.0000
# 6 0.0000 0.0000 0.0000 0.0000 0.0000 14.0209
#
#
#
# Elastic Compliance Matrix: (Units=1/GPa)
#
#
# Indices 1 2 3 4 5 6 
#
# 1 0.029379 -0.008145 -0.006706 0.000000 0.000000 0.000000
# 2 -0.008145 0.014323 -0.004116 0.000000 0.000000 0.000000
# 3 -0.006706 -0.004116 0.013911 0.000000 0.000000 0.000000
# 4 0.000000 0.000000 0.000000 0.044404 0.000000 0.000000
# 5 0.000000 0.000000 0.000000 0.000000 0.045319 0.000000
# 6 0.000000 0.000000 0.000000 0.000000 0.000000 0.071322
#
#
# Mechanical properties :
#
#
# Convention : Reuss Voigt Hill
#
# Bulk Modulus (GPa) = 50.82207 59.65358 55.23782
# Shear Modulus (GPa) = 19.00038 20.79423 19.89730
#
# Velocity S-wave (km/s) = 3.51823 3.68057 3.60031
# Velocity P-wave (km/s) = 7.04360 7.54479 7.29850
#
# Compressibility (1/GPa) = 0.01967649
#
# Stress axis : x y z
#
# Youngs Moduli (GPa) = 34.03758 69.81954 71.88726
#
# Poissons Ratio (x) = 0.56869 0.48211
# Poissons Ratio (y) = 0.27724 0.29592
# Poissons Ratio (z) = 0.22827 0.28741
#
# Static dielectric constant tensor:
#      x y z
#    x 2.859660 0.000000 0.000000 
#    y 0.000000 3.135690 0.000000 
#    z 0.000000 0.000000 2.966880 
# 
# 
# High freq. dielectric constant tensor:
#      x y z
#    x 1.582340 0.000000 0.000000 
#    y 0.000000 1.583890 0.000000 
#    z 0.000000 0.000000 1.564470 
# 
# From -- ./inp_files/34375.got.cif
#   From: 2010.03.12/outbox.cif.g09.slc.cpg/sg53_18_cif.got.tgz:34375.got - 2010.04.16 14:36:59.
