data_PCOD8217282
_publ_section_title
;
Structure prediction by ZEFSAII (Michael W. Deem and Ramdas Pophale) SiO2 
 PCOD8217282
Probable space group: P N N A
;
_chemical_formula_sum "Si O2"
_cell_formula_units_Z 40
_cell_length_a 8.986162
_cell_length_b 7.674921
_cell_length_c 26.675841
_cell_angle_alpha 90.000000
_cell_angle_beta 90.000000
_cell_angle_gamma 90.000000
_cell_volume 1839.781628
_symmetry_space_group_name_H-M "P N N A"
_symmetry_group_IT_number 52
_symmetry_cell_setting 'orthorhombic'
loop_
_space_group_symop_operation_xyz
x,y,z
1/2-x,-y,z
x,1/2-y,1/2-z
1/2-x,1/2+y,1/2-z
-x,-y,-z
1/2+x,y,-z
-x,1/2+y,1/2+z
1/2+x,1/2-y,1/2+z
loop_
_atom_site_type_symbol
_atom_site_label
_atom_site_fract_x
_atom_site_fract_y
_atom_site_fract_z
Si Si1 0.579067 0.054391 0.949272
Si Si2 0.416947 0.542399 0.050514
Si Si3 0.932866 0.364624 0.846168
Si Si4 0.425125 0.976305 0.850431
Si Si5 0.379800 0.718172 0.193724
O O1 0.559553 0.256507 0.936119
O O2 0.493303 0.953220 0.905656
O O3 0.750000 0.000000 0.951566
O O4 0.500000 0.000000 0.000000
O O5 0.250000 0.500000 0.037383
O O6 0.471328 0.425234 0.097179
O O7 0.500000 0.500000 0.000000
O O8 0.762388 0.291139 0.843581
O O9 0.958748 0.529283 0.809410
O O10 0.041388 0.212778 0.826161
O O11 0.505358 0.131041 0.820738
O O12 0.250000 0.000000 0.851560
O O13 0.322953 0.750000 0.250000
#
# Coordination Sequence:
#
# PCOD8217282 Si02
#       5
#     8   8   8   8   8
#     4  12  24  43  69 101 143 191 251 296 363 435
#     4  12  23  42  66 103 142 186 232 296 358 432
#     4  11  24  46  75 105 142 182 250 309 356 437
#     4  12  26  45  68 104 150 188 232 299 366 442
#     4  11  25  47  76 106 134 187 249 307 368 427
#
# _framework density 21.741710999999999
#
# number of rings (size 3 to 8) (size 9 to 14) (size 15 to 20)
#    0.000    0.400    4.000    6.000    5.600    2.400 
#    3.600    0.000    0.000    0.000    0.000    0.000 
#    0.000    0.000    0.000    0.000    0.000    0.000 
#
# Total GULP energy -496046.718454 kJ/mol
# GULP energy per Si atom -12401.167961 kJ/mol
# Density = 2.169223 g / cm^3
# Si number density = 21.741711 Si / 1000 Ang^3
#
#
#
# Elastic Constant Matrix: (Units=GPa)
#
#
# Indices 1 2 3 4 5 6 
#
# 1 110.7377 70.7185 32.6764 0.0000 0.0000 0.0000
# 2 70.7185 177.7340 31.5401 0.0000 0.0000 0.0000
# 3 32.6764 31.5401 103.5033 0.0000 0.0000 0.0000
# 4 0.0000 0.0000 0.0000 28.3118 0.0000 0.0000
# 5 0.0000 0.0000 0.0000 0.0000 19.6521 0.0000
# 6 0.0000 0.0000 0.0000 0.0000 0.0000 32.3265
#
#
#
# Elastic Compliance Matrix: (Units=1/GPa)
#
#
# Indices 1 2 3 4 5 6 
#
# 1 0.012745 -0.004606 -0.002620 0.000000 0.000000 0.000000
# 2 -0.004606 0.007613 -0.000866 0.000000 0.000000 0.000000
# 3 -0.002620 -0.000866 0.010752 0.000000 0.000000 0.000000
# 4 0.000000 0.000000 0.000000 0.035321 0.000000 0.000000
# 5 0.000000 0.000000 0.000000 0.000000 0.050885 0.000000
# 6 0.000000 0.000000 0.000000 0.000000 0.000000 0.030934
#
#
# Mechanical properties :
#
#
# Convention : Reuss Voigt Hill
#
# Bulk Modulus (GPa) = 66.99457 73.53834 70.26645
# Shear Modulus (GPa) = 29.51420 33.19408 31.35414
#
# Velocity S-wave (km/s) = 3.68841 3.91160 3.80164
# Velocity P-wave (km/s) = 7.00142 7.36871 7.18741
#
# Compressibility (1/GPa) = 0.01492658
#
# Stress axis : x y z
#
# Youngs Moduli (GPa) = 78.46205 131.35883 93.00203
#
# Poissons Ratio (x) = 0.60506 0.24367
# Poissons Ratio (y) = 0.36141 0.08050
# Poissons Ratio (z) = 0.20557 0.11371
#
# Static dielectric constant tensor:
#      x y z
#    x 3.639370 0.000000 0.000000 
#    y 0.000000 4.585260 0.000000 
#    z 0.000000 0.000000 3.960880 
# 
# 
# High freq. dielectric constant tensor:
#      x y z
#    x 1.832430 0.000000 0.000000 
#    y 0.000000 1.885660 0.000000 
#    z 0.000000 0.000000 1.857440 
# 
# From -- ./inp_files/42112.got.cif
#   From: 2010.06.25/outbox.cif.g09.slc.cpg/sg52_22_cif.got.tgz:42112.got - 2010.06.26 19:32:48.
