data_PCOD8217352
_publ_section_title
;
Structure prediction by ZEFSAII (Michael W. Deem and Ramdas Pophale) SiO2 
 PCOD8217352
Probable space group: P N N A
;
_chemical_formula_sum "Si O2"
_cell_formula_units_Z 36
_cell_length_a 8.883078
_cell_length_b 9.477865
_cell_length_c 18.476846
_cell_angle_alpha 90.000000
_cell_angle_beta 90.000000
_cell_angle_gamma 90.000000
_cell_volume 1555.613964
_symmetry_space_group_name_H-M "P N N A"
_symmetry_group_IT_number 52
_symmetry_cell_setting 'orthorhombic'
loop_
_space_group_symop_operation_xyz
x,y,z
1/2-x,-y,z
x,1/2-y,1/2-z
1/2-x,1/2+y,1/2-z
-x,-y,-z
1/2+x,y,-z
-x,1/2+y,1/2+z
1/2+x,1/2-y,1/2+z
loop_
_atom_site_type_symbol
_atom_site_label
_atom_site_fract_x
_atom_site_fract_y
_atom_site_fract_z
Si Si1 0.750000 0.000000 0.876228
Si Si2 0.385417 0.390569 0.204166
Si Si3 0.459189 0.233251 0.065444
Si Si4 0.988006 0.112079 0.204156
Si Si5 0.707818 0.850325 0.065224
O O1 0.882447 0.083023 0.916832
O O2 0.656995 0.115441 0.829790
O O3 0.250000 0.500000 0.208189
O O4 0.355870 0.250000 0.250000
O O5 0.409545 0.357420 0.119480
O O6 0.525276 0.472795 0.243744
O O7 0.637711 0.234361 0.072769
O O8 0.404383 0.250682 0.981946
O O9 0.961711 0.250000 0.250000
O O10 0.861407 0.110726 0.142535
O O11 0.750000 0.000000 0.026155
#
# Coordination Sequence:
#
# PCOD8217352 Si02
#       5
#     4   8   8   8   8
#     4  12  20  42  68 100 140 174 236 284 358 416
#     4  12  23  44  73 108 144 191 239 296 364 438
#     4  12  25  42  72 105 139 184 241 302 351 425
#     4  12  26  44  72 105 146 187 239 298 362 434
#     4  12  24  46  69 105 141 189 246 301 353 431
#
# _framework density 23.141988999999999
#
# number of rings (size 3 to 8) (size 9 to 14) (size 15 to 20)
#    0.000    0.000    6.667    4.000    0.000    2.667 
#    0.000    4.444    0.000    0.000    0.000    0.000 
#    0.000    0.000    0.000    0.000    0.000    0.000 
#
# Total GULP energy -445992.788243 kJ/mol
# GULP energy per Si atom -12388.688562 kJ/mol
# Density = 2.308932 g / cm^3
# Si number density = 23.141989 Si / 1000 Ang^3
#
#
#
# Elastic Constant Matrix: (Units=GPa)
#
#
# Indices 1 2 3 4 5 6 
#
# 1 141.9376 43.0826 63.4420 0.0000 0.0000 0.0000
# 2 43.0826 123.1022 64.2776 0.0000 0.0000 0.0000
# 3 63.4420 64.2776 149.1902 0.0000 0.0000 0.0000
# 4 0.0000 0.0000 0.0000 35.7766 0.0000 0.0000
# 5 0.0000 0.0000 0.0000 0.0000 21.1863 0.0000
# 6 0.0000 0.0000 0.0000 0.0000 0.0000 13.4689
#
#
#
# Elastic Compliance Matrix: (Units=1/GPa)
#
#
# Indices 1 2 3 4 5 6 
#
# 1 0.008900 -0.001469 -0.003152 0.000000 0.000000 0.000000
# 2 -0.001469 0.010724 -0.003996 0.000000 0.000000 0.000000
# 3 -0.003152 -0.003996 0.009765 0.000000 0.000000 0.000000
# 4 0.000000 0.000000 0.000000 0.027951 0.000000 0.000000
# 5 0.000000 0.000000 0.000000 0.000000 0.047200 0.000000
# 6 0.000000 0.000000 0.000000 0.000000 0.000000 0.074245
#
#
# Mechanical properties :
#
#
# Convention : Reuss Voigt Hill
#
# Bulk Modulus (GPa) = 82.26662 83.98159 83.12411
# Shear Modulus (GPa) = 24.99131 30.31488 27.65310
#
# Velocity S-wave (km/s) = 3.28977 3.62325 3.46053
# Velocity P-wave (km/s) = 7.07502 7.33978 7.20862
#
# Compressibility (1/GPa) = 0.01215560
#
# Stress axis : x y z
#
# Youngs Moduli (GPa) = 112.35961 93.25111 102.41141
#
# Poissons Ratio (x) = 0.13700 0.32277
# Poissons Ratio (y) = 0.16507 0.40919
# Poissons Ratio (z) = 0.35412 0.37259
#
# Static dielectric constant tensor:
#      x y z
#    x 4.221630 0.000000 0.000000 
#    y 0.000000 4.133390 0.000000 
#    z 0.000000 0.000000 4.743010 
# 
# 
# High freq. dielectric constant tensor:
#      x y z
#    x 1.912910 0.000000 0.000000 
#    y 0.000000 1.885850 0.000000 
#    z 0.000000 0.000000 1.934220 
# 
# From -- ./inp_files/35559.got.cif
#   From: 2010.06.25/outbox.cif.g09.slc.cpg/sg52_18_cif.got.tgz:35559.got - 2010.06.26 19:32:48.
