data_PCOD8217747
_publ_section_title
;
Structure prediction by ZEFSAII (Michael W. Deem and Ramdas Pophale) SiO2 
 PCOD8217747
Probable space group: P M N A
;
_chemical_formula_sum "Si O2"
_cell_formula_units_Z 56
_cell_length_a 9.121858
_cell_length_b 13.961298
_cell_length_c 27.705773
_cell_angle_alpha 90.000000
_cell_angle_beta 90.000000
_cell_angle_gamma 90.000000
_cell_volume 3528.412695
_symmetry_space_group_name_H-M "P M N A"
_symmetry_group_IT_number 53
_symmetry_cell_setting 'orthorhombic'
loop_
_space_group_symop_operation_xyz
x,y,z
1/2-x,-y,1/2+z
x,-y,-z
1/2-x,y,1/2-z
-x,-y,-z
1/2+x,y,1/2-z
-x,y,z
1/2+x,-y,1/2+z
loop_
_atom_site_type_symbol
_atom_site_label
_atom_site_fract_x
_atom_site_fract_y
_atom_site_fract_z
Si Si1 0.828265 0.751129 0.299086
Si Si2 0.165995 0.874926 0.440742
Si Si3 0.166535 0.228305 0.460869
Si Si4 0.327911 0.290768 0.607933
Si Si5 0.172862 0.067684 0.394763
Si Si6 0.828739 0.974084 0.298171
Si Si7 0.172394 0.394273 0.988360
O O1 0.750000 0.717949 0.250000
O O2 0.759799 0.688117 0.342652
O O3 0.794787 0.862921 0.309131
O O4 0.000000 0.729791 0.294875
O O5 0.173082 0.849765 0.496701
O O6 0.281736 0.812846 0.411059
O O7 0.000000 0.856640 0.420424
O O8 0.212343 0.984789 0.433210
O O9 0.232144 0.170562 0.414344
O O10 0.259918 0.321977 0.472563
O O11 0.000000 0.262207 0.452139
O O12 0.500000 0.292551 0.618835
O O13 0.283649 0.368067 0.566676
O O14 0.000000 0.077416 0.391167
O O15 0.234530 0.038739 0.342063
O O16 0.750000 0.009780 0.250000
O O17 0.000000 0.989832 0.290850
O O18 0.000000 0.387616 0.995410
O O19 0.232197 0.500000 0.000000
#
# Coordination Sequence:
#
# PCOD8217747 Si02
#       7
#     8   8   8   8   8   8   8
#     4  10  18  29  44  64  91 123 155 186 220 262
#     4   9  15  26  41  60  88 121 150 175 213 262
#     4   9  17  27  45  68  87 110 147 188 220 261
#     4  10  18  28  44  66  89 118 154 188 224 266
#     4   9  15  26  42  62  88 119 149 180 219 259
#     4   9  17  28  41  58  85 120 155 183 211 252
#     4   9  19  35  50  64  89 121 149 183 232 283
#
# _framework density 15.871159
#
# number of rings (size 3 to 8) (size 9 to 14) (size 15 to 20)
#    0.000    2.714    1.429    1.286    0.000    3.143 
#    0.000    1.429    0.000    3.429    0.000    1.000 
#    0.000    4.571    0.000    0.000    0.000    0.000 
#
# Total GULP energy -694075.090250 kJ/mol
# GULP energy per Si atom -12394.198040 kJ/mol
# Density = 1.583504 g / cm^3
# Si number density = 15.871159 Si / 1000 Ang^3
#
#
#
# Elastic Constant Matrix: (Units=GPa)
#
#
# Indices 1 2 3 4 5 6 
#
# 1 47.0147 28.1134 36.7518 0.0000 0.0000 0.0000
# 2 28.1134 93.8680 54.8698 0.0000 0.0000 0.0000
# 3 36.7518 54.8698 98.4612 0.0000 0.0000 0.0000
# 4 0.0000 0.0000 0.0000 17.1379 0.0000 0.0000
# 5 0.0000 0.0000 0.0000 0.0000 23.8252 0.0000
# 6 0.0000 0.0000 0.0000 0.0000 0.0000 14.2282
#
#
#
# Elastic Compliance Matrix: (Units=1/GPa)
#
#
# Indices 1 2 3 4 5 6 
#
# 1 0.030887 -0.003725 -0.009453 0.000000 0.000000 0.000000
# 2 -0.003725 0.016249 -0.007665 0.000000 0.000000 0.000000
# 3 -0.009453 -0.007665 0.017956 0.000000 0.000000 0.000000
# 4 0.000000 0.000000 0.000000 0.058350 0.000000 0.000000
# 5 0.000000 0.000000 0.000000 0.000000 0.041972 0.000000
# 6 0.000000 0.000000 0.000000 0.000000 0.000000 0.070283
#
#
# Mechanical properties :
#
#
# Convention : Reuss Voigt Hill
#
# Bulk Modulus (GPa) = 42.72304 53.20154 47.96229
# Shear Modulus (GPa) = 17.53241 19.01219 18.27230
#
# Velocity S-wave (km/s) = 3.32727 3.46484 3.39675
# Velocity P-wave (km/s) = 6.46050 7.04276 6.75790
#
# Compressibility (1/GPa) = 0.02340658
#
# Stress axis : x y z
#
# Youngs Moduli (GPa) = 32.37618 61.54093 55.69084
#
# Poissons Ratio (x) = 0.22923 0.52645
# Poissons Ratio (y) = 0.12060 0.42687
# Poissons Ratio (z) = 0.30606 0.47171
#
# Static dielectric constant tensor:
#      x y z
#    x 2.900970 0.000000 0.000000 
#    y 0.000000 2.826890 0.000000 
#    z 0.000000 0.000000 3.243050 
# 
# 
# High freq. dielectric constant tensor:
#      x y z
#    x 1.598320 0.000000 0.000000 
#    y 0.000000 1.568040 0.000000 
#    z 0.000000 0.000000 1.611690 
# 
# From -- ./inp_files/38371.got.cif
#   From: 2010.03.12/outbox.cif.g09.slc.cpg/sg53_20_cif.got.tgz:38371.got - 2010.04.16 14:36:59.
