data_PCOD8217804
_publ_section_title
;
Structure prediction by ZEFSAII (Michael W. Deem and Ramdas Pophale) SiO2 
 PCOD8217804
Probable space group: P M N A
;
_chemical_formula_sum "Si O2"
_cell_formula_units_Z 64
_cell_length_a 14.838873
_cell_length_b 9.340750
_cell_length_c 29.554306
_cell_angle_alpha 90.000000
_cell_angle_beta 90.000000
_cell_angle_gamma 90.000000
_cell_volume 4096.410136
_symmetry_space_group_name_H-M "P M N A"
_symmetry_group_IT_number 53
_symmetry_cell_setting 'orthorhombic'
loop_
_space_group_symop_operation_xyz
x,y,z
1/2-x,-y,1/2+z
x,-y,-z
1/2-x,y,1/2-z
-x,-y,-z
1/2+x,y,1/2-z
-x,y,z
1/2+x,-y,1/2+z
loop_
_atom_site_type_symbol
_atom_site_label
_atom_site_fract_x
_atom_site_fract_y
_atom_site_fract_z
Si Si1 0.104590 0.656198 0.989341
Si Si2 0.791037 0.720445 0.160383
Si Si3 0.099973 0.225844 0.191003
Si Si4 0.605010 0.167845 0.578812
Si Si5 0.656106 0.510478 0.270783
Si Si6 0.843541 0.052157 0.767313
Si Si7 0.392733 0.158189 0.407538
Si Si8 0.598147 0.288962 0.800925
O O1 0.146781 0.728864 0.944175
O O2 0.000000 0.630162 0.979896
O O3 0.149059 0.500000 0.000000
O O4 0.119276 0.769457 0.029143
O O5 0.826306 0.741115 0.109684
O O6 0.846818 0.584906 0.179945
O O7 0.681498 0.698270 0.163439
O O8 0.822145 0.857518 0.188263
O O9 0.150771 0.341221 0.222034
O O10 0.093074 0.078592 0.218645
O O11 0.146480 0.200888 0.141951
O O12 0.000000 0.286839 0.183564
O O13 0.500000 0.184221 0.594262
O O14 0.636252 0.002659 0.579100
O O15 0.750000 0.560187 0.250000
O O16 0.588038 0.575733 0.233697
O O17 0.750000 0.985617 0.750000
O O18 0.890659 0.145912 0.728866
O O19 0.500000 0.163167 0.406433
O O20 0.500000 0.280227 0.825975
#
# Coordination Sequence:
#
# PCOD8217804 Si02
#       8
#     8   8   8   8   8   8   8   8
#     4   9  18  30  43  61  86 116 145 173 209 254
#     4   9  18  30  44  65  84 113 154 184 215 259
#     4  11  19  26  41  63  87 115 150 181 209 255
#     4  10  18  29  46  62  88 121 144 174 213 258
#     4   9  19  31  41  58  86 117 148 186 224 256
#     4   9  17  29  43  60  85 114 145 182 218 256
#     4   9  18  29  40  61  87 114 146 175 207 251
#     4   9  17  31  47  61  85 116 150 188 223 258
#
# _framework density 15.623434
#
# number of rings (size 3 to 8) (size 9 to 14) (size 15 to 20)
#    0.000    2.625    1.250    3.000    1.750    4.000 
#    0.000    0.000    0.000    0.000    0.000    0.000 
#    0.000    2.500    0.000    0.000    0.000    0.125 
#
# Total GULP energy -792983.112110 kJ/mol
# GULP energy per Si atom -12390.361127 kJ/mol
# Density = 1.558787 g / cm^3
# Si number density = 15.623434 Si / 1000 Ang^3
#
#
#
# Elastic Constant Matrix: (Units=GPa)
#
#
# Indices 1 2 3 4 5 6 
#
# 1 51.2661 5.2362 9.8419 0.0000 0.0000 0.0000
# 2 5.2362 91.6690 23.8858 0.0000 0.0000 0.0000
# 3 9.8419 23.8858 54.5495 0.0000 0.0000 0.0000
# 4 0.0000 0.0000 0.0000 22.7311 0.0000 0.0000
# 5 0.0000 0.0000 0.0000 0.0000 13.1650 0.0000
# 6 0.0000 0.0000 0.0000 0.0000 0.0000 13.1053
#
#
#
# Elastic Compliance Matrix: (Units=1/GPa)
#
#
# Indices 1 2 3 4 5 6 
#
# 1 0.020210 -0.000231 -0.003545 0.000000 0.000000 0.000000
# 2 -0.000231 0.012316 -0.005351 0.000000 0.000000 0.000000
# 3 -0.003545 -0.005351 0.021315 0.000000 0.000000 0.000000
# 4 0.000000 0.000000 0.000000 0.043993 0.000000 0.000000
# 5 0.000000 0.000000 0.000000 0.000000 0.075959 0.000000
# 6 0.000000 0.000000 0.000000 0.000000 0.000000 0.076305
#
#
# Mechanical properties :
#
#
# Convention : Reuss Voigt Hill
#
# Bulk Modulus (GPa) = 28.10040 30.60138 29.35089
# Shear Modulus (GPa) = 17.84341 20.36831 19.10586
#
# Velocity S-wave (km/s) = 3.38315 3.61460 3.50079
# Velocity P-wave (km/s) = 5.76941 6.08685 5.93026
#
# Compressibility (1/GPa) = 0.03558668
#
# Stress axis : x y z
#
# Youngs Moduli (GPa) = 49.47980 81.19262 46.91556
#
# Poissons Ratio (x) = 0.01872 0.16633
# Poissons Ratio (y) = 0.01141 0.25107
# Poissons Ratio (z) = 0.17543 0.43450
#
# Static dielectric constant tensor:
#      x y z
#    x 2.738030 0.000000 0.000000 
#    y 0.000000 3.017540 0.000000 
#    z 0.000000 0.000000 2.885870 
# 
# 
# High freq. dielectric constant tensor:
#      x y z
#    x 1.556880 0.000000 0.000000 
#    y 0.000000 1.610420 0.000000 
#    z 0.000000 0.000000 1.579520 
# 
# From -- ./inp_files/38966.got.cif
#   From: 2010.03.12/outbox.cif.g09.slc.cpg/sg53_20_cif.got.tgz:38966.got - 2010.04.16 14:36:59.
