data_PCOD8217355
_publ_section_title
;
Structure prediction by ZEFSAII (Michael W. Deem and Ramdas Pophale) SiO2 
 PCOD8217355
Probable space group: P N N A
;
_chemical_formula_sum "Si O2"
_cell_formula_units_Z 32
_cell_length_a 7.520684
_cell_length_b 10.830562
_cell_length_c 17.827750
_cell_angle_alpha 90.000000
_cell_angle_beta 90.000000
_cell_angle_gamma 90.000000
_cell_volume 1452.127899
_symmetry_space_group_name_H-M "P N N A"
_symmetry_group_IT_number 52
_symmetry_cell_setting 'orthorhombic'
loop_
_space_group_symop_operation_xyz
x,y,z
1/2-x,-y,z
x,1/2-y,1/2-z
1/2-x,1/2+y,1/2-z
-x,-y,-z
1/2+x,y,-z
-x,1/2+y,1/2+z
1/2+x,1/2-y,1/2+z
loop_
_atom_site_type_symbol
_atom_site_label
_atom_site_fract_x
_atom_site_fract_y
_atom_site_fract_z
Si Si1 0.746756 0.860935 0.441384
Si Si2 0.541498 0.501589 0.413123
Si Si3 0.038367 0.244753 0.336751
Si Si4 0.614657 0.755741 0.591047
O O1 0.603138 0.845695 0.375617
O O2 0.703099 0.762643 0.507329
O O3 0.941019 0.840206 0.407099
O O4 0.750000 0.000000 0.473401
O O5 0.750000 0.500000 0.395618
O O6 0.500000 0.500000 0.500000
O O7 0.458543 0.619851 0.373321
O O8 0.443827 0.380177 0.382137
O O9 0.989964 0.250000 0.250000
O O10 0.238164 0.193033 0.350507
#
# Coordination Sequence:
#
# PCOD8217355 Si02
#       4
#     8   8   8   8
#     4  12  25  45  74 103 142 190 246 297 358 441
#     4  12  21  43  77 105 138 185 250 301 347 438
#     4  12  28  46  69 110 149 185 239 309 372 420
#     4  12  23  45  75 103 135 189 249 292 355 438
#
# _framework density 22.036625999999998
#
# number of rings (size 3 to 8) (size 9 to 14) (size 15 to 20)
#    0.000    0.000    7.500    3.000    0.000    2.000 
#    9.000    0.000    0.000    0.000    0.000    0.000 
#    0.000    0.000    0.000    0.000    0.000    0.000 
#
# Total GULP energy -396862.307161 kJ/mol
# GULP energy per Si atom -12401.947099 kJ/mol
# Density = 2.198647 g / cm^3
# Si number density = 22.036626 Si / 1000 Ang^3
#
#
#
# Elastic Constant Matrix: (Units=GPa)
#
#
# Indices 1 2 3 4 5 6 
#
# 1 168.1406 24.9013 21.0065 0.0000 0.0000 0.0000
# 2 24.9013 108.2909 21.9770 0.0000 0.0000 0.0000
# 3 21.0065 21.9770 99.4121 0.0000 0.0000 0.0000
# 4 0.0000 0.0000 0.0000 20.8475 0.0000 0.0000
# 5 0.0000 0.0000 0.0000 0.0000 25.3267 0.0000
# 6 0.0000 0.0000 0.0000 0.0000 0.0000 5.9469
#
#
#
# Elastic Compliance Matrix: (Units=1/GPa)
#
#
# Indices 1 2 3 4 5 6 
#
# 1 0.006260 -0.001226 -0.001052 0.000000 0.000000 0.000000
# 2 -0.001226 0.009908 -0.001931 0.000000 0.000000 0.000000
# 3 -0.001052 -0.001931 0.010708 0.000000 0.000000 0.000000
# 4 0.000000 0.000000 0.000000 0.047967 0.000000 0.000000
# 5 0.000000 0.000000 0.000000 0.000000 0.039484 0.000000
# 6 0.000000 0.000000 0.000000 0.000000 0.000000 0.168155
#
#
# Mechanical properties :
#
#
# Convention : Reuss Voigt Hill
#
# Bulk Modulus (GPa) = 54.17552 56.84590 55.51071
# Shear Modulus (GPa) = 16.83193 30.95480 23.89336
#
# Velocity S-wave (km/s) = 2.76672 3.75200 3.29638
# Velocity P-wave (km/s) = 5.90288 6.67998 6.30341
#
# Compressibility (1/GPa) = 0.01845852
#
# Stress axis : x y z
#
# Youngs Moduli (GPa) = 159.73438 100.92564 93.38505
#
# Poissons Ratio (x) = 0.12375 0.09822
# Poissons Ratio (y) = 0.19585 0.18036
# Poissons Ratio (z) = 0.16801 0.19492
#
# Static dielectric constant tensor:
#      x y z
#    x 4.564120 0.000000 0.000000 
#    y 0.000000 4.129570 0.000000 
#    z 0.000000 0.000000 3.484880 
# 
# 
# High freq. dielectric constant tensor:
#      x y z
#    x 1.902190 0.000000 0.000000 
#    y 0.000000 1.867710 0.000000 
#    z 0.000000 0.000000 1.823110 
# 
# From -- ./inp_files/24086.got.cif
#   From: 2010.06.25/outbox.cif.g09.slc.cpg/sg52_13_cif.got.tgz:24086.got - 2010.06.26 19:32:48.
