data_PCOD8217963
_publ_section_title
;
Structure prediction by ZEFSAII (Michael W. Deem and Ramdas Pophale) SiO2 
 PCOD8217963
Probable space group: P M N A
;
_chemical_formula_sum "Si O2"
_cell_formula_units_Z 64
_cell_length_a 8.960964
_cell_length_b 21.635125
_cell_length_c 18.185073
_cell_angle_alpha 90.000000
_cell_angle_beta 90.000000
_cell_angle_gamma 90.000000
_cell_volume 3525.568767
_symmetry_space_group_name_H-M "P M N A"
_symmetry_group_IT_number 53
_symmetry_cell_setting 'orthorhombic'
loop_
_space_group_symop_operation_xyz
x,y,z
1/2-x,-y,1/2+z
x,-y,-z
1/2-x,y,1/2-z
-x,-y,-z
1/2+x,y,1/2-z
-x,y,z
1/2+x,-y,1/2+z
loop_
_atom_site_type_symbol
_atom_site_label
_atom_site_fract_x
_atom_site_fract_y
_atom_site_fract_z
Si Si1 0.671201 0.690120 0.463842
Si Si2 0.824570 0.118975 0.596507
Si Si3 0.326240 0.231635 0.675205
Si Si4 0.677200 0.370743 0.325041
Si Si5 0.827085 0.260617 0.397955
Si Si6 0.827928 0.124240 0.427532
Si Si7 0.831788 0.003891 0.087353
Si Si8 0.673519 0.563424 0.528901
O O1 0.500000 0.703512 0.487844
O O2 0.703177 0.712752 0.381786
O O3 0.780141 0.726101 0.518385
O O4 0.703180 0.616689 0.468508
O O5 0.744824 0.168205 0.648002
O O6 0.779062 0.133000 0.512403
O O7 0.000000 0.122821 0.609574
O O8 0.766711 0.051352 0.620961
O O9 0.250000 0.253666 0.750000
O O10 0.500000 0.220092 0.688078
O O11 0.750000 0.395531 0.250000
O O12 0.500000 0.370870 0.318025
O O13 0.730516 0.300564 0.340744
O O14 0.735656 0.414499 0.391565
O O15 0.799227 0.187863 0.383493
O O16 0.000000 0.277752 0.388071
O O17 0.734028 0.070224 0.388078
O O18 0.000000 0.104370 0.425399
O O19 0.000000 0.998159 0.116956
O O20 0.824706 0.000000 0.000000
O O21 0.751035 0.500000 0.500000
O O22 0.500000 0.550711 0.540065
#
# Coordination Sequence:
#
# PCOD8217963 Si02
#       8
#     8   8   8   8   8   8   8   8
#     4   9  18  32  51  75 102 134 173 216 259 307
#     4  10  18  31  48  67  95 129 168 214 265 315
#     4  11  22  34  49  70  99 134 177 222 268 319
#     4  10  20  34  53  79 109 142 177 215 259 308
#     4  10  18  30  51  77 104 135 170 212 261 311
#     4   9  17  28  45  71  99 129 164 207 261 314
#     4   9  17  27  42  67  96 127 162 205 256 307
#     4   8  15  31  56  82 106 137 176 213 253 303
#
# _framework density 18.153098
#
# number of rings (size 3 to 8) (size 9 to 14) (size 15 to 20)
#    0.000    2.500    1.250    2.625    0.000    3.500 
#    0.000    0.625    0.000   10.125    0.000    1.750 
#    0.000    0.000    0.000    0.000    0.000    0.000 
#
# Total GULP energy -793508.373252 kJ/mol
# GULP energy per Si atom -12398.568332 kJ/mol
# Density = 1.811178 g / cm^3
# Si number density = 18.153098 Si / 1000 Ang^3
#
#
#
# Elastic Constant Matrix: (Units=GPa)
#
#
# Indices 1 2 3 4 5 6 
#
# 1 79.0143 42.2160 35.7163 0.0000 0.0000 0.0000
# 2 42.2160 128.8858 51.5197 0.0000 0.0000 0.0000
# 3 35.7163 51.5197 89.1053 0.0000 0.0000 0.0000
# 4 0.0000 0.0000 0.0000 17.2320 0.0000 0.0000
# 5 0.0000 0.0000 0.0000 0.0000 25.7855 0.0000
# 6 0.0000 0.0000 0.0000 0.0000 0.0000 18.2629
#
#
#
# Elastic Compliance Matrix: (Units=1/GPa)
#
#
# Indices 1 2 3 4 5 6 
#
# 1 0.016665 -0.003627 -0.004583 0.000000 0.000000 0.000000
# 2 -0.003627 0.010880 -0.004837 0.000000 0.000000 0.000000
# 3 -0.004583 -0.004837 0.015857 0.000000 0.000000 0.000000
# 4 0.000000 0.000000 0.000000 0.058032 0.000000 0.000000
# 5 0.000000 0.000000 0.000000 0.000000 0.038782 0.000000
# 6 0.000000 0.000000 0.000000 0.000000 0.000000 0.054756
#
#
# Mechanical properties :
#
#
# Convention : Reuss Voigt Hill
#
# Bulk Modulus (GPa) = 57.77595 61.76772 59.77183
# Shear Modulus (GPa) = 22.04250 23.42628 22.73439
#
# Velocity S-wave (km/s) = 3.48840 3.59623 3.54272
# Velocity P-wave (km/s) = 6.93696 7.16545 7.05213
#
# Compressibility (1/GPa) = 0.01730824
#
# Stress axis : x y z
#
# Youngs Moduli (GPa) = 60.00508 91.90951 63.06544
#
# Poissons Ratio (x) = 0.33332 0.28904
# Poissons Ratio (y) = 0.21762 0.30506
# Poissons Ratio (z) = 0.27501 0.44458
#
# Static dielectric constant tensor:
#      x y z
#    x 3.319560 0.000000 0.000000 
#    y 0.000000 3.515090 0.000000 
#    z 0.000000 0.000000 3.131460 
# 
# 
# High freq. dielectric constant tensor:
#      x y z
#    x 1.701210 0.000000 0.000000 
#    y 0.000000 1.703620 0.000000 
#    z 0.000000 0.000000 1.669300 
# 
# From -- ./inp_files/26943.got.cif
#   From: 2010.03.12/outbox.cif.g09.slc.cpg/sg53_14_cif.got.tgz:26943.got - 2010.04.16 14:36:59.
