data_PCOD8217613
_publ_section_title
;
Structure prediction by ZEFSAII (Michael W. Deem and Ramdas Pophale) SiO2 
 PCOD8217613
Probable space group: P M N A
;
_chemical_formula_sum "Si O2"
_cell_formula_units_Z 64
_cell_length_a 8.856353
_cell_length_b 21.694242
_cell_length_c 18.300009
_cell_angle_alpha 90.000000
_cell_angle_beta 90.000000
_cell_angle_gamma 90.000000
_cell_volume 3516.014863
_symmetry_space_group_name_H-M "P M N A"
_symmetry_group_IT_number 53
_symmetry_cell_setting 'orthorhombic'
loop_
_space_group_symop_operation_xyz
x,y,z
1/2-x,-y,1/2+z
x,-y,-z
1/2-x,y,1/2-z
-x,-y,-z
1/2+x,y,1/2-z
-x,y,z
1/2+x,-y,1/2+z
loop_
_atom_site_type_symbol
_atom_site_label
_atom_site_fract_x
_atom_site_fract_y
_atom_site_fract_z
Si Si1 0.675102 0.062448 0.030961
Si Si2 0.176815 0.631121 0.575736
Si Si3 0.676093 0.263288 0.825830
Si Si4 0.177030 0.384254 0.593293
Si Si5 0.321888 0.755699 0.601917
Si Si6 0.825467 0.188882 0.535805
Si Si7 0.170505 0.507448 0.913575
Si Si8 0.180247 0.869934 0.674437
O O1 0.500000 0.048896 0.042641
O O2 0.738812 0.084461 0.109767
O O3 0.702315 0.115851 0.971172
O O4 0.754124 0.000000 0.000000
O O5 0.217404 0.632626 0.489964
O O6 0.263560 0.686517 0.616252
O O7 0.233692 0.566980 0.610850
O O8 0.000000 0.638083 0.589743
O O9 0.750000 0.245283 0.750000
O O10 0.500000 0.268371 0.813187
O O11 0.736527 0.328390 0.856565
O O12 0.716097 0.208756 0.882359
O O13 0.259782 0.445759 0.621649
O O14 0.000000 0.395445 0.601055
O O15 0.500000 0.759173 0.613988
O O16 0.280200 0.774197 0.519436
O O17 0.240704 0.801247 0.658943
O O18 0.000000 0.205720 0.516882
O O19 0.000000 0.515572 0.885814
O O20 0.179030 0.500000 0.000000
O O21 0.250000 0.894692 0.750000
O O22 0.000000 0.868017 0.678339
#
# Coordination Sequence:
#
# PCOD8217613 Si02
#       8
#     8   8   8   8   8   8   8   8
#     4   8  15  30  56  84 106 137 179 216 253 302
#     4  10  17  29  48  70  98 131 168 207 262 319
#     4  10  20  33  48  69  97 134 177 220 266 316
#     4   9  17  30  46  63  91 129 169 210 262 320
#     4  11  20  30  50  78 105 133 171 216 266 314
#     4   9  17  33  52  72 102 137 174 216 260 312
#     4   9  17  27  41  67  97 122 158 207 260 308
#     4  10  20  35  55  79 111 144 179 217 260 312
#
# _framework density 18.202425999999999
#
# number of rings (size 3 to 8) (size 9 to 14) (size 15 to 20)
#    0.000    2.500    1.250    3.000    0.000    3.000 
#    0.000    0.625    0.000   10.125    0.000    3.500 
#    0.000    0.000    0.000    0.000    0.000    0.000 
#
# Total GULP energy -793503.220595 kJ/mol
# GULP energy per Si atom -12398.487822 kJ/mol
# Density = 1.816100 g / cm^3
# Si number density = 18.202426 Si / 1000 Ang^3
#
#
#
# Elastic Constant Matrix: (Units=GPa)
#
#
# Indices 1 2 3 4 5 6 
#
# 1 71.1225 39.7221 27.5589 0.0000 0.0000 0.0000
# 2 39.7221 137.8869 55.2345 0.0000 0.0000 0.0000
# 3 27.5589 55.2345 95.5136 0.0000 0.0000 0.0000
# 4 0.0000 0.0000 0.0000 18.8422 0.0000 0.0000
# 5 0.0000 0.0000 0.0000 0.0000 24.3375 0.0000
# 6 0.0000 0.0000 0.0000 0.0000 0.0000 15.9745
#
#
#
# Elastic Compliance Matrix: (Units=1/GPa)
#
#
# Indices 1 2 3 4 5 6 
#
# 1 0.017292 -0.003882 -0.002744 0.000000 0.000000 0.000000
# 2 -0.003882 0.010310 -0.004842 0.000000 0.000000 0.000000
# 3 -0.002744 -0.004842 0.014062 0.000000 0.000000 0.000000
# 4 0.000000 0.000000 0.000000 0.053072 0.000000 0.000000
# 5 0.000000 0.000000 0.000000 0.000000 0.041089 0.000000
# 6 0.000000 0.000000 0.000000 0.000000 0.000000 0.062600
#
#
# Mechanical properties :
#
#
# Convention : Reuss Voigt Hill
#
# Bulk Modulus (GPa) = 53.39987 61.06156 57.23072
# Shear Modulus (GPa) = 21.96796 23.96468 22.96632
#
# Velocity S-wave (km/s) = 3.47777 3.63239 3.55592
# Velocity P-wave (km/s) = 6.74736 7.15618 6.95478
#
# Compressibility (1/GPa) = 0.01872664
#
# Stress axis : x y z
#
# Youngs Moduli (GPa) = 57.83097 96.98979 71.11472
#
# Poissons Ratio (x) = 0.37652 0.19516
# Poissons Ratio (y) = 0.22450 0.34436
# Poissons Ratio (z) = 0.15871 0.46965
#
# Static dielectric constant tensor:
#      x y z
#    x 3.222070 0.000000 0.000000 
#    y 0.000000 3.595950 0.000000 
#    z 0.000000 0.000000 3.166640 
# 
# 
# High freq. dielectric constant tensor:
#      x y z
#    x 1.694230 0.000000 0.000000 
#    y 0.000000 1.709460 0.000000 
#    z 0.000000 0.000000 1.671130 
# 
# From -- ./inp_files/26961.got.cif
#   From: 2010.03.12/outbox.cif.g09.slc.cpg/sg53_14_cif.got.tgz:26961.got - 2010.04.16 14:36:59.
