data_PCOD8217655
_publ_section_title
;
Structure prediction by ZEFSAII (Michael W. Deem and Ramdas Pophale) SiO2 
 PCOD8217655
Probable space group: P M N A
;
_chemical_formula_sum "Si O2"
_cell_formula_units_Z 36
_cell_length_a 14.862683
_cell_length_b 9.354271
_cell_length_c 13.402745
_cell_angle_alpha 90.000000
_cell_angle_beta 90.000000
_cell_angle_gamma 90.000000
_cell_volume 1863.377801
_symmetry_space_group_name_H-M "P M N A"
_symmetry_group_IT_number 53
_symmetry_cell_setting 'orthorhombic'
loop_
_space_group_symop_operation_xyz
x,y,z
1/2-x,-y,1/2+z
x,-y,-z
1/2-x,y,1/2-z
-x,-y,-z
1/2+x,y,1/2-z
-x,y,z
1/2+x,-y,1/2+z
loop_
_atom_site_type_symbol
_atom_site_label
_atom_site_fract_x
_atom_site_fract_y
_atom_site_fract_z
Si Si1 0.637474 0.000000 0.500000
Si Si2 0.097113 0.733481 0.102865
Si Si3 0.279692 0.111113 0.143032
Si Si4 0.103882 0.159073 0.675922
Si Si5 0.714789 0.657712 0.024808
O O1 0.578380 0.137508 0.524833
O O2 0.699413 0.019019 0.402793
O O3 0.120993 0.797735 0.210264
O O4 0.180688 0.642762 0.060295
O O5 0.000000 0.649406 0.106257
O O6 0.250000 0.173001 0.250000
O O7 0.363310 0.002505 0.154426
O O8 0.301089 0.245447 0.072759
O O9 0.156322 0.277069 0.612773
O O10 0.000000 0.164340 0.646163
O O11 0.679343 0.500000 0.000000
#
# Coordination Sequence:
#
# PCOD8217655 Si02
#       5
#     4   8   8   8   8
#     4  10  17  32  59  86 116 142 175 246 295 348
#     4  10  20  35  61  88 113 145 189 241 295 343
#     4  11  19  36  59  86 113 145 196 243 291 339
#     4  11  21  37  63  87 114 150 193 245 293 343
#     4  11  24  39  57  82 121 163 193 234 281 347
#
# _framework density 19.319752000000001
#
# number of rings (size 3 to 8) (size 9 to 14) (size 15 to 20)
#    0.000    1.333    6.667    1.000    0.000    4.444 
#    0.000    0.000    0.000    0.000    0.000    0.000 
#    0.000    0.000    0.000    0.000    0.000    0.000 
#
# Total GULP energy -446135.839242 kJ/mol
# GULP energy per Si atom -12392.662201 kJ/mol
# Density = 1.927578 g / cm^3
# Si number density = 19.319752 Si / 1000 Ang^3
#
#
#
# Elastic Constant Matrix: (Units=GPa)
#
#
# Indices 1 2 3 4 5 6 
#
# 1 90.7119 34.0374 45.6113 0.0000 0.0000 0.0000
# 2 34.0374 94.2045 22.8271 0.0000 0.0000 0.0000
# 3 45.6113 22.8271 102.7320 0.0000 0.0000 0.0000
# 4 0.0000 0.0000 0.0000 11.8306 0.0000 0.0000
# 5 0.0000 0.0000 0.0000 0.0000 17.4187 0.0000
# 6 0.0000 0.0000 0.0000 0.0000 0.0000 89.0017
#
#
#
# Elastic Compliance Matrix: (Units=1/GPa)
#
#
# Indices 1 2 3 4 5 6 
#
# 1 0.015612 -0.004187 -0.006001 0.000000 0.000000 0.000000
# 2 -0.004187 0.012342 -0.000884 0.000000 0.000000 0.000000
# 3 -0.006001 -0.000884 0.012595 0.000000 0.000000 0.000000
# 4 0.000000 0.000000 0.000000 0.084526 0.000000 0.000000
# 5 0.000000 0.000000 0.000000 0.000000 0.057409 0.000000
# 6 0.000000 0.000000 0.000000 0.000000 0.000000 0.011236
#
#
# Mechanical properties :
#
#
# Convention : Reuss Voigt Hill
#
# Bulk Modulus (GPa) = 54.33006 54.73332 54.53169
# Shear Modulus (GPa) = 22.52256 35.99506 29.25881
#
# Velocity S-wave (km/s) = 3.41805 4.32107 3.89582
# Velocity P-wave (km/s) = 6.61514 7.29982 6.96589
#
# Compressibility (1/GPa) = 0.01840602
#
# Stress axis : x y z
#
# Youngs Moduli (GPa) = 64.05137 81.02393 79.39723
#
# Poissons Ratio (x) = 0.33923 0.47649
# Poissons Ratio (y) = 0.26817 0.07015
# Poissons Ratio (z) = 0.38440 0.07159
#
# Static dielectric constant tensor:
#      x y z
#    x 3.563680 0.000000 0.000000 
#    y 0.000000 3.189310 0.000000 
#    z 0.000000 0.000000 3.643040 
# 
# 
# High freq. dielectric constant tensor:
#      x y z
#    x 1.755930 0.000000 0.000000 
#    y 0.000000 1.721030 0.000000 
#    z 0.000000 0.000000 1.767590 
# 
# From -- ./inp_files/22298.got.cif
#   From: 2010.03.12/outbox.cif.g09.slc.cpg/sg53_12_cif.got.tgz:22298.got - 2010.04.16 14:36:59.
