data_PCOD8217330
_publ_section_title
;
Structure prediction by ZEFSAII (Michael W. Deem and Ramdas Pophale) SiO2 
 PCOD8217330
Probable space group: P N N A
;
_chemical_formula_sum "Si O2"
_cell_formula_units_Z 44
_cell_length_a 20.712083
_cell_length_b 8.750458
_cell_length_c 10.374013
_cell_angle_alpha 90.000000
_cell_angle_beta 90.000000
_cell_angle_gamma 90.000000
_cell_volume 1880.188319
_symmetry_space_group_name_H-M "P N N A"
_symmetry_group_IT_number 52
_symmetry_cell_setting 'orthorhombic'
loop_
_space_group_symop_operation_xyz
x,y,z
1/2-x,-y,z
x,1/2-y,1/2-z
1/2-x,1/2+y,1/2-z
-x,-y,-z
1/2+x,y,-z
-x,1/2+y,1/2+z
1/2+x,1/2-y,1/2+z
loop_
_atom_site_type_symbol
_atom_site_label
_atom_site_fract_x
_atom_site_fract_y
_atom_site_fract_z
Si Si1 0.750000 0.500000 0.806597
Si Si2 0.153798 0.750000 0.250000
Si Si3 0.388439 0.451756 0.819540
Si Si4 0.058502 0.776089 0.018252
Si Si5 0.927882 0.610416 0.423454
Si Si6 0.781529 0.250000 0.250000
Si Si7 0.685188 0.317350 0.022851
O O1 0.803283 0.404657 0.725042
O O2 0.717820 0.362457 0.888887
O O3 0.108724 0.719467 0.125943
O O4 0.427446 0.570200 0.729859
O O5 0.329804 0.392897 0.728335
O O6 0.357405 0.538298 0.938575
O O7 0.430443 0.313904 0.882804
O O8 0.983202 0.758803 0.058538
O O9 0.062901 0.957130 0.003327
O O10 0.861313 0.672447 0.483181
O O11 0.740860 0.276742 0.123241
#
# Coordination Sequence:
#
# PCOD8217330 Si02
#       7
#     4   4   8   8   8   4   8
#     4  12  28  48  64 102 142 188 240 276 350 430
#     4  12  28  49  70  95 144 190 228 282 346 422
#     4  12  22  44  70 103 137 181 228 292 349 407
#     4  11  26  48  69  99 141 187 232 285 347 415
#     4  11  26  44  73 106 134 182 236 289 352 405
#     4  12  20  37  70 103 138 166 216 294 352 404
#     4  12  24  41  69 107 134 173 232 289 350 404
#
# _framework density 23.401910999999998
#
# number of rings (size 3 to 8) (size 9 to 14) (size 15 to 20)
#    0.000    0.364    7.273    0.000    5.091    2.182 
#    0.000    1.818    0.000    0.000    0.000    0.000 
#    0.000    0.000    0.000    0.000    0.000    0.000 
#
# Total GULP energy -545380.965855 kJ/mol
# GULP energy per Si atom -12395.021951 kJ/mol
# Density = 2.334865 g / cm^3
# Si number density = 23.401911 Si / 1000 Ang^3
#
#
#
# Elastic Constant Matrix: (Units=GPa)
#
#
# Indices 1 2 3 4 5 6 
#
# 1 131.1539 40.6764 42.4075 0.0000 0.0000 0.0000
# 2 40.6764 84.2471 15.8664 0.0000 0.0000 0.0000
# 3 42.4075 15.8664 73.6389 0.0000 0.0000 0.0000
# 4 0.0000 0.0000 0.0000 36.7298 0.0000 0.0000
# 5 0.0000 0.0000 0.0000 0.0000 -5.2045 0.0000
# 6 0.0000 0.0000 0.0000 0.0000 0.0000 40.1278
#
#
#
# Elastic Compliance Matrix: (Units=1/GPa)
#
#
# Indices 1 2 3 4 5 6 
#
# 1 0.010590 -0.004132 -0.005208 0.000000 0.000000 0.000000
# 2 -0.004132 0.013984 -0.000633 0.000000 0.000000 0.000000
# 3 -0.005208 -0.000633 0.016716 0.000000 0.000000 0.000000
# 4 0.000000 0.000000 0.000000 0.027226 0.000000 0.000000
# 5 0.000000 0.000000 0.000000 0.000000 -0.192143 0.000000
# 6 0.000000 0.000000 0.000000 0.000000 0.000000 0.024920
#
#
# Mechanical properties :
#
#
# Convention : Reuss Voigt Hill
#
# Bulk Modulus (GPa) = 46.85572 54.10447 50.48010
# Shear Modulus (GPa) = -69.78986 27.00327 -21.39330
#
# Velocity S-wave (km/s) = -5.46690 3.40058 -3.02680
# Velocity P-wave (km/s) = 4.44789 6.21196 3.06633
#
# Compressibility (1/GPa) = 0.02134211
#
# Stress axis : x y z
#
# Youngs Moduli (GPa) = 94.42551 71.50869 59.82399
#
# Poissons Ratio (x) = 0.29550 0.31159
# Poissons Ratio (y) = 0.39020 0.03789
# Poissons Ratio (z) = 0.49181 0.04529
#
# Static dielectric constant tensor:
#      x y z
#    x 4.649640 0.000000 0.000000 
#    y 0.000000 -9.293230 0.000000 
#    z 0.000000 0.000000 4.014230 
# 
# 
# High freq. dielectric constant tensor:
#      x y z
#    x 1.937910 0.000000 0.000000 
#    y 0.000000 1.935700 0.000000 
#    z 0.000000 0.000000 1.904410 
# 
# From -- ./inp_files/22237.got.cif
#   From: 2010.06.25/outbox.cif.g09.slc.cpg/sg52_12_cif.got.tgz:22237.got - 2010.06.26 19:32:48.
