data_PCOD8217779
_publ_section_title
;
Structure prediction by ZEFSAII (Michael W. Deem and Ramdas Pophale) SiO2 
 PCOD8217779
Probable space group: P M N A
;
_chemical_formula_sum "Si O2"
_cell_formula_units_Z 48
_cell_length_a 16.127833
_cell_length_b 9.311382
_cell_length_c 17.639691
_cell_angle_alpha 90.000000
_cell_angle_beta 90.000000
_cell_angle_gamma 90.000000
_cell_volume 2648.994978
_symmetry_space_group_name_H-M "P M N A"
_symmetry_group_IT_number 53
_symmetry_cell_setting 'orthorhombic'
loop_
_space_group_symop_operation_xyz
x,y,z
1/2-x,-y,1/2+z
x,-y,-z
1/2-x,y,1/2-z
-x,-y,-z
1/2+x,y,1/2-z
-x,y,z
1/2+x,-y,1/2+z
loop_
_atom_site_type_symbol
_atom_site_label
_atom_site_fract_x
_atom_site_fract_y
_atom_site_fract_z
Si Si1 0.825288 0.709770 0.802473
Si Si2 0.256390 0.503706 0.910700
Si Si3 0.407997 0.494846 0.810959
Si Si4 0.591822 0.995133 0.322462
Si Si5 0.088911 0.170904 0.672250
Si Si6 0.263926 0.792612 0.340752
O O1 0.750000 0.767527 0.750000
O O2 0.791729 0.642909 0.880478
O O3 0.874722 0.586018 0.758995
O O4 0.885006 0.838261 0.826234
O O5 0.352343 0.515465 0.885871
O O6 0.214295 0.362772 0.873844
O O7 0.249437 0.500000 0.000000
O O8 0.500000 0.547242 0.832112
O O9 0.406803 0.327244 0.786600
O O10 0.500000 0.973745 0.359473
O O11 0.587800 0.952258 0.234847
O O12 0.662119 0.900149 0.364879
O O13 0.174220 0.154027 0.623428
O O14 0.000000 0.161099 0.626367
O O15 0.250000 0.787095 0.250000
#
# Coordination Sequence:
#
# PCOD8217779 Si02
#       6
#     8   8   8   8   8   8
#     4  10  18  30  49  74 101 129 163 205 251 295
#     4  10  20  33  50  72 101 137 169 200 246 300
#     4   9  17  31  53  78 102 127 160 205 251 299
#     4  10  18  28  48  74  96 122 163 215 258 290
#     4   8  14  25  44  72  98 121 151 190 241 293
#     4   9  16  31  51  71  96 127 165 205 244 294
#
# _framework density 18.120080999999999
#
# number of rings (size 3 to 8) (size 9 to 14) (size 15 to 20)
#    0.000    2.667    0.000    5.500    0.000    0.333 
#    0.000    1.667    0.000    5.500    0.000    0.000 
#    0.000   36.000    0.000    0.000    0.000    0.000 
#
# Total GULP energy -594668.220767 kJ/mol
# GULP energy per Si atom -12388.921266 kJ/mol
# Density = 1.807884 g / cm^3
# Si number density = 18.120081 Si / 1000 Ang^3
#
#
#
# Elastic Constant Matrix: (Units=GPa)
#
#
# Indices 1 2 3 4 5 6 
#
# 1 167.0678 53.2479 22.6658 0.0000 0.0000 0.0000
# 2 53.2479 78.2403 30.3151 0.0000 0.0000 0.0000
# 3 22.6658 30.3151 64.1441 0.0000 0.0000 0.0000
# 4 0.0000 0.0000 0.0000 6.5486 0.0000 0.0000
# 5 0.0000 0.0000 0.0000 0.0000 8.4070 0.0000
# 6 0.0000 0.0000 0.0000 0.0000 0.0000 28.8726
#
#
#
# Elastic Compliance Matrix: (Units=1/GPa)
#
#
# Indices 1 2 3 4 5 6 
#
# 1 0.007648 -0.005090 -0.000297 0.000000 0.000000 0.000000
# 2 -0.005090 0.019034 -0.007197 0.000000 0.000000 0.000000
# 3 -0.000297 -0.007197 0.019096 0.000000 0.000000 0.000000
# 4 0.000000 0.000000 0.000000 0.152705 0.000000 0.000000
# 5 0.000000 0.000000 0.000000 0.000000 0.118948 0.000000
# 6 0.000000 0.000000 0.000000 0.000000 0.000000 0.034635
#
#
# Mechanical properties :
#
#
# Convention : Reuss Voigt Hill
#
# Bulk Modulus (GPa) = 48.51949 57.98999 53.25474
# Shear Modulus (GPa) = 13.01729 22.31386 17.66558
#
# Velocity S-wave (km/s) = 2.68319 3.51300 3.12575
# Velocity P-wave (km/s) = 6.03607 6.96617 6.51773
#
# Compressibility (1/GPa) = 0.02061028
#
# Stress axis : x y z
#
# Youngs Moduli (GPa) = 130.74999 52.53808 52.36652
#
# Poissons Ratio (x) = 0.26742 0.01555
# Poissons Ratio (y) = 0.66553 0.37688
# Poissons Ratio (z) = 0.03882 0.37811
#
# Static dielectric constant tensor:
#      x y z
#    x 4.175700 0.000000 0.000000 
#    y 0.000000 3.307310 0.000000 
#    z 0.000000 0.000000 2.646090 
# 
# 
# High freq. dielectric constant tensor:
#      x y z
#    x 1.729010 0.000000 0.000000 
#    y 0.000000 1.705660 0.000000 
#    z 0.000000 0.000000 1.620930 
# 
# From -- ./inp_files/28916.got.cif
#   From: 2010.03.12/outbox.cif.g09.slc.cpg/sg53_15_cif.got.tgz:28916.got - 2010.04.16 14:36:59.
