data_PCOD8217955
_publ_section_title
;
Structure prediction by ZEFSAII (Michael W. Deem and Ramdas Pophale) SiO2 
 PCOD8217955
Probable space group: P M N A
;
_chemical_formula_sum "Si O2"
_cell_formula_units_Z 64
_cell_length_a 9.058779
_cell_length_b 14.553071
_cell_length_c 27.833068
_cell_angle_alpha 90.000000
_cell_angle_beta 90.000000
_cell_angle_gamma 90.000000
_cell_volume 3669.318356
_symmetry_space_group_name_H-M "P M N A"
_symmetry_group_IT_number 53
_symmetry_cell_setting 'orthorhombic'
loop_
_space_group_symop_operation_xyz
x,y,z
1/2-x,-y,1/2+z
x,-y,-z
1/2-x,y,1/2-z
-x,-y,-z
1/2+x,y,1/2-z
-x,y,z
1/2+x,-y,1/2+z
loop_
_atom_site_type_symbol
_atom_site_label
_atom_site_fract_x
_atom_site_fract_y
_atom_site_fract_z
Si Si1 0.171172 0.468204 0.881019
Si Si2 0.672561 0.650059 0.573770
Si Si3 0.826426 0.855839 0.925619
Si Si4 0.329119 0.978968 0.114190
Si Si5 0.328333 0.848104 0.026106
Si Si6 0.329176 0.332417 0.532880
Si Si7 0.826174 0.852218 0.298873
Si Si8 0.826243 0.357581 0.701074
O O1 0.234082 0.571501 0.890393
O O2 0.193881 0.415106 0.930820
O O3 0.271038 0.423593 0.840622
O O4 0.000000 0.465854 0.864814
O O5 0.500000 0.631874 0.571752
O O6 0.710752 0.752395 0.592578
O O7 0.732428 0.637620 0.519433
O O8 0.000000 0.870705 0.930614
O O9 0.760993 0.925823 0.886385
O O10 0.754762 0.874315 0.977359
O O11 0.500000 0.001911 0.122057
O O12 0.302478 0.929144 0.063743
O O13 0.269712 0.916051 0.157711
O O14 0.500000 0.834599 0.014609
O O15 0.264149 0.755624 0.050107
O O16 0.500000 0.302104 0.529149
O O17 0.750000 0.886166 0.250000
O O18 0.780842 0.747357 0.310932
O O19 0.000000 0.860208 0.291859
O O20 0.750000 0.390058 0.750000
O O21 0.000000 0.368337 0.706859
#
# Coordination Sequence:
#
# PCOD8217955 Si02
#       8
#     8   8   8   8   8   8   8   8
#     4  10  18  30  51  74  97 129 165 200 241 287
#     4   8  16  31  48  68  97 131 165 200 237 277
#     4  10  20  33  49  70  96 128 167 207 240 277
#     4  10  20  33  49  70  97 129 161 195 241 291
#     4  10  19  31  47  68  99 135 164 196 243 291
#     4   9  17  29  47  72 100 130 165 201 236 281
#     4   9  19  35  53  73  99 127 154 190 237 289
#     4  10  20  35  53  75 102 128 157 194 239 290
#
# _framework density 17.441931
#
# number of rings (size 3 to 8) (size 9 to 14) (size 15 to 20)
#    0.000    2.500    0.000    3.375    0.000    6.500 
#    0.000    3.125    0.000    4.500    0.000    1.750 
#    0.000    0.000    0.000    0.000    0.000    0.000 
#
# Total GULP energy -793537.884466 kJ/mol
# GULP energy per Si atom -12399.029445 kJ/mol
# Density = 1.740223 g / cm^3
# Si number density = 17.441931 Si / 1000 Ang^3
#
#
#
# Elastic Constant Matrix: (Units=GPa)
#
#
# Indices 1 2 3 4 5 6 
#
# 1 63.1008 49.9405 41.1103 0.0000 0.0000 0.0000
# 2 49.9405 118.5837 61.3309 0.0000 0.0000 0.0000
# 3 41.1103 61.3309 86.4296 0.0000 0.0000 0.0000
# 4 0.0000 0.0000 0.0000 29.0816 0.0000 0.0000
# 5 0.0000 0.0000 0.0000 0.0000 27.9990 0.0000
# 6 0.0000 0.0000 0.0000 0.0000 0.0000 24.0775
#
#
#
# Elastic Compliance Matrix: (Units=1/GPa)
#
#
# Indices 1 2 3 4 5 6 
#
# 1 0.026455 -0.007319 -0.007389 0.000000 0.000000 0.000000
# 2 -0.007319 0.015347 -0.007409 0.000000 0.000000 0.000000
# 3 -0.007389 -0.007409 0.020342 0.000000 0.000000 0.000000
# 4 0.000000 0.000000 0.000000 0.034386 0.000000 0.000000
# 5 0.000000 0.000000 0.000000 0.000000 0.035716 0.000000
# 6 0.000000 0.000000 0.000000 0.000000 0.000000 0.041533
#
#
# Mechanical properties :
#
#
# Convention : Reuss Voigt Hill
#
# Bulk Modulus (GPa) = 55.83847 63.65303 59.74575
# Shear Modulus (GPa) = 22.32308 23.94711 23.13510
#
# Velocity S-wave (km/s) = 3.58138 3.70937 3.64594
# Velocity P-wave (km/s) = 7.01321 7.41076 7.21473
#
# Compressibility (1/GPa) = 0.01790880
#
# Stress axis : x y z
#
# Youngs Moduli (GPa) = 37.80051 65.15804 49.15875
#
# Poissons Ratio (x) = 0.47692 0.36325
# Poissons Ratio (y) = 0.27668 0.36422
# Poissons Ratio (z) = 0.27932 0.48276
#
# Static dielectric constant tensor:
#      x y z
#    x 3.171500 0.000000 0.000000 
#    y 0.000000 3.425300 0.000000 
#    z 0.000000 0.000000 3.167150 
# 
# 
# High freq. dielectric constant tensor:
#      x y z
#    x 1.664980 0.000000 0.000000 
#    y 0.000000 1.676000 0.000000 
#    z 0.000000 0.000000 1.654030 
# 
# From -- ./inp_files/34269.got.cif
#   From: 2010.03.12/outbox.cif.g09.slc.cpg/sg53_18_cif.got.tgz:34269.got - 2010.04.16 14:36:59.
