data_PCOD8217890
_publ_section_title
;
Structure prediction by ZEFSAII (Michael W. Deem and Ramdas Pophale) SiO2 
 PCOD8217890
Probable space group: P M N A
;
_chemical_formula_sum "Si O2"
_cell_formula_units_Z 56
_cell_length_a 8.664426
_cell_length_b 13.863096
_cell_length_c 28.215870
_cell_angle_alpha 90.000000
_cell_angle_beta 90.000000
_cell_angle_gamma 90.000000
_cell_volume 3389.170935
_symmetry_space_group_name_H-M "P M N A"
_symmetry_group_IT_number 53
_symmetry_cell_setting 'orthorhombic'
loop_
_space_group_symop_operation_xyz
x,y,z
1/2-x,-y,1/2+z
x,-y,-z
1/2-x,y,1/2-z
-x,-y,-z
1/2+x,y,1/2-z
-x,y,z
1/2+x,-y,1/2+z
loop_
_atom_site_type_symbol
_atom_site_label
_atom_site_fract_x
_atom_site_fract_y
_atom_site_fract_z
Si Si1 0.678633 0.619177 0.558298
Si Si2 0.319477 0.526515 0.798449
Si Si3 0.817278 0.898122 0.515714
Si Si4 0.319782 0.205725 0.108793
Si Si5 0.821517 0.295578 0.529611
Si Si6 0.681678 0.736015 0.700657
Si Si7 0.176859 0.557501 0.396185
O O1 0.500000 0.643764 0.566954
O O2 0.784951 0.687258 0.590446
O O3 0.721519 0.633950 0.503467
O O4 0.712243 0.510119 0.573164
O O5 0.250000 0.482934 0.750000
O O6 0.500000 0.544093 0.791531
O O7 0.243057 0.628909 0.810695
O O8 0.282866 0.450023 0.840370
O O9 0.760446 0.869956 0.568767
O O10 0.766975 0.815403 0.477789
O O11 0.000000 0.907902 0.516464
O O12 0.741806 0.000000 0.500000
O O13 0.500000 0.193845 0.118221
O O14 0.232036 0.190830 0.158703
O O15 0.798653 0.332996 0.583850
O O16 0.000000 0.303504 0.513857
O O17 0.750000 0.775177 0.750000
O O18 0.500000 0.732439 0.704674
O O19 0.000000 0.525182 0.404287
#
# Coordination Sequence:
#
# PCOD8217890 Si02
#       7
#     8   8   8   8   8   8   8
#     4  11  20  28  41  63  91 122 154 186 222 263
#     4  10  19  30  44  61  87 121 158 191 223 262
#     4   8  15  29  50  72  91 113 149 195 236 277
#     4  10  18  30  47  67  93 124 156 190 230 276
#     4   9  18  31  46  64  88 118 151 186 227 276
#     4  11  20  30  45  66  93 124 158 191 227 268
#     4  10  19  30  44  61  87 123 155 183 221 268
#
# _framework density 16.523215
#
# number of rings (size 3 to 8) (size 9 to 14) (size 15 to 20)
#    0.000    2.143    1.429    5.571    0.000    2.857 
#    0.000    0.000    0.000   10.714    0.000    1.000 
#    0.000    2.286    0.000    0.000    0.000    0.571 
#
# Total GULP energy -694098.771868 kJ/mol
# GULP energy per Si atom -12394.620926 kJ/mol
# Density = 1.648561 g / cm^3
# Si number density = 16.523215 Si / 1000 Ang^3
#
#
#
# Elastic Constant Matrix: (Units=GPa)
#
#
# Indices 1 2 3 4 5 6 
#
# 1 73.2093 22.7969 37.2211 0.0000 0.0000 0.0000
# 2 22.7969 86.4275 68.1905 0.0000 0.0000 0.0000
# 3 37.2211 68.1905 137.4548 0.0000 0.0000 0.0000
# 4 0.0000 0.0000 0.0000 20.5309 0.0000 0.0000
# 5 0.0000 0.0000 0.0000 0.0000 24.2664 0.0000
# 6 0.0000 0.0000 0.0000 0.0000 0.0000 7.1101
#
#
#
# Elastic Compliance Matrix: (Units=1/GPa)
#
#
# Indices 1 2 3 4 5 6 
#
# 1 0.015930 -0.001312 -0.003663 0.000000 0.000000 0.000000
# 2 -0.001312 0.019120 -0.009130 0.000000 0.000000 0.000000
# 3 -0.003663 -0.009130 0.012796 0.000000 0.000000 0.000000
# 4 0.000000 0.000000 0.000000 0.048707 0.000000 0.000000
# 5 0.000000 0.000000 0.000000 0.000000 0.041209 0.000000
# 6 0.000000 0.000000 0.000000 0.000000 0.000000 0.140645
#
#
# Mechanical properties :
#
#
# Convention : Reuss Voigt Hill
#
# Bulk Modulus (GPa) = 50.92465 61.50096 56.21280
# Shear Modulus (GPa) = 15.96610 21.64035 18.80323
#
# Velocity S-wave (km/s) = 3.11188 3.62290 3.37707
# Velocity P-wave (km/s) = 6.61806 7.40285 7.02143
#
# Compressibility (1/GPa) = 0.01963686
#
# Stress axis : x y z
#
# Youngs Moduli (GPa) = 62.77351 52.30137 78.14739
#
# Poissons Ratio (x) = 0.06862 0.28624
# Poissons Ratio (y) = 0.08236 0.71349
# Poissons Ratio (z) = 0.22993 0.47751
#
# Static dielectric constant tensor:
#      x y z
#    x 3.028910 0.000000 0.000000 
#    y 0.000000 2.960200 0.000000 
#    z 0.000000 0.000000 3.381770 
# 
# 
# High freq. dielectric constant tensor:
#      x y z
#    x 1.632620 0.000000 0.000000 
#    y 0.000000 1.583870 0.000000 
#    z 0.000000 0.000000 1.640820 
# 
# From -- ./inp_files/38315.got.cif
#   From: 2010.03.12/outbox.cif.g09.slc.cpg/sg53_20_cif.got.tgz:38315.got - 2010.04.16 14:36:59.
