data_PCOD8217076
_publ_section_title
;
Structure prediction by ZEFSAII (Michael W. Deem and Ramdas Pophale) SiO2 
 PCOD8217076
Probable space group: P N N A
;
_chemical_formula_sum "Si O2"
_cell_formula_units_Z 56
_cell_length_a 14.520360
_cell_length_b 11.434759
_cell_length_c 15.657290
_cell_angle_alpha 90.000000
_cell_angle_beta 90.000000
_cell_angle_gamma 90.000000
_cell_volume 2599.686597
_symmetry_space_group_name_H-M "P N N A"
_symmetry_group_IT_number 52
_symmetry_cell_setting 'orthorhombic'
loop_
_space_group_symop_operation_xyz
x,y,z
1/2-x,-y,z
x,1/2-y,1/2-z
1/2-x,1/2+y,1/2-z
-x,-y,-z
1/2+x,y,-z
-x,1/2+y,1/2+z
1/2+x,1/2-y,1/2+z
loop_
_atom_site_type_symbol
_atom_site_label
_atom_site_fract_x
_atom_site_fract_y
_atom_site_fract_z
Si Si1 0.812776 0.610084 0.329741
Si Si2 0.883876 0.784943 0.009668
Si Si3 0.791716 0.375778 0.020235
Si Si4 0.999940 0.883104 0.246453
Si Si5 0.866763 0.272907 0.341486
Si Si6 0.490392 0.948297 0.093723
Si Si7 0.969543 0.402729 0.933555
O O1 0.750000 0.500000 0.312075
O O2 0.865141 0.610864 0.421682
O O3 0.888984 0.621658 0.256789
O O4 0.743212 0.718175 0.327743
O O5 0.914464 0.843872 0.919186
O O6 0.791305 0.710761 0.995589
O O7 0.968368 0.711712 0.049748
O O8 0.750000 0.500000 0.047721
O O9 0.866635 0.334780 0.092611
O O10 0.859362 0.382131 0.939205
O O11 0.039908 0.750000 0.250000
O O12 0.020081 0.946752 0.336053
O O13 0.041157 0.958253 0.166281
O O14 0.915481 0.250000 0.250000
O O15 0.912268 0.390790 0.378507
O O16 0.500000 0.000000 0.000000
O O17 0.000000 0.500000 0.000000
#
# Coordination Sequence:
#
# PCOD8217076 Si02
#       7
#     8   8   8   8   8   8   8
#     4  11  21  41  67 106 141 171 233 291 370 436
#     4  11  23  44  71 102 142 190 238 296 359 438
#     4  11  25  44  72 100 145 193 243 295 368 436
#     4  12  25  43  71  97 140 188 236 296 362 436
#     4  11  25  37  64 108 145 172 229 299 370 436
#     4  12  23  44  70 101 140 189 239 293 358 434
#     4  12  25  44  72 103 144 194 237 285 367 436
#
# _framework density 21.541056999999999
#
# number of rings (size 3 to 8) (size 9 to 14) (size 15 to 20)
#    0.000    0.571    7.143    0.429    4.000    0.571 
#    0.000    0.000    3.143    0.000    0.000    0.000 
#    0.000    0.000    0.000    0.000    0.000    0.000 
#
# Total GULP energy -693978.748510 kJ/mol
# GULP energy per Si atom -12392.477652 kJ/mol
# Density = 2.149203 g / cm^3
# Si number density = 21.541057 Si / 1000 Ang^3
#
#
#
# Elastic Constant Matrix: (Units=GPa)
#
#
# Indices 1 2 3 4 5 6 
#
# 1 91.9285 27.2238 46.5016 0.0000 0.0000 0.0000
# 2 27.2238 102.8891 65.7809 0.0000 0.0000 0.0000
# 3 46.5016 65.7809 166.9262 0.0000 0.0000 0.0000
# 4 0.0000 0.0000 0.0000 39.9586 0.0000 0.0000
# 5 0.0000 0.0000 0.0000 0.0000 35.7267 0.0000
# 6 0.0000 0.0000 0.0000 0.0000 0.0000 34.7508
#
#
#
# Elastic Compliance Matrix: (Units=1/GPa)
#
#
# Indices 1 2 3 4 5 6 
#
# 1 0.012829 -0.001483 -0.002989 0.000000 0.000000 0.000000
# 2 -0.001483 0.013164 -0.004774 0.000000 0.000000 0.000000
# 3 -0.002989 -0.004774 0.008705 0.000000 0.000000 0.000000
# 4 0.000000 0.000000 0.000000 0.025026 0.000000 0.000000
# 5 0.000000 0.000000 0.000000 0.000000 0.027990 0.000000
# 6 0.000000 0.000000 0.000000 0.000000 0.000000 0.028776
#
#
# Mechanical properties :
#
#
# Convention : Reuss Voigt Hill
#
# Bulk Modulus (GPa) = 61.71247 71.19518 66.45382
# Shear Modulus (GPa) = 35.61589 36.90305 36.25947
#
# Velocity S-wave (km/s) = 4.07061 4.14351 4.10722
# Velocity P-wave (km/s) = 7.12770 7.48427 7.30816
#
# Compressibility (1/GPa) = 0.01620418
#
# Stress axis : x y z
#
# Youngs Moduli (GPa) = 77.94542 75.96400 114.87773
#
# Poissons Ratio (x) = 0.11268 0.34342
# Poissons Ratio (y) = 0.11562 0.54847
# Poissons Ratio (z) = 0.23301 0.36268
#
# Static dielectric constant tensor:
#      x y z
#    x 4.310810 0.000000 0.000000 
#    y 0.000000 4.128770 0.000000 
#    z 0.000000 0.000000 4.099200 
# 
# 
# High freq. dielectric constant tensor:
#      x y z
#    x 1.833490 0.000000 0.000000 
#    y 0.000000 1.858070 0.000000 
#    z 0.000000 0.000000 1.836880 
# 
# From -- ./inp_files/27296.got.cif
#   From: 2010.06.25/outbox.cif.g09.slc.cpg/sg52_14_cif.got.tgz:27296.got - 2010.06.26 19:32:48.
