data_PCOD8217232
_publ_section_title
;
Structure prediction by ZEFSAII (Michael W. Deem and Ramdas Pophale) SiO2 
 PCOD8217232
Probable space group: P N N A
;
_chemical_formula_sum "Si O2"
_cell_formula_units_Z 36
_cell_length_a 8.872091
_cell_length_b 21.121137
_cell_length_c 7.300959
_cell_angle_alpha 90.000000
_cell_angle_beta 90.000000
_cell_angle_gamma 90.000000
_cell_volume 1368.116847
_symmetry_space_group_name_H-M "P N N A"
_symmetry_group_IT_number 52
_symmetry_cell_setting 'orthorhombic'
loop_
_space_group_symop_operation_xyz
x,y,z
1/2-x,-y,z
x,1/2-y,1/2-z
1/2-x,1/2+y,1/2-z
-x,-y,-z
1/2+x,y,-z
-x,1/2+y,1/2+z
1/2+x,1/2-y,1/2+z
loop_
_atom_site_type_symbol
_atom_site_label
_atom_site_fract_x
_atom_site_fract_y
_atom_site_fract_z
Si Si1 0.996209 0.557810 0.639690
Si Si2 0.394348 0.750000 0.750000
Si Si3 0.079648 0.641043 0.167787
Si Si4 0.829855 0.562487 0.012735
Si Si5 0.747419 0.860533 0.035772
O O1 0.923586 0.538293 0.833977
O O2 0.897369 0.612757 0.551831
O O3 0.000000 0.500000 0.500000
O O4 0.163909 0.588395 0.671651
O O5 0.501591 0.707991 0.886748
O O6 0.284631 0.705221 0.633257
O O7 0.215195 0.619688 0.037093
O O8 0.127051 0.650502 0.375794
O O9 0.944915 0.588603 0.164997
O O10 0.750000 0.500000 0.093837
#
# Coordination Sequence:
#
# PCOD8217232 Si02
#       5
#     8   4   8   8   8
#     4  11  23  46  76 114 159 206 264 323 403 471
#     4  12  28  48  78 106 164 202 280 314 390 484
#     4  11  27  49  76 115 153 212 256 326 393 467
#     4  11  26  47  77 117 159 197 264 326 397 471
#     4  11  25  48  74 113 151 211 261 323 397 468
#
# _framework density 26.313542000000002
#
# number of rings (size 3 to 8) (size 9 to 14) (size 15 to 20)
#    0.000    0.889    2.222    4.000    6.222    0.000 
#    0.000    0.000    0.000    0.000    0.000    0.000 
#    0.000    0.000    0.000    0.000    0.000    0.000 
#
# Total GULP energy -446392.628821 kJ/mol
# GULP energy per Si atom -12399.795245 kJ/mol
# Density = 2.625365 g / cm^3
# Si number density = 26.313542 Si / 1000 Ang^3
#
#
#
# Elastic Constant Matrix: (Units=GPa)
#
#
# Indices 1 2 3 4 5 6 
#
# 1 101.4708 36.2523 18.4451 0.0000 0.0000 0.0000
# 2 36.2523 160.4345 60.0294 0.0000 0.0000 0.0000
# 3 18.4451 60.0294 87.4045 0.0000 0.0000 0.0000
# 4 0.0000 0.0000 0.0000 47.8867 0.0000 0.0000
# 5 0.0000 0.0000 0.0000 0.0000 23.0672 0.0000
# 6 0.0000 0.0000 0.0000 0.0000 0.0000 57.5632
#
#
#
# Elastic Compliance Matrix: (Units=1/GPa)
#
#
# Indices 1 2 3 4 5 6 
#
# 1 0.010763 -0.002129 -0.000809 0.000000 0.000000 0.000000
# 2 -0.002129 0.008810 -0.005601 0.000000 0.000000 0.000000
# 3 -0.000809 -0.005601 0.015459 0.000000 0.000000 0.000000
# 4 0.000000 0.000000 0.000000 0.020883 0.000000 0.000000
# 5 0.000000 0.000000 0.000000 0.000000 0.043352 0.000000
# 6 0.000000 0.000000 0.000000 0.000000 0.000000 0.017372
#
#
# Mechanical properties :
#
#
# Convention : Reuss Voigt Hill
#
# Bulk Modulus (GPa) = 55.70259 64.30704 60.00481
# Shear Modulus (GPa) = 35.79056 41.34229 38.56642
#
# Velocity S-wave (km/s) = 3.69203 3.96806 3.83253
# Velocity P-wave (km/s) = 6.27611 6.74432 6.51442
#
# Compressibility (1/GPa) = 0.01795249
#
# Stress axis : x y z
#
# Youngs Moduli (GPa) = 92.91234 113.50610 64.68808
#
# Poissons Ratio (x) = 0.24169 0.05232
# Poissons Ratio (y) = 0.19784 0.36234
# Poissons Ratio (z) = 0.07515 0.63579
#
# Static dielectric constant tensor:
#      x y z
#    x 5.621150 0.000000 0.000000 
#    y 0.000000 4.705300 0.000000 
#    z 0.000000 0.000000 4.802140 
# 
# 
# High freq. dielectric constant tensor:
#      x y z
#    x 2.090480 0.000000 0.000000 
#    y 0.000000 2.055220 0.000000 
#    z 0.000000 0.000000 2.052810 
# 
# From -- ./inp_files/7295.got.cif
#   From: 2010.06.25/outbox.cif.g09.slc.cpg/sg52_4_cif.got.tgz:7295.got - 2010.06.26 19:32:48.
