data_PCOD8217895
_publ_section_title
;
Structure prediction by ZEFSAII (Michael W. Deem and Ramdas Pophale) SiO2 
 PCOD8217895
Probable space group: P M N A
;
_chemical_formula_sum "Si O2"
_cell_formula_units_Z 56
_cell_length_a 9.192649
_cell_length_b 13.732776
_cell_length_c 27.595194
_cell_angle_alpha 90.000000
_cell_angle_beta 90.000000
_cell_angle_gamma 90.000000
_cell_volume 3483.633560
_symmetry_space_group_name_H-M "P M N A"
_symmetry_group_IT_number 53
_symmetry_cell_setting 'orthorhombic'
loop_
_space_group_symop_operation_xyz
x,y,z
1/2-x,-y,1/2+z
x,-y,-z
1/2-x,y,1/2-z
-x,-y,-z
1/2+x,y,1/2-z
-x,y,z
1/2+x,-y,1/2+z
loop_
_atom_site_type_symbol
_atom_site_label
_atom_site_fract_x
_atom_site_fract_y
_atom_site_fract_z
Si Si1 0.170621 0.894570 0.019565
Si Si2 0.833663 0.393186 0.942366
Si Si3 0.828454 0.569901 0.600697
Si Si4 0.663657 0.289362 0.458650
Si Si5 0.670112 0.788761 0.099223
Si Si6 0.669675 0.485086 0.797197
Si Si7 0.666988 0.737004 0.203912
O O1 0.258083 0.877385 0.069482
O O2 0.000000 0.884344 0.031230
O O3 0.217042 0.814815 0.979461
O O4 0.213022 0.000000 0.000000
O O5 0.753486 0.494385 0.933875
O O6 0.747114 0.311573 0.913419
O O7 0.000000 0.398166 0.923581
O O8 0.831147 0.369756 0.999148
O O9 0.770410 0.676781 0.584787
O O10 0.787111 0.550288 0.656535
O O11 0.000000 0.561765 0.592060
O O12 0.500000 0.279846 0.438128
O O13 0.500000 0.780738 0.086510
O O14 0.694045 0.804526 0.156794
O O15 0.750000 0.527800 0.750000
O O16 0.500000 0.491525 0.787049
O O17 0.719181 0.373680 0.807020
O O18 0.750000 0.782051 0.250000
O O19 0.500000 0.735828 0.218456
#
# Coordination Sequence:
#
# PCOD8217895 Si02
#       7
#     8   8   8   8   8   8   8
#     4   9  19  36  54  71  94 122 154 193 235 284
#     4  10  19  30  44  63  92 128 162 190 220 266
#     4  11  20  30  44  65  94 124 155 192 232 269
#     4   9  19  32  45  66  91 118 155 189 222 273
#     4  10  18  30  47  70  98 124 155 195 236 278
#     4   9  18  31  43  61  89 123 161 194 226 267
#     4   9  17  29  43  63  93 125 158 193 226 269
#
# _framework density 16.075171000000001
#
# number of rings (size 3 to 8) (size 9 to 14) (size 15 to 20)
#    0.000    2.429    1.429    2.571    0.000    7.143 
#    0.000    0.000    0.000    0.000    0.000    1.000 
#    0.000    0.000    0.000    0.000    0.000    0.000 
#
# Total GULP energy -694289.721874 kJ/mol
# GULP energy per Si atom -12398.030748 kJ/mol
# Density = 1.603858 g / cm^3
# Si number density = 16.075171 Si / 1000 Ang^3
#
#
#
# Elastic Constant Matrix: (Units=GPa)
#
#
# Indices 1 2 3 4 5 6 
#
# 1 79.5106 40.2776 55.2369 0.0000 0.0000 0.0000
# 2 40.2776 77.4030 53.8165 0.0000 0.0000 0.0000
# 3 55.2369 53.8165 103.4852 0.0000 0.0000 0.0000
# 4 0.0000 0.0000 0.0000 15.0545 0.0000 0.0000
# 5 0.0000 0.0000 0.0000 0.0000 29.7611 0.0000
# 6 0.0000 0.0000 0.0000 0.0000 0.0000 16.8387
#
#
#
# Elastic Compliance Matrix: (Units=1/GPa)
#
#
# Indices 1 2 3 4 5 6 
#
# 1 0.021130 -0.004940 -0.008710 0.000000 0.000000 0.000000
# 2 -0.004940 0.021391 -0.008488 0.000000 0.000000 0.000000
# 3 -0.008710 -0.008488 0.018726 0.000000 0.000000 0.000000
# 4 0.000000 0.000000 0.000000 0.066425 0.000000 0.000000
# 5 0.000000 0.000000 0.000000 0.000000 0.033601 0.000000
# 6 0.000000 0.000000 0.000000 0.000000 0.000000 0.059387
#
#
# Mechanical properties :
#
#
# Convention : Reuss Voigt Hill
#
# Bulk Modulus (GPa) = 58.91623 62.11787 60.51705
# Shear Modulus (GPa) = 18.47803 19.73537 19.10670
#
# Velocity S-wave (km/s) = 3.39407 3.50765 3.45133
# Velocity P-wave (km/s) = 7.21732 7.42501 7.32190
#
# Compressibility (1/GPa) = 0.01697325
#
# Stress axis : x y z
#
# Youngs Moduli (GPa) = 47.32637 46.74862 53.40160
#
# Poissons Ratio (x) = 0.23092 0.46511
# Poissons Ratio (y) = 0.23377 0.45325
# Poissons Ratio (z) = 0.41219 0.39678
#
# Static dielectric constant tensor:
#      x y z
#    x 3.103410 0.000000 0.000000 
#    y 0.000000 2.805090 0.000000 
#    z 0.000000 0.000000 3.069090 
# 
# 
# High freq. dielectric constant tensor:
#      x y z
#    x 1.627040 0.000000 0.000000 
#    y 0.000000 1.574180 0.000000 
#    z 0.000000 0.000000 1.612380 
# 
# From -- ./inp_files/38364.got.cif
#   From: 2010.03.12/outbox.cif.g09.slc.cpg/sg53_20_cif.got.tgz:38364.got - 2010.04.16 14:36:59.
