data_PCOD8217659
_publ_section_title
;
Structure prediction by ZEFSAII (Michael W. Deem and Ramdas Pophale) SiO2 
 PCOD8217659
Probable space group: P M N A
;
_chemical_formula_sum "Si O2"
_cell_formula_units_Z 40
_cell_length_a 14.742581
_cell_length_b 12.652305
_cell_length_c 10.443530
_cell_angle_alpha 90.000000
_cell_angle_beta 90.000000
_cell_angle_gamma 90.000000
_cell_volume 1948.006913
_symmetry_space_group_name_H-M "P M N A"
_symmetry_group_IT_number 53
_symmetry_cell_setting 'orthorhombic'
loop_
_space_group_symop_operation_xyz
x,y,z
1/2-x,-y,1/2+z
x,-y,-z
1/2-x,y,1/2-z
-x,-y,-z
1/2+x,y,1/2-z
-x,y,z
1/2+x,-y,1/2+z
loop_
_atom_site_type_symbol
_atom_site_label
_atom_site_fract_x
_atom_site_fract_y
_atom_site_fract_z
Si Si1 0.500000 0.438058 0.870075
Si Si2 0.401846 0.846125 0.280568
Si Si3 0.812650 0.954961 0.870171
Si Si4 0.150362 0.731515 0.971267
Si Si5 0.000000 0.421331 0.117193
Si Si6 0.690069 0.683555 0.136735
O O1 0.500000 0.517065 0.750459
O O2 0.592285 0.370382 0.872858
O O3 0.500000 0.500000 0.000000
O O4 0.500000 0.837586 0.216034
O O5 0.397399 0.760016 0.395205
O O6 0.328028 0.807842 0.175188
O O7 0.393463 0.963861 0.337008
O O8 0.750000 0.962272 0.750000
O O9 0.845460 0.835348 0.883242
O O10 0.765303 0.000000 0.000000
O O11 0.251606 0.684685 0.004329
O O12 0.091508 0.648080 0.891474
O O13 0.000000 0.500000 0.000000
O O14 0.750000 0.628969 0.250000
#
# Coordination Sequence:
#
# PCOD8217659 Si02
#       6
#     4   8   8   8   4   8
#     4  12  28  44  63  95 135 163 220 278 330 385
#     4  10  17  33  63  95 128 166 208 255 309 389
#     4  10  21  36  59  93 130 166 210 254 309 383
#     4  10  22  37  65  92 127 159 216 267 322 368
#     4  12  24  44  68  97 119 163 221 282 315 383
#     4  10  21  41  66  95 125 174 214 261 324 396
#
# _framework density 20.533808000000001
#
# number of rings (size 3 to 8) (size 9 to 14) (size 15 to 20)
#    0.000    1.600    2.000    5.400    1.400    5.200 
#    0.000    0.000    2.200    1.800    0.000    0.000 
#    0.000    0.000    0.000    0.000    0.000    0.000 
#
# Total GULP energy -495578.246269 kJ/mol
# GULP energy per Si atom -12389.456157 kJ/mol
# Density = 2.048707 g / cm^3
# Si number density = 20.533808 Si / 1000 Ang^3
#
#
#
# Elastic Constant Matrix: (Units=GPa)
#
#
# Indices 1 2 3 4 5 6 
#
# 1 159.6553 65.1351 50.5455 0.0000 0.0000 0.0000
# 2 65.1351 126.8109 54.5805 0.0000 0.0000 0.0000
# 3 50.5455 54.5805 99.9095 0.0000 0.0000 0.0000
# 4 0.0000 0.0000 0.0000 28.2273 0.0000 0.0000
# 5 0.0000 0.0000 0.0000 0.0000 20.0322 0.0000
# 6 0.0000 0.0000 0.0000 0.0000 0.0000 25.5255
#
#
#
# Elastic Compliance Matrix: (Units=1/GPa)
#
#
# Indices 1 2 3 4 5 6 
#
# 1 0.008363 -0.003235 -0.002464 0.000000 0.000000 0.000000
# 2 -0.003235 0.011562 -0.004679 0.000000 0.000000 0.000000
# 3 -0.002464 -0.004679 0.013812 0.000000 0.000000 0.000000
# 4 0.000000 0.000000 0.000000 0.035427 0.000000 0.000000
# 5 0.000000 0.000000 0.000000 0.000000 0.049920 0.000000
# 6 0.000000 0.000000 0.000000 0.000000 0.000000 0.039177
#
#
# Mechanical properties :
#
#
# Convention : Reuss Voigt Hill
#
# Bulk Modulus (GPa) = 77.04106 80.76645 78.90376
# Shear Modulus (GPa) = 27.27129 29.16463 28.21796
#
# Velocity S-wave (km/s) = 3.64829 3.77281 3.71107
# Velocity P-wave (km/s) = 7.43957 7.64183 7.54138
#
# Compressibility (1/GPa) = 0.01298009
#
# Stress axis : x y z
#
# Youngs Moduli (GPa) = 119.56817 86.49334 72.40223
#
# Poissons Ratio (x) = 0.27984 0.17837
# Poissons Ratio (y) = 0.38685 0.33879
# Poissons Ratio (z) = 0.29458 0.40472
#
# Static dielectric constant tensor:
#      x y z
#    x 3.849510 0.000000 0.000000 
#    y 0.000000 4.365510 0.000000 
#    z 0.000000 0.000000 3.651430 
# 
# 
# High freq. dielectric constant tensor:
#      x y z
#    x 1.808380 0.000000 0.000000 
#    y 0.000000 1.803710 0.000000 
#    z 0.000000 0.000000 1.781340 
# 
# From -- ./inp_files/15797.got.cif
#   From: 2010.03.12/outbox.cif.g09.slc.cpg/sg53_8_cif.got.tgz:15797.got - 2010.04.16 14:36:59.
