data_PCOD8217251
_publ_section_title
;
Structure prediction by ZEFSAII (Michael W. Deem and Ramdas Pophale) SiO2 
 PCOD8217251
Probable space group: P N N A
;
_chemical_formula_sum "Si O2"
_cell_formula_units_Z 32
_cell_length_a 14.611608
_cell_length_b 7.141633
_cell_length_c 14.711173
_cell_angle_alpha 90.000000
_cell_angle_beta 90.000000
_cell_angle_gamma 90.000000
_cell_volume 1535.121816
_symmetry_space_group_name_H-M "P N N A"
_symmetry_group_IT_number 52
_symmetry_cell_setting 'orthorhombic'
loop_
_space_group_symop_operation_xyz
x,y,z
1/2-x,-y,z
x,1/2-y,1/2-z
1/2-x,1/2+y,1/2-z
-x,-y,-z
1/2+x,y,-z
-x,1/2+y,1/2+z
1/2+x,1/2-y,1/2+z
loop_
_atom_site_type_symbol
_atom_site_label
_atom_site_fract_x
_atom_site_fract_y
_atom_site_fract_z
Si Si1 0.750000 0.500000 0.120804
Si Si2 0.469647 0.905059 0.823934
Si Si3 0.846180 0.585424 0.680872
Si Si4 0.627243 0.750000 0.250000
Si Si5 0.827800 0.655015 0.472868
O O1 0.687502 0.627867 0.183088
O O2 0.802997 0.636106 0.054320
O O3 0.436023 0.750000 0.750000
O O4 0.425376 0.872441 0.922825
O O5 0.579921 0.915557 0.823078
O O6 0.438112 0.113017 0.803197
O O7 0.750000 0.500000 0.713339
O O8 0.874790 0.750000 0.750000
O O9 0.840399 0.666178 0.579899
O O10 0.750000 0.500000 0.444561
#
# Coordination Sequence:
#
# PCOD8217251 Si02
#       5
#     4   8   8   4   8
#     4  12  22  40  68 102 142 170 210 270 348 410
#     4  12  23  44  68  99 136 174 217 279 336 398
#     4  11  26  47  67  92 132 182 236 278 321 387
#     4  12  22  38  68 104 136 166 210 270 346 410
#     4  11  24  42  68 101 137 172 220 274 338 401
#
# _framework density 20.845253
#
# number of rings (size 3 to 8) (size 9 to 14) (size 15 to 20)
#    0.000    0.500    6.250    3.000    1.750    0.000 
#    0.000    2.500    0.000    0.000    0.000    0.000 
#    0.000    0.000    0.000    0.000    0.000    0.000 
#
# Total GULP energy -396659.493110 kJ/mol
# GULP energy per Si atom -12395.609160 kJ/mol
# Density = 2.079781 g / cm^3
# Si number density = 20.845253 Si / 1000 Ang^3
#
#
#
# Elastic Constant Matrix: (Units=GPa)
#
#
# Indices 1 2 3 4 5 6 
#
# 1 122.4761 42.7020 36.0185 0.0000 0.0000 0.0000
# 2 42.7020 130.9823 47.7805 0.0000 0.0000 0.0000
# 3 36.0185 47.7805 111.1976 0.0000 0.0000 0.0000
# 4 0.0000 0.0000 0.0000 31.4481 0.0000 0.0000
# 5 0.0000 0.0000 0.0000 0.0000 28.1877 0.0000
# 6 0.0000 0.0000 0.0000 0.0000 0.0000 14.4667
#
#
#
# Elastic Compliance Matrix: (Units=1/GPa)
#
#
# Indices 1 2 3 4 5 6 
#
# 1 0.009606 -0.002368 -0.002094 0.000000 0.000000 0.000000
# 2 -0.002368 0.009637 -0.003374 0.000000 0.000000 0.000000
# 3 -0.002094 -0.003374 0.011121 0.000000 0.000000 0.000000
# 4 0.000000 0.000000 0.000000 0.031798 0.000000 0.000000
# 5 0.000000 0.000000 0.000000 0.000000 0.035476 0.000000
# 6 0.000000 0.000000 0.000000 0.000000 0.000000 0.069124
#
#
# Mechanical properties :
#
#
# Convention : Reuss Voigt Hill
#
# Bulk Modulus (GPa) = 68.06163 68.62867 68.34515
# Shear Modulus (GPa) = 26.69033 30.69750 28.69391
#
# Velocity S-wave (km/s) = 3.58215 3.84166 3.71417
# Velocity P-wave (km/s) = 7.05910 7.25756 7.15902
#
# Compressibility (1/GPa) = 0.01469257
#
# Stress axis : x y z
#
# Youngs Moduli (GPa) = 104.09841 103.76244 89.91874
#
# Poissons Ratio (x) = 0.24569 0.18831
# Poissons Ratio (y) = 0.24649 0.30340
# Poissons Ratio (z) = 0.21800 0.35011
#
# Static dielectric constant tensor:
#      x y z
#    x 4.158330 0.000000 0.000000 
#    y 0.000000 4.190380 0.000000 
#    z 0.000000 0.000000 3.769290 
# 
# 
# High freq. dielectric constant tensor:
#      x y z
#    x 1.824620 0.000000 0.000000 
#    y 0.000000 1.825720 0.000000 
#    z 0.000000 0.000000 1.818180 
# 
# From -- ./inp_files/27724.got.cif
#   From: 2010.06.25/outbox.cif.g09.slc.cpg/sg52_14_cif.got.tgz:27724.got - 2010.06.26 19:32:48.
