data_PCOD8217407
_publ_section_title
;
Structure prediction by ZEFSAII (Michael W. Deem and Ramdas Pophale) SiO2 
 PCOD8217407
Probable space group: P N N A
;
_chemical_formula_sum "Si O2"
_cell_formula_units_Z 40
_cell_length_a 9.168573
_cell_length_b 21.340470
_cell_length_c 8.075113
_cell_angle_alpha 90.000000
_cell_angle_beta 90.000000
_cell_angle_gamma 90.000000
_cell_volume 1579.989990
_symmetry_space_group_name_H-M "P N N A"
_symmetry_group_IT_number 52
_symmetry_cell_setting 'orthorhombic'
loop_
_space_group_symop_operation_xyz
x,y,z
1/2-x,-y,z
x,1/2-y,1/2-z
1/2-x,1/2+y,1/2-z
-x,-y,-z
1/2+x,y,-z
-x,1/2+y,1/2+z
1/2+x,1/2-y,1/2+z
loop_
_atom_site_type_symbol
_atom_site_label
_atom_site_fract_x
_atom_site_fract_y
_atom_site_fract_z
Si Si1 0.940826 0.653704 0.112578
Si Si2 0.332990 0.267565 0.925178
Si Si3 0.653030 0.061749 0.646385
Si Si4 0.652937 0.859747 0.891279
Si Si5 0.100600 0.534790 0.632017
O O1 0.829124 0.710633 0.121524
O O2 0.998215 0.635481 0.294760
O O3 0.863528 0.592859 0.033525
O O4 0.079725 0.675122 0.005073
O O5 0.409835 0.250000 0.750000
O O6 0.316653 0.211901 0.058806
O O7 0.718481 0.111850 0.777193
O O8 0.490408 0.042126 0.700209
O O9 0.750000 0.000000 0.635518
O O10 0.641954 0.897196 0.061836
O O11 0.250000 0.500000 0.672203
O O12 0.000000 0.500000 0.500000
#
# Coordination Sequence:
#
# PCOD8217407 Si02
#       5
#     8   8   8   8   8
#     4  12  29  50  75 115 155 212 257 332 410 471
#     4  12  28  47  78 115 154 205 262 323 408 486
#     4  12  27  53  76 115 162 210 273 334 396 483
#     4  12  26  50  79 111 164 196 268 335 393 491
#     4  12  24  47  80 115 153 210 268 325 402 469
#
# _framework density 25.316617000000001
#
# number of rings (size 3 to 8) (size 9 to 14) (size 15 to 20)
#    0.000    0.000    6.000    3.000    8.400    2.400 
#    0.000    2.000    0.000    0.000    0.000    0.000 
#    0.000    0.000    0.000    0.000    0.000    0.000 
#
# Total GULP energy -496284.005620 kJ/mol
# GULP energy per Si atom -12407.100140 kJ/mol
# Density = 2.525899 g / cm^3
# Si number density = 25.316617 Si / 1000 Ang^3
#
#
#
# Elastic Constant Matrix: (Units=GPa)
#
#
# Indices 1 2 3 4 5 6 
#
# 1 127.9083 49.3907 22.0223 0.0000 0.0000 0.0000
# 2 49.3907 127.6312 50.2080 0.0000 0.0000 0.0000
# 3 22.0223 50.2080 90.4188 0.0000 0.0000 0.0000
# 4 0.0000 0.0000 0.0000 40.3403 0.0000 0.0000
# 5 0.0000 0.0000 0.0000 0.0000 34.4520 0.0000
# 6 0.0000 0.0000 0.0000 0.0000 0.0000 41.1629
#
#
#
# Elastic Compliance Matrix: (Units=1/GPa)
#
#
# Indices 1 2 3 4 5 6 
#
# 1 0.009200 -0.003427 -0.000338 0.000000 0.000000 0.000000
# 2 -0.003427 0.011302 -0.005441 0.000000 0.000000 0.000000
# 3 -0.000338 -0.005441 0.014163 0.000000 0.000000 0.000000
# 4 0.000000 0.000000 0.000000 0.024789 0.000000 0.000000
# 5 0.000000 0.000000 0.000000 0.000000 0.029026 0.000000
# 6 0.000000 0.000000 0.000000 0.000000 0.000000 0.024294
#
#
# Mechanical properties :
#
#
# Convention : Reuss Voigt Hill
#
# Bulk Modulus (GPa) = 61.52713 65.46669 63.49691
# Shear Modulus (GPa) = 36.60261 38.14687 37.37474
#
# Velocity S-wave (km/s) = 3.80648 3.88595 3.84642
# Velocity P-wave (km/s) = 6.60870 6.78598 6.69793
#
# Compressibility (1/GPa) = 0.01625299
#
# Stress axis : x y z
#
# Youngs Moduli (GPa) = 108.69999 88.48199 70.60600
#
# Poissons Ratio (x) = 0.30325 0.02383
# Poissons Ratio (y) = 0.37255 0.38416
# Poissons Ratio (z) = 0.03669 0.48142
#
# Static dielectric constant tensor:
#      x y z
#    x 5.788030 0.000000 0.000000 
#    y 0.000000 4.884430 0.000000 
#    z 0.000000 0.000000 4.559790 
# 
# 
# High freq. dielectric constant tensor:
#      x y z
#    x 2.016770 0.000000 0.000000 
#    y 0.000000 2.023100 0.000000 
#    z 0.000000 0.000000 2.010600 
# 
# From -- ./inp_files/7442.got.cif
#   From: 2010.06.25/outbox.cif.g09.slc.cpg/sg52_4_cif.got.tgz:7442.got - 2010.06.26 19:32:48.
