data_PCOD8217558
_publ_section_title
;
Structure prediction by ZEFSAII (Michael W. Deem and Ramdas Pophale) SiO2 
 PCOD8217558
Probable space group: P M N A
;
_chemical_formula_sum "Si O2"
_cell_formula_units_Z 56
_cell_length_a 8.796878
_cell_length_b 13.882126
_cell_length_c 28.161886
_cell_angle_alpha 90.000000
_cell_angle_beta 90.000000
_cell_angle_gamma 90.000000
_cell_volume 3439.111743
_symmetry_space_group_name_H-M "P M N A"
_symmetry_group_IT_number 53
_symmetry_cell_setting 'orthorhombic'
loop_
_space_group_symop_operation_xyz
x,y,z
1/2-x,-y,1/2+z
x,-y,-z
1/2-x,y,1/2-z
-x,-y,-z
1/2+x,y,1/2-z
-x,y,z
1/2+x,-y,1/2+z
loop_
_atom_site_type_symbol
_atom_site_label
_atom_site_fract_x
_atom_site_fract_y
_atom_site_fract_z
Si Si1 0.179088 0.018524 0.297743
Si Si2 0.825345 0.060614 0.602380
Si Si3 0.670961 0.297047 0.395202
Si Si4 0.328789 0.107563 0.451520
Si Si5 0.174060 0.218999 0.532731
Si Si6 0.181129 0.605494 0.987450
Si Si7 0.182236 0.228622 0.201621
O O1 0.250000 0.971502 0.250000
O O2 0.253907 0.122038 0.306486
O O3 0.000000 0.032441 0.290891
O O4 0.218041 0.948672 0.342066
O O5 0.800421 0.171073 0.584823
O O6 0.000000 0.029102 0.594886
O O7 0.722093 0.993301 0.569856
O O8 0.500000 0.335039 0.391887
O O9 0.678413 0.185967 0.410094
O O10 0.750883 0.363386 0.435713
O O11 0.740071 0.297920 0.341816
O O12 0.500000 0.097745 0.471163
O O13 0.221189 0.138523 0.494561
O O14 0.269225 0.317575 0.527408
O O15 0.000000 0.246625 0.524442
O O16 0.000000 0.607390 0.985989
O O17 0.244434 0.500000 0.000000
O O18 0.250000 0.273372 0.250000
O O19 0.000000 0.224028 0.203404
#
# Coordination Sequence:
#
# PCOD8217558 Si02
#       7
#     8   8   8   8   8   8   8
#     4  10  19  30  43  61  87 121 160 192 226 261
#     4  10  20  31  43  62  92 126 155 187 227 269
#     4   8  15  27  43  64  89 117 145 180 226 268
#     4  10  18  29  44  64  91 123 158 189 221 259
#     4  10  20  32  45  65  93 121 151 184 225 277
#     4   9  18  34  53  71  90 113 148 193 237 280
#     4  10  17  27  41  61  89 120 153 184 219 262
#
# _framework density 16.283275
#
# number of rings (size 3 to 8) (size 9 to 14) (size 15 to 20)
#    0.000    2.429    1.429    3.857    0.000    3.714 
#    0.000    0.714    0.000    0.000    0.000    1.000 
#    0.000    6.857    0.000    0.000    0.000    0.000 
#
# Total GULP energy -693913.037140 kJ/mol
# GULP energy per Si atom -12391.304235 kJ/mol
# Density = 1.624621 g / cm^3
# Si number density = 16.283275 Si / 1000 Ang^3
#
#
#
# Elastic Constant Matrix: (Units=GPa)
#
#
# Indices 1 2 3 4 5 6 
#
# 1 46.2854 22.6047 26.1451 0.0000 0.0000 0.0000
# 2 22.6047 86.1808 61.3523 0.0000 0.0000 0.0000
# 3 26.1451 61.3523 114.6696 0.0000 0.0000 0.0000
# 4 0.0000 0.0000 0.0000 17.1252 0.0000 0.0000
# 5 0.0000 0.0000 0.0000 0.0000 19.3000 0.0000
# 6 0.0000 0.0000 0.0000 0.0000 0.0000 14.6687
#
#
#
# Elastic Compliance Matrix: (Units=1/GPa)
#
#
# Indices 1 2 3 4 5 6 
#
# 1 0.025685 -0.004148 -0.003637 0.000000 0.000000 0.000000
# 2 -0.004148 0.019412 -0.009440 0.000000 0.000000 0.000000
# 3 -0.003637 -0.009440 0.014601 0.000000 0.000000 0.000000
# 4 0.000000 0.000000 0.000000 0.058393 0.000000 0.000000
# 5 0.000000 0.000000 0.000000 0.000000 0.051814 0.000000
# 6 0.000000 0.000000 0.000000 0.000000 0.000000 0.068173
#
#
# Mechanical properties :
#
#
# Convention : Reuss Voigt Hill
#
# Bulk Modulus (GPa) = 39.60776 51.92668 45.76722
# Shear Modulus (GPa) = 17.79710 19.35434 18.57572
#
# Velocity S-wave (km/s) = 3.30959 3.45135 3.38122
# Velocity P-wave (km/s) = 6.24352 6.91674 6.58873
#
# Compressibility (1/GPa) = 0.02524758
#
# Stress axis : x y z
#
# Youngs Moduli (GPa) = 38.93279 51.51408 68.48856
#
# Poissons Ratio (x) = 0.21367 0.24910
# Poissons Ratio (y) = 0.16149 0.64656
# Poissons Ratio (z) = 0.14160 0.48632
#
# Static dielectric constant tensor:
#      x y z
#    x 3.047870 0.000000 0.000000 
#    y 0.000000 2.844660 0.000000 
#    z 0.000000 0.000000 3.460050 
# 
# 
# High freq. dielectric constant tensor:
#      x y z
#    x 1.624570 0.000000 0.000000 
#    y 0.000000 1.579030 0.000000 
#    z 0.000000 0.000000 1.631350 
# 
# From -- ./inp_files/38365.got.cif
#   From: 2010.03.12/outbox.cif.g09.slc.cpg/sg53_20_cif.got.tgz:38365.got - 2010.04.16 14:36:59.
