data_PCOD8217020
_publ_section_title
;
Structure prediction by ZEFSAII (Michael W. Deem and Ramdas Pophale) SiO2 
 PCOD8217020
Probable space group: P N N A
;
_chemical_formula_sum "Si O2"
_cell_formula_units_Z 48
_cell_length_a 18.739390
_cell_length_b 9.948629
_cell_length_c 11.701305
_cell_angle_alpha 90.000000
_cell_angle_beta 90.000000
_cell_angle_gamma 90.000000
_cell_volume 2181.488787
_symmetry_space_group_name_H-M "P N N A"
_symmetry_group_IT_number 52
_symmetry_cell_setting 'orthorhombic'
loop_
_space_group_symop_operation_xyz
x,y,z
1/2-x,-y,z
x,1/2-y,1/2-z
1/2-x,1/2+y,1/2-z
-x,-y,-z
1/2+x,y,-z
-x,1/2+y,1/2+z
1/2+x,1/2-y,1/2+z
loop_
_atom_site_type_symbol
_atom_site_label
_atom_site_fract_x
_atom_site_fract_y
_atom_site_fract_z
Si Si1 0.029309 0.802847 0.870466
Si Si2 0.472125 0.065216 0.230816
Si Si3 0.310931 0.689516 0.625990
Si Si4 0.959514 0.797804 0.422024
Si Si5 0.171927 0.600907 0.537852
Si Si6 0.689238 0.901715 0.775706
O O1 0.057342 0.750000 0.750000
O O2 0.096292 0.831273 0.949870
O O3 0.979943 0.930081 0.842190
O O4 0.984247 0.695652 0.945485
O O5 0.521935 0.069272 0.346412
O O6 0.497480 0.181129 0.144540
O O7 0.390379 0.078387 0.275095
O O8 0.303842 0.750000 0.750000
O O9 0.375082 0.771413 0.567701
O O10 0.234114 0.709363 0.566253
O O11 0.326673 0.529250 0.621218
O O12 0.182751 0.557913 0.408052
O O13 0.714465 0.750000 0.750000
O O14 0.750000 0.000000 0.721471
#
# Coordination Sequence:
#
# PCOD8217020 Si02
#       6
#     8   8   8   8   8   8
#     4  12  24  37  62  97 134 169 213 277 333 399
#     4  11  21  41  68  92 120 174 221 267 325 395
#     4  11  20  36  65  92 120 167 223 272 324 397
#     4  11  20  40  67  88 119 167 224 260 315 395
#     4  11  22  39  62  95 132 173 216 278 338 399
#     4  12  24  43  71  97 134 177 225 278 341 409
#
# _framework density 22.003323000000002
#
# number of rings (size 3 to 8) (size 9 to 14) (size 15 to 20)
#    0.000    0.667    8.333    2.000    0.000    1.333 
#    0.000    0.000    7.333    0.000    0.000    0.000 
#    0.000    0.000    0.000    0.000    0.000    0.000 
#
# Total GULP energy -594786.725432 kJ/mol
# GULP energy per Si atom -12391.390113 kJ/mol
# Density = 2.195324 g / cm^3
# Si number density = 22.003323 Si / 1000 Ang^3
#
#
#
# Elastic Constant Matrix: (Units=GPa)
#
#
# Indices 1 2 3 4 5 6 
#
# 1 136.3631 36.2133 11.9327 0.0000 0.0000 0.0000
# 2 36.2133 54.3729 18.2106 0.0000 0.0000 0.0000
# 3 11.9327 18.2106 94.0543 0.0000 0.0000 0.0000
# 4 0.0000 0.0000 0.0000 25.3812 0.0000 0.0000
# 5 0.0000 0.0000 0.0000 0.0000 17.1374 0.0000
# 6 0.0000 0.0000 0.0000 0.0000 0.0000 21.0255
#
#
#
# Elastic Compliance Matrix: (Units=1/GPa)
#
#
# Indices 1 2 3 4 5 6 
#
# 1 0.008909 -0.005940 0.000020 0.000000 0.000000 0.000000
# 2 -0.005940 0.023628 -0.003821 0.000000 0.000000 0.000000
# 3 0.000020 -0.003821 0.011369 0.000000 0.000000 0.000000
# 4 0.000000 0.000000 0.000000 0.039399 0.000000 0.000000
# 5 0.000000 0.000000 0.000000 0.000000 0.058352 0.000000
# 6 0.000000 0.000000 0.000000 0.000000 0.000000 0.047561
#
#
# Mechanical properties :
#
#
# Convention : Reuss Voigt Hill
#
# Bulk Modulus (GPa) = 40.94475 46.38929 43.66702
# Shear Modulus (GPa) = 23.05820 27.27108 25.16464
#
# Velocity S-wave (km/s) = 3.24070 3.52434 3.38549
# Velocity P-wave (km/s) = 5.71417 6.13921 5.93050
#
# Compressibility (1/GPa) = 0.02442316
#
# Stress axis : x y z
#
# Youngs Moduli (GPa) = 112.24401 42.32341 87.95488
#
# Poissons Ratio (x) = 0.25141 -0.00174
# Poissons Ratio (y) = 0.66676 0.33608
# Poissons Ratio (z) = -0.00223 0.16172
#
# Static dielectric constant tensor:
#      x y z
#    x 4.973550 0.000000 0.000000 
#    y 0.000000 3.569900 0.000000 
#    z 0.000000 0.000000 3.983950 
# 
# 
# High freq. dielectric constant tensor:
#      x y z
#    x 1.883280 0.000000 0.000000 
#    y 0.000000 1.836400 0.000000 
#    z 0.000000 0.000000 1.859180 
# 
# From -- ./inp_files/20636.got.cif
#   From: 2010.06.25/outbox.cif.g09.slc.cpg/sg52_11_cif.got.tgz:20636.got - 2010.06.26 19:32:48.
