data_PCOD8217859
_publ_section_title
;
Structure prediction by ZEFSAII (Michael W. Deem and Ramdas Pophale) SiO2 
 PCOD8217859
Probable space group: P M N A
;
_chemical_formula_sum "Si O2"
_cell_formula_units_Z 64
_cell_length_a 17.383610
_cell_length_b 16.073970
_cell_length_c 12.250073
_cell_angle_alpha 90.000000
_cell_angle_beta 90.000000
_cell_angle_gamma 90.000000
_cell_volume 3422.959812
_symmetry_space_group_name_H-M "P M N A"
_symmetry_group_IT_number 53
_symmetry_cell_setting 'orthorhombic'
loop_
_space_group_symop_operation_xyz
x,y,z
1/2-x,-y,1/2+z
x,-y,-z
1/2-x,y,1/2-z
-x,-y,-z
1/2+x,y,1/2-z
-x,y,z
1/2+x,-y,1/2+z
loop_
_atom_site_type_symbol
_atom_site_label
_atom_site_fract_x
_atom_site_fract_y
_atom_site_fract_z
Si Si1 0.327717 0.592082 0.477276
Si Si2 0.791982 0.268738 0.137681
Si Si3 0.591102 0.341440 0.729805
Si Si4 0.087078 0.834873 0.751114
Si Si5 0.848993 0.418112 0.561624
Si Si6 0.591835 0.002340 0.124306
Si Si7 0.088347 0.825920 0.330457
Si Si8 0.133957 0.750319 0.546575
O O1 0.361274 0.500000 0.500000
O O2 0.329444 0.647736 0.587210
O O3 0.381467 0.637537 0.390473
O O4 0.242750 0.583384 0.428636
O O5 0.750000 0.294611 0.250000
O O6 0.856330 0.196297 0.152351
O O7 0.725949 0.233303 0.057460
O O8 0.500000 0.338255 0.732361
O O9 0.618973 0.411672 0.815327
O O10 0.627274 0.250332 0.763418
O O11 0.088630 0.763210 0.659380
O O12 0.000000 0.846184 0.796026
O O13 0.120872 0.918721 0.694835
O O14 0.878623 0.500000 0.500000
O O15 0.882552 0.343389 0.489882
O O16 0.500000 0.005036 0.118691
O O17 0.620595 0.919338 0.190255
O O18 0.624615 0.000000 0.000000
O O19 0.098796 0.813595 0.459785
O O20 0.000000 0.824991 0.298246
#
# Coordination Sequence:
#
# PCOD8217859 Si02
#       8
#     8   8   8   8   8   8   8   8
#     4  10  21  37  57  74  97 139 186 219 251 309
#     4   9  20  35  51  73 102 135 176 221 266 303
#     4  10  21  34  52  79 110 137 164 214 274 318
#     4  10  18  29  49  75 103 136 169 208 259 311
#     4   9  19  35  55  76 100 137 180 219 255 307
#     4   9  15  25  48  79 103 128 167 209 248 307
#     4   9  16  29  50  78 106 132 166 206 257 312
#     4   9  16  29  49  72 100 131 164 214 262 298
#
# _framework density 18.697268000000001
#
# number of rings (size 3 to 8) (size 9 to 14) (size 15 to 20)
#    0.000    2.625    1.250    0.750    0.000    5.500 
#    0.000    1.250    0.000   18.750    0.000    3.500 
#    0.000    0.000    0.000    0.000    0.000    0.000 
#
# Total GULP energy -793179.632500 kJ/mol
# GULP energy per Si atom -12393.431758 kJ/mol
# Density = 1.865471 g / cm^3
# Si number density = 18.697268 Si / 1000 Ang^3
#
#
#
# Elastic Constant Matrix: (Units=GPa)
#
#
# Indices 1 2 3 4 5 6 
#
# 1 40.3570 29.5887 19.4631 0.0000 0.0000 0.0000
# 2 29.5887 127.3431 44.4145 0.0000 0.0000 0.0000
# 3 19.4631 44.4145 67.3043 0.0000 0.0000 0.0000
# 4 0.0000 0.0000 0.0000 28.7924 0.0000 0.0000
# 5 0.0000 0.0000 0.0000 0.0000 29.7246 0.0000
# 6 0.0000 0.0000 0.0000 0.0000 0.0000 21.4738
#
#
#
# Elastic Compliance Matrix: (Units=1/GPa)
#
#
# Indices 1 2 3 4 5 6 
#
# 1 0.031379 -0.005360 -0.005537 0.000000 0.000000 0.000000
# 2 -0.005360 0.011116 -0.005786 0.000000 0.000000 0.000000
# 3 -0.005537 -0.005786 0.020277 0.000000 0.000000 0.000000
# 4 0.000000 0.000000 0.000000 0.034731 0.000000 0.000000
# 5 0.000000 0.000000 0.000000 0.000000 0.033642 0.000000
# 6 0.000000 0.000000 0.000000 0.000000 0.000000 0.046568
#
#
# Mechanical properties :
#
#
# Convention : Reuss Voigt Hill
#
# Bulk Modulus (GPa) = 34.00564 46.88189 40.44376
# Shear Modulus (GPa) = 22.63658 25.43404 24.03531
#
# Velocity S-wave (km/s) = 3.48327 3.69224 3.58927
# Velocity P-wave (km/s) = 5.86554 6.58069 6.23338
#
# Compressibility (1/GPa) = 0.02940689
#
# Stress axis : x y z
#
# Youngs Moduli (GPa) = 31.86855 89.95994 49.31671
#
# Poissons Ratio (x) = 0.48216 0.27308
# Poissons Ratio (y) = 0.17081 0.28533
# Poissons Ratio (z) = 0.17646 0.52047
#
# Static dielectric constant tensor:
#      x y z
#    x 3.241520 0.000000 0.000000 
#    y 0.000000 3.773420 0.000000 
#    z 0.000000 0.000000 3.261240 
# 
# 
# High freq. dielectric constant tensor:
#      x y z
#    x 1.700110 0.000000 0.000000 
#    y 0.000000 1.733730 0.000000 
#    z 0.000000 0.000000 1.702240 
# 
# From -- ./inp_files/17194.got.cif
#   From: 2010.03.12/outbox.cif.g09.slc.cpg/sg53_9_cif.got.tgz:17194.got - 2010.04.16 14:36:59.
