data_PCOD8217243
_publ_section_title
;
Structure prediction by ZEFSAII (Michael W. Deem and Ramdas Pophale) SiO2 
 PCOD8217243
Probable space group: P N N A
;
_chemical_formula_sum "Si O2"
_cell_formula_units_Z 60
_cell_length_a 9.477610
_cell_length_b 11.655167
_cell_length_c 27.035150
_cell_angle_alpha 90.000000
_cell_angle_beta 90.000000
_cell_angle_gamma 90.000000
_cell_volume 2986.387216
_symmetry_space_group_name_H-M "P N N A"
_symmetry_group_IT_number 52
_symmetry_cell_setting 'orthorhombic'
loop_
_space_group_symop_operation_xyz
x,y,z
1/2-x,-y,z
x,1/2-y,1/2-z
1/2-x,1/2+y,1/2-z
-x,-y,-z
1/2+x,y,-z
-x,1/2+y,1/2+z
1/2+x,1/2-y,1/2+z
loop_
_atom_site_type_symbol
_atom_site_label
_atom_site_fract_x
_atom_site_fract_y
_atom_site_fract_z
Si Si1 0.232645 0.870905 0.056566
Si Si2 0.487975 0.755849 0.596919
Si Si3 0.730219 0.867524 0.058295
Si Si4 0.401983 0.793115 0.800453
Si Si5 0.608242 0.684390 0.202104
Si Si6 0.920074 0.495730 0.948406
Si Si7 0.974519 0.732967 0.900150
Si Si8 0.750000 0.000000 0.244689
O O1 0.071452 0.834247 0.063097
O O2 0.320011 0.785337 0.091703
O O3 0.250000 0.000000 0.075288
O O4 0.270611 0.858230 0.999190
O O5 0.325606 0.725622 0.586414
O O6 0.512949 0.724688 0.654893
O O7 0.531756 0.885379 0.583391
O O8 0.573814 0.823914 0.071160
O O9 0.750000 0.000000 0.076004
O O10 0.477241 0.750000 0.750000
O O11 0.267760 0.714459 0.812648
O O12 0.336806 0.919059 0.792828
O O13 0.549914 0.750000 0.250000
O O14 0.503467 0.715119 0.157803
O O15 0.627186 0.553105 0.219957
O O16 0.750000 0.500000 0.954973
O O17 0.980946 0.606157 0.921458
O O18 0.000000 0.500000 0.000000
#
# Coordination Sequence:
#
# PCOD8217243 Si02
#       8
#     8   8   8   8   8   8   8   4
#     4  11  24  42  61  90 133 171 211 271 331 398
#     4  12  24  41  67  95 134 169 223 265 336 392
#     4  11  24  41  67  97 127 171 223 269 327 397
#     4   9  20  37  61  94 125 161 217 272 324 385
#     4   9  20  37  60  93 122 161 213 269 321 382
#     4  12  28  45  68  97 138 182 227 272 321 402
#     4  12  24  41  67  93 135 170 218 268 336 388
#     4   8  18  36  62  90 132 154 212 276 324 368
#
# _framework density 20.091166999999999
#
# number of rings (size 3 to 8) (size 9 to 14) (size 15 to 20)
#    0.000    1.600    2.667    3.200    6.533    4.267 
#    0.000    0.667    0.000    0.000    0.000    0.000 
#    0.000    0.000    0.000    0.000    0.000    0.000 
#
# Total GULP energy -743524.569019 kJ/mol
# GULP energy per Si atom -12392.076150 kJ/mol
# Density = 2.004544 g / cm^3
# Si number density = 20.091167 Si / 1000 Ang^3
#
#
#
# Elastic Constant Matrix: (Units=GPa)
#
#
# Indices 1 2 3 4 5 6 
#
# 1 51.2165 21.9057 28.0139 0.0000 0.0000 0.0000
# 2 21.9057 143.9726 55.7371 0.0000 0.0000 0.0000
# 3 28.0139 55.7371 142.4433 0.0000 0.0000 0.0000
# 4 0.0000 0.0000 0.0000 17.7577 0.0000 0.0000
# 5 0.0000 0.0000 0.0000 0.0000 25.1642 0.0000
# 6 0.0000 0.0000 0.0000 0.0000 0.0000 30.7057
#
#
#
# Elastic Compliance Matrix: (Units=1/GPa)
#
#
# Indices 1 2 3 4 5 6 
#
# 1 0.022358 -0.002003 -0.003613 0.000000 0.000000 0.000000
# 2 -0.002003 0.008365 -0.002879 0.000000 0.000000 0.000000
# 3 -0.003613 -0.002879 0.008858 0.000000 0.000000 0.000000
# 4 0.000000 0.000000 0.000000 0.056314 0.000000 0.000000
# 5 0.000000 0.000000 0.000000 0.000000 0.039739 0.000000
# 6 0.000000 0.000000 0.000000 0.000000 0.000000 0.032567
#
#
# Mechanical properties :
#
#
# Convention : Reuss Voigt Hill
#
# Bulk Modulus (GPa) = 44.26817 60.99399 52.63108
# Shear Modulus (GPa) = 25.94412 30.19056 28.06734
#
# Velocity S-wave (km/s) = 3.59739 3.88064 3.74170
# Velocity P-wave (km/s) = 6.27188 7.10660 6.70225
#
# Compressibility (1/GPa) = 0.02258959
#
# Stress axis : x y z
#
# Youngs Moduli (GPa) = 44.72666 119.54262 112.89706
#
# Poissons Ratio (x) = 0.23944 0.40794
# Poissons Ratio (y) = 0.08959 0.32507
# Poissons Ratio (z) = 0.16161 0.34420
#
# Static dielectric constant tensor:
#      x y z
#    x 3.275610 0.000000 0.000000 
#    y 0.000000 3.996320 0.000000 
#    z 0.000000 0.000000 4.457830 
# 
# 
# High freq. dielectric constant tensor:
#      x y z
#    x 1.759930 0.000000 0.000000 
#    y 0.000000 1.801730 0.000000 
#    z 0.000000 0.000000 1.790000 
# 
# From -- ./inp_files/42333.got.cif
#   From: 2010.06.25/outbox.cif.g09.slc.cpg/sg52_22_cif.got.tgz:42333.got - 2010.06.26 19:32:48.
