data_PCOD8217542
_publ_section_title
;
Structure prediction by ZEFSAII (Michael W. Deem and Ramdas Pophale) SiO2 
 PCOD8217542
Probable space group: P M N A
;
_chemical_formula_sum "Si O2"
_cell_formula_units_Z 64
_cell_length_a 9.080033
_cell_length_b 16.789713
_cell_length_c 26.776071
_cell_angle_alpha 90.000000
_cell_angle_beta 90.000000
_cell_angle_gamma 90.000000
_cell_volume 4082.042766
_symmetry_space_group_name_H-M "P M N A"
_symmetry_group_IT_number 53
_symmetry_cell_setting 'orthorhombic'
loop_
_space_group_symop_operation_xyz
x,y,z
1/2-x,-y,1/2+z
x,-y,-z
1/2-x,y,1/2-z
-x,-y,-z
1/2+x,y,1/2-z
-x,y,z
1/2+x,-y,1/2+z
loop_
_atom_site_type_symbol
_atom_site_label
_atom_site_fract_x
_atom_site_fract_y
_atom_site_fract_z
Si Si1 0.674578 0.587241 0.303124
Si Si2 0.671786 0.134598 0.921869
Si Si3 0.165559 0.272743 0.876265
Si Si4 0.167366 0.402007 0.956829
Si Si5 0.831529 0.348462 0.448479
Si Si6 0.169179 0.511292 0.618067
Si Si7 0.329603 0.829796 0.964560
Si Si8 0.166030 0.980881 0.941844
O O1 0.750000 0.590544 0.250000
O O2 0.500000 0.578240 0.298143
O O3 0.718401 0.668000 0.332321
O O4 0.734831 0.510574 0.333326
O O5 0.500000 0.123431 0.914219
O O6 0.729640 0.196126 0.879963
O O7 0.747097 0.049296 0.912069
O O8 0.711635 0.167835 0.976798
O O9 0.173310 0.317949 0.928833
O O10 0.000000 0.243260 0.865538
O O11 0.274171 0.464061 0.930114
O O12 0.000000 0.434991 0.957173
O O13 0.222783 0.390541 0.012779
O O14 0.815973 0.394679 0.395491
O O15 0.788052 0.256121 0.441723
O O16 0.000000 0.353899 0.468413
O O17 0.000000 0.488098 0.628574
O O18 0.500000 0.850615 0.957547
O O19 0.239127 0.894794 0.932931
O O20 0.000000 0.978478 0.921737
O O21 0.173497 0.000000 0.000000
#
# Coordination Sequence:
#
# PCOD8217542 Si02
#       8
#     8   8   8   8   8   8   8   8
#     4  10  21  37  54  71  91 116 147 187 234 279
#     4  10  17  26  43  62  84 116 153 189 221 259
#     4   9  18  30  44  65  90 116 148 186 226 269
#     4  10  19  29  42  61  89 121 154 191 228 265
#     4  10  19  30  43  62  89 122 156 191 228 267
#     4  10  20  32  47  65  88 118 152 187 228 275
#     4   9  17  28  40  58  85 118 157 192 222 258
#     4   9  17  27  39  56  82 116 152 187 223 260
#
# _framework density 15.678425000000001
#
# number of rings (size 3 to 8) (size 9 to 14) (size 15 to 20)
#    0.000    2.375    1.250    3.000    0.000    7.500 
#    0.000    0.000    0.000    0.000    0.000    0.000 
#    0.000    1.000    0.000    7.250    0.000    3.500 
#
# Total GULP energy -793502.484295 kJ/mol
# GULP energy per Si atom -12398.476317 kJ/mol
# Density = 1.564274 g / cm^3
# Si number density = 15.678425 Si / 1000 Ang^3
#
#
#
# Elastic Constant Matrix: (Units=GPa)
#
#
# Indices 1 2 3 4 5 6 
#
# 1 92.3135 53.0147 38.2693 0.0000 0.0000 0.0000
# 2 53.0147 102.7265 42.8315 0.0000 0.0000 0.0000
# 3 38.2693 42.8315 67.6059 0.0000 0.0000 0.0000
# 4 0.0000 0.0000 0.0000 11.7212 0.0000 0.0000
# 5 0.0000 0.0000 0.0000 0.0000 18.8749 0.0000
# 6 0.0000 0.0000 0.0000 0.0000 0.0000 25.9061
#
#
#
# Elastic Compliance Matrix: (Units=1/GPa)
#
#
# Indices 1 2 3 4 5 6 
#
# 1 0.016750 -0.006375 -0.005443 0.000000 0.000000 0.000000
# 2 -0.006375 0.015655 -0.006310 0.000000 0.000000 0.000000
# 3 -0.005443 -0.006310 0.021870 0.000000 0.000000 0.000000
# 4 0.000000 0.000000 0.000000 0.085315 0.000000 0.000000
# 5 0.000000 0.000000 0.000000 0.000000 0.052980 0.000000
# 6 0.000000 0.000000 0.000000 0.000000 0.000000 0.038601
#
#
# Mechanical properties :
#
#
# Convention : Reuss Voigt Hill
#
# Bulk Modulus (GPa) = 55.49230 58.98633 57.23931
# Shear Modulus (GPa) = 18.28595 19.86916 19.07755
#
# Velocity S-wave (km/s) = 3.41884 3.56377 3.49205
# Velocity P-wave (km/s) = 7.14531 7.39177 7.26958
#
# Compressibility (1/GPa) = 0.01802052
#
# Stress axis : x y z
#
# Youngs Moduli (GPa) = 59.70124 63.87585 45.72454
#
# Poissons Ratio (x) = 0.40721 0.24887
# Poissons Ratio (y) = 0.38059 0.28851
# Poissons Ratio (z) = 0.32494 0.40304
#
# Static dielectric constant tensor:
#      x y z
#    x 3.097920 0.000000 0.000000 
#    y 0.000000 3.076050 0.000000 
#    z 0.000000 0.000000 2.571700 
# 
# 
# High freq. dielectric constant tensor:
#      x y z
#    x 1.617300 0.000000 0.000000 
#    y 0.000000 1.602250 0.000000 
#    z 0.000000 0.000000 1.540730 
# 
# From -- ./inp_files/36499.got.cif
#   From: 2010.03.12/outbox.cif.g09.slc.cpg/sg53_19_cif.got.tgz:36499.got - 2010.04.16 14:36:59.
