data_PCOD8217939
_publ_section_title
;
Structure prediction by ZEFSAII (Michael W. Deem and Ramdas Pophale) SiO2 
 PCOD8217939
Probable space group: P M N A
;
_chemical_formula_sum "Si O2"
_cell_formula_units_Z 48
_cell_length_a 8.840620
_cell_length_b 14.103023
_cell_length_c 21.213797
_cell_angle_alpha 90.000000
_cell_angle_beta 90.000000
_cell_angle_gamma 90.000000
_cell_volume 2644.924907
_symmetry_space_group_name_H-M "P M N A"
_symmetry_group_IT_number 53
_symmetry_cell_setting 'orthorhombic'
loop_
_space_group_symop_operation_xyz
x,y,z
1/2-x,-y,1/2+z
x,-y,-z
1/2-x,y,1/2-z
-x,-y,-z
1/2+x,y,1/2-z
-x,y,z
1/2+x,-y,1/2+z
loop_
_atom_site_type_symbol
_atom_site_label
_atom_site_fract_x
_atom_site_fract_y
_atom_site_fract_z
Si Si1 0.179448 0.989517 0.315166
Si Si2 0.831328 0.465111 0.071578
Si Si3 0.331561 0.285460 0.039099
Si Si4 0.179500 0.073676 0.447716
Si Si5 0.667655 0.644207 0.102098
Si Si6 0.322646 0.213067 0.687198
O O1 0.250000 0.031264 0.250000
O O2 0.230533 0.049029 0.376411
O O3 0.000000 0.987692 0.307688
O O4 0.238691 0.884462 0.327927
O O5 0.769960 0.357860 0.079658
O O6 0.724281 0.536318 0.110659
O O7 0.000000 0.467606 0.099877
O O8 0.833510 0.500000 0.000000
O O9 0.500000 0.281211 0.068844
O O10 0.259548 0.179830 0.038412
O O11 0.341688 0.326928 0.969886
O O12 0.000000 0.070731 0.453835
O O13 0.247039 0.000000 0.500000
O O14 0.500000 0.653278 0.132654
O O15 0.790889 0.713085 0.132268
O O16 0.250000 0.257526 0.750000
O O17 0.500000 0.194643 0.694847
#
# Coordination Sequence:
#
# PCOD8217939 Si02
#       6
#     8   8   8   8   8   8
#     4  10  19  33  52  72  98 132 168 204 244 294
#     4   9  17  29  45  68  98 128 157 192 239 294
#     4   9  17  30  49  72  97 127 165 204 244 292
#     4   9  17  30  50  75 100 128 166 211 252 292
#     4  10  18  30  50  73  97 125 158 198 245 295
#     4  11  21  33  49  70  97 127 161 199 241 291
#
# _framework density 18.147963000000001
#
# number of rings (size 3 to 8) (size 9 to 14) (size 15 to 20)
#    0.000    2.333    0.000    5.000    0.000    5.333 
#    0.000    1.667    0.000    4.500    0.000    4.667 
#    0.000    0.000    0.000    0.000    0.000    0.000 
#
# Total GULP energy -594988.006560 kJ/mol
# GULP energy per Si atom -12395.583470 kJ/mol
# Density = 1.810666 g / cm^3
# Si number density = 18.147963 Si / 1000 Ang^3
#
#
#
# Elastic Constant Matrix: (Units=GPa)
#
#
# Indices 1 2 3 4 5 6 
#
# 1 89.2974 35.6028 28.3980 0.0000 0.0000 0.0000
# 2 35.6028 129.4718 37.0802 0.0000 0.0000 0.0000
# 3 28.3980 37.0802 56.9367 0.0000 0.0000 0.0000
# 4 0.0000 0.0000 0.0000 20.9107 0.0000 0.0000
# 5 0.0000 0.0000 0.0000 0.0000 23.1731 0.0000
# 6 0.0000 0.0000 0.0000 0.0000 0.0000 20.8461
#
#
#
# Elastic Compliance Matrix: (Units=1/GPa)
#
#
# Indices 1 2 3 4 5 6 
#
# 1 0.013821 -0.002245 -0.005431 0.000000 0.000000 0.000000
# 2 -0.002245 0.009859 -0.005301 0.000000 0.000000 0.000000
# 3 -0.005431 -0.005301 0.023725 0.000000 0.000000 0.000000
# 4 0.000000 0.000000 0.000000 0.047822 0.000000 0.000000
# 5 0.000000 0.000000 0.000000 0.000000 0.043153 0.000000
# 6 0.000000 0.000000 0.000000 0.000000 0.000000 0.047971
#
#
# Mechanical properties :
#
#
# Convention : Reuss Voigt Hill
#
# Bulk Modulus (GPa) = 46.62022 53.09645 49.85833
# Shear Modulus (GPa) = 22.78359 24.62764 23.70561
#
# Velocity S-wave (km/s) = 3.54706 3.68781 3.61812
# Velocity P-wave (km/s) = 6.52075 6.88871 6.70725
#
# Compressibility (1/GPa) = 0.02144992
#
# Stress axis : x y z
#
# Youngs Moduli (GPa) = 72.35444 101.42746 42.15020
#
# Poissons Ratio (x) = 0.22771 0.22893
# Poissons Ratio (y) = 0.16244 0.22344
# Poissons Ratio (z) = 0.39298 0.53768
#
# Static dielectric constant tensor:
#      x y z
#    x 3.454290 0.000000 0.000000 
#    y 0.000000 3.439840 0.000000 
#    z 0.000000 0.000000 3.133060 
# 
# 
# High freq. dielectric constant tensor:
#      x y z
#    x 1.699310 0.000000 0.000000 
#    y 0.000000 1.702800 0.000000 
#    z 0.000000 0.000000 1.669790 
# 
# From -- ./inp_files/33999.got.cif
#   From: 2010.03.12/outbox.cif.g09.slc.cpg/sg53_17_cif.got.tgz:33999.got - 2010.04.16 14:36:59.
