data_PCOD8217813
_publ_section_title
;
Structure prediction by ZEFSAII (Michael W. Deem and Ramdas Pophale) SiO2 
 PCOD8217813
Probable space group: P M N A
;
_chemical_formula_sum "Si O2"
_cell_formula_units_Z 56
_cell_length_a 24.100741
_cell_length_b 5.039297
_cell_length_c 25.478625
_cell_angle_alpha 90.000000
_cell_angle_beta 90.000000
_cell_angle_gamma 90.000000
_cell_volume 3094.399181
_symmetry_space_group_name_H-M "P M N A"
_symmetry_group_IT_number 53
_symmetry_cell_setting 'orthorhombic'
loop_
_space_group_symop_operation_xyz
x,y,z
1/2-x,-y,1/2+z
x,-y,-z
1/2-x,y,1/2-z
-x,-y,-z
1/2+x,y,1/2-z
-x,y,z
1/2+x,-y,1/2+z
loop_
_atom_site_type_symbol
_atom_site_label
_atom_site_fract_x
_atom_site_fract_y
_atom_site_fract_z
Si Si1 0.873858 0.685078 0.776898
Si Si2 0.561515 0.379875 0.180084
Si Si3 0.562576 0.109792 0.552544
Si Si4 0.186484 0.816753 0.262528
Si Si5 0.384585 0.880266 0.141671
Si Si6 0.063469 0.745918 0.464172
Si Si7 0.063558 0.405674 0.118743
O O1 0.928554 0.688916 0.740728
O O2 0.828518 0.480386 0.754660
O O3 0.893438 0.595142 0.833789
O O4 0.847884 0.978191 0.773709
O O5 0.500000 0.310265 0.163518
O O6 0.572930 0.691500 0.173078
O O7 0.599015 0.190310 0.143155
O O8 0.500000 0.181990 0.535585
O O9 0.587740 0.381649 0.576436
O O10 0.593782 0.000000 0.500000
O O11 0.564628 0.888743 0.596785
O O12 0.250000 0.870136 0.250000
O O13 0.173690 0.851194 0.325805
O O14 0.389623 0.779164 0.081479
O O15 0.081547 0.500000 0.500000
O O16 0.000000 0.705640 0.441930
O O17 0.064968 0.000000 0.500000
O O18 0.000000 0.482998 0.134893
#
# Coordination Sequence:
#
# PCOD8217813 Si02
#       7
#     8   8   8   8   8   8   8
#     4  10  20  32  49  74  97 123 159 196 249 304
#     4  10  18  29  46  69 102 133 157 187 228 292
#     4   9  17  28  43  65  95 133 168 192 221 270
#     4  10  21  37  54  72  95 124 166 215 254 297
#     4  10  20  32  49  72  97 132 169 199 241 289
#     4  10  19  30  46  71 104 135 163 196 235 288
#     4  10  18  29  46  70 102 130 157 197 242 295
#
# _framework density 18.097211999999999
#
# number of rings (size 3 to 8) (size 9 to 14) (size 15 to 20)
#    0.000    2.143    0.000    4.286    0.000    2.857 
#    0.000    4.286    0.000    0.000    0.000   10.000 
#    0.000    0.000    0.000    0.000    0.000    0.000 
#
# Total GULP energy -693847.471371 kJ/mol
# GULP energy per Si atom -12390.133417 kJ/mol
# Density = 1.805602 g / cm^3
# Si number density = 18.097212 Si / 1000 Ang^3
#
#
#
# Elastic Constant Matrix: (Units=GPa)
#
#
# Indices 1 2 3 4 5 6 
#
# 1 60.8648 8.2545 35.2487 0.0000 0.0000 0.0000
# 2 8.2545 85.6969 11.6054 0.0000 0.0000 0.0000
# 3 35.2487 11.6054 100.9739 0.0000 0.0000 0.0000
# 4 0.0000 0.0000 0.0000 31.6304 0.0000 0.0000
# 5 0.0000 0.0000 0.0000 0.0000 19.7158 0.0000
# 6 0.0000 0.0000 0.0000 0.0000 0.0000 14.1142
#
#
#
# Elastic Compliance Matrix: (Units=1/GPa)
#
#
# Indices 1 2 3 4 5 6 
#
# 1 0.020682 -0.001030 -0.007101 0.000000 0.000000 0.000000
# 2 -0.001030 0.011905 -0.001009 0.000000 0.000000 0.000000
# 3 -0.007101 -0.001009 0.012499 0.000000 0.000000 0.000000
# 4 0.000000 0.000000 0.000000 0.031615 0.000000 0.000000
# 5 0.000000 0.000000 0.000000 0.000000 0.050721 0.000000
# 6 0.000000 0.000000 0.000000 0.000000 0.000000 0.070851
#
#
# Mechanical properties :
#
#
# Convention : Reuss Voigt Hill
#
# Bulk Modulus (GPa) = 37.30695 39.75032 38.52864
# Shear Modulus (GPa) = 22.17412 25.92055 24.04734
#
# Velocity S-wave (km/s) = 3.50420 3.78867 3.64921
# Velocity P-wave (km/s) = 6.08539 6.41493 6.25233
#
# Compressibility (1/GPa) = 0.02680466
#
# Stress axis : x y z
#
# Youngs Moduli (GPa) = 48.35051 83.99922 80.00957
#
# Poissons Ratio (x) = 0.08656 0.56819
# Poissons Ratio (y) = 0.04982 0.08069
# Poissons Ratio (z) = 0.34336 0.08472
#
# Static dielectric constant tensor:
#      x y z
#    x 2.927520 0.000000 0.000000 
#    y 0.000000 3.513230 0.000000 
#    z 0.000000 0.000000 3.380760 
# 
# 
# High freq. dielectric constant tensor:
#      x y z
#    x 1.634910 0.000000 0.000000 
#    y 0.000000 1.729980 0.000000 
#    z 0.000000 0.000000 1.698760 
# 
# From -- ./inp_files/33192.got.cif
#   From: 2010.03.12/outbox.cif.g09.slc.cpg/sg53_17_cif.got.tgz:33192.got - 2010.04.16 14:36:59.
