data_PCOD8217262
_publ_section_title
;
Structure prediction by ZEFSAII (Michael W. Deem and Ramdas Pophale) SiO2 
 PCOD8217262
Probable space group: P N N A
;
_chemical_formula_sum "Si O2"
_cell_formula_units_Z 64
_cell_length_a 11.688804
_cell_length_b 17.068915
_cell_length_c 14.839431
_cell_angle_alpha 90.000000
_cell_angle_beta 90.000000
_cell_angle_gamma 90.000000
_cell_volume 2960.692072
_symmetry_space_group_name_H-M "P N N A"
_symmetry_group_IT_number 52
_symmetry_cell_setting 'orthorhombic'
loop_
_space_group_symop_operation_xyz
x,y,z
1/2-x,-y,z
x,1/2-y,1/2-z
1/2-x,1/2+y,1/2-z
-x,-y,-z
1/2+x,y,-z
-x,1/2+y,1/2+z
1/2+x,1/2-y,1/2+z
loop_
_atom_site_type_symbol
_atom_site_label
_atom_site_fract_x
_atom_site_fract_y
_atom_site_fract_z
Si Si1 0.298659 0.348096 0.610639
Si Si2 0.567654 0.072029 0.174467
Si Si3 0.460595 0.400968 0.750336
Si Si4 0.807156 0.164314 0.405206
Si Si5 0.645156 0.695621 0.899296
Si Si6 0.584789 0.181350 0.318168
Si Si7 0.849323 0.375757 0.585149
Si Si8 0.728128 0.085911 0.739126
O O1 0.192659 0.391894 0.656789
O O2 0.410519 0.343866 0.674434
O O3 0.279377 0.256764 0.597129
O O4 0.318908 0.395826 0.518006
O O5 0.514716 0.118224 0.259323
O O6 0.480081 0.092316 0.093700
O O7 0.577456 0.983675 0.207648
O O8 0.407270 0.375817 0.846884
O O9 0.595128 0.392545 0.761354
O O10 0.829865 0.145622 0.510006
O O11 0.686839 0.133074 0.366800
O O12 0.508116 0.707916 0.890988
O O13 0.684330 0.785035 0.901278
O O14 0.705985 0.652430 0.816588
O O15 0.628136 0.250000 0.250000
O O16 0.771607 0.420408 0.657837
O O17 0.750000 0.000000 0.695627
#
# Coordination Sequence:
#
# PCOD8217262 Si02
#       8
#     8   8   8   8   8   8   8   8
#     4  11  25  42  68 104 135 178 232 284 334 405
#     4  12  23  45  70  98 135 184 232 271 349 409
#     4  12  26  44  67  98 143 175 215 288 355 399
#     4  11  25  43  68 105 138 171 232 290 340 397
#     4  11  24  43  71 101 129 183 235 275 337 407
#     4  12  19  42  72  93 131 182 227 279 325 410
#     4  11  24  43  70  97 134 182 233 277 332 408
#     4  12  25  47  64  98 142 177 219 282 343 409
#
# _framework density 21.616568000000001
#
# number of rings (size 3 to 8) (size 9 to 14) (size 15 to 20)
#    0.000    0.500    6.250    1.125    3.500    3.500 
#    2.250    1.250    0.000    0.000    0.000    0.000 
#    0.000    0.000    0.000    0.000    0.000    0.000 
#
# Total GULP energy -792965.939002 kJ/mol
# GULP energy per Si atom -12390.092797 kJ/mol
# Density = 2.156737 g / cm^3
# Si number density = 21.616568 Si / 1000 Ang^3
#
#
#
# Elastic Constant Matrix: (Units=GPa)
#
#
# Indices 1 2 3 4 5 6 
#
# 1 145.8796 11.6942 41.6663 0.0000 0.0000 0.0000
# 2 11.6942 53.3676 12.9254 0.0000 0.0000 0.0000
# 3 41.6663 12.9254 123.0210 0.0000 0.0000 0.0000
# 4 0.0000 0.0000 0.0000 21.0686 0.0000 0.0000
# 5 0.0000 0.0000 0.0000 0.0000 24.7728 0.0000
# 6 0.0000 0.0000 0.0000 0.0000 0.0000 27.3046
#
#
#
# Elastic Compliance Matrix: (Units=1/GPa)
#
#
# Indices 1 2 3 4 5 6 
#
# 1 0.007649 -0.001076 -0.002478 0.000000 0.000000 0.000000
# 2 -0.001076 0.019379 -0.001672 0.000000 0.000000 0.000000
# 3 -0.002478 -0.001672 0.009143 0.000000 0.000000 0.000000
# 4 0.000000 0.000000 0.000000 0.047464 0.000000 0.000000
# 5 0.000000 0.000000 0.000000 0.000000 0.040367 0.000000
# 6 0.000000 0.000000 0.000000 0.000000 0.000000 0.036624
#
#
# Mechanical properties :
#
#
# Convention : Reuss Voigt Hill
#
# Bulk Modulus (GPa) = 38.87937 50.53777 44.70857
# Shear Modulus (GPa) = 27.83196 31.69469 29.76332
#
# Velocity S-wave (km/s) = 3.59211 3.83328 3.71465
# Velocity P-wave (km/s) = 5.93543 6.55912 6.25505
#
# Compressibility (1/GPa) = 0.02572058
#
# Stress axis : x y z
#
# Youngs Moduli (GPa) = 130.73824 51.60328 109.36789
#
# Poissons Ratio (x) = 0.05553 0.27097
# Poissons Ratio (y) = 0.14068 0.18282
# Poissons Ratio (z) = 0.32391 0.08626
#
# Static dielectric constant tensor:
#      x y z
#    x 3.900900 0.000000 0.000000 
#    y 0.000000 3.974340 0.000000 
#    z 0.000000 0.000000 4.215530 
# 
# 
# High freq. dielectric constant tensor:
#      x y z
#    x 1.855510 0.000000 0.000000 
#    y 0.000000 1.844680 0.000000 
#    z 0.000000 0.000000 1.852310 
# 
# From -- ./inp_files/26356.got.cif
#   From: 2010.06.25/outbox.cif.g09.slc.cpg/sg52_14_cif.got.tgz:26356.got - 2010.06.26 19:32:48.
