data_PCOD8217071
_publ_section_title
;
Structure prediction by ZEFSAII (Michael W. Deem and Ramdas Pophale) SiO2 
 PCOD8217071
Probable space group: P N N A
;
_chemical_formula_sum "Si O2"
_cell_formula_units_Z 36
_cell_length_a 18.499887
_cell_length_b 9.801275
_cell_length_c 9.967184
_cell_angle_alpha 90.000000
_cell_angle_beta 90.000000
_cell_angle_gamma 90.000000
_cell_volume 1807.274521
_symmetry_space_group_name_H-M "P N N A"
_symmetry_group_IT_number 52
_symmetry_cell_setting 'orthorhombic'
loop_
_space_group_symop_operation_xyz
x,y,z
1/2-x,-y,z
x,1/2-y,1/2-z
1/2-x,1/2+y,1/2-z
-x,-y,-z
1/2+x,y,-z
-x,1/2+y,1/2+z
1/2+x,1/2-y,1/2+z
loop_
_atom_site_type_symbol
_atom_site_label
_atom_site_fract_x
_atom_site_fract_y
_atom_site_fract_z
Si Si1 0.470308 0.600486 0.606459
Si Si2 0.946853 0.677375 0.893523
Si Si3 0.669530 0.543655 0.934667
Si Si4 0.905573 0.250000 0.750000
Si Si5 0.904609 0.399491 0.190904
O O1 0.500000 0.500000 0.500000
O O2 0.435291 0.727684 0.525867
O O3 0.541121 0.636971 0.690479
O O4 0.411814 0.519972 0.697970
O O5 0.950852 0.750000 0.750000
O O6 0.880352 0.577752 0.884090
O O7 0.024299 0.601210 0.905521
O O8 0.750000 0.500000 0.896991
O O9 0.647192 0.683186 0.860085
O O10 0.662365 0.563836 0.094962
O O11 0.889985 0.250000 0.250000
#
# Coordination Sequence:
#
# PCOD8217071 Si02
#       5
#     8   8   8   4   8
#     4  12  20  36  70  98 117 155 207 272 314 363
#     4  11  21  39  66  96 125 156 215 262 313 372
#     4  12  26  42  60  89 131 170 205 257 316 388
#     4  12  22  38  66  90 120 162 210 252 320 374
#     4  11  21  41  66  92 127 158 213 261 317 371
#
# _framework density 19.919497
#
# number of rings (size 3 to 8) (size 9 to 14) (size 15 to 20)
#    0.000    0.444    8.889    2.000    1.556    0.000 
#    4.000    0.000    0.000    0.000    0.000    0.000 
#    0.000    0.000    0.000    0.000    0.000    0.000 
#
# Total GULP energy -446276.349675 kJ/mol
# GULP energy per Si atom -12396.565269 kJ/mol
# Density = 1.987416 g / cm^3
# Si number density = 19.919497 Si / 1000 Ang^3
#
#
#
# Elastic Constant Matrix: (Units=GPa)
#
#
# Indices 1 2 3 4 5 6 
#
# 1 67.6761 17.0456 13.6243 0.0000 0.0000 0.0000
# 2 17.0456 61.3584 26.3188 0.0000 0.0000 0.0000
# 3 13.6243 26.3188 104.8577 0.0000 0.0000 0.0000
# 4 0.0000 0.0000 0.0000 54.7983 0.0000 0.0000
# 5 0.0000 0.0000 0.0000 0.0000 21.8898 0.0000
# 6 0.0000 0.0000 0.0000 0.0000 0.0000 16.2597
#
#
#
# Elastic Compliance Matrix: (Units=1/GPa)
#
#
# Indices 1 2 3 4 5 6 
#
# 1 0.015996 -0.003981 -0.001079 0.000000 0.000000 0.000000
# 2 -0.003981 0.019255 -0.004316 0.000000 0.000000 0.000000
# 3 -0.001079 -0.004316 0.010760 0.000000 0.000000 0.000000
# 4 0.000000 0.000000 0.000000 0.018249 0.000000 0.000000
# 5 0.000000 0.000000 0.000000 0.000000 0.045683 0.000000
# 6 0.000000 0.000000 0.000000 0.000000 0.000000 0.061502
#
#
# Mechanical properties :
#
#
# Convention : Reuss Voigt Hill
#
# Bulk Modulus (GPa) = 36.68427 38.65217 37.66822
# Shear Modulus (GPa) = 25.08996 30.38312 27.73654
#
# Velocity S-wave (km/s) = 3.55289 3.90974 3.73558
# Velocity P-wave (km/s) = 5.94028 6.31092 6.12840
#
# Compressibility (1/GPa) = 0.02725964
#
# Stress axis : x y z
#
# Youngs Moduli (GPa) = 62.51482 51.93535 92.93541
#
# Poissons Ratio (x) = 0.20675 0.10030
# Poissons Ratio (y) = 0.24886 0.40107
# Poissons Ratio (z) = 0.06747 0.22413
#
# Static dielectric constant tensor:
#      x y z
#    x 3.289480 0.000000 0.000000 
#    y 0.000000 3.519530 0.000000 
#    z 0.000000 0.000000 3.544380 
# 
# 
# High freq. dielectric constant tensor:
#      x y z
#    x 1.731980 0.000000 0.000000 
#    y 0.000000 1.795230 0.000000 
#    z 0.000000 0.000000 1.797780 
# 
# From -- ./inp_files/13062.got.cif
#   From: 2010.06.25/outbox.cif.g09.slc.cpg/sg52_7_cif.got.tgz:13062.got - 2010.06.26 19:32:48.
