data_PCOD8217225
_publ_section_title
;
Structure prediction by ZEFSAII (Michael W. Deem and Ramdas Pophale) SiO2 
 PCOD8217225
Probable space group: P N N A
;
_chemical_formula_sum "Si O2"
_cell_formula_units_Z 56
_cell_length_a 11.947103
_cell_length_b 14.806291
_cell_length_c 14.198219
_cell_angle_alpha 90.000000
_cell_angle_beta 90.000000
_cell_angle_gamma 90.000000
_cell_volume 2511.555382
_symmetry_space_group_name_H-M "P N N A"
_symmetry_group_IT_number 52
_symmetry_cell_setting 'orthorhombic'
loop_
_space_group_symop_operation_xyz
x,y,z
1/2-x,-y,z
x,1/2-y,1/2-z
1/2-x,1/2+y,1/2-z
-x,-y,-z
1/2+x,y,-z
-x,1/2+y,1/2+z
1/2+x,1/2-y,1/2+z
loop_
_atom_site_type_symbol
_atom_site_label
_atom_site_fract_x
_atom_site_fract_y
_atom_site_fract_z
Si Si1 0.070207 0.086100 0.206825
Si Si2 0.607854 0.173625 0.324597
Si Si3 0.250000 0.000000 0.342331
Si Si4 0.313456 0.260087 0.933696
Si Si5 0.439498 0.250000 0.750000
Si Si6 0.199743 0.400214 0.477247
Si Si7 0.066550 0.587685 0.041916
Si Si8 0.133191 0.044948 0.835687
O O1 0.015951 0.163840 0.270409
O O2 0.162051 0.047330 0.275500
O O3 0.126443 0.127429 0.113164
O O4 0.976471 0.014594 0.176709
O O5 0.570595 0.250000 0.250000
O O6 0.693030 0.198474 0.407624
O O7 0.499893 0.133896 0.374065
O O8 0.662424 0.096946 0.259581
O O9 0.185848 0.934410 0.412977
O O10 0.362363 0.220261 0.837129
O O11 0.296232 0.177061 0.007472
O O12 0.402450 0.336226 0.965387
O O13 0.250000 0.500000 0.456444
O O14 0.116572 0.395448 0.568903
O O15 0.000000 0.500000 0.000000
O O16 0.250000 0.000000 0.863800
#
# Coordination Sequence:
#
# PCOD8217225 Si02
#       8
#     8   8   4   8   4   8   8   8
#     4  12  26  44  75 104 152 195 246 308 380 456
#     4  12  25  46  74 111 143 191 250 312 381 446
#     4  12  26  52  68 110 146 196 246 302 388 446
#     4  12  26  47  73 110 148 189 257 313 378 458
#     4  12  26  46  74 104 144 194 252 306 376 444
#     4  11  24  45  72 108 146 198 242 312 377 455
#     4  12  29  48  77 106 151 202 253 316 384 468
#     4  11  23  45  74 103 144 193 249 302 370 449
#
# _framework density 22.296941
#
# number of rings (size 3 to 8) (size 9 to 14) (size 15 to 20)
#    0.000    0.286    4.286    4.714    6.000    2.286 
#    0.000    0.000    0.000    0.000    0.000    0.000 
#    0.000    0.000    0.000    0.000    0.000    0.000 
#
# Total GULP energy -694128.348799 kJ/mol
# GULP energy per Si atom -12395.149086 kJ/mol
# Density = 2.224619 g / cm^3
# Si number density = 22.296941 Si / 1000 Ang^3
#
#
#
# Elastic Constant Matrix: (Units=GPa)
#
#
# Indices 1 2 3 4 5 6 
#
# 1 102.7944 36.8569 28.6164 0.0000 0.0000 0.0000
# 2 36.8569 106.1772 26.9510 0.0000 0.0000 0.0000
# 3 28.6164 26.9510 94.2694 0.0000 0.0000 0.0000
# 4 0.0000 0.0000 0.0000 44.8481 0.0000 0.0000
# 5 0.0000 0.0000 0.0000 0.0000 43.2201 0.0000
# 6 0.0000 0.0000 0.0000 0.0000 0.0000 39.4176
#
#
#
# Elastic Compliance Matrix: (Units=1/GPa)
#
#
# Indices 1 2 3 4 5 6 
#
# 1 0.011661 -0.003396 -0.002569 0.000000 0.000000 0.000000
# 2 -0.003396 0.011144 -0.002155 0.000000 0.000000 0.000000
# 3 -0.002569 -0.002155 0.012004 0.000000 0.000000 0.000000
# 4 0.000000 0.000000 0.000000 0.022298 0.000000 0.000000
# 5 0.000000 0.000000 0.000000 0.000000 0.023137 0.000000
# 6 0.000000 0.000000 0.000000 0.000000 0.000000 0.025369
#
#
# Mechanical properties :
#
#
# Convention : Reuss Voigt Hill
#
# Bulk Modulus (GPa) = 53.85316 54.23220 54.04268
# Shear Modulus (GPa) = 39.04956 39.55160 39.30058
#
# Velocity S-wave (km/s) = 4.18944 4.21629 4.20289
# Velocity P-wave (km/s) = 6.89979 6.93385 6.91684
#
# Compressibility (1/GPa) = 0.01856901
#
# Stress axis : x y z
#
# Youngs Moduli (GPa) = 85.75709 89.73431 83.30631
#
# Poissons Ratio (x) = 0.30471 0.21401
# Poissons Ratio (y) = 0.29121 0.17954
# Poissons Ratio (z) = 0.22031 0.19340
#
# Static dielectric constant tensor:
#      x y z
#    x 4.038960 0.000000 0.000000 
#    y 0.000000 4.148050 0.000000 
#    z 0.000000 0.000000 4.295660 
# 
# 
# High freq. dielectric constant tensor:
#      x y z
#    x 1.879580 0.000000 0.000000 
#    y 0.000000 1.880350 0.000000 
#    z 0.000000 0.000000 1.894020 
# 
# From -- ./inp_files/26225.got.cif
#   From: 2010.06.25/outbox.cif.g09.slc.cpg/sg52_14_cif.got.tgz:26225.got - 2010.06.26 19:32:48.
