data_PCOD8217904
_publ_section_title
;
Structure prediction by ZEFSAII (Michael W. Deem and Ramdas Pophale) SiO2 
 PCOD8217904
Probable space group: P M N A
;
_chemical_formula_sum "Si O2"
_cell_formula_units_Z 64
_cell_length_a 9.145185
_cell_length_b 20.267263
_cell_length_c 20.040783
_cell_angle_alpha 90.000000
_cell_angle_beta 90.000000
_cell_angle_gamma 90.000000
_cell_volume 3714.516434
_symmetry_space_group_name_H-M "P M N A"
_symmetry_group_IT_number 53
_symmetry_cell_setting 'orthorhombic'
loop_
_space_group_symop_operation_xyz
x,y,z
1/2-x,-y,1/2+z
x,-y,-z
1/2-x,y,1/2-z
-x,-y,-z
1/2+x,y,1/2-z
-x,y,z
1/2+x,-y,1/2+z
loop_
_atom_site_type_symbol
_atom_site_label
_atom_site_fract_x
_atom_site_fract_y
_atom_site_fract_z
Si Si1 0.670895 0.533410 0.071007
Si Si2 0.172831 0.335256 0.962333
Si Si3 0.164828 0.918226 0.069568
Si Si4 0.667250 0.311902 0.385997
Si Si5 0.663906 0.062252 0.412095
Si Si6 0.328370 0.447255 0.318598
Si Si7 0.837068 0.814487 0.604112
Si Si8 0.335069 0.794216 0.053614
O O1 0.500000 0.538913 0.088794
O O2 0.743256 0.605194 0.072853
O O3 0.753947 0.489876 0.124582
O O4 0.696065 0.500000 0.000000
O O5 0.233384 0.268193 0.929125
O O6 0.000000 0.341044 0.949707
O O7 0.212981 0.336872 0.040589
O O8 0.270127 0.858338 0.091619
O O9 0.000000 0.903384 0.094086
O O10 0.221597 0.987510 0.101253
O O11 0.164903 0.924149 0.990331
O O12 0.500000 0.289392 0.387599
O O13 0.696824 0.370163 0.333929
O O14 0.758061 0.248224 0.362566
O O15 0.500000 0.069237 0.384302
O O16 0.762487 0.116455 0.374538
O O17 0.250000 0.465253 0.250000
O O18 0.500000 0.464086 0.314911
O O19 0.833367 0.806678 0.524959
O O20 0.000000 0.816053 0.632503
O O21 0.500000 0.781814 0.078992
#
# Coordination Sequence:
#
# PCOD8217904 Si02
#       8
#     8   8   8   8   8   8   8   8
#     4  11  22  35  54  78 102 128 161 205 252 299
#     4  10  18  30  48  68  91 121 159 200 241 290
#     4   8  13  21  32  46  68 105 147 184 224 275
#     4   9  18  31  47  65  89 121 156 194 238 288
#     4   8  13  21  32  46  69 103 145 186 225 272
#     4  11  23  39  56  76 101 131 166 203 250 303
#     4   9  16  23  35  55  79 107 145 190 233 274
#     4   9  16  24  34  54  82 111 145 189 237 281
#
# _framework density 17.229700000000001
#
# number of rings (size 3 to 8) (size 9 to 14) (size 15 to 20)
#    0.000    2.625    1.250    2.625    0.000    5.500 
#    0.000    2.500    0.000    0.000    0.000    0.000 
#    0.000    0.000    0.000    1.125    0.000   18.750 
#
# Total GULP energy -793393.071973 kJ/mol
# GULP energy per Si atom -12396.766750 kJ/mol
# Density = 1.719048 g / cm^3
# Si number density = 17.229700 Si / 1000 Ang^3
#
#
#
# Elastic Constant Matrix: (Units=GPa)
#
#
# Indices 1 2 3 4 5 6 
#
# 1 125.6349 76.2422 33.2766 0.0000 0.0000 0.0000
# 2 76.2422 126.7552 23.6120 0.0000 0.0000 0.0000
# 3 33.2766 23.6120 37.5524 0.0000 0.0000 0.0000
# 4 0.0000 0.0000 0.0000 6.2857 0.0000 0.0000
# 5 0.0000 0.0000 0.0000 0.0000 12.8769 0.0000
# 6 0.0000 0.0000 0.0000 0.0000 0.0000 31.5127
#
#
#
# Elastic Compliance Matrix: (Units=1/GPa)
#
#
# Indices 1 2 3 4 5 6 
#
# 1 0.014534 -0.007185 -0.008362 0.000000 0.000000 0.000000
# 2 -0.007185 0.012487 -0.001485 0.000000 0.000000 0.000000
# 3 -0.008362 -0.001485 0.034973 0.000000 0.000000 0.000000
# 4 0.000000 0.000000 0.000000 0.159090 0.000000 0.000000
# 5 0.000000 0.000000 0.000000 0.000000 0.077658 0.000000
# 6 0.000000 0.000000 0.000000 0.000000 0.000000 0.031733
#
#
# Mechanical properties :
#
#
# Convention : Reuss Voigt Hill
#
# Bulk Modulus (GPa) = 35.80202 61.80046 48.80124
# Shear Modulus (GPa) = 13.37431 20.58919 16.98175
#
# Velocity S-wave (km/s) = 2.78912 3.46060 3.14285
# Velocity P-wave (km/s) = 5.58540 7.20515 6.44635
#
# Compressibility (1/GPa) = 0.02793138
#
# Stress axis : x y z
#
# Youngs Moduli (GPa) = 68.80208 80.08073 28.59339
#
# Poissons Ratio (x) = 0.57535 0.23910
# Poissons Ratio (y) = 0.49432 0.04247
# Poissons Ratio (z) = 0.57532 0.11893
#
# Static dielectric constant tensor:
#      x y z
#    x 3.392500 0.000000 0.000000 
#    y 0.000000 3.414100 0.000000 
#    z 0.000000 0.000000 2.515010 
# 
# 
# High freq. dielectric constant tensor:
#      x y z
#    x 1.676850 0.000000 0.000000 
#    y 0.000000 1.682750 0.000000 
#    z 0.000000 0.000000 1.582220 
# 
# From -- ./inp_files/27014.got.cif
#   From: 2010.03.12/outbox.cif.g09.slc.cpg/sg53_14_cif.got.tgz:27014.got - 2010.04.16 14:36:59.
