data_PCOD8217789
_publ_section_title
;
Structure prediction by ZEFSAII (Michael W. Deem and Ramdas Pophale) SiO2 
 PCOD8217789
Probable space group: P M N A
;
_chemical_formula_sum "Si O2"
_cell_formula_units_Z 64
_cell_length_a 8.978072
_cell_length_b 17.077808
_cell_length_c 26.328084
_cell_angle_alpha 90.000000
_cell_angle_beta 90.000000
_cell_angle_gamma 90.000000
_cell_volume 4036.774274
_symmetry_space_group_name_H-M "P M N A"
_symmetry_group_IT_number 53
_symmetry_cell_setting 'orthorhombic'
loop_
_space_group_symop_operation_xyz
x,y,z
1/2-x,-y,1/2+z
x,-y,-z
1/2-x,y,1/2-z
-x,-y,-z
1/2+x,y,1/2-z
-x,y,z
1/2+x,-y,1/2+z
loop_
_atom_site_type_symbol
_atom_site_label
_atom_site_fract_x
_atom_site_fract_y
_atom_site_fract_z
Si Si1 0.175973 0.355632 0.427685
Si Si2 0.826473 0.842027 0.066988
Si Si3 0.835666 0.508351 0.060106
Si Si4 0.176657 0.900307 0.696570
Si Si5 0.324450 0.325395 0.534726
Si Si6 0.169602 0.902562 0.957424
Si Si7 0.672154 0.777256 0.628708
Si Si8 0.826100 0.979359 0.389760
O O1 0.219091 0.446459 0.416906
O O2 0.235330 0.327174 0.482090
O O3 0.248870 0.305371 0.382366
O O4 0.000000 0.346041 0.426101
O O5 0.778507 0.750734 0.067569
O O6 0.743323 0.891847 0.110722
O O7 0.000000 0.850352 0.077200
O O8 0.778740 0.877054 0.012839
O O9 0.786927 0.598762 0.069837
O O10 0.000000 0.491919 0.083224
O O11 0.843124 0.500000 0.000000
O O12 0.250000 0.920112 0.750000
O O13 0.245055 0.819679 0.675283
O O14 0.000000 0.890679 0.701403
O O15 0.221264 0.973030 0.660440
O O16 0.500000 0.322715 0.520422
O O17 0.190425 0.827862 0.921854
O O18 0.000000 0.932278 0.956823
O O19 0.269315 0.974740 0.939395
O O20 0.500000 0.764123 0.643337
O O21 0.000000 0.970533 0.393510
#
# Coordination Sequence:
#
# PCOD8217789 Si02
#       8
#     8   8   8   8   8   8   8   8
#     4  11  19  26  40  63  91 118 151 191 226 264
#     4  10  18  29  44  62  86 118 157 190 219 262
#     4   8  15  27  42  56  79 117 157 190 221 258
#     4  10  21  37  53  70  91 115 146 185 231 277
#     4   9  17  30  43  58  83 121 161 193 223 261
#     4   9  17  29  44  60  83 117 154 186 216 258
#     4  10  18  31  49  67  89 119 154 188 226 268
#     4  10  21  32  43  64  90 113 143 183 227 272
#
# _framework density 15.854243
#
# number of rings (size 3 to 8) (size 9 to 14) (size 15 to 20)
#    0.000    2.375    1.250    3.375    0.000    6.750 
#    0.000    0.000    0.000    0.000    0.000    0.000 
#    0.000    1.000    0.000    6.500    0.000    5.500 
#
# Total GULP energy -793416.826791 kJ/mol
# GULP energy per Si atom -12397.137919 kJ/mol
# Density = 1.581816 g / cm^3
# Si number density = 15.854243 Si / 1000 Ang^3
#
#
#
# Elastic Constant Matrix: (Units=GPa)
#
#
# Indices 1 2 3 4 5 6 
#
# 1 77.4595 52.8146 27.6905 0.0000 0.0000 0.0000
# 2 52.8146 139.0751 39.1043 0.0000 0.0000 0.0000
# 3 27.6905 39.1043 44.5631 0.0000 0.0000 0.0000
# 4 0.0000 0.0000 0.0000 12.3968 0.0000 0.0000
# 5 0.0000 0.0000 0.0000 0.0000 18.4851 0.0000
# 6 0.0000 0.0000 0.0000 0.0000 0.0000 21.4883
#
#
#
# Elastic Compliance Matrix: (Units=1/GPa)
#
#
# Indices 1 2 3 4 5 6 
#
# 1 0.019051 -0.005186 -0.007287 0.000000 0.000000 0.000000
# 2 -0.005186 0.010957 -0.006393 0.000000 0.000000 0.000000
# 3 -0.007287 -0.006393 0.032578 0.000000 0.000000 0.000000
# 4 0.000000 0.000000 0.000000 0.080666 0.000000 0.000000
# 5 0.000000 0.000000 0.000000 0.000000 0.054098 0.000000
# 6 0.000000 0.000000 0.000000 0.000000 0.000000 0.046537
#
#
# Mechanical properties :
#
#
# Convention : Reuss Voigt Hill
#
# Bulk Modulus (GPa) = 40.23415 55.59073 47.91244
# Shear Modulus (GPa) = 17.24718 19.90659 18.57688
#
# Velocity S-wave (km/s) = 3.30185 3.54729 3.42677
# Velocity P-wave (km/s) = 6.32210 7.20537 6.77814
#
# Compressibility (1/GPa) = 0.02485451
#
# Stress axis : x y z
#
# Youngs Moduli (GPa) = 52.49109 91.26514 30.69576
#
# Poissons Ratio (x) = 0.47327 0.22369
# Poissons Ratio (y) = 0.27220 0.19623
# Poissons Ratio (z) = 0.38252 0.58342
#
# Static dielectric constant tensor:
#      x y z
#    x 3.004470 0.000000 0.000000 
#    y 0.000000 3.457210 0.000000 
#    z 0.000000 0.000000 2.608840 
# 
# 
# High freq. dielectric constant tensor:
#      x y z
#    x 1.612840 0.000000 0.000000 
#    y 0.000000 1.619560 0.000000 
#    z 0.000000 0.000000 1.547350 
# 
# From -- ./inp_files/36474.got.cif
#   From: 2010.03.12/outbox.cif.g09.slc.cpg/sg53_19_cif.got.tgz:36474.got - 2010.04.16 14:36:59.
