data_PCOD8217039
_publ_section_title
;
Structure prediction by ZEFSAII (Michael W. Deem and Ramdas Pophale) SiO2 
 PCOD8217039
Probable space group: P N N A
;
_chemical_formula_sum "Si O2"
_cell_formula_units_Z 56
_cell_length_a 20.932872
_cell_length_b 9.444151
_cell_length_c 14.076244
_cell_angle_alpha 90.000000
_cell_angle_beta 90.000000
_cell_angle_gamma 90.000000
_cell_volume 2782.777777
_symmetry_space_group_name_H-M "P N N A"
_symmetry_group_IT_number 52
_symmetry_cell_setting 'orthorhombic'
loop_
_space_group_symop_operation_xyz
x,y,z
1/2-x,-y,z
x,1/2-y,1/2-z
1/2-x,1/2+y,1/2-z
-x,-y,-z
1/2+x,y,-z
-x,1/2+y,1/2+z
1/2+x,1/2-y,1/2+z
loop_
_atom_site_type_symbol
_atom_site_label
_atom_site_fract_x
_atom_site_fract_y
_atom_site_fract_z
Si Si1 0.430768 0.414087 0.751773
Si Si2 0.428274 0.492838 0.535022
Si Si3 0.745296 0.169585 0.658249
Si Si4 0.324800 0.015098 0.609100
Si Si5 0.964962 0.993615 0.599317
Si Si6 0.868280 0.714343 0.977450
Si Si7 0.867477 0.218842 0.556782
O O1 0.448171 0.250000 0.750000
O O2 0.429377 0.481076 0.648109
O O3 0.360525 0.434971 0.795943
O O4 0.485861 0.488321 0.813953
O O5 0.500000 0.500000 0.500000
O O6 0.389670 0.629532 0.503115
O O7 0.392354 0.363357 0.486560
O O8 0.717958 0.250000 0.750000
O O9 0.700116 0.210969 0.571774
O O10 0.813807 0.240795 0.636504
O O11 0.750000 0.000000 0.672115
O O12 0.358965 0.870069 0.576121
O O13 0.250000 0.000000 0.632340
O O14 0.334852 0.127915 0.526032
O O15 0.925001 0.137623 0.609205
O O16 0.918998 0.856529 0.595291
O O17 0.000000 0.000000 0.500000
#
# Coordination Sequence:
#
# PCOD8217039 Si02
#       7
#     8   8   8   8   8   8   8
#     4  12  24  43  70 103 133 177 240 282 339 418
#     4  12  28  44  65 105 142 176 230 294 344 406
#     4  12  26  46  73 104 138 180 236 280 339 421
#     4  11  21  46  74  94 130 186 225 274 350 422
#     4  11  20  41  75  93 130 187 225 276 350 402
#     4  11  23  44  70  98 137 182 221 281 354 403
#     4  11  22  46  69  93 141 185 217 279 353 400
#
# _framework density 20.123777
#
# number of rings (size 3 to 8) (size 9 to 14) (size 15 to 20)
#    0.000    0.571    8.571    1.714    2.000    3.429 
#    5.143    0.000    0.000    0.000    0.000    0.000 
#    0.000    0.000    0.000    0.000    0.000    0.000 
#
# Total GULP energy -694526.958337 kJ/mol
# GULP energy per Si atom -12402.267113 kJ/mol
# Density = 2.007797 g / cm^3
# Si number density = 20.123777 Si / 1000 Ang^3
#
#
#
# Elastic Constant Matrix: (Units=GPa)
#
#
# Indices 1 2 3 4 5 6 
#
# 1 115.4864 48.5837 27.5088 0.0000 0.0000 0.0000
# 2 48.5837 133.2790 44.9696 0.0000 0.0000 0.0000
# 3 27.5088 44.9696 92.9301 0.0000 0.0000 0.0000
# 4 0.0000 0.0000 0.0000 30.2717 0.0000 0.0000
# 5 0.0000 0.0000 0.0000 0.0000 11.5710 0.0000
# 6 0.0000 0.0000 0.0000 0.0000 0.0000 11.9963
#
#
#
# Elastic Compliance Matrix: (Units=1/GPa)
#
#
# Indices 1 2 3 4 5 6 
#
# 1 0.010396 -0.003288 -0.001486 0.000000 0.000000 0.000000
# 2 -0.003288 0.010007 -0.003869 0.000000 0.000000 0.000000
# 3 -0.001486 -0.003869 0.013073 0.000000 0.000000 0.000000
# 4 0.000000 0.000000 0.000000 0.033034 0.000000 0.000000
# 5 0.000000 0.000000 0.000000 0.000000 0.086423 0.000000
# 6 0.000000 0.000000 0.000000 0.000000 0.000000 0.083359
#
#
# Mechanical properties :
#
#
# Convention : Reuss Voigt Hill
#
# Bulk Modulus (GPa) = 61.76958 64.86886 63.31922
# Shear Modulus (GPa) = 19.30679 25.47671 22.39175
#
# Velocity S-wave (km/s) = 3.10078 3.56195 3.33934
# Velocity P-wave (km/s) = 6.60161 7.01581 6.81186
#
# Compressibility (1/GPa) = 0.01618920
#
# Stress axis : x y z
#
# Youngs Moduli (GPa) = 96.18718 99.92785 76.49311
#
# Poissons Ratio (x) = 0.32859 0.11369
# Poissons Ratio (y) = 0.31629 0.29597
# Poissons Ratio (z) = 0.14296 0.38664
#
# Static dielectric constant tensor:
#      x y z
#    x 3.487130 0.000000 0.000000 
#    y 0.000000 3.803820 0.000000 
#    z 0.000000 0.000000 3.617820 
# 
# 
# High freq. dielectric constant tensor:
#      x y z
#    x 1.805910 0.000000 0.000000 
#    y 0.000000 1.786770 0.000000 
#    z 0.000000 0.000000 1.779920 
# 
# From -- ./inp_files/28757.got.cif
#   From: 2010.06.25/outbox.cif.g09.slc.cpg/sg52_15_cif.got.tgz:28757.got - 2010.06.26 19:32:48.
