data_PCOD8217536
_publ_section_title
;
Structure prediction by ZEFSAII (Michael W. Deem and Ramdas Pophale) SiO2 
 PCOD8217536
Probable space group: P M N A
;
_chemical_formula_sum "Si O2"
_cell_formula_units_Z 56
_cell_length_a 8.890652
_cell_length_b 13.741014
_cell_length_c 28.435956
_cell_angle_alpha 90.000000
_cell_angle_beta 90.000000
_cell_angle_gamma 90.000000
_cell_volume 3473.923312
_symmetry_space_group_name_H-M "P M N A"
_symmetry_group_IT_number 53
_symmetry_cell_setting 'orthorhombic'
loop_
_space_group_symop_operation_xyz
x,y,z
1/2-x,-y,1/2+z
x,-y,-z
1/2-x,y,1/2-z
-x,-y,-z
1/2+x,y,1/2-z
-x,y,z
1/2+x,-y,1/2+z
loop_
_atom_site_type_symbol
_atom_site_label
_atom_site_fract_x
_atom_site_fract_y
_atom_site_fract_z
Si Si1 0.325251 0.425683 0.894425
Si Si2 0.325017 0.292001 0.538270
Si Si3 0.819382 0.104996 0.015347
Si Si4 0.319224 0.271684 0.297561
Si Si5 0.831132 0.404527 0.054318
Si Si6 0.829883 0.797311 0.894000
Si Si7 0.320809 0.516526 0.797312
O O1 0.500000 0.408846 0.897434
O O2 0.249661 0.326040 0.912937
O O3 0.284090 0.515307 0.928009
O O4 0.275906 0.447038 0.840792
O O5 0.500000 0.281362 0.547306
O O6 0.261567 0.186880 0.521402
O O7 0.290539 0.373611 0.498786
O O8 0.753318 0.130286 0.067695
O O9 0.000000 0.108078 0.016913
O O10 0.757272 0.000000 0.000000
O O11 0.250000 0.225861 0.250000
O O12 0.500000 0.277627 0.295015
O O13 0.262370 0.203371 0.341052
O O14 0.253697 0.378869 0.305461
O O15 0.819865 0.312070 0.087715
O O16 0.000000 0.448095 0.056237
O O17 0.000000 0.832196 0.889561
O O18 0.250000 0.469594 0.750000
O O19 0.500000 0.528663 0.792557
#
# Coordination Sequence:
#
# PCOD8217536 Si02
#       7
#     8   8   8   8   8   8   8
#     4  11  21  29  40  61  89 117 146 179 215 252
#     4   9  18  29  44  65  86 113 147 178 213 258
#     4   8  14  27  47  69  89 107 140 189 226 256
#     4  10  17  26  41  60  86 117 147 177 211 253
#     4   9  16  28  42  58  85 119 150 174 204 249
#     4   8  14  24  40  62  86 115 143 173 219 259
#     4  10  20  31  42  59  83 115 153 185 216 251
#
# _framework density 16.120104000000001
#
# number of rings (size 3 to 8) (size 9 to 14) (size 15 to 20)
#    0.000    2.714    1.429    4.286    0.000    4.000 
#    0.000    0.000    0.000    0.429    0.000    1.000 
#    0.000    4.571    0.000    0.000    0.000    0.000 
#
# Total GULP energy -693860.206050 kJ/mol
# GULP energy per Si atom -12390.360822 kJ/mol
# Density = 1.608341 g / cm^3
# Si number density = 16.120104 Si / 1000 Ang^3
#
#
#
# Elastic Constant Matrix: (Units=GPa)
#
#
# Indices 1 2 3 4 5 6 
#
# 1 39.3946 22.8845 37.8541 0.0000 0.0000 0.0000
# 2 22.8845 70.0251 70.7853 0.0000 0.0000 0.0000
# 3 37.8541 70.7853 145.4405 0.0000 0.0000 0.0000
# 4 0.0000 0.0000 0.0000 17.8503 0.0000 0.0000
# 5 0.0000 0.0000 0.0000 0.0000 22.0027 0.0000
# 6 0.0000 0.0000 0.0000 0.0000 0.0000 5.1582
#
#
#
# Elastic Compliance Matrix: (Units=1/GPa)
#
#
# Indices 1 2 3 4 5 6 
#
# 1 0.034503 -0.004327 -0.006874 0.000000 0.000000 0.000000
# 2 -0.004327 0.028653 -0.012819 0.000000 0.000000 0.000000
# 3 -0.006874 -0.012819 0.014904 0.000000 0.000000 0.000000
# 4 0.000000 0.000000 0.000000 0.056022 0.000000 0.000000
# 5 0.000000 0.000000 0.000000 0.000000 0.045449 0.000000
# 6 0.000000 0.000000 0.000000 0.000000 0.000000 0.193866
#
#
# Mechanical properties :
#
#
# Convention : Reuss Voigt Hill
#
# Bulk Modulus (GPa) = 33.31175 57.54533 45.42854
# Shear Modulus (GPa) = 11.58900 17.22466 14.40683
#
# Velocity S-wave (km/s) = 2.68417 3.27237 2.99276
# Velocity P-wave (km/s) = 5.50599 7.07483 6.33913
#
# Compressibility (1/GPa) = 0.03001944
#
# Stress axis : x y z
#
# Youngs Moduli (GPa) = 28.98282 34.90057 67.09663
#
# Poissons Ratio (x) = 0.15101 0.46125
# Poissons Ratio (y) = 0.12540 0.86012
# Poissons Ratio (z) = 0.19924 0.44739
#
# Static dielectric constant tensor:
#      x y z
#    x 2.833950 0.000000 0.000000 
#    y 0.000000 2.856940 0.000000 
#    z 0.000000 0.000000 3.532770 
# 
# 
# High freq. dielectric constant tensor:
#      x y z
#    x 1.597020 0.000000 0.000000 
#    y 0.000000 1.574620 0.000000 
#    z 0.000000 0.000000 1.630720 
# 
# From -- ./inp_files/38386.got.cif
#   From: 2010.03.12/outbox.cif.g09.slc.cpg/sg53_20_cif.got.tgz:38386.got - 2010.04.16 14:36:59.
