data_PCOD8217484
_publ_section_title
;
Structure prediction by ZEFSAII (Michael W. Deem and Ramdas Pophale) SiO2 
 PCOD8217484
Probable space group: P M N A
;
_chemical_formula_sum "Si O2"
_cell_formula_units_Z 28
_cell_length_a 13.412008
_cell_length_b 10.949727
_cell_length_c 9.846341
_cell_angle_alpha 90.000000
_cell_angle_beta 90.000000
_cell_angle_gamma 90.000000
_cell_volume 1446.012235
_symmetry_space_group_name_H-M "P M N A"
_symmetry_group_IT_number 53
_symmetry_cell_setting 'orthorhombic'
loop_
_space_group_symop_operation_xyz
x,y,z
1/2-x,-y,1/2+z
x,-y,-z
1/2-x,y,1/2-z
-x,-y,-z
1/2+x,y,1/2-z
-x,y,z
1/2+x,-y,1/2+z
loop_
_atom_site_type_symbol
_atom_site_label
_atom_site_fract_x
_atom_site_fract_y
_atom_site_fract_z
Si Si1 0.230874 0.607045 0.903096
Si Si2 0.756377 0.000000 0.500000
Si Si3 0.388875 0.157395 0.340156
Si Si4 0.611927 0.211928 0.026943
O O1 0.250000 0.558218 0.750000
O O2 0.149618 0.714380 0.900525
O O3 0.333211 0.657203 0.971859
O O4 0.190157 0.500000 0.000000
O O5 0.684589 0.951711 0.619101
O O6 0.826337 0.889800 0.441882
O O7 0.500000 0.135170 0.397051
O O8 0.389053 0.159582 0.178795
O O9 0.500000 0.227385 0.968478
#
# Coordination Sequence:
#
# PCOD8217484 Si02
#       4
#     8   4   8   8
#     4   9  18  33  52  72  97 130 169 209 249 295
#     4  10  16  28  50  72  92 118 158 204 242 286
#     4   9  18  32  49  69  96 131 165 200 249 303
#     4   9  18  32  49  69  96 131 165 200 249 303
#
# _framework density 19.363598
#
# number of rings (size 3 to 8) (size 9 to 14) (size 15 to 20)
#    0.000    2.857    0.000    3.429    0.000    1.143 
#    0.000   11.429    0.000    6.857    0.000    0.000 
#    0.000    0.000    0.000    0.000    0.000    0.000 
#
# Total GULP energy -347040.917037 kJ/mol
# GULP energy per Si atom -12394.318466 kJ/mol
# Density = 1.931953 g / cm^3
# Si number density = 19.363598 Si / 1000 Ang^3
#
#
#
# Elastic Constant Matrix: (Units=GPa)
#
#
# Indices 1 2 3 4 5 6 
#
# 1 141.9872 38.1389 15.7667 0.0000 0.0000 0.0000
# 2 38.1389 96.0185 40.2633 0.0000 0.0000 0.0000
# 3 15.7667 40.2633 37.1043 0.0000 0.0000 0.0000
# 4 0.0000 0.0000 0.0000 31.2689 0.0000 0.0000
# 5 0.0000 0.0000 0.0000 0.0000 22.0613 0.0000
# 6 0.0000 0.0000 0.0000 0.0000 0.0000 14.7060
#
#
#
# Elastic Compliance Matrix: (Units=1/GPa)
#
#
# Indices 1 2 3 4 5 6 
#
# 1 0.007884 -0.003169 0.000088 0.000000 0.000000 0.000000
# 2 -0.003169 0.020384 -0.020773 0.000000 0.000000 0.000000
# 3 0.000088 -0.020773 0.049455 0.000000 0.000000 0.000000
# 4 0.000000 0.000000 0.000000 0.031981 0.000000 0.000000
# 5 0.000000 0.000000 0.000000 0.000000 0.045328 0.000000
# 6 0.000000 0.000000 0.000000 0.000000 0.000000 0.068000
#
#
# Mechanical properties :
#
#
# Convention : Reuss Voigt Hill
#
# Bulk Modulus (GPa) = 33.31512 51.49423 42.40467
# Shear Modulus (GPa) = 17.80981 25.66996 21.73989
#
# Velocity S-wave (km/s) = 3.03604 3.64494 3.35434
# Velocity P-wave (km/s) = 5.43437 6.66072 6.07855
#
# Compressibility (1/GPa) = 0.03001640
#
# Stress axis : x y z
#
# Youngs Moduli (GPa) = 126.83579 49.05829 20.22037
#
# Poissons Ratio (x) = 0.15545 -0.00178
# Poissons Ratio (y) = 0.40189 0.42004
# Poissons Ratio (z) = -0.01118 1.01908
#
# Static dielectric constant tensor:
#      x y z
#    x 4.085430 0.000000 0.000000 
#    y 0.000000 3.401050 0.000000 
#    z 0.000000 0.000000 3.164500 
# 
# 
# High freq. dielectric constant tensor:
#      x y z
#    x 1.768930 0.000000 0.000000 
#    y 0.000000 1.743070 0.000000 
#    z 0.000000 0.000000 1.711520 
# 
# From -- ./inp_files/7877.got.cif
#   From: 2010.03.12/outbox.cif.g09.slc.cpg/sg53_4_cif.got.tgz:7877.got - 2010.04.16 14:36:59.
