data_PCOD8217082
_publ_section_title
;
Structure prediction by ZEFSAII (Michael W. Deem and Ramdas Pophale) SiO2 
 PCOD8217082
Probable space group: P N N A
;
_chemical_formula_sum "Si O2"
_cell_formula_units_Z 48
_cell_length_a 17.030767
_cell_length_b 12.217900
_cell_length_c 11.598912
_cell_angle_alpha 90.000000
_cell_angle_beta 90.000000
_cell_angle_gamma 90.000000
_cell_volume 2413.504023
_symmetry_space_group_name_H-M "P N N A"
_symmetry_group_IT_number 52
_symmetry_cell_setting 'orthorhombic'
loop_
_space_group_symop_operation_xyz
x,y,z
1/2-x,-y,z
x,1/2-y,1/2-z
1/2-x,1/2+y,1/2-z
-x,-y,-z
1/2+x,y,-z
-x,1/2+y,1/2+z
1/2+x,1/2-y,1/2+z
loop_
_atom_site_type_symbol
_atom_site_label
_atom_site_fract_x
_atom_site_fract_y
_atom_site_fract_z
Si Si1 0.908729 0.374497 0.267764
Si Si2 0.413507 0.875596 0.146938
Si Si3 0.836156 0.046482 0.008381
Si Si4 0.338331 0.649315 0.118572
Si Si5 0.660834 0.773138 0.620548
Si Si6 0.411971 0.463521 0.983228
O O1 0.880574 0.250000 0.250000
O O2 0.853269 0.438176 0.356928
O O3 0.897237 0.438663 0.149583
O O4 0.996908 0.377310 0.314670
O O5 0.392935 0.755340 0.098120
O O6 0.358382 0.903092 0.256764
O O7 0.399131 0.963937 0.047499
O O8 0.750000 0.000000 0.989757
O O9 0.844272 0.162405 0.949063
O O10 0.247742 0.678669 0.116953
O O11 0.353949 0.561796 0.018709
O O12 0.632750 0.750000 0.750000
O O13 0.601304 0.857895 0.562779
O O14 0.500000 0.500000 0.000000
#
# Coordination Sequence:
#
# PCOD8217082 Si02
#       6
#     8   8   8   8   8   8
#     4  12  24  46  67  95 138 189 218 274 350 414
#     4  11  21  44  70  96 134 173 223 281 349 394
#     4  12  25  43  67  99 137 176 230 276 334 413
#     4  11  21  41  72  97 131 173 223 284 346 395
#     4  12  24  41  70 104 131 172 228 289 343 396
#     4  12  25  44  67  98 136 177 228 276 338 414
#
# _framework density 19.888096000000001
#
# number of rings (size 3 to 8) (size 9 to 14) (size 15 to 20)
#    0.000    0.333    8.333    2.000    0.000    1.333 
#    0.000    0.833    0.000    0.000    0.000    0.000 
#    0.000    0.000    0.000    0.000    0.000    0.000 
#
# Total GULP energy -595497.965564 kJ/mol
# GULP energy per Si atom -12406.207616 kJ/mol
# Density = 1.984283 g / cm^3
# Si number density = 19.888096 Si / 1000 Ang^3
#
#
#
# Elastic Constant Matrix: (Units=GPa)
#
#
# Indices 1 2 3 4 5 6 
#
# 1 45.5388 44.4126 32.4357 0.0000 0.0000 0.0000
# 2 44.4126 119.2000 65.3879 0.0000 0.0000 0.0000
# 3 32.4357 65.3879 135.8477 0.0000 0.0000 0.0000
# 4 0.0000 0.0000 0.0000 -3.6036 0.0000 0.0000
# 5 0.0000 0.0000 0.0000 0.0000 16.1840 0.0000
# 6 0.0000 0.0000 0.0000 0.0000 0.0000 61.4532
#
#
#
# Elastic Compliance Matrix: (Units=1/GPa)
#
#
# Indices 1 2 3 4 5 6 
#
# 1 0.035287 -0.011584 -0.002849 0.000000 0.000000 0.000000
# 2 -0.011584 0.015202 -0.004551 0.000000 0.000000 0.000000
# 3 -0.002849 -0.004551 0.010232 0.000000 0.000000 0.000000
# 4 0.000000 0.000000 0.000000 -0.277497 0.000000 0.000000
# 5 0.000000 0.000000 0.000000 0.000000 0.061789 0.000000
# 6 0.000000 0.000000 0.000000 0.000000 0.000000 0.016273
#
#
# Mechanical properties :
#
#
# Convention : Reuss Voigt Hill
#
# Bulk Modulus (GPa) = 43.95419 65.00655 54.48037
# Shear Modulus (GPa) = -53.67063 25.36340 -14.15361
#
# Velocity S-wave (km/s) = -5.20047 3.57502 -2.67059
# Velocity P-wave (km/s) = 3.72976 7.05678 4.23598
#
# Compressibility (1/GPa) = 0.02275096
#
# Stress axis : x y z
#
# Youngs Moduli (GPa) = 28.33934 65.78023 97.73080
#
# Poissons Ratio (x) = 0.76203 0.27846
# Poissons Ratio (y) = 0.32829 0.44480
# Poissons Ratio (z) = 0.08075 0.29939
#
# Static dielectric constant tensor:
#      x y z
#    x 3.529390 0.000000 0.000000 
#    y 0.000000 3.938700 0.000000 
#    z 0.000000 0.000000 3.993590 
# 
# 
# High freq. dielectric constant tensor:
#      x y z
#    x 1.774560 0.000000 0.000000 
#    y 0.000000 1.791700 0.000000 
#    z 0.000000 0.000000 1.779680 
# 
# From -- ./inp_files/20620.got.cif
#   From: 2010.06.25/outbox.cif.g09.slc.cpg/sg52_11_cif.got.tgz:20620.got - 2010.06.26 19:32:48.
