data_PCOD8217614
_publ_section_title
;
Structure prediction by ZEFSAII (Michael W. Deem and Ramdas Pophale) SiO2 
 PCOD8217614
Probable space group: P M N A
;
_chemical_formula_sum "Si O2"
_cell_formula_units_Z 64
_cell_length_a 8.720436
_cell_length_b 14.604707
_cell_length_c 30.382728
_cell_angle_alpha 90.000000
_cell_angle_beta 90.000000
_cell_angle_gamma 90.000000
_cell_volume 3869.526394
_symmetry_space_group_name_H-M "P M N A"
_symmetry_group_IT_number 53
_symmetry_cell_setting 'orthorhombic'
loop_
_space_group_symop_operation_xyz
x,y,z
1/2-x,-y,1/2+z
x,-y,-z
1/2-x,y,1/2-z
-x,-y,-z
1/2+x,y,1/2-z
-x,y,z
1/2+x,-y,1/2+z
loop_
_atom_site_type_symbol
_atom_site_label
_atom_site_fract_x
_atom_site_fract_y
_atom_site_fract_z
Si Si1 0.317850 0.933041 0.619565
Si Si2 0.818204 0.758094 0.025254
Si Si3 0.318579 0.751758 0.573485
Si Si4 0.818642 0.857048 0.703240
Si Si5 0.318271 0.445455 0.542879
Si Si6 0.181954 0.427464 0.120333
Si Si7 0.319570 0.647778 0.796402
Si Si8 0.319011 0.052133 0.955449
O O1 0.500000 0.940565 0.621789
O O2 0.256231 0.839867 0.598196
O O3 0.249166 0.930760 0.668680
O O4 0.253856 0.013266 0.589171
O O5 0.767416 0.660541 0.045552
O O6 0.729764 0.842059 0.047236
O O7 0.000000 0.774318 0.029223
O O8 0.758029 0.755568 0.975704
O O9 0.500000 0.747443 0.573666
O O10 0.252437 0.662414 0.596538
O O11 0.750000 0.885623 0.750000
O O12 0.768111 0.752202 0.691751
O O13 0.000000 0.866215 0.704770
O O14 0.250681 0.500000 0.500000
O O15 0.500000 0.452289 0.538825
O O16 0.263481 0.488949 0.589255
O O17 0.258519 0.426687 0.168366
O O18 0.000000 0.426895 0.126192
O O19 0.250000 0.617980 0.750000
O O20 0.500000 0.640790 0.793170
O O21 0.500000 0.042254 0.953061
O O22 0.257818 0.000000 0.000000
#
# Coordination Sequence:
#
# PCOD8217614 Si02
#       8
#     8   8   8   8   8   8   8   8
#     4  11  20  32  51  74  97 130 172 209 248 295
#     4  10  18  32  50  71  97 131 173 211 244 287
#     4   9  16  25  45  71  97 128 165 203 239 283
#     4  10  20  33  49  72 102 133 165 203 247 296
#     4   9  16  27  49  76 100 128 167 208 243 285
#     4  10  17  29  48  73 101 132 166 203 245 290
#     4  10  20  32  47  69  98 132 166 203 245 293
#     4  11  23  35  47  68  99 134 170 210 254 297
#
# _framework density 16.539491000000002
#
# number of rings (size 3 to 8) (size 9 to 14) (size 15 to 20)
#    0.000    2.000    3.750    1.500    0.000    1.500 
#    0.000    1.250    0.000    0.750    0.000    0.875 
#    0.000    2.000    0.000    0.000    0.000    0.000 
#
# Total GULP energy -793330.431485 kJ/mol
# GULP energy per Si atom -12395.787992 kJ/mol
# Density = 1.650185 g / cm^3
# Si number density = 16.539491 Si / 1000 Ang^3
#
#
#
# Elastic Constant Matrix: (Units=GPa)
#
#
# Indices 1 2 3 4 5 6 
#
# 1 51.0838 25.2112 38.1163 0.0000 0.0000 0.0000
# 2 25.2112 101.4450 61.1004 0.0000 0.0000 0.0000
# 3 38.1163 61.1004 139.6800 0.0000 0.0000 0.0000
# 4 0.0000 0.0000 0.0000 3.3516 0.0000 0.0000
# 5 0.0000 0.0000 0.0000 0.0000 23.0768 0.0000
# 6 0.0000 0.0000 0.0000 0.0000 0.0000 16.3430
#
#
#
# Elastic Compliance Matrix: (Units=1/GPa)
#
#
# Indices 1 2 3 4 5 6 
#
# 1 0.025185 -0.002878 -0.005614 0.000000 0.000000 0.000000
# 2 -0.002878 0.013713 -0.005213 0.000000 0.000000 0.000000
# 3 -0.005614 -0.005213 0.010971 0.000000 0.000000 0.000000
# 4 0.000000 0.000000 0.000000 0.298368 0.000000 0.000000
# 5 0.000000 0.000000 0.000000 0.000000 0.043334 0.000000
# 6 0.000000 0.000000 0.000000 0.000000 0.000000 0.061188
#
#
# Mechanical properties :
#
#
# Convention : Reuss Voigt Hill
#
# Bulk Modulus (GPa) = 44.52419 60.11828 52.32124
# Shear Modulus (GPa) = 10.25318 19.73967 14.99643
#
# Velocity S-wave (km/s) = 2.49252 3.45844 3.01442
# Velocity P-wave (km/s) = 5.93818 7.23705 6.61955
#
# Compressibility (1/GPa) = 0.02245970
#
# Stress axis : x y z
#
# Youngs Moduli (GPa) = 39.70692 72.92601 91.14607
#
# Poissons Ratio (x) = 0.20987 0.51166
# Poissons Ratio (y) = 0.11427 0.47514
# Poissons Ratio (z) = 0.22290 0.38016
#
# Static dielectric constant tensor:
#      x y z
#    x 2.853910 0.000000 0.000000 
#    y 0.000000 3.088080 0.000000 
#    z 0.000000 0.000000 3.186760 
# 
# 
# High freq. dielectric constant tensor:
#      x y z
#    x 1.621290 0.000000 0.000000 
#    y 0.000000 1.611880 0.000000 
#    z 0.000000 0.000000 1.635150 
# 
# From -- ./inp_files/38443.got.cif
#   From: 2010.03.12/outbox.cif.g09.slc.cpg/sg53_20_cif.got.tgz:38443.got - 2010.04.16 14:36:59.
