data_PCOD8217916
_publ_section_title
;
Structure prediction by ZEFSAII (Michael W. Deem and Ramdas Pophale) SiO2 
 PCOD8217916
Probable space group: P M N A
;
_chemical_formula_sum "Si O2"
_cell_formula_units_Z 64
_cell_length_a 8.691969
_cell_length_b 25.342277
_cell_length_c 14.325635
_cell_angle_alpha 90.000000
_cell_angle_beta 90.000000
_cell_angle_gamma 90.000000
_cell_volume 3155.569022
_symmetry_space_group_name_H-M "P M N A"
_symmetry_group_IT_number 53
_symmetry_cell_setting 'orthorhombic'
loop_
_space_group_symop_operation_xyz
x,y,z
1/2-x,-y,1/2+z
x,-y,-z
1/2-x,y,1/2-z
-x,-y,-z
1/2+x,y,1/2-z
-x,y,z
1/2+x,-y,1/2+z
loop_
_atom_site_type_symbol
_atom_site_label
_atom_site_fract_x
_atom_site_fract_y
_atom_site_fract_z
Si Si1 0.816438 0.919847 0.646809
Si Si2 0.819441 0.866361 0.350167
Si Si3 0.319491 0.818022 0.962460
Si Si4 0.181705 0.616184 0.533998
Si Si5 0.682799 0.717533 0.852548
Si Si6 0.319167 0.528043 0.653690
Si Si7 0.680867 0.593699 0.346504
Si Si8 0.683181 0.025783 0.646512
O O1 0.750000 0.913546 0.750000
O O2 0.754681 0.869767 0.589145
O O3 0.000000 0.924086 0.649707
O O4 0.747205 0.972727 0.596619
O O5 0.750000 0.850247 0.250000
O O6 0.782401 0.820777 0.426391
O O7 0.747831 0.919651 0.395402
O O8 0.000000 0.875197 0.336857
O O9 0.500000 0.817096 0.946678
O O10 0.250075 0.765091 0.916515
O O11 0.238996 0.663116 0.600962
O O12 0.249870 0.560869 0.568701
O O13 0.245025 0.627075 0.430285
O O14 0.000000 0.612696 0.530692
O O15 0.750000 0.722720 0.750000
O O16 0.500000 0.719401 0.846587
O O17 0.250000 0.550255 0.750000
O O18 0.500000 0.536047 0.655370
O O19 0.272249 0.467385 0.639998
O O20 0.750000 0.615521 0.250000
O O21 0.500000 0.601838 0.345663
O O22 0.750000 0.023864 0.750000
O O23 0.500000 0.025901 0.644809
#
# Coordination Sequence:
#
# PCOD8217916 Si02
#       8
#     8   8   8   8   8   8   8   8
#     4  10  18  31  51  76 104 138 175 212 258 314
#     4  10  19  35  56  77 102 135 173 215 260 312
#     4   9  20  37  57  77 103 139 177 217 267 321
#     4  11  22  35  56  83 114 151 190 231 277 331
#     4  10  22  41  61  84 111 142 179 223 273 321
#     4  10  20  34  54  82 116 152 190 233 280 332
#     4  10  21  37  57  82 115 152 190 232 278 328
#     4  10  18  30  48  74 107 139 169 209 258 311
#
# _framework density 20.281603
#
# number of rings (size 3 to 8) (size 9 to 14) (size 15 to 20)
#    0.000    2.000    0.000    5.625    0.000    5.500 
#    0.000    7.500    0.000    1.500    0.000    0.000 
#    0.000    0.000    0.000    0.000    0.000    0.000 
#
# Total GULP energy -793532.770765 kJ/mol
# GULP energy per Si atom -12398.949543 kJ/mol
# Density = 2.023544 g / cm^3
# Si number density = 20.281603 Si / 1000 Ang^3
#
#
#
# Elastic Constant Matrix: (Units=GPa)
#
#
# Indices 1 2 3 4 5 6 
#
# 1 87.2226 30.5730 33.0273 0.0000 0.0000 0.0000
# 2 30.5730 77.0137 48.0056 0.0000 0.0000 0.0000
# 3 33.0273 48.0056 122.6527 0.0000 0.0000 0.0000
# 4 0.0000 0.0000 0.0000 32.9530 0.0000 0.0000
# 5 0.0000 0.0000 0.0000 0.0000 32.7638 0.0000
# 6 0.0000 0.0000 0.0000 0.0000 0.0000 19.6547
#
#
#
# Elastic Compliance Matrix: (Units=1/GPa)
#
#
# Indices 1 2 3 4 5 6 
#
# 1 0.013702 -0.004153 -0.002064 0.000000 0.000000 0.000000
# 2 -0.004153 0.018433 -0.006097 0.000000 0.000000 0.000000
# 3 -0.002064 -0.006097 0.011095 0.000000 0.000000 0.000000
# 4 0.000000 0.000000 0.000000 0.030346 0.000000 0.000000
# 5 0.000000 0.000000 0.000000 0.000000 0.030521 0.000000
# 6 0.000000 0.000000 0.000000 0.000000 0.000000 0.050878
#
#
# Mechanical properties :
#
#
# Convention : Reuss Voigt Hill
#
# Bulk Modulus (GPa) = 53.75299 56.67787 55.21543
# Shear Modulus (GPa) = 26.90992 28.75986 27.83489
#
# Velocity S-wave (km/s) = 3.64650 3.76976 3.70864
# Velocity P-wave (km/s) = 6.65508 6.85231 6.75442
#
# Compressibility (1/GPa) = 0.01860362
#
# Stress axis : x y z
#
# Youngs Moduli (GPa) = 72.98108 54.24917 90.12985
#
# Poissons Ratio (x) = 0.22528 0.18605
# Poissons Ratio (y) = 0.30307 0.54948
# Poissons Ratio (z) = 0.15065 0.33073
#
# Static dielectric constant tensor:
#      x y z
#    x 3.548370 0.000000 0.000000 
#    y 0.000000 4.004790 0.000000 
#    z 0.000000 0.000000 3.755910 
# 
# 
# High freq. dielectric constant tensor:
#      x y z
#    x 1.787240 0.000000 0.000000 
#    y 0.000000 1.777960 0.000000 
#    z 0.000000 0.000000 1.799890 
# 
# From -- ./inp_files/20807.got.cif
#   From: 2010.03.12/outbox.cif.g09.slc.cpg/sg53_11_cif.got.tgz:20807.got - 2010.04.16 14:36:59.
