data_PCOD8217188
_publ_section_title
;
Structure prediction by ZEFSAII (Michael W. Deem and Ramdas Pophale) SiO2 
 PCOD8217188
Probable space group: P N N A
;
_chemical_formula_sum "Si O2"
_cell_formula_units_Z 32
_cell_length_a 19.187847
_cell_length_b 15.648547
_cell_length_c 4.872991
_cell_angle_alpha 90.000000
_cell_angle_beta 90.000000
_cell_angle_gamma 90.000000
_cell_volume 1463.173661
_symmetry_space_group_name_H-M "P N N A"
_symmetry_group_IT_number 52
_symmetry_cell_setting 'orthorhombic'
loop_
_space_group_symop_operation_xyz
x,y,z
1/2-x,-y,z
x,1/2-y,1/2-z
1/2-x,1/2+y,1/2-z
-x,-y,-z
1/2+x,y,-z
-x,1/2+y,1/2+z
1/2+x,1/2-y,1/2+z
loop_
_atom_site_type_symbol
_atom_site_label
_atom_site_fract_x
_atom_site_fract_y
_atom_site_fract_z
Si Si1 0.736052 0.657287 0.145237
Si Si2 0.454121 0.528867 0.244152
Si Si3 0.613387 0.307277 0.997545
Si Si4 0.690423 0.563134 0.662027
O O1 0.716046 0.750000 0.250000
O O2 0.702859 0.586761 0.346321
O O3 0.820132 0.644420 0.130431
O O4 0.698735 0.646819 0.851769
O O5 0.500000 0.500000 0.500000
O O6 0.439682 0.628474 0.160930
O O7 0.382809 0.480187 0.287822
O O8 0.500000 0.500000 0.000000
O O9 0.643238 0.250000 0.750000
O O10 0.579410 0.250000 0.250000
O O11 0.750000 0.500000 0.768749
#
# Coordination Sequence:
#
# PCOD8217188 Si02
#       4
#     8   8   8   8
#     4  11  23  40  69 104 135 171 229 295 346 398
#     4  12  27  46  68 103 146 187 232 283 352 425
#     4  11  23  43  72 100 135 183 239 289 348 425
#     4  12  24  42  70 100 134 175 231 285 345 401
#
# _framework density 21.870266999999998
#
# number of rings (size 3 to 8) (size 9 to 14) (size 15 to 20)
#    0.000    0.500    2.500    7.500    3.500    0.000 
#    0.000   12.500    0.000    0.000    0.000    0.000 
#    0.000    0.000    0.000    0.000    0.000    0.000 
#
# Total GULP energy -396431.286302 kJ/mol
# GULP energy per Si atom -12388.477697 kJ/mol
# Density = 2.182049 g / cm^3
# Si number density = 21.870267 Si / 1000 Ang^3
#
#
#
# Elastic Constant Matrix: (Units=GPa)
#
#
# Indices 1 2 3 4 5 6 
#
# 1 147.0451 56.7619 55.9131 0.0000 0.0000 0.0000
# 2 56.7619 100.2800 48.8359 0.0000 0.0000 0.0000
# 3 55.9131 48.8359 154.6866 0.0000 0.0000 0.0000
# 4 0.0000 0.0000 0.0000 28.5453 0.0000 0.0000
# 5 0.0000 0.0000 0.0000 0.0000 43.7672 0.0000
# 6 0.0000 0.0000 0.0000 0.0000 0.0000 27.3277
#
#
#
# Elastic Compliance Matrix: (Units=1/GPa)
#
#
# Indices 1 2 3 4 5 6 
#
# 1 0.009190 -0.004235 -0.001985 0.000000 0.000000 0.000000
# 2 -0.004235 0.013736 -0.002806 0.000000 0.000000 0.000000
# 3 -0.001985 -0.002806 0.008068 0.000000 0.000000 0.000000
# 4 0.000000 0.000000 0.000000 0.035032 0.000000 0.000000
# 5 0.000000 0.000000 0.000000 0.000000 0.022848 0.000000
# 6 0.000000 0.000000 0.000000 0.000000 0.000000 0.036593
#
#
# Mechanical properties :
#
#
# Convention : Reuss Voigt Hill
#
# Bulk Modulus (GPa) = 77.26558 80.55928 78.91243
# Shear Modulus (GPa) = 33.82204 35.96144 34.89174
#
# Velocity S-wave (km/s) = 3.93680 4.05941 3.99857
# Velocity P-wave (km/s) = 7.48801 7.67377 7.58146
#
# Compressibility (1/GPa) = 0.01294237
#
# Stress axis : x y z
#
# Youngs Moduli (GPa) = 108.81062 72.80263 123.94907
#
# Poissons Ratio (x) = 0.30835 0.24601
# Poissons Ratio (y) = 0.46086 0.34775
# Poissons Ratio (z) = 0.21596 0.20425
#
# Static dielectric constant tensor:
#      x y z
#    x 4.157560 0.000000 0.000000 
#    y 0.000000 4.060300 0.000000 
#    z 0.000000 0.000000 4.328010 
# 
# 
# High freq. dielectric constant tensor:
#      x y z
#    x 1.836820 0.000000 0.000000 
#    y 0.000000 1.864820 0.000000 
#    z 0.000000 0.000000 1.892580 
# 
# From -- ./inp_files/2990.got.cif
#   From: 2010.06.25/outbox.cif.g09.slc.cpg/sg52_2_cif.got.tgz:2990.got - 2010.06.26 19:32:48.
