data_PCOD8217782
_publ_section_title
;
Structure prediction by ZEFSAII (Michael W. Deem and Ramdas Pophale) SiO2 
 PCOD8217782
Probable space group: P M N A
;
_chemical_formula_sum "Si O2"
_cell_formula_units_Z 40
_cell_length_a 9.251002
_cell_length_b 12.466386
_cell_length_c 19.860970
_cell_angle_alpha 90.000000
_cell_angle_beta 90.000000
_cell_angle_gamma 90.000000
_cell_volume 2290.497384
_symmetry_space_group_name_H-M "P M N A"
_symmetry_group_IT_number 53
_symmetry_cell_setting 'orthorhombic'
loop_
_space_group_symop_operation_xyz
x,y,z
1/2-x,-y,1/2+z
x,-y,-z
1/2-x,y,1/2-z
-x,-y,-z
1/2+x,y,1/2-z
-x,y,z
1/2+x,-y,1/2+z
loop_
_atom_site_type_symbol
_atom_site_label
_atom_site_fract_x
_atom_site_fract_y
_atom_site_fract_z
Si Si1 0.659842 0.468169 0.922181
Si Si2 0.165034 0.724947 0.042337
Si Si3 0.335152 0.964022 0.425693
Si Si4 0.831760 0.300879 0.406484
Si Si5 0.330817 0.898886 0.819360
O O1 0.500000 0.432979 0.898300
O O2 0.766866 0.368440 0.910635
O O3 0.710227 0.577251 0.883677
O O4 0.659052 0.500000 0.000000
O O5 0.178552 0.836053 0.082325
O O6 0.000000 0.694287 0.028025
O O7 0.242535 0.737806 0.970842
O O8 0.500000 0.001765 0.411882
O O9 0.287318 0.000000 0.500000
O O10 0.226905 0.015916 0.372898
O O11 0.798768 0.221732 0.344822
O O12 0.000000 0.297709 0.427534
O O13 0.250000 0.917486 0.750000
O O14 0.500000 0.919086 0.808872
#
# Coordination Sequence:
#
# PCOD8217782 Si02
#       5
#     8   8   8   8   8
#     4   8  15  28  45  68 101 133 163 202 250 303
#     4  10  18  28  48  77 105 133 168 213 260 303
#     4  10  20  35  53  76 108 141 175 221 268 310
#     4   9  18  32  49  71 101 136 170 208 256 312
#     4  11  23  37  55  77 104 139 179 219 265 322
#
# _framework density 17.463455
#
# number of rings (size 3 to 8) (size 9 to 14) (size 15 to 20)
#    0.000    2.400    2.000    2.400    0.000    6.400 
#    0.000    0.000    0.000    1.200    0.000    5.600 
#    0.000    0.000    0.000    0.000    0.000    0.000 
#
# Total GULP energy -495904.578481 kJ/mol
# GULP energy per Si atom -12397.614462 kJ/mol
# Density = 1.742371 g / cm^3
# Si number density = 17.463455 Si / 1000 Ang^3
#
#
#
# Elastic Constant Matrix: (Units=GPa)
#
#
# Indices 1 2 3 4 5 6 
#
# 1 103.8435 59.0111 50.9725 0.0000 0.0000 0.0000
# 2 59.0111 116.7451 42.9235 0.0000 0.0000 0.0000
# 3 50.9725 42.9235 77.3464 0.0000 0.0000 0.0000
# 4 0.0000 0.0000 0.0000 17.3119 0.0000 0.0000
# 5 0.0000 0.0000 0.0000 0.0000 19.2893 0.0000
# 6 0.0000 0.0000 0.0000 0.0000 0.0000 32.2782
#
#
#
# Elastic Compliance Matrix: (Units=1/GPa)
#
#
# Indices 1 2 3 4 5 6 
#
# 1 0.016641 -0.005502 -0.007913 0.000000 0.000000 0.000000
# 2 -0.005502 0.012581 -0.003356 0.000000 0.000000 0.000000
# 3 -0.007913 -0.003356 0.020006 0.000000 0.000000 0.000000
# 4 0.000000 0.000000 0.000000 0.057764 0.000000 0.000000
# 5 0.000000 0.000000 0.000000 0.000000 0.051842 0.000000
# 6 0.000000 0.000000 0.000000 0.000000 0.000000 0.030981
#
#
# Mechanical properties :
#
#
# Convention : Reuss Voigt Hill
#
# Bulk Modulus (GPa) = 63.75282 67.08324 65.41803
# Shear Modulus (GPa) = 21.87377 23.44438 22.65908
#
# Velocity S-wave (km/s) = 3.54297 3.66797 3.60601
# Velocity P-wave (km/s) = 7.30223 7.51236 7.40804
#
# Compressibility (1/GPa) = 0.01568558
#
# Stress axis : x y z
#
# Youngs Moduli (GPa) = 60.09348 79.48785 49.98496
#
# Poissons Ratio (x) = 0.43734 0.39554
# Poissons Ratio (y) = 0.33063 0.16773
# Poissons Ratio (z) = 0.47553 0.26674
#
# Static dielectric constant tensor:
#      x y z
#    x 3.339590 0.000000 0.000000 
#    y 0.000000 3.715970 0.000000 
#    z 0.000000 0.000000 2.888440 
# 
# 
# High freq. dielectric constant tensor:
#      x y z
#    x 1.682310 0.000000 0.000000 
#    y 0.000000 1.692530 0.000000 
#    z 0.000000 0.000000 1.619460 
# 
# From -- ./inp_files/19904.got.cif
#   From: 2010.03.12/outbox.cif.g09.slc.cpg/sg53_10_cif.got.tgz:19904.got - 2010.04.16 14:36:59.
