data_PCOD8217365
_publ_section_title
;
Structure prediction by ZEFSAII (Michael W. Deem and Ramdas Pophale) SiO2 
 PCOD8217365
Probable space group: P N N A
;
_chemical_formula_sum "Si O2"
_cell_formula_units_Z 40
_cell_length_a 9.172918
_cell_length_b 10.704276
_cell_length_c 19.892829
_cell_angle_alpha 90.000000
_cell_angle_beta 90.000000
_cell_angle_gamma 90.000000
_cell_volume 1953.265859
_symmetry_space_group_name_H-M "P N N A"
_symmetry_group_IT_number 52
_symmetry_cell_setting 'orthorhombic'
loop_
_space_group_symop_operation_xyz
x,y,z
1/2-x,-y,z
x,1/2-y,1/2-z
1/2-x,1/2+y,1/2-z
-x,-y,-z
1/2+x,y,-z
-x,1/2+y,1/2+z
1/2+x,1/2-y,1/2+z
loop_
_atom_site_type_symbol
_atom_site_label
_atom_site_fract_x
_atom_site_fract_y
_atom_site_fract_z
Si Si1 0.546462 0.835435 0.856868
Si Si2 0.008263 0.570913 0.720603
Si Si3 0.250000 0.000000 0.680678
Si Si4 0.628785 0.904654 0.994420
Si Si5 0.283171 0.268142 0.631355
Si Si6 0.237733 0.250000 0.250000
O O1 0.594910 0.810291 0.933566
O O2 0.377170 0.807215 0.846963
O O3 0.655291 0.749651 0.813985
O O4 0.558501 0.980742 0.836211
O O5 0.105671 0.489551 0.772506
O O6 0.105398 0.680907 0.687426
O O7 0.866668 0.629487 0.756573
O O8 0.221128 0.882046 0.632024
O O9 0.750000 0.000000 0.972273
O O10 0.668585 0.822654 0.059493
O O11 0.500000 0.000000 0.000000
#
# Coordination Sequence:
#
# PCOD8217365 Si02
#       6
#     8   8   4   8   8   4
#     4  12  25  43  71 102 136 177 226 291 343 402
#     4  12  22  43  69 101 134 179 234 285 341 410
#     4  12  24  40  72  94 142 180 228 274 342 432
#     4  12  23  43  73 101 131 172 237 289 330 399
#     4  12  24  44  69 100 135 188 228 279 348 413
#     4  12  26  38  66 108 142 166 220 294 362 396
#
# _framework density 20.478522999999999
#
# number of rings (size 3 to 8) (size 9 to 14) (size 15 to 20)
#    0.000    0.000    8.000    3.000    0.000    0.000 
#    0.000    1.000    4.400    0.000    0.000    0.000 
#    0.000    0.000    0.000    0.000    0.000    0.000 
#
# Total GULP energy -495757.257941 kJ/mol
# GULP energy per Si atom -12393.931449 kJ/mol
# Density = 2.043191 g / cm^3
# Si number density = 20.478523 Si / 1000 Ang^3
#
#
#
# Elastic Constant Matrix: (Units=GPa)
#
#
# Indices 1 2 3 4 5 6 
#
# 1 150.7396 43.0188 63.8468 0.0000 0.0000 0.0000
# 2 43.0188 109.8601 43.1089 0.0000 0.0000 0.0000
# 3 63.8468 43.1089 115.7795 0.0000 0.0000 0.0000
# 4 0.0000 0.0000 0.0000 -4.1679 0.0000 0.0000
# 5 0.0000 0.0000 0.0000 0.0000 33.3144 0.0000
# 6 0.0000 0.0000 0.0000 0.0000 0.0000 44.9151
#
#
#
# Elastic Compliance Matrix: (Units=1/GPa)
#
#
# Indices 1 2 3 4 5 6 
#
# 1 0.008962 -0.001839 -0.004257 0.000000 0.000000 0.000000
# 2 -0.001839 0.011037 -0.003096 0.000000 0.000000 0.000000
# 3 -0.004257 -0.003096 0.012138 0.000000 0.000000 0.000000
# 4 0.000000 0.000000 0.000000 -0.239931 0.000000 0.000000
# 5 0.000000 0.000000 0.000000 0.000000 0.030017 0.000000
# 6 0.000000 0.000000 0.000000 0.000000 0.000000 0.022264
#
#
# Mechanical properties :
#
#
# Convention : Reuss Voigt Hill
#
# Bulk Modulus (GPa) = 72.71072 75.14757 73.92914
# Shear Modulus (GPa) = -37.72309 29.90596 -3.90856
#
# Velocity S-wave (km/s) = -4.29660 3.82561 -1.38303
# Velocity P-wave (km/s) = 3.31188 7.50261 5.79904
#
# Compressibility (1/GPa) = 0.01375313
#
# Stress axis : x y z
#
# Youngs Moduli (GPa) = 111.58250 90.60282 82.38917
#
# Poissons Ratio (x) = 0.16659 0.35077
# Poissons Ratio (y) = 0.20516 0.25504
# Poissons Ratio (z) = 0.47506 0.28047
#
# Static dielectric constant tensor:
#      x y z
#    x 4.138180 0.000000 0.000000 
#    y 0.000000 3.730950 0.000000 
#    z 0.000000 0.000000 3.485760 
# 
# 
# High freq. dielectric constant tensor:
#      x y z
#    x 1.829870 0.000000 0.000000 
#    y 0.000000 1.786170 0.000000 
#    z 0.000000 0.000000 1.791350 
# 
# From -- ./inp_files/30926.got.cif
#   From: 2010.06.25/outbox.cif.g09.slc.cpg/sg52_16_cif.got.tgz:30926.got - 2010.06.26 19:32:48.
