data_PCOD8217021
_publ_section_title
;
Structure prediction by ZEFSAII (Michael W. Deem and Ramdas Pophale) SiO2 
 PCOD8217021
Probable space group: P N N A
;
_chemical_formula_sum "Si O2"
_cell_formula_units_Z 48
_cell_length_a 21.314327
_cell_length_b 10.992495
_cell_length_c 10.048313
_cell_angle_alpha 90.000000
_cell_angle_beta 90.000000
_cell_angle_gamma 90.000000
_cell_volume 2354.295951
_symmetry_space_group_name_H-M "P N N A"
_symmetry_group_IT_number 52
_symmetry_cell_setting 'orthorhombic'
loop_
_space_group_symop_operation_xyz
x,y,z
1/2-x,-y,z
x,1/2-y,1/2-z
1/2-x,1/2+y,1/2-z
-x,-y,-z
1/2+x,y,-z
-x,1/2+y,1/2+z
1/2+x,1/2-y,1/2+z
loop_
_atom_site_type_symbol
_atom_site_label
_atom_site_fract_x
_atom_site_fract_y
_atom_site_fract_z
Si Si1 0.911686 0.608945 0.249668
Si Si2 0.997360 0.074175 0.367749
Si Si3 0.884144 0.260967 0.102461
Si Si4 0.423169 0.493355 0.491415
Si Si5 0.127979 0.116068 0.273601
Si Si6 0.178612 0.996338 0.526152
O O1 0.929201 0.750000 0.250000
O O2 0.974679 0.525414 0.240563
O O3 0.889075 0.578755 0.398432
O O4 0.862494 0.571916 0.134297
O O5 0.953007 0.188655 0.373510
O O6 0.063284 0.137703 0.348955
O O7 0.000000 0.000000 0.500000
O O8 0.852745 0.250000 0.250000
O O9 0.894479 0.139882 0.018092
O O10 0.842901 0.356105 0.018674
O O11 0.500000 0.500000 0.500000
O O12 0.390690 0.537052 0.355057
O O13 0.157545 0.250000 0.250000
O O14 0.174018 0.046789 0.375573
O O15 0.250000 0.000000 0.574526
#
# Coordination Sequence:
#
# PCOD8217021 Si02
#       6
#     8   8   8   8   8   8
#     4  11  23  40  64  99 130 166 223 267 327 399
#     4  11  20  36  65  95 135 176 201 265 342 410
#     4  11  21  42  66  97 135 166 220 274 332 396
#     4  12  23  36  67 107 133 166 204 268 350 413
#     4  12  24  42  64  97 138 168 211 272 341 395
#     4  11  26  49  68  86 128 185 232 276 322 374
#
# _framework density 20.388262000000001
#
# number of rings (size 3 to 8) (size 9 to 14) (size 15 to 20)
#    0.000    0.667    8.333    2.500    2.333    1.333 
#    3.000    0.833    0.000    0.000    0.000    0.000 
#    0.000    0.000    0.000    0.000    0.000    0.000 
#
# Total GULP energy -594663.632888 kJ/mol
# GULP energy per Si atom -12388.825685 kJ/mol
# Density = 2.034186 g / cm^3
# Si number density = 20.388262 Si / 1000 Ang^3
#
#
#
# Elastic Constant Matrix: (Units=GPa)
#
#
# Indices 1 2 3 4 5 6 
#
# 1 56.9358 13.6537 7.5158 0.0000 0.0000 0.0000
# 2 13.6537 140.6620 34.2678 0.0000 0.0000 0.0000
# 3 7.5158 34.2678 125.8743 0.0000 0.0000 0.0000
# 4 0.0000 0.0000 0.0000 41.3396 0.0000 0.0000
# 5 0.0000 0.0000 0.0000 0.0000 1.4413 0.0000
# 6 0.0000 0.0000 0.0000 0.0000 0.0000 4.3090
#
#
#
# Elastic Compliance Matrix: (Units=1/GPa)
#
#
# Indices 1 2 3 4 5 6 
#
# 1 0.018031 -0.001594 -0.000643 0.000000 0.000000 0.000000
# 2 -0.001594 0.007755 -0.002016 0.000000 0.000000 0.000000
# 3 -0.000643 -0.002016 0.008532 0.000000 0.000000 0.000000
# 4 0.000000 0.000000 0.000000 0.024190 0.000000 0.000000
# 5 0.000000 0.000000 0.000000 0.000000 0.693814 0.000000
# 6 0.000000 0.000000 0.000000 0.000000 0.000000 0.232071
#
#
# Mechanical properties :
#
#
# Convention : Reuss Voigt Hill
#
# Bulk Modulus (GPa) = 38.74088 48.26076 43.50082
# Shear Modulus (GPa) = 4.99251 27.28698 16.13974
#
# Velocity S-wave (km/s) = 1.56654 3.66234 2.81663
# Velocity P-wave (km/s) = 4.72386 6.45026 5.65335
#
# Compressibility (1/GPa) = 0.02581252
#
# Stress axis : x y z
#
# Youngs Moduli (GPa) = 55.46114 128.94767 117.21043
#
# Poissons Ratio (x) = 0.20549 0.07534
# Poissons Ratio (y) = 0.08838 0.23631
# Poissons Ratio (z) = 0.03565 0.25997
#
# Static dielectric constant tensor:
#      x y z
#    x 3.315560 0.000000 0.000000 
#    y 0.000000 3.696250 0.000000 
#    z 0.000000 0.000000 4.134480 
# 
# 
# High freq. dielectric constant tensor:
#      x y z
#    x 1.754190 0.000000 0.000000 
#    y 0.000000 1.811040 0.000000 
#    z 0.000000 0.000000 1.816710 
# 
# From -- ./inp_files/14230.got.cif
#   From: 2010.06.25/outbox.cif.g09.slc.cpg/sg52_8_cif.got.tgz:14230.got - 2010.06.26 19:32:48.
