data_PCOD8217877
_publ_section_title
;
Structure prediction by ZEFSAII (Michael W. Deem and Ramdas Pophale) SiO2 
 PCOD8217877
Probable space group: P M N A
;
_chemical_formula_sum "Si O2"
_cell_formula_units_Z 44
_cell_length_a 9.268717
_cell_length_b 11.471818
_cell_length_c 23.821162
_cell_angle_alpha 90.000000
_cell_angle_beta 90.000000
_cell_angle_gamma 90.000000
_cell_volume 2532.881157
_symmetry_space_group_name_H-M "P M N A"
_symmetry_group_IT_number 53
_symmetry_cell_setting 'orthorhombic'
loop_
_space_group_symop_operation_xyz
x,y,z
1/2-x,-y,1/2+z
x,-y,-z
1/2-x,y,1/2-z
-x,-y,-z
1/2+x,y,1/2-z
-x,y,z
1/2+x,-y,1/2+z
loop_
_atom_site_type_symbol
_atom_site_label
_atom_site_fract_x
_atom_site_fract_y
_atom_site_fract_z
Si Si1 0.663369 0.695188 0.415513
Si Si2 0.660648 0.358416 0.199066
Si Si3 0.328526 0.133183 0.990464
Si Si4 0.162554 0.690822 0.580018
Si Si5 0.742124 0.500000 0.500000
Si Si6 0.836220 0.366704 0.696373
O O1 0.500000 0.727672 0.398810
O O2 0.743225 0.810970 0.438479
O O3 0.652306 0.591359 0.461949
O O4 0.750799 0.658528 0.360638
O O5 0.750000 0.302529 0.250000
O O6 0.500000 0.306498 0.203037
O O7 0.740703 0.325239 0.140169
O O8 0.653908 0.496242 0.204320
O O9 0.500000 0.150197 0.980812
O O10 0.272534 0.200522 0.046029
O O11 0.285674 0.000000 0.000000
O O12 0.161555 0.573521 0.543017
O O13 0.000000 0.719118 0.595665
O O14 0.750000 0.313020 0.750000
O O15 0.000000 0.315301 0.693662
#
# Coordination Sequence:
#
# PCOD8217877 Si02
#       6
#     8   8   8   8   4   8
#     4  11  21  32  49  74 104 135 165 207 253 302
#     4   9  17  29  44  68  97 130 160 192 236 289
#     4   9  19  35  54  74  95 128 172 214 256 300
#     4   9  16  28  49  72  97 126 161 204 248 298
#     4  10  18  30  44  70 103 132 163 198 247 302
#     4  10  19  32  49  72 102 136 168 201 244 296
#
# _framework density 17.371521999999999
#
# number of rings (size 3 to 8) (size 9 to 14) (size 15 to 20)
#    0.000    2.364    1.818    1.636    0.000    2.545 
#    0.000    0.909    0.000    1.091    0.000    2.545 
#    0.000    0.000    0.000    0.000    0.000    0.000 
#
# Total GULP energy -545142.160069 kJ/mol
# GULP energy per Si atom -12389.594547 kJ/mol
# Density = 1.733198 g / cm^3
# Si number density = 17.371522 Si / 1000 Ang^3
#
#
#
# Elastic Constant Matrix: (Units=GPa)
#
#
# Indices 1 2 3 4 5 6 
#
# 1 94.8143 20.2342 49.7882 0.0000 0.0000 0.0000
# 2 20.2342 74.5860 29.0161 0.0000 0.0000 0.0000
# 3 49.7882 29.0161 143.0565 0.0000 0.0000 0.0000
# 4 0.0000 0.0000 0.0000 16.5633 0.0000 0.0000
# 5 0.0000 0.0000 0.0000 0.0000 28.1962 0.0000
# 6 0.0000 0.0000 0.0000 0.0000 0.0000 13.5952
#
#
#
# Elastic Compliance Matrix: (Units=1/GPa)
#
#
# Indices 1 2 3 4 5 6 
#
# 1 0.013159 -0.001941 -0.004186 0.000000 0.000000 0.000000
# 2 -0.001941 0.014842 -0.002335 0.000000 0.000000 0.000000
# 3 -0.004186 -0.002335 0.008921 0.000000 0.000000 0.000000
# 4 0.000000 0.000000 0.000000 0.060375 0.000000 0.000000
# 5 0.000000 0.000000 0.000000 0.000000 0.035466 0.000000
# 6 0.000000 0.000000 0.000000 0.000000 0.000000 0.073555
#
#
# Mechanical properties :
#
#
# Convention : Reuss Voigt Hill
#
# Bulk Modulus (GPa) = 50.00557 56.72597 53.36577
# Shear Modulus (GPa) = 21.74777 25.89882 23.82330
#
# Velocity S-wave (km/s) = 3.54209 3.86538 3.70726
# Velocity P-wave (km/s) = 6.75107 7.25583 7.00799
#
# Compressibility (1/GPa) = 0.01999777
#
# Stress axis : x y z
#
# Youngs Moduli (GPa) = 75.99111 67.37485 112.09876
#
# Poissons Ratio (x) = 0.13081 0.46926
# Poissons Ratio (y) = 0.14753 0.26173
# Poissons Ratio (z) = 0.31811 0.15731
#
# Static dielectric constant tensor:
#      x y z
#    x 3.225190 0.000000 0.000000 
#    y 0.000000 2.936990 0.000000 
#    z 0.000000 0.000000 3.625070 
# 
# 
# High freq. dielectric constant tensor:
#      x y z
#    x 1.658850 0.000000 0.000000 
#    y 0.000000 1.626260 0.000000 
#    z 0.000000 0.000000 1.685320 
# 
# From -- ./inp_files/33782.got.cif
#   From: 2010.03.12/outbox.cif.g09.slc.cpg/sg53_17_cif.got.tgz:33782.got - 2010.04.16 14:36:59.
