data_PCOD8217721
_publ_section_title
;
Structure prediction by ZEFSAII (Michael W. Deem and Ramdas Pophale) SiO2 
 PCOD8217721
Probable space group: P M N A
;
_chemical_formula_sum "Si O2"
_cell_formula_units_Z 64
_cell_length_a 8.840775
_cell_length_b 16.986843
_cell_length_c 26.917595
_cell_angle_alpha 90.000000
_cell_angle_beta 90.000000
_cell_angle_gamma 90.000000
_cell_volume 4042.399813
_symmetry_space_group_name_H-M "P M N A"
_symmetry_group_IT_number 53
_symmetry_cell_setting 'orthorhombic'
loop_
_space_group_symop_operation_xyz
x,y,z
1/2-x,-y,1/2+z
x,-y,-z
1/2-x,y,1/2-z
-x,-y,-z
1/2+x,y,1/2-z
-x,y,z
1/2+x,-y,1/2+z
loop_
_atom_site_type_symbol
_atom_site_label
_atom_site_fract_x
_atom_site_fract_y
_atom_site_fract_z
Si Si1 0.171131 0.405347 0.042783
Si Si2 0.325427 0.337617 0.947861
Si Si3 0.669825 0.715770 0.628237
Si Si4 0.821918 0.175658 0.963589
Si Si5 0.180233 0.420170 0.196258
Si Si6 0.670992 0.020618 0.942412
Si Si7 0.320170 0.864633 0.575677
Si Si8 0.826977 0.519193 0.384578
O O1 0.173387 0.327038 0.075465
O O2 0.274996 0.472127 0.066670
O O3 0.000000 0.437430 0.038220
O O4 0.232936 0.384271 0.989207
O O5 0.500000 0.330893 0.964066
O O6 0.257859 0.251236 0.939447
O O7 0.309431 0.387835 0.896734
O O8 0.500000 0.729751 0.646418
O O9 0.746643 0.660247 0.670386
O O10 0.741905 0.801929 0.617189
O O11 0.766134 0.099719 0.932530
O O12 0.000000 0.184768 0.957526
O O13 0.773578 0.166385 0.021088
O O14 0.250000 0.428887 0.250000
O O15 0.227324 0.495380 0.163209
O O16 0.000000 0.418203 0.198855
O O17 0.500000 0.033339 0.924116
O O18 0.744164 0.948260 0.911970
O O19 0.678475 0.000000 0.000000
O O20 0.500000 0.873872 0.578417
O O21 0.000000 0.497481 0.372862
#
# Coordination Sequence:
#
# PCOD8217721 Si02
#       8
#     8   8   8   8   8   8   8   8
#     4  10  18  30  45  63  88 121 157 190 226 269
#     4  11  21  30  42  62  92 123 153 193 234 269
#     4   8  15  28  45  66  88 115 150 187 225 267
#     4  10  18  28  43  60  83 120 160 192 224 262
#     4  10  20  35  54  71  91 118 149 189 236 282
#     4   9  17  27  38  57  85 116 151 187 224 261
#     4   9  15  27  43  60  84 115 154 190 220 260
#     4  10  21  34  46  65  90 118 152 189 232 278
#
# _framework density 15.832179999999999
#
# number of rings (size 3 to 8) (size 9 to 14) (size 15 to 20)
#    0.000    2.375    1.250    3.375    0.000    5.500 
#    0.000    1.250    0.000    0.000    0.000    0.000 
#    0.000    1.000    0.000    9.250    0.000    3.875 
#
# Total GULP energy -793227.852821 kJ/mol
# GULP energy per Si atom -12394.185200 kJ/mol
# Density = 1.579615 g / cm^3
# Si number density = 15.832180 Si / 1000 Ang^3
#
#
#
# Elastic Constant Matrix: (Units=GPa)
#
#
# Indices 1 2 3 4 5 6 
#
# 1 65.3353 31.0414 25.8705 0.0000 0.0000 0.0000
# 2 31.0414 105.7608 43.9804 0.0000 0.0000 0.0000
# 3 25.8705 43.9804 60.4421 0.0000 0.0000 0.0000
# 4 0.0000 0.0000 0.0000 11.0786 0.0000 0.0000
# 5 0.0000 0.0000 0.0000 0.0000 13.7041 0.0000
# 6 0.0000 0.0000 0.0000 0.0000 0.0000 27.7095
#
#
#
# Elastic Compliance Matrix: (Units=1/GPa)
#
#
# Indices 1 2 3 4 5 6 
#
# 1 0.019143 -0.003171 -0.005886 0.000000 0.000000 0.000000
# 2 -0.003171 0.014083 -0.008890 0.000000 0.000000 0.000000
# 3 -0.005886 -0.008890 0.025533 0.000000 0.000000 0.000000
# 4 0.000000 0.000000 0.000000 0.090264 0.000000 0.000000
# 5 0.000000 0.000000 0.000000 0.000000 0.072971 0.000000
# 6 0.000000 0.000000 0.000000 0.000000 0.000000 0.036089
#
#
# Mechanical properties :
#
#
# Convention : Reuss Voigt Hill
#
# Bulk Modulus (GPa) = 43.73628 48.14697 45.94162
# Shear Modulus (GPa) = 16.57834 19.20818 17.89326
#
# Velocity S-wave (km/s) = 3.23945 3.48693 3.36547
# Velocity P-wave (km/s) = 6.45577 6.83289 6.64701
#
# Compressibility (1/GPa) = 0.02286431
#
# Stress axis : x y z
#
# Youngs Moduli (GPa) = 52.23870 71.00814 39.16476
#
# Poissons Ratio (x) = 0.22515 0.23054
# Poissons Ratio (y) = 0.16563 0.34818
# Poissons Ratio (z) = 0.30750 0.63128
#
# Static dielectric constant tensor:
#      x y z
#    x 3.054700 0.000000 0.000000 
#    y 0.000000 3.256470 0.000000 
#    z 0.000000 0.000000 2.640710 
# 
# 
# High freq. dielectric constant tensor:
#      x y z
#    x 1.613490 0.000000 0.000000 
#    y 0.000000 1.614600 0.000000 
#    z 0.000000 0.000000 1.547130 
# 
# From -- ./inp_files/34511.got.cif
#   From: 2010.03.12/outbox.cif.g09.slc.cpg/sg53_18_cif.got.tgz:34511.got - 2010.04.16 14:36:59.
