data_PCOD8217279
_publ_section_title
;
Structure prediction by ZEFSAII (Michael W. Deem and Ramdas Pophale) SiO2 
 PCOD8217279
Probable space group: P N N A
;
_chemical_formula_sum "Si O2"
_cell_formula_units_Z 36
_cell_length_a 15.162854
_cell_length_b 14.659523
_cell_length_c 7.563491
_cell_angle_alpha 90.000000
_cell_angle_beta 90.000000
_cell_angle_gamma 90.000000
_cell_volume 1681.214345
_symmetry_space_group_name_H-M "P N N A"
_symmetry_group_IT_number 52
_symmetry_cell_setting 'orthorhombic'
loop_
_space_group_symop_operation_xyz
x,y,z
1/2-x,-y,z
x,1/2-y,1/2-z
1/2-x,1/2+y,1/2-z
-x,-y,-z
1/2+x,y,-z
-x,1/2+y,1/2+z
1/2+x,1/2-y,1/2+z
loop_
_atom_site_type_symbol
_atom_site_label
_atom_site_fract_x
_atom_site_fract_y
_atom_site_fract_z
Si Si1 0.832459 0.250000 0.250000
Si Si2 0.410863 0.590726 0.611073
Si Si3 0.712526 0.097850 0.416090
Si Si4 0.281297 0.853828 0.199334
Si Si5 0.898409 0.389925 0.513935
O O1 0.777473 0.181309 0.373309
O O2 0.893952 0.306688 0.379190
O O3 0.373983 0.618821 0.801541
O O4 0.354638 0.636760 0.452747
O O5 0.511235 0.625598 0.620324
O O6 0.406200 0.482390 0.595390
O O7 0.688451 0.093263 0.623702
O O8 0.750000 0.000000 0.354387
O O9 0.267533 0.750000 0.250000
O O10 0.187624 0.895395 0.138011
#
# Coordination Sequence:
#
# PCOD8217279 Si02
#       5
#     4   8   8   8   8
#     4  12  22  44  70  98 136 186 228 286 344 408
#     4  11  24  46  71 100 139 188 228 288 356 417
#     4  12  22  43  73  98 136 185 230 281 348 418
#     4  12  24  45  66 102 140 185 233 284 349 414
#     4  11  24  46  70 101 144 181 233 295 350 410
#
# _framework density 21.413094000000001
#
# number of rings (size 3 to 8) (size 9 to 14) (size 15 to 20)
#    0.000    0.444    6.667    2.000    1.556    0.000 
#   10.000    3.333    0.000    0.000    0.000    0.000 
#    0.000    0.000    0.000    0.000    0.000    0.000 
#
# Total GULP energy -446435.323891 kJ/mol
# GULP energy per Si atom -12400.981219 kJ/mol
# Density = 2.136436 g / cm^3
# Si number density = 21.413094 Si / 1000 Ang^3
#
#
#
# Elastic Constant Matrix: (Units=GPa)
#
#
# Indices 1 2 3 4 5 6 
#
# 1 143.2470 19.2064 59.1197 0.0000 0.0000 0.0000
# 2 19.2064 80.9150 10.9561 0.0000 0.0000 0.0000
# 3 59.1197 10.9561 147.3779 0.0000 0.0000 0.0000
# 4 0.0000 0.0000 0.0000 32.0487 0.0000 0.0000
# 5 0.0000 0.0000 0.0000 0.0000 10.4522 0.0000
# 6 0.0000 0.0000 0.0000 0.0000 0.0000 26.3503
#
#
#
# Elastic Compliance Matrix: (Units=1/GPa)
#
#
# Indices 1 2 3 4 5 6 
#
# 1 0.008562 -0.001583 -0.003317 0.000000 0.000000 0.000000
# 2 -0.001583 0.012777 -0.000315 0.000000 0.000000 0.000000
# 3 -0.003317 -0.000315 0.008139 0.000000 0.000000 0.000000
# 4 0.000000 0.000000 0.000000 0.031202 0.000000 0.000000
# 5 0.000000 0.000000 0.000000 0.000000 0.095673 0.000000
# 6 0.000000 0.000000 0.000000 0.000000 0.000000 0.037950
#
#
# Mechanical properties :
#
#
# Convention : Reuss Voigt Hill
#
# Bulk Modulus (GPa) = 52.49728 61.12271 56.80999
# Shear Modulus (GPa) = 23.68724 32.58743 28.13733
#
# Velocity S-wave (km/s) = 3.32957 3.90532 3.62888
# Velocity P-wave (km/s) = 6.27304 6.99584 6.64428
#
# Compressibility (1/GPa) = 0.01904861
#
# Stress axis : x y z
#
# Youngs Moduli (GPa) = 116.79271 78.26521 122.86138
#
# Poissons Ratio (x) = 0.12391 0.40753
# Poissons Ratio (y) = 0.18491 0.03867
# Poissons Ratio (z) = 0.38740 0.02463
#
# Static dielectric constant tensor:
#      x y z
#    x 3.911340 0.000000 0.000000 
#    y 0.000000 4.209350 0.000000 
#    z 0.000000 0.000000 4.028260 
# 
# 
# High freq. dielectric constant tensor:
#      x y z
#    x 1.828290 0.000000 0.000000 
#    y 0.000000 1.861320 0.000000 
#    z 0.000000 0.000000 1.845410 
# 
# From -- ./inp_files/9884.got.cif
#   From: 2010.06.25/outbox.cif.g09.slc.cpg/sg52_5_cif.got.tgz:9884.got - 2010.06.26 19:32:48.
