data_PCOD8217027
_publ_section_title
;
Structure prediction by ZEFSAII (Michael W. Deem and Ramdas Pophale) SiO2 
 PCOD8217027
Probable space group: P N N A
;
_chemical_formula_sum "Si O2"
_cell_formula_units_Z 36
_cell_length_a 17.433838
_cell_length_b 14.809581
_cell_length_c 7.341304
_cell_angle_alpha 90.000000
_cell_angle_beta 90.000000
_cell_angle_gamma 90.000000
_cell_volume 1895.435393
_symmetry_space_group_name_H-M "P N N A"
_symmetry_group_IT_number 52
_symmetry_cell_setting 'orthorhombic'
loop_
_space_group_symop_operation_xyz
x,y,z
1/2-x,-y,z
x,1/2-y,1/2-z
1/2-x,1/2+y,1/2-z
-x,-y,-z
1/2+x,y,-z
-x,1/2+y,1/2+z
1/2+x,1/2-y,1/2+z
loop_
_atom_site_type_symbol
_atom_site_label
_atom_site_fract_x
_atom_site_fract_y
_atom_site_fract_z
Si Si1 0.329673 0.810994 0.401344
Si Si2 0.305162 0.084392 0.242138
Si Si3 0.318502 0.070427 0.834368
Si Si4 0.740429 0.250000 0.250000
Si Si5 0.409891 0.504228 0.983215
O O1 0.374663 0.750000 0.250000
O O2 0.247481 0.833356 0.307953
O O3 0.314372 0.746567 0.574019
O O4 0.379538 0.896608 0.462945
O O5 0.250000 0.000000 0.244721
O O6 0.375124 0.070131 0.380552
O O7 0.341712 0.096636 0.040727
O O8 0.292528 0.161115 0.732275
O O9 0.250000 0.000000 0.831611
O O10 0.387718 0.023544 0.723550
O O11 0.500000 0.500000 0.000000
#
# Coordination Sequence:
#
# PCOD8217027 Si02
#       5
#     8   8   8   4   8
#     4  11  21  38  63  93 116 157 218 268 302 357
#     4   9  19  35  60  86 110 150 208 254 296 347
#     4  11  20  37  63  90 116 158 210 261 304 351
#     4  12  20  34  68  90 114 150 214 274 302 344
#     4  11  23  40  58  86 135 168 193 244 322 389
#
# _framework density 18.992998
#
# number of rings (size 3 to 8) (size 9 to 14) (size 15 to 20)
#    0.000    1.333    6.667    0.667    0.000    0.889 
#    2.000    0.000    2.444    0.000    0.000    0.000 
#    0.000    0.000    0.000    0.000    0.000    0.000 
#
# Total GULP energy -446280.962825 kJ/mol
# GULP energy per Si atom -12396.693412 kJ/mol
# Density = 1.894977 g / cm^3
# Si number density = 18.992998 Si / 1000 Ang^3
#
#
#
# Elastic Constant Matrix: (Units=GPa)
#
#
# Indices 1 2 3 4 5 6 
#
# 1 103.9276 22.2600 48.2737 0.0000 0.0000 0.0000
# 2 22.2600 93.9963 28.7907 0.0000 0.0000 0.0000
# 3 48.2737 28.7907 151.4808 0.0000 0.0000 0.0000
# 4 0.0000 0.0000 0.0000 36.5900 0.0000 0.0000
# 5 0.0000 0.0000 0.0000 0.0000 -50.0934 0.0000
# 6 0.0000 0.0000 0.0000 0.0000 0.0000 11.7787
#
#
#
# Elastic Compliance Matrix: (Units=1/GPa)
#
#
# Indices 1 2 3 4 5 6 
#
# 1 0.011546 -0.001707 -0.003355 0.000000 0.000000 0.000000
# 2 -0.001707 0.011549 -0.001651 0.000000 0.000000 0.000000
# 3 -0.003355 -0.001651 0.007985 0.000000 0.000000 0.000000
# 4 0.000000 0.000000 0.000000 0.027330 0.000000 0.000000
# 5 0.000000 0.000000 0.000000 0.000000 -0.019963 0.000000
# 6 0.000000 0.000000 0.000000 0.000000 0.000000 0.084899
#
#
# Mechanical properties :
#
#
# Convention : Reuss Voigt Hill
#
# Bulk Modulus (GPa) = 56.64605 60.89483 58.77044
# Shear Modulus (GPa) = 35.04947 16.32709 25.68828
#
# Velocity S-wave (km/s) = 4.30046 2.93514 3.68164
# Velocity P-wave (km/s) = 7.38567 6.60440 7.00593
#
# Compressibility (1/GPa) = 0.01765348
#
# Stress axis : x y z
#
# Youngs Moduli (GPa) = 86.60973 86.59062 125.24265
#
# Poissons Ratio (x) = 0.14778 0.42020
# Poissons Ratio (y) = 0.14781 0.20678
# Poissons Ratio (z) = 0.29058 0.14297
#
# Static dielectric constant tensor:
#      x y z
#    x 3.007880 0.000000 0.000000 
#    y 0.000000 3.656670 0.000000 
#    z 0.000000 0.000000 4.106640 
# 
# 
# High freq. dielectric constant tensor:
#      x y z
#    x 1.680280 0.000000 0.000000 
#    y 0.000000 1.746830 0.000000 
#    z 0.000000 0.000000 1.765770 
# 
# From -- ./inp_files/9961.got.cif
#   From: 2010.06.25/outbox.cif.g09.slc.cpg/sg52_5_cif.got.tgz:9961.got - 2010.06.26 19:32:48.
