data_PCOD8217061
_publ_section_title
;
Structure prediction by ZEFSAII (Michael W. Deem and Ramdas Pophale) SiO2 
 PCOD8217061
Probable space group: P N N A
;
_chemical_formula_sum "Si O2"
_cell_formula_units_Z 28
_cell_length_a 12.107086
_cell_length_b 4.845869
_cell_length_c 21.628017
_cell_angle_alpha 90.000000
_cell_angle_beta 90.000000
_cell_angle_gamma 90.000000
_cell_volume 1268.901758
_symmetry_space_group_name_H-M "P N N A"
_symmetry_group_IT_number 52
_symmetry_cell_setting 'orthorhombic'
loop_
_space_group_symop_operation_xyz
x,y,z
1/2-x,-y,z
x,1/2-y,1/2-z
1/2-x,1/2+y,1/2-z
-x,-y,-z
1/2+x,y,-z
-x,1/2+y,1/2+z
1/2+x,1/2-y,1/2+z
loop_
_atom_site_type_symbol
_atom_site_label
_atom_site_fract_x
_atom_site_fract_y
_atom_site_fract_z
Si Si1 0.327736 0.750000 0.250000
Si Si2 0.047449 0.332335 0.125862
Si Si3 0.675475 0.753141 0.077199
Si Si4 0.636576 0.849927 0.940461
O O1 0.250000 0.500000 0.272104
O O2 0.407215 0.654558 0.195027
O O3 0.121766 0.538429 0.084439
O O4 0.914697 0.379001 0.124540
O O5 0.046314 0.028113 0.095793
O O6 0.750000 0.500000 0.055683
O O7 0.750000 0.000000 0.106722
O O8 0.618355 0.861030 0.013930
O O9 0.750000 0.000000 0.920673
#
# Coordination Sequence:
#
# PCOD8217061 Si02
#       4
#     4   8   8   8
#     4  12  26  42  62  88 118 152 198 244 290 354
#     4  12  23  40  61  87 121 161 196 242 297 349
#     4  11  23  39  60  90 121 154 198 245 293 354
#     4  11  21  37  62  91 121 153 194 245 301 355
#
# _framework density 22.066327000000001
#
# number of rings (size 3 to 8) (size 9 to 14) (size 15 to 20)
#    0.000    0.571    0.000   12.000    0.000    0.000 
#    0.000    1.429    0.000    0.000    0.000    0.000 
#    0.000    0.000    0.000    0.000    0.000    0.000 
#
# Total GULP energy -347138.449288 kJ/mol
# GULP energy per Si atom -12397.801760 kJ/mol
# Density = 2.201610 g / cm^3
# Si number density = 22.066327 Si / 1000 Ang^3
#
#
#
# Elastic Constant Matrix: (Units=GPa)
#
#
# Indices 1 2 3 4 5 6 
#
# 1 109.9997 21.8218 59.1686 0.0000 0.0000 0.0000
# 2 21.8218 92.5409 17.4518 0.0000 0.0000 0.0000
# 3 59.1686 17.4518 96.0292 0.0000 0.0000 0.0000
# 4 0.0000 0.0000 0.0000 17.2404 0.0000 0.0000
# 5 0.0000 0.0000 0.0000 0.0000 22.8068 0.0000
# 6 0.0000 0.0000 0.0000 0.0000 0.0000 38.1994
#
#
#
# Elastic Compliance Matrix: (Units=1/GPa)
#
#
# Indices 1 2 3 4 5 6 
#
# 1 0.013856 -0.001716 -0.008225 0.000000 0.000000 0.000000
# 2 -0.001716 0.011402 -0.001015 0.000000 0.000000 0.000000
# 3 -0.008225 -0.001015 0.015666 0.000000 0.000000 0.000000
# 4 0.000000 0.000000 0.000000 0.058003 0.000000 0.000000
# 5 0.000000 0.000000 0.000000 0.000000 0.043847 0.000000
# 6 0.000000 0.000000 0.000000 0.000000 0.000000 0.026178
#
#
# Mechanical properties :
#
#
# Convention : Reuss Voigt Hill
#
# Bulk Modulus (GPa) = 52.60021 55.05048 53.82534
# Shear Modulus (GPa) = 25.35470 28.99115 27.17292
#
# Velocity S-wave (km/s) = 3.39340 3.62860 3.51297
# Velocity P-wave (km/s) = 6.26439 6.52361 6.39532
#
# Compressibility (1/GPa) = 0.01901133
#
# Stress axis : x y z
#
# Youngs Moduli (GPa) = 72.17184 87.70331 63.83234
#
# Poissons Ratio (x) = 0.15051 0.52505
# Poissons Ratio (y) = 0.12385 0.06478
# Poissons Ratio (z) = 0.59364 0.08900
#
# Static dielectric constant tensor:
#      x y z
#    x 4.469840 0.000000 0.000000 
#    y 0.000000 4.220150 0.000000 
#    z 0.000000 0.000000 3.500980 
# 
# 
# High freq. dielectric constant tensor:
#      x y z
#    x 1.875550 0.000000 0.000000 
#    y 0.000000 1.886820 0.000000 
#    z 0.000000 0.000000 1.828360 
# 
# From -- ./inp_files/36364.got.cif
#   From: 2010.06.25/outbox.cif.g09.slc.cpg/sg52_19_cif.got.tgz:36364.got - 2010.06.26 19:32:48.
