data_PCOD8217504
_publ_section_title
;
Structure prediction by ZEFSAII (Michael W. Deem and Ramdas Pophale) SiO2 
 PCOD8217504
Probable space group: P M N A
;
_chemical_formula_sum "Si O2"
_cell_formula_units_Z 56
_cell_length_a 8.965182
_cell_length_b 17.757833
_cell_length_c 21.858185
_cell_angle_alpha 90.000000
_cell_angle_beta 90.000000
_cell_angle_gamma 90.000000
_cell_volume 3479.871244
_symmetry_space_group_name_H-M "P M N A"
_symmetry_group_IT_number 53
_symmetry_cell_setting 'orthorhombic'
loop_
_space_group_symop_operation_xyz
x,y,z
1/2-x,-y,1/2+z
x,-y,-z
1/2-x,y,1/2-z
-x,-y,-z
1/2+x,y,1/2-z
-x,y,z
1/2+x,-y,1/2+z
loop_
_atom_site_type_symbol
_atom_site_label
_atom_site_fract_x
_atom_site_fract_y
_atom_site_fract_z
Si Si1 0.824735 0.918576 0.054388
Si Si2 0.828127 0.244698 0.965982
Si Si3 0.674302 0.392606 0.959306
Si Si4 0.675632 0.450142 0.090307
Si Si5 0.824992 0.204735 0.102088
Si Si6 0.322346 0.940125 0.922506
Si Si7 0.824645 0.345258 0.184603
O O1 0.799227 0.831319 0.074023
O O2 0.000000 0.936894 0.050779
O O3 0.741591 0.977934 0.099922
O O4 0.751374 0.926762 0.988104
O O5 0.744895 0.314985 0.934965
O O6 0.000000 0.265928 0.967123
O O7 0.771536 0.233238 0.035553
O O8 0.500000 0.381412 0.961600
O O9 0.714854 0.460973 0.913706
O O10 0.731418 0.410866 0.027789
O O11 0.500000 0.437738 0.099871
O O12 0.764628 0.416375 0.146992
O O13 0.734640 0.128440 0.120279
O O14 0.781652 0.267675 0.151170
O O15 0.000000 0.186028 0.101720
O O16 0.500000 0.942072 0.925345
O O17 0.750000 0.344389 0.250000
O O18 0.000000 0.354194 0.191876
#
# Coordination Sequence:
#
# PCOD8217504 Si02
#       7
#     8   8   8   8   8   8   8
#     4   9  16  26  37  53  84 119 145 174 214 257
#     4   9  16  26  41  62  87 116 152 184 216 267
#     4   9  17  28  45  66  91 119 148 186 229 273
#     4   9  18  32  46  65  90 118 150 185 231 278
#     4   9  18  31  43  58  84 117 149 180 224 272
#     4  10  17  24  38  59  80 108 148 184 212 250
#     4  11  22  35  50  67  88 118 155 194 233 274
#
# _framework density 16.092549000000002
#
# number of rings (size 3 to 8) (size 9 to 14) (size 15 to 20)
#    0.000    2.571    1.429    4.714    0.000    4.571 
#    0.000    1.429    0.000    0.000    0.000    0.000 
#    0.000    1.143    0.000    6.286    0.000    5.286 
#
# Total GULP energy -693996.657997 kJ/mol
# GULP energy per Si atom -12392.797464 kJ/mol
# Density = 1.605592 g / cm^3
# Si number density = 16.092549 Si / 1000 Ang^3
#
#
#
# Elastic Constant Matrix: (Units=GPa)
#
#
# Indices 1 2 3 4 5 6 
#
# 1 80.2699 64.3238 28.6506 0.0000 0.0000 0.0000
# 2 64.3238 156.5398 41.0623 0.0000 0.0000 0.0000
# 3 28.6506 41.0623 49.7677 0.0000 0.0000 0.0000
# 4 0.0000 0.0000 0.0000 13.5261 0.0000 0.0000
# 5 0.0000 0.0000 0.0000 0.0000 11.9113 0.0000
# 6 0.0000 0.0000 0.0000 0.0000 0.0000 32.9568
#
#
#
# Elastic Compliance Matrix: (Units=1/GPa)
#
#
# Indices 1 2 3 4 5 6 
#
# 1 0.019888 -0.006597 -0.006007 0.000000 0.000000 0.000000
# 2 -0.006597 0.010341 -0.004734 0.000000 0.000000 0.000000
# 3 -0.006007 -0.004734 0.027457 0.000000 0.000000 0.000000
# 4 0.000000 0.000000 0.000000 0.073931 0.000000 0.000000
# 5 0.000000 0.000000 0.000000 0.000000 0.083954 0.000000
# 6 0.000000 0.000000 0.000000 0.000000 0.000000 0.030343
#
#
# Mechanical properties :
#
#
# Convention : Reuss Voigt Hill
#
# Bulk Modulus (GPa) = 43.45705 61.62787 52.54246
# Shear Modulus (GPa) = 17.34552 21.84821 19.59687
#
# Velocity S-wave (km/s) = 3.28664 3.68864 3.49343
# Velocity P-wave (km/s) = 6.43939 7.51801 6.99951
#
# Compressibility (1/GPa) = 0.02301123
#
# Stress axis : x y z
#
# Youngs Moduli (GPa) = 50.28149 96.70593 36.42005
#
# Poissons Ratio (x) = 0.63793 0.21876
# Poissons Ratio (y) = 0.33169 0.17242
# Poissons Ratio (z) = 0.30202 0.45783
#
# Static dielectric constant tensor:
#      x y z
#    x 3.003930 0.000000 0.000000 
#    y 0.000000 3.773630 0.000000 
#    z 0.000000 0.000000 2.532120 
# 
# 
# High freq. dielectric constant tensor:
#      x y z
#    x 1.624510 0.000000 0.000000 
#    y 0.000000 1.642390 0.000000 
#    z 0.000000 0.000000 1.539440 
# 
# From -- ./inp_files/30997.got.cif
#   From: 2010.03.12/outbox.cif.g09.slc.cpg/sg53_16_cif.got.tgz:30997.got - 2010.04.16 14:36:59.
