data_PCOD8217534
_publ_section_title
;
Structure prediction by ZEFSAII (Michael W. Deem and Ramdas Pophale) SiO2 
 PCOD8217534
Probable space group: P M N A
;
_chemical_formula_sum "Si O2"
_cell_formula_units_Z 56
_cell_length_a 25.948661
_cell_length_b 25.603020
_cell_length_c 5.042285
_cell_angle_alpha 90.000000
_cell_angle_beta 90.000000
_cell_angle_gamma 90.000000
_cell_volume 3349.913068
_symmetry_space_group_name_H-M "P M N A"
_symmetry_group_IT_number 53
_symmetry_cell_setting 'orthorhombic'
loop_
_space_group_symop_operation_xyz
x,y,z
1/2-x,-y,1/2+z
x,-y,-z
1/2-x,y,1/2-z
-x,-y,-z
1/2+x,y,1/2-z
-x,y,z
1/2+x,-y,1/2+z
loop_
_atom_site_type_symbol
_atom_site_label
_atom_site_fract_x
_atom_site_fract_y
_atom_site_fract_z
Si Si1 0.441338 0.442965 0.519616
Si Si2 0.941958 0.786287 0.195073
Si Si3 0.404299 0.269504 0.198906
Si Si4 0.193234 0.796603 0.681998
Si Si5 0.809977 0.965696 0.249689
Si Si6 0.058903 0.623013 0.504764
Si Si7 0.844465 0.852624 0.173554
O O1 0.414072 0.500000 0.500000
O O2 0.500000 0.450994 0.617696
O O3 0.438312 0.420458 0.228080
O O4 0.417034 0.403157 0.737816
O O5 0.935650 0.765665 0.492181
O O6 0.904005 0.835191 0.155145
O O7 0.000000 0.806383 0.154363
O O8 0.929778 0.739234 0.988024
O O9 0.344652 0.252601 0.217047
O O10 0.406244 0.329063 0.103294
O O11 0.250000 0.775596 0.750000
O O12 0.188024 0.819007 0.385967
O O13 0.180584 0.843571 0.885720
O O14 0.750000 0.949860 0.250000
O O15 0.843470 0.913243 0.248140
O O16 0.825479 0.000000 0.500000
O O17 0.824998 0.000000 0.000000
O O18 0.000000 0.642780 0.460719
#
# Coordination Sequence:
#
# PCOD8217534 Si02
#       7
#     8   8   8   8   8   8   8
#     4   9  17  27  39  57  82 116 152 181 215 258
#     4  10  19  32  48  66  92 121 153 188 218 262
#     4  10  20  30  45  70  92 119 154 185 225 270
#     4  10  19  32  49  68  94 122 148 183 223 273
#     4  10  19  30  46  67  90 114 143 185 230 269
#     4  10  17  26  41  59  86 117 145 182 218 255
#     4  10  20  32  49  70  91 121 153 180 222 274
#
# _framework density 16.716853
#
# number of rings (size 3 to 8) (size 9 to 14) (size 15 to 20)
#    0.000    2.143    0.000    4.714    0.000    4.000 
#    0.000    0.000    0.000    0.857    0.000    0.000 
#    0.000    2.286    0.000    0.143    0.000    0.000 
#
# Total GULP energy -694402.422930 kJ/mol
# GULP energy per Si atom -12400.043267 kJ/mol
# Density = 1.667880 g / cm^3
# Si number density = 16.716853 Si / 1000 Ang^3
#
#
#
# Elastic Constant Matrix: (Units=GPa)
#
#
# Indices 1 2 3 4 5 6 
#
# 1 86.4505 35.9042 19.2858 0.0000 0.0000 0.0000
# 2 35.9042 93.6474 12.2364 0.0000 0.0000 0.0000
# 3 19.2858 12.2364 81.4863 0.0000 0.0000 0.0000
# 4 0.0000 0.0000 0.0000 12.8441 0.0000 0.0000
# 5 0.0000 0.0000 0.0000 0.0000 15.8063 0.0000
# 6 0.0000 0.0000 0.0000 0.0000 0.0000 13.6269
#
#
#
# Elastic Compliance Matrix: (Units=1/GPa)
#
#
# Indices 1 2 3 4 5 6 
#
# 1 0.014282 -0.005135 -0.002609 0.000000 0.000000 0.000000
# 2 -0.005135 0.012738 -0.000698 0.000000 0.000000 0.000000
# 3 -0.002609 -0.000698 0.012994 0.000000 0.000000 0.000000
# 4 0.000000 0.000000 0.000000 0.077857 0.000000 0.000000
# 5 0.000000 0.000000 0.000000 0.000000 0.063266 0.000000
# 6 0.000000 0.000000 0.000000 0.000000 0.000000 0.073384
#
#
# Mechanical properties :
#
#
# Convention : Reuss Voigt Hill
#
# Bulk Modulus (GPa) = 43.23110 44.04856 43.63983
# Shear Modulus (GPa) = 17.91378 21.39931 19.65655
#
# Velocity S-wave (km/s) = 3.27708 3.58174 3.43279
# Velocity P-wave (km/s) = 6.34318 6.59637 6.47101
#
# Compressibility (1/GPa) = 0.02313150
#
# Stress axis : x y z
#
# Youngs Moduli (GPa) = 70.01869 78.50440 76.95701
#
# Poissons Ratio (x) = 0.40310 0.20079
# Poissons Ratio (y) = 0.35953 0.05368
# Poissons Ratio (z) = 0.18269 0.05476
#
# Static dielectric constant tensor:
#      x y z
#    x 2.921260 0.000000 0.000000 
#    y 0.000000 3.014190 0.000000 
#    z 0.000000 0.000000 3.396710 
# 
# 
# High freq. dielectric constant tensor:
#      x y z
#    x 1.598110 0.000000 0.000000 
#    y 0.000000 1.633930 0.000000 
#    z 0.000000 0.000000 1.671990 
# 
# From -- ./inp_files/3857.got.cif
#   From: 2010.03.12/outbox.cif.g09.slc.cpg/sg53_2_cif.got.tgz:3857.got - 2010.04.16 14:36:59.
