data_PCOD8217803
_publ_section_title
;
Structure prediction by ZEFSAII (Michael W. Deem and Ramdas Pophale) SiO2 
 PCOD8217803
Probable space group: P M N A
;
_chemical_formula_sum "Si O2"
_cell_formula_units_Z 56
_cell_length_a 9.066796
_cell_length_b 17.959131
_cell_length_c 20.095047
_cell_angle_alpha 90.000000
_cell_angle_beta 90.000000
_cell_angle_gamma 90.000000
_cell_volume 3272.112214
_symmetry_space_group_name_H-M "P M N A"
_symmetry_group_IT_number 53
_symmetry_cell_setting 'orthorhombic'
loop_
_space_group_symop_operation_xyz
x,y,z
1/2-x,-y,1/2+z
x,-y,-z
1/2-x,y,1/2-z
-x,-y,-z
1/2+x,y,1/2-z
-x,y,z
1/2+x,-y,1/2+z
loop_
_atom_site_type_symbol
_atom_site_label
_atom_site_fract_x
_atom_site_fract_y
_atom_site_fract_z
Si Si1 0.671140 0.712912 0.888806
Si Si2 0.172970 0.536426 0.071017
Si Si3 0.824487 0.988694 0.072461
Si Si4 0.674021 0.685417 0.038995
Si Si5 0.825387 0.436729 0.319117
Si Si6 0.835099 0.855885 0.900107
Si Si7 0.666279 0.170612 0.557438
O O1 0.500000 0.728103 0.891738
O O2 0.713727 0.648614 0.836960
O O3 0.742467 0.790597 0.865121
O O4 0.724962 0.687962 0.962016
O O5 0.237728 0.619241 0.073847
O O6 0.259355 0.489705 0.125362
O O7 0.000000 0.537937 0.087504
O O8 0.205651 0.500000 0.000000
O O9 0.782744 0.904951 0.097522
O O10 0.000000 0.993784 0.066226
O O11 0.774121 0.060093 0.117765
O O12 0.752102 0.000000 0.000000
O O13 0.500000 0.673101 0.047320
O O14 0.722526 0.762325 0.074899
O O15 0.750000 0.457443 0.250000
O O16 0.000000 0.449275 0.315010
O O17 0.000000 0.846081 0.873009
O O18 0.829412 0.847757 0.979494
O O19 0.500000 0.193512 0.578181
#
# Coordination Sequence:
#
# PCOD8217803 Si02
#       7
#     8   8   8   8   8   8   8
#     4   9  18  30  44  64  93 125 156 195 244 290
#     4  11  22  35  54  77  98 125 167 210 250 302
#     4   7  10  18  32  52  80 115 152 190 231 273
#     4  10  18  29  45  67  95 126 160 199 247 295
#     4  11  23  39  55  73 100 132 165 205 255 303
#     4   8  13  21  37  58  81 115 158 195 227 273
#     4   8  13  22  36  56  85 119 155 194 235 279
#
# _framework density 17.114326999999999
#
# number of rings (size 3 to 8) (size 9 to 14) (size 15 to 20)
#    0.000    2.857    1.429    3.000    0.000    2.286 
#    0.000    0.714    0.000    4.286    0.000    0.000 
#    0.000    1.143    0.000    7.429    0.000    8.571 
#
# Total GULP energy -693809.911826 kJ/mol
# GULP energy per Si atom -12389.462711 kJ/mol
# Density = 1.707537 g / cm^3
# Si number density = 17.114327 Si / 1000 Ang^3
#
#
#
# Elastic Constant Matrix: (Units=GPa)
#
#
# Indices 1 2 3 4 5 6 
#
# 1 64.3780 59.5787 29.8665 0.0000 0.0000 0.0000
# 2 59.5787 144.6585 36.1766 0.0000 0.0000 0.0000
# 3 29.8665 36.1766 47.7806 0.0000 0.0000 0.0000
# 4 0.0000 0.0000 0.0000 8.2602 0.0000 0.0000
# 5 0.0000 0.0000 0.0000 0.0000 14.8097 0.0000
# 6 0.0000 0.0000 0.0000 0.0000 0.0000 24.2935
#
#
#
# Elastic Compliance Matrix: (Units=1/GPa)
#
#
# Indices 1 2 3 4 5 6 
#
# 1 0.029363 -0.009256 -0.011346 0.000000 0.000000 0.000000
# 2 -0.009256 0.011445 -0.002880 0.000000 0.000000 0.000000
# 3 -0.011346 -0.002880 0.030202 0.000000 0.000000 0.000000
# 4 0.000000 0.000000 0.000000 0.121062 0.000000 0.000000
# 5 0.000000 0.000000 0.000000 0.000000 0.067523 0.000000
# 6 0.000000 0.000000 0.000000 0.000000 0.000000 0.041163
#
#
# Mechanical properties :
#
#
# Convention : Reuss Voigt Hill
#
# Bulk Modulus (GPa) = 41.58707 56.45119 49.01913
# Shear Modulus (GPa) = 14.05532 18.21904 16.13718
#
# Velocity S-wave (km/s) = 2.86887 3.26628 3.07401
# Velocity P-wave (km/s) = 5.94359 6.87613 6.42680
#
# Compressibility (1/GPa) = 0.02404594
#
# Stress axis : x y z
#
# Youngs Moduli (GPa) = 34.05669 87.37330 33.11073
#
# Poissons Ratio (x) = 0.80871 0.37568
# Poissons Ratio (y) = 0.31522 0.09536
# Poissons Ratio (z) = 0.38641 0.25163
#
# Static dielectric constant tensor:
#      x y z
#    x 3.103040 0.000000 0.000000 
#    y 0.000000 3.922730 0.000000 
#    z 0.000000 0.000000 2.560500 
# 
# 
# High freq. dielectric constant tensor:
#      x y z
#    x 1.650770 0.000000 0.000000 
#    y 0.000000 1.686730 0.000000 
#    z 0.000000 0.000000 1.583780 
# 
# From -- ./inp_files/31041.got.cif
#   From: 2010.03.12/outbox.cif.g09.slc.cpg/sg53_16_cif.got.tgz:31041.got - 2010.04.16 14:36:59.
