data_PCOD8217368
_publ_section_title
;
Structure prediction by ZEFSAII (Michael W. Deem and Ramdas Pophale) SiO2 
 PCOD8217368
Probable space group: P N N A
;
_chemical_formula_sum "Si O2"
_cell_formula_units_Z 32
_cell_length_a 17.293503
_cell_length_b 10.957506
_cell_length_c 7.756144
_cell_angle_alpha 90.000000
_cell_angle_beta 90.000000
_cell_angle_gamma 90.000000
_cell_volume 1469.740136
_symmetry_space_group_name_H-M "P N N A"
_symmetry_group_IT_number 52
_symmetry_cell_setting 'orthorhombic'
loop_
_space_group_symop_operation_xyz
x,y,z
1/2-x,-y,z
x,1/2-y,1/2-z
1/2-x,1/2+y,1/2-z
-x,-y,-z
1/2+x,y,-z
-x,1/2+y,1/2+z
1/2+x,1/2-y,1/2+z
loop_
_atom_site_type_symbol
_atom_site_label
_atom_site_fract_x
_atom_site_fract_y
_atom_site_fract_z
Si Si1 0.112770 0.066671 0.351531
Si Si2 0.891680 0.312291 0.937293
Si Si3 0.726077 0.256853 0.050119
Si Si4 0.008607 0.750000 0.750000
Si Si5 0.250000 0.500000 0.379408
O O1 0.154329 0.173318 0.461847
O O2 0.172572 0.991265 0.232248
O O3 0.044559 0.129703 0.245730
O O4 0.076025 0.951674 0.453311
O O5 0.901955 0.250000 0.750000
O O6 0.803030 0.327135 0.997032
O O7 0.939589 0.236104 0.078479
O O8 0.708524 0.250000 0.250000
O O9 0.738685 0.118828 0.993091
#
# Coordination Sequence:
#
# PCOD8217368 Si02
#       5
#     8   8   8   4   4
#     4  12  24  48  71 104 144 189 247 298 351 437
#     4  12  25  47  72 104 145 192 236 303 366 431
#     4  12  25  43  75 108 140 191 247 298 357 428
#     4  12  28  46  70 108 152 184 238 300 376 424
#     4  12  22  44  78 100 136 190 248 294 352 422
#
# _framework density 21.772556000000002
#
# number of rings (size 3 to 8) (size 9 to 14) (size 15 to 20)
#    0.000    0.000    8.750    0.750    3.500    2.000 
#    0.000    0.000    0.000    0.000    0.000    0.000 
#    0.000    0.000    0.000    0.000    0.000    0.000 
#
# Total GULP energy -396668.084612 kJ/mol
# GULP energy per Si atom -12395.877644 kJ/mol
# Density = 2.172300 g / cm^3
# Si number density = 21.772556 Si / 1000 Ang^3
#
#
#
# Elastic Constant Matrix: (Units=GPa)
#
#
# Indices 1 2 3 4 5 6 
#
# 1 72.4941 7.7652 38.0368 0.0000 0.0000 0.0000
# 2 7.7652 130.8291 31.3426 0.0000 0.0000 0.0000
# 3 38.0368 31.3426 138.8746 0.0000 0.0000 0.0000
# 4 0.0000 0.0000 0.0000 21.9860 0.0000 0.0000
# 5 0.0000 0.0000 0.0000 0.0000 19.7591 0.0000
# 6 0.0000 0.0000 0.0000 0.0000 0.0000 37.0850
#
#
#
# Elastic Compliance Matrix: (Units=1/GPa)
#
#
# Indices 1 2 3 4 5 6 
#
# 1 0.016111 0.000107 -0.004437 0.000000 0.000000 0.000000
# 2 0.000107 0.008081 -0.001853 0.000000 0.000000 0.000000
# 3 -0.004437 -0.001853 0.008834 0.000000 0.000000 0.000000
# 4 0.000000 0.000000 0.000000 0.045483 0.000000 0.000000
# 5 0.000000 0.000000 0.000000 0.000000 0.050610 0.000000
# 6 0.000000 0.000000 0.000000 0.000000 0.000000 0.026965
#
#
# Mechanical properties :
#
#
# Convention : Reuss Voigt Hill
#
# Bulk Modulus (GPa) = 48.40310 55.16521 51.78415
# Shear Modulus (GPa) = 28.51657 33.43625 30.97641
#
# Velocity S-wave (km/s) = 3.62297 3.92306 3.77600
# Velocity P-wave (km/s) = 6.30720 6.77588 6.54574
#
# Compressibility (1/GPa) = 0.02065983
#
# Stress axis : x y z
#
# Youngs Moduli (GPa) = 62.07068 123.74456 113.19735
#
# Poissons Ratio (x) = -0.01320 0.50222
# Poissons Ratio (y) = -0.00662 0.20976
# Poissons Ratio (z) = 0.27539 0.22930
#
# Static dielectric constant tensor:
#      x y z
#    x 4.123150 0.000000 0.000000 
#    y 0.000000 4.588120 0.000000 
#    z 0.000000 0.000000 3.900560 
# 
# 
# High freq. dielectric constant tensor:
#      x y z
#    x 1.859150 0.000000 0.000000 
#    y 0.000000 1.880390 0.000000 
#    z 0.000000 0.000000 1.849440 
# 
# From -- ./inp_files/9625.got.cif
#   From: 2010.06.25/outbox.cif.g09.slc.cpg/sg52_5_cif.got.tgz:9625.got - 2010.06.26 19:32:48.
