data_PCOD8217008
_publ_section_title
;
Structure prediction by ZEFSAII (Michael W. Deem and Ramdas Pophale) SiO2 
 PCOD8217008
Probable space group: P N N A
;
_chemical_formula_sum "Si O2"
_cell_formula_units_Z 32
_cell_length_a 29.369159
_cell_length_b 4.953036
_cell_length_c 11.682819
_cell_angle_alpha 90.000000
_cell_angle_beta 90.000000
_cell_angle_gamma 90.000000
_cell_volume 1699.458811
_symmetry_space_group_name_H-M "P N N A"
_symmetry_group_IT_number 52
_symmetry_cell_setting 'orthorhombic'
loop_
_space_group_symop_operation_xyz
x,y,z
1/2-x,-y,z
x,1/2-y,1/2-z
1/2-x,1/2+y,1/2-z
-x,-y,-z
1/2+x,y,-z
-x,1/2+y,1/2+z
1/2+x,1/2-y,1/2+z
loop_
_atom_site_type_symbol
_atom_site_label
_atom_site_fract_x
_atom_site_fract_y
_atom_site_fract_z
Si Si1 0.277937 0.253137 0.386352
Si Si2 0.933440 0.857056 0.540944
Si Si3 0.980032 0.498172 0.178384
Si Si4 0.619744 0.661687 0.618201
O O1 0.250000 0.500000 0.436505
O O2 0.278234 0.250000 0.250000
O O3 0.329548 0.284502 0.429771
O O4 0.250000 0.000000 0.435380
O O5 0.896621 0.644316 0.591449
O O6 0.979682 0.839429 0.613267
O O7 0.944922 0.844003 0.405934
O O8 0.913965 0.156000 0.547414
O O9 0.956872 0.250000 0.250000
O O10 0.000366 0.750000 0.250000
O O11 0.616849 0.750000 0.750000
#
# Coordination Sequence:
#
# PCOD8217008 Si02
#       4
#     8   8   8   8
#     4   9  17  29  45  68 100 136 165 194 244 303
#     4  11  22  34  52  76  99 134 179 212 251 308
#     4  11  22  37  53  71 102 137 172 218 263 300
#     4  11  20  32  51  75 106 137 170 211 249 301
#
# _framework density 18.829523999999999
#
# number of rings (size 3 to 8) (size 9 to 14) (size 15 to 20)
#    0.000    1.500    0.000    7.500    0.000    8.000 
#    0.000    0.000    0.000    0.000    0.000    0.000 
#    0.000   56.000    0.000    0.000    0.000    0.000 
#
# Total GULP energy -396494.464165 kJ/mol
# GULP energy per Si atom -12390.452005 kJ/mol
# Density = 1.878667 g / cm^3
# Si number density = 18.829524 Si / 1000 Ang^3
#
#
#
# Elastic Constant Matrix: (Units=GPa)
#
#
# Indices 1 2 3 4 5 6 
#
# 1 94.9772 23.8452 28.9779 0.0000 0.0000 0.0000
# 2 23.8452 112.8220 31.5704 0.0000 0.0000 0.0000
# 3 28.9779 31.5704 68.3464 0.0000 0.0000 0.0000
# 4 0.0000 0.0000 0.0000 23.1756 0.0000 0.0000
# 5 0.0000 0.0000 0.0000 0.0000 20.5215 0.0000
# 6 0.0000 0.0000 0.0000 0.0000 0.0000 25.6633
#
#
#
# Elastic Compliance Matrix: (Units=1/GPa)
#
#
# Indices 1 2 3 4 5 6 
#
# 1 0.012258 -0.001305 -0.004594 0.000000 0.000000 0.000000
# 2 -0.001305 0.010318 -0.004213 0.000000 0.000000 0.000000
# 3 -0.004594 -0.004213 0.018525 0.000000 0.000000 0.000000
# 4 0.000000 0.000000 0.000000 0.043149 0.000000 0.000000
# 5 0.000000 0.000000 0.000000 0.000000 0.048729 0.000000
# 6 0.000000 0.000000 0.000000 0.000000 0.000000 0.038966
#
#
# Mechanical properties :
#
#
# Convention : Reuss Voigt Hill
#
# Bulk Modulus (GPa) = 47.89968 49.43695 48.66831
# Shear Modulus (GPa) = 25.10923 26.65556 25.88240
#
# Velocity S-wave (km/s) = 3.65568 3.76656 3.71153
# Velocity P-wave (km/s) = 6.58122 6.72518 6.65359
#
# Compressibility (1/GPa) = 0.02087697
#
# Stress axis : x y z
#
# Youngs Moduli (GPa) = 81.57733 96.91599 53.98025
#
# Poissons Ratio (x) = 0.12649 0.24801
# Poissons Ratio (y) = 0.10647 0.22741
# Poissons Ratio (z) = 0.37480 0.40829
#
# Static dielectric constant tensor:
#      x y z
#    x 3.578460 0.000000 0.000000 
#    y 0.000000 3.568540 0.000000 
#    z 0.000000 0.000000 3.271220 
# 
# 
# High freq. dielectric constant tensor:
#      x y z
#    x 1.722630 0.000000 0.000000 
#    y 0.000000 1.754670 0.000000 
#    z 0.000000 0.000000 1.685990 
# 
# From -- ./inp_files/15162.got.cif
#   From: 2010.06.25/outbox.cif.g09.slc.cpg/sg52_8_cif.got.tgz:15162.got - 2010.06.26 19:32:48.
