data_PCOD8217126
_publ_section_title
;
Structure prediction by ZEFSAII (Michael W. Deem and Ramdas Pophale) SiO2 
 PCOD8217126
Probable space group: P N N A
;
_chemical_formula_sum "Si O2"
_cell_formula_units_Z 32
_cell_length_a 9.364140
_cell_length_b 10.338389
_cell_length_c 15.633506
_cell_angle_alpha 90.000000
_cell_angle_beta 90.000000
_cell_angle_gamma 90.000000
_cell_volume 1513.481623
_symmetry_space_group_name_H-M "P N N A"
_symmetry_group_IT_number 52
_symmetry_cell_setting 'orthorhombic'
loop_
_space_group_symop_operation_xyz
x,y,z
1/2-x,-y,z
x,1/2-y,1/2-z
1/2-x,1/2+y,1/2-z
-x,-y,-z
1/2+x,y,-z
-x,1/2+y,1/2+z
1/2+x,1/2-y,1/2+z
loop_
_atom_site_type_symbol
_atom_site_label
_atom_site_fract_x
_atom_site_fract_y
_atom_site_fract_z
Si Si1 0.758272 0.644360 0.029591
Si Si2 0.460258 0.733542 0.108613
Si Si3 0.590855 0.045128 0.766101
Si Si4 0.148965 0.381818 0.787805
O O1 0.750000 0.500000 0.989948
O O2 0.607028 0.702349 0.059426
O O3 0.864653 0.633315 0.110508
O O4 0.830013 0.735850 0.958952
O O5 0.465360 0.874325 0.152185
O O6 0.429559 0.626066 0.179746
O O7 0.750000 0.000000 0.782351
O O8 0.503108 0.911758 0.755437
O O9 0.250000 0.500000 0.762299
O O10 0.214804 0.250000 0.750000
#
# Coordination Sequence:
#
# PCOD8217126 Si02
#       4
#     8   8   8   8
#     4  11  22  39  69  99 130 175 229 293 336 402
#     4  11  24  43  67 101 138 172 235 289 341 402
#     4  11  25  43  66  97 142 181 227 279 346 418
#     4  11  23  42  68  99 133 180 225 280 346 412
#
# _framework density 21.143301000000001
#
# number of rings (size 3 to 8) (size 9 to 14) (size 15 to 20)
#    0.000    1.000    5.000    3.000    7.000    0.000 
#    0.000    6.250    0.000    0.000    0.000    0.000 
#    0.000    0.000    0.000    0.000    0.000    0.000 
#
# Total GULP energy -396829.179283 kJ/mol
# GULP energy per Si atom -12400.911853 kJ/mol
# Density = 2.109518 g / cm^3
# Si number density = 21.143301 Si / 1000 Ang^3
#
#
#
# Elastic Constant Matrix: (Units=GPa)
#
#
# Indices 1 2 3 4 5 6 
#
# 1 131.0979 37.2578 63.6382 0.0000 0.0000 0.0000
# 2 37.2578 101.9214 53.1066 0.0000 0.0000 0.0000
# 3 63.6382 53.1066 106.0614 0.0000 0.0000 0.0000
# 4 0.0000 0.0000 0.0000 26.0641 0.0000 0.0000
# 5 0.0000 0.0000 0.0000 0.0000 18.3233 0.0000
# 6 0.0000 0.0000 0.0000 0.0000 0.0000 23.6137
#
#
#
# Elastic Compliance Matrix: (Units=1/GPa)
#
#
# Indices 1 2 3 4 5 6 
#
# 1 0.010808 -0.000774 -0.006097 0.000000 0.000000 0.000000
# 2 -0.000774 0.013330 -0.006210 0.000000 0.000000 0.000000
# 3 -0.006097 -0.006210 0.016197 0.000000 0.000000 0.000000
# 4 0.000000 0.000000 0.000000 0.038367 0.000000 0.000000
# 5 0.000000 0.000000 0.000000 0.000000 0.054575 0.000000
# 6 0.000000 0.000000 0.000000 0.000000 0.000000 0.042348
#
#
# Mechanical properties :
#
#
# Convention : Reuss Voigt Hill
#
# Bulk Modulus (GPa) = 70.56369 71.89841 71.23105
# Shear Modulus (GPa) = 24.21170 25.93876 25.07523
#
# Velocity S-wave (km/s) = 3.38764 3.50638 3.44752
# Velocity P-wave (km/s) = 6.98197 7.10437 7.04344
#
# Compressibility (1/GPa) = 0.01417160
#
# Stress axis : x y z
#
# Youngs Moduli (GPa) = 92.52807 75.01711 61.74146
#
# Poissons Ratio (x) = 0.05804 0.37645
# Poissons Ratio (y) = 0.07159 0.38344
# Poissons Ratio (z) = 0.56416 0.46589
#
# Static dielectric constant tensor:
#      x y z
#    x 4.040070 0.000000 0.000000 
#    y 0.000000 4.033790 0.000000 
#    z 0.000000 0.000000 3.866990 
# 
# 
# High freq. dielectric constant tensor:
#      x y z
#    x 1.834730 0.000000 0.000000 
#    y 0.000000 1.818680 0.000000 
#    z 0.000000 0.000000 1.827510 
# 
# From -- ./inp_files/24059.got.cif
#   From: 2010.06.25/outbox.cif.g09.slc.cpg/sg52_13_cif.got.tgz:24059.got - 2010.06.26 19:32:48.
