data_PCOD8217045
_publ_section_title
;
Structure prediction by ZEFSAII (Michael W. Deem and Ramdas Pophale) SiO2 
 PCOD8217045
Probable space group: P N N A
;
_chemical_formula_sum "Si O2"
_cell_formula_units_Z 28
_cell_length_a 16.313978
_cell_length_b 6.548102
_cell_length_c 12.127645
_cell_angle_alpha 90.000000
_cell_angle_beta 90.000000
_cell_angle_gamma 90.000000
_cell_volume 1295.542856
_symmetry_space_group_name_H-M "P N N A"
_symmetry_group_IT_number 52
_symmetry_cell_setting 'orthorhombic'
loop_
_space_group_symop_operation_xyz
x,y,z
1/2-x,-y,z
x,1/2-y,1/2-z
1/2-x,1/2+y,1/2-z
-x,-y,-z
1/2+x,y,-z
-x,1/2+y,1/2+z
1/2+x,1/2-y,1/2+z
loop_
_atom_site_type_symbol
_atom_site_label
_atom_site_fract_x
_atom_site_fract_y
_atom_site_fract_z
Si Si1 0.707270 0.250000 0.750000
Si Si2 0.080701 0.572083 0.332462
Si Si3 0.250000 0.500000 0.064874
Si Si4 0.042047 0.750000 0.750000
Si Si5 0.415621 0.379822 0.975528
O O1 0.659563 0.456654 0.717162
O O2 0.761157 0.299497 0.857860
O O3 0.055254 0.750000 0.250000
O O4 0.087773 0.666267 0.455980
O O5 0.009944 0.403159 0.326801
O O6 0.335562 0.519667 0.000052
O O7 0.096358 0.644690 0.844065
O O8 0.500000 0.500000 0.000000
#
# Coordination Sequence:
#
# PCOD8217045 Si02
#       5
#     4   8   4   4   8
#     4  11  22  42  68 103 132 164 228 295 346 375
#     4  11  20  43  72 100 128 168 224 288 336 394
#     4  12  24  40  68  98 136 174 222 278 334 400
#     4  11  24  40  68  97 136 182 216 267 344 411
#     4  12  24  44  67  99 134 176 228 275 335 408
#
# _framework density 21.612562
#
# number of rings (size 3 to 8) (size 9 to 14) (size 15 to 20)
#    0.000    0.571    5.714    4.286    0.000    0.000 
#    0.000    5.714    0.000    0.000    0.000    0.000 
#    0.000    0.000    0.000    0.000    0.000    0.000 
#
# Total GULP energy -346901.136142 kJ/mol
# GULP energy per Si atom -12389.326291 kJ/mol
# Density = 2.156337 g / cm^3
# Si number density = 21.612562 Si / 1000 Ang^3
#
#
#
# Elastic Constant Matrix: (Units=GPa)
#
#
# Indices 1 2 3 4 5 6 
#
# 1 136.0635 19.7750 48.4124 0.0000 0.0000 0.0000
# 2 19.7750 81.9698 25.0822 0.0000 0.0000 0.0000
# 3 48.4124 25.0822 159.3571 0.0000 0.0000 0.0000
# 4 0.0000 0.0000 0.0000 38.2709 0.0000 0.0000
# 5 0.0000 0.0000 0.0000 0.0000 26.5237 0.0000
# 6 0.0000 0.0000 0.0000 0.0000 0.0000 0.6379
#
#
#
# Elastic Compliance Matrix: (Units=1/GPa)
#
#
# Indices 1 2 3 4 5 6 
#
# 1 0.008371 -0.001304 -0.002338 0.000000 0.000000 0.000000
# 2 -0.001304 0.013020 -0.001653 0.000000 0.000000 0.000000
# 3 -0.002338 -0.001653 0.007246 0.000000 0.000000 0.000000
# 4 0.000000 0.000000 0.000000 0.026129 0.000000 0.000000
# 5 0.000000 0.000000 0.000000 0.000000 0.037702 0.000000
# 6 0.000000 0.000000 0.000000 0.000000 0.000000 1.567718
#
#
# Mechanical properties :
#
#
# Convention : Reuss Voigt Hill
#
# Bulk Modulus (GPa) = 55.41235 62.65885 59.03560
# Shear Modulus (GPa) = 2.98189 32.02788 17.50488
#
# Velocity S-wave (km/s) = 1.17588 3.85374 2.84903
# Velocity P-wave (km/s) = 5.24769 6.98974 6.18040
#
# Compressibility (1/GPa) = 0.01804652
#
# Stress axis : x y z
#
# Youngs Moduli (GPa) = 119.46225 76.80450 138.01429
#
# Poissons Ratio (x) = 0.10016 0.32265
# Poissons Ratio (y) = 0.15579 0.22816
# Poissons Ratio (z) = 0.27928 0.12697
#
# Static dielectric constant tensor:
#      x y z
#    x 3.790190 0.000000 0.000000 
#    y 0.000000 4.149340 0.000000 
#    z 0.000000 0.000000 2.111900 
# 
# 
# High freq. dielectric constant tensor:
#      x y z
#    x 1.842220 0.000000 0.000000 
#    y 0.000000 1.859860 0.000000 
#    z 0.000000 0.000000 1.843960 
# 
# From -- ./inp_files/21130.got.cif
#   From: 2010.06.25/outbox.cif.g09.slc.cpg/sg52_11_cif.got.tgz:21130.got - 2010.06.26 19:32:48.
