data_PCOD8217921
_publ_section_title
;
Structure prediction by ZEFSAII (Michael W. Deem and Ramdas Pophale) SiO2 
 PCOD8217921
Probable space group: P M N A
;
_chemical_formula_sum "Si O2"
_cell_formula_units_Z 48
_cell_length_a 8.945227
_cell_length_b 9.959725
_cell_length_c 33.194413
_cell_angle_alpha 90.000000
_cell_angle_beta 90.000000
_cell_angle_gamma 90.000000
_cell_volume 2957.356676
_symmetry_space_group_name_H-M "P M N A"
_symmetry_group_IT_number 53
_symmetry_cell_setting 'orthorhombic'
loop_
_space_group_symop_operation_xyz
x,y,z
1/2-x,-y,1/2+z
x,-y,-z
1/2-x,y,1/2-z
-x,-y,-z
1/2+x,y,1/2-z
-x,y,z
1/2+x,-y,1/2+z
loop_
_atom_site_type_symbol
_atom_site_label
_atom_site_fract_x
_atom_site_fract_y
_atom_site_fract_z
Si Si1 0.830367 0.534907 0.290517
Si Si2 0.175355 0.188804 0.427766
Si Si3 0.823299 0.684444 0.144204
Si Si4 0.668227 0.157396 0.507591
Si Si5 0.323978 0.884373 0.087566
Si Si6 0.330424 0.428925 0.127594
O O1 0.750000 0.486864 0.250000
O O2 0.744936 0.662711 0.310773
O O3 0.825126 0.412862 0.323380
O O4 0.000000 0.576629 0.280622
O O5 0.258151 0.229342 0.469039
O O6 0.227918 0.293917 0.393595
O O7 0.000000 0.195250 0.436372
O O8 0.220315 0.041144 0.412522
O O9 0.756329 0.821046 0.126256
O O10 0.772461 0.557606 0.116015
O O11 0.000000 0.694723 0.146429
O O12 0.500000 0.211423 0.513615
O O13 0.764042 0.189137 0.547358
O O14 0.669750 0.000000 0.500000
O O15 0.500000 0.861921 0.090486
O O16 0.500000 0.460346 0.113680
#
# Coordination Sequence:
#
# PCOD8217921 Si02
#       6
#     8   8   8   8   8   8
#     4   9  17  31  52  74  96 121 154 191 229 280
#     4   9  17  31  50  70  93 126 162 197 236 280
#     4  10  19  31  48  71  98 125 157 194 235 280
#     4   9  17  28  43  66  95 126 160 198 235 277
#     4  10  18  30  49  70  94 127 164 198 235 279
#     4   8  17  32  49  70  96 122 155 194 235 280
#
# _framework density 16.230709999999998
#
# number of rings (size 3 to 8) (size 9 to 14) (size 15 to 20)
#    1.000    1.833    0.000    2.500    0.000    3.333 
#    0.000    0.833    0.000    6.000    0.000    2.333 
#    0.000    0.000    0.000    0.000    0.000    0.000 
#
# Total GULP energy -594772.043050 kJ/mol
# GULP energy per Si atom -12391.084230 kJ/mol
# Density = 1.619377 g / cm^3
# Si number density = 16.230710 Si / 1000 Ang^3
#
#
#
# Elastic Constant Matrix: (Units=GPa)
#
#
# Indices 1 2 3 4 5 6 
#
# 1 94.1213 18.7794 23.3068 0.0000 0.0000 0.0000
# 2 18.7794 37.7027 10.8930 0.0000 0.0000 0.0000
# 3 23.3068 10.8930 57.8258 0.0000 0.0000 0.0000
# 4 0.0000 0.0000 0.0000 23.2794 0.0000 0.0000
# 5 0.0000 0.0000 0.0000 0.0000 30.4871 0.0000
# 6 0.0000 0.0000 0.0000 0.0000 0.0000 17.7872
#
#
#
# Elastic Compliance Matrix: (Units=1/GPa)
#
#
# Indices 1 2 3 4 5 6 
#
# 1 0.012671 -0.005114 -0.004144 0.000000 0.000000 0.000000
# 2 -0.005114 0.030114 -0.003612 0.000000 0.000000 0.000000
# 3 -0.004144 -0.003612 0.019644 0.000000 0.000000 0.000000
# 4 0.000000 0.000000 0.000000 0.042956 0.000000 0.000000
# 5 0.000000 0.000000 0.000000 0.000000 0.032801 0.000000
# 6 0.000000 0.000000 0.000000 0.000000 0.000000 0.056220
#
#
# Mechanical properties :
#
#
# Convention : Reuss Voigt Hill
#
# Bulk Modulus (GPa) = 27.25528 32.84535 30.05032
# Shear Modulus (GPa) = 21.51693 23.42211 22.46952
#
# Velocity S-wave (km/s) = 3.64496 3.80290 3.72477
# Velocity P-wave (km/s) = 5.87734 6.28993 6.08713
#
# Compressibility (1/GPa) = 0.03669013
#
# Stress axis : x y z
#
# Youngs Moduli (GPa) = 78.91995 33.20712 50.90667
#
# Poissons Ratio (x) = 0.16983 0.21094
# Poissons Ratio (y) = 0.40361 0.18385
# Poissons Ratio (z) = 0.32702 0.11993
#
# Static dielectric constant tensor:
#      x y z
#    x 3.119100 0.000000 0.000000 
#    y 0.000000 2.808930 0.000000 
#    z 0.000000 0.000000 3.003320 
# 
# 
# High freq. dielectric constant tensor:
#      x y z
#    x 1.636380 0.000000 0.000000 
#    y 0.000000 1.586380 0.000000 
#    z 0.000000 0.000000 1.612920 
# 
# From -- ./inp_files/36171.got.cif
#   From: 2010.03.12/outbox.cif.g09.slc.cpg/sg53_19_cif.got.tgz:36171.got - 2010.04.16 14:36:59.
