data_PCOD8217924
_publ_section_title
;
Structure prediction by ZEFSAII (Michael W. Deem and Ramdas Pophale) SiO2 
 PCOD8217924
Probable space group: P M N A
;
_chemical_formula_sum "Si O2"
_cell_formula_units_Z 56
_cell_length_a 9.242316
_cell_length_b 22.679733
_cell_length_c 14.189138
_cell_angle_alpha 90.000000
_cell_angle_beta 90.000000
_cell_angle_gamma 90.000000
_cell_volume 2974.231461
_symmetry_space_group_name_H-M "P M N A"
_symmetry_group_IT_number 53
_symmetry_cell_setting 'orthorhombic'
loop_
_space_group_symop_operation_xyz
x,y,z
1/2-x,-y,1/2+z
x,-y,-z
1/2-x,y,1/2-z
-x,-y,-z
1/2+x,y,1/2-z
-x,y,z
1/2+x,-y,1/2+z
loop_
_atom_site_type_symbol
_atom_site_label
_atom_site_fract_x
_atom_site_fract_y
_atom_site_fract_z
Si Si1 0.171924 0.650876 0.657895
Si Si2 0.833675 0.525080 0.594464
Si Si3 0.830855 0.911138 0.043334
Si Si4 0.326054 0.808869 0.148853
Si Si5 0.669006 0.302239 0.966710
Si Si6 0.837988 0.599039 0.334038
Si Si7 0.832541 0.969208 0.848227
O O1 0.250000 0.675369 0.750000
O O2 0.234380 0.584842 0.636066
O O3 0.220342 0.696193 0.575370
O O4 0.000000 0.649472 0.672999
O O5 0.756360 0.500000 0.500000
O O6 0.818938 0.471424 0.667354
O O7 0.000000 0.540150 0.568819
O O8 0.725207 0.860390 0.079532
O O9 0.000000 0.893413 0.050592
O O10 0.799316 0.965956 0.112199
O O11 0.790670 0.924592 0.933758
O O12 0.250000 0.814574 0.250000
O O13 0.500000 0.810931 0.161221
O O14 0.265936 0.749413 0.097995
O O15 0.500000 0.291722 0.966161
O O16 0.710579 0.367879 0.929372
O O17 0.750000 0.627843 0.250000
O O18 0.000000 0.617242 0.312278
O O19 0.750000 0.956158 0.750000
O O20 0.000000 0.962191 0.823714
#
# Coordination Sequence:
#
# PCOD8217924 Si02
#       7
#     8   8   8   8   8   8   8
#     4  10  19  34  54  74  97 128 168 211 255 308
#     4   9  15  27  50  73  93 125 164 198 244 309
#     4   9  19  36  55  80 113 147 180 218 262 310
#     4  11  22  36  55  79 105 138 177 217 260 309
#     4   9  19  35  53  71  97 133 172 207 246 304
#     4  10  18  30  49  72  96 125 159 199 248 301
#     4   9  18  33  55  82 114 147 180 218 263 310
#
# _framework density 18.828393999999999
#
# number of rings (size 3 to 8) (size 9 to 14) (size 15 to 20)
#    0.000    2.429    1.429    2.571    0.000    2.286 
#    0.000    5.000    0.000    4.286    0.000    0.000 
#    0.000    0.000    0.000    0.000    0.000    0.000 
#
# Total GULP energy -693783.550729 kJ/mol
# GULP energy per Si atom -12388.991977 kJ/mol
# Density = 1.878554 g / cm^3
# Si number density = 18.828394 Si / 1000 Ang^3
#
#
#
# Elastic Constant Matrix: (Units=GPa)
#
#
# Indices 1 2 3 4 5 6 
#
# 1 53.9233 32.6052 54.2438 0.0000 0.0000 0.0000
# 2 32.6052 81.4487 43.3803 0.0000 0.0000 0.0000
# 3 54.2438 43.3803 158.5908 0.0000 0.0000 0.0000
# 4 0.0000 0.0000 0.0000 24.2720 0.0000 0.0000
# 5 0.0000 0.0000 0.0000 0.0000 34.1277 0.0000
# 6 0.0000 0.0000 0.0000 0.0000 0.0000 18.1232
#
#
#
# Elastic Compliance Matrix: (Units=1/GPa)
#
#
# Indices 1 2 3 4 5 6 
#
# 1 0.032433 -0.008282 -0.008828 0.000000 0.000000 0.000000
# 2 -0.008282 0.016486 -0.001677 0.000000 0.000000 0.000000
# 3 -0.008828 -0.001677 0.009784 0.000000 0.000000 0.000000
# 4 0.000000 0.000000 0.000000 0.041200 0.000000 0.000000
# 5 0.000000 0.000000 0.000000 0.000000 0.029302 0.000000
# 6 0.000000 0.000000 0.000000 0.000000 0.000000 0.055178
#
#
# Mechanical properties :
#
#
# Convention : Reuss Voigt Hill
#
# Bulk Modulus (GPa) = 47.32661 61.60237 54.46449
# Shear Modulus (GPa) = 21.83430 26.22016 24.02723
#
# Velocity S-wave (km/s) = 3.40905 3.73579 3.57615
# Velocity P-wave (km/s) = 6.37855 7.16917 6.78538
#
# Compressibility (1/GPa) = 0.02112976
#
# Stress axis : x y z
#
# Youngs Moduli (GPa) = 30.83312 60.65740 102.21089
#
# Poissons Ratio (x) = 0.50233 0.90230
# Poissons Ratio (y) = 0.25534 0.17140
# Poissons Ratio (z) = 0.27219 0.10172
#
# Static dielectric constant tensor:
#      x y z
#    x 3.113230 0.000000 0.000000 
#    y 0.000000 3.437390 0.000000 
#    z 0.000000 0.000000 3.623510 
# 
# 
# High freq. dielectric constant tensor:
#      x y z
#    x 1.694900 0.000000 0.000000 
#    y 0.000000 1.719010 0.000000 
#    z 0.000000 0.000000 1.745760 
# 
# From -- ./inp_files/20638.got.cif
#   From: 2010.03.12/outbox.cif.g09.slc.cpg/sg53_11_cif.got.tgz:20638.got - 2010.04.16 14:36:59.
