data_PCOD8217142
_publ_section_title
;
Structure prediction by ZEFSAII (Michael W. Deem and Ramdas Pophale) SiO2 
 PCOD8217142
Probable space group: P N N A
;
_chemical_formula_sum "Si O2"
_cell_formula_units_Z 32
_cell_length_a 9.418228
_cell_length_b 8.726541
_cell_length_c 17.290224
_cell_angle_alpha 90.000000
_cell_angle_beta 90.000000
_cell_angle_gamma 90.000000
_cell_volume 1421.058488
_symmetry_space_group_name_H-M "P N N A"
_symmetry_group_IT_number 52
_symmetry_cell_setting 'orthorhombic'
loop_
_space_group_symop_operation_xyz
x,y,z
1/2-x,-y,z
x,1/2-y,1/2-z
1/2-x,1/2+y,1/2-z
-x,-y,-z
1/2+x,y,-z
-x,1/2+y,1/2+z
1/2+x,1/2-y,1/2+z
loop_
_atom_site_type_symbol
_atom_site_label
_atom_site_fract_x
_atom_site_fract_y
_atom_site_fract_z
Si Si1 0.298607 0.167689 0.469117
Si Si2 0.893641 0.084153 0.217818
Si Si3 0.113900 0.895261 0.303680
Si Si4 0.484506 0.643533 0.443862
O O1 0.395963 0.157647 0.392539
O O2 0.393013 0.233746 0.538127
O O3 0.168238 0.280167 0.452623
O O4 0.250000 0.000000 0.495902
O O5 0.854381 0.250000 0.250000
O O6 0.998281 0.090465 0.144388
O O7 0.750000 0.000000 0.192651
O O8 0.971928 0.989543 0.285112
O O9 0.128873 0.750000 0.250000
O O10 0.250000 0.000000 0.290716
O O11 0.500000 0.500000 0.500000
#
# Coordination Sequence:
#
# PCOD8217142 Si02
#       4
#     8   8   8   8
#     4  11  24  42  67  98 133 175 219 273 331 395
#     4  12  26  44  66  97 134 176 223 276 331 392
#     4  11  22  41  66  95 128 172 221 273 332 396
#     4  12  25  45  69 100 135 175 221 274 331 395
#
# _framework density 22.518426000000002
#
# number of rings (size 3 to 8) (size 9 to 14) (size 15 to 20)
#    0.000    0.500    0.000   10.500    0.000    3.000 
#    0.000    0.000    0.000    0.000    0.000    0.000 
#    0.000    0.000    0.000    0.000    0.000    0.000 
#
# Total GULP energy -397102.194002 kJ/mol
# GULP energy per Si atom -12409.443563 kJ/mol
# Density = 2.246717 g / cm^3
# Si number density = 22.518426 Si / 1000 Ang^3
#
#
#
# Elastic Constant Matrix: (Units=GPa)
#
#
# Indices 1 2 3 4 5 6 
#
# 1 92.6332 6.2594 35.9865 0.0000 0.0000 0.0000
# 2 6.2594 113.9378 37.5299 0.0000 0.0000 0.0000
# 3 35.9865 37.5299 81.3466 0.0000 0.0000 0.0000
# 4 0.0000 0.0000 0.0000 64.3134 0.0000 0.0000
# 5 0.0000 0.0000 0.0000 0.0000 7.6882 0.0000
# 6 0.0000 0.0000 0.0000 0.0000 0.0000 18.1794
#
#
#
# Elastic Compliance Matrix: (Units=1/GPa)
#
#
# Indices 1 2 3 4 5 6 
#
# 1 0.013226 0.001416 -0.006504 0.000000 0.000000 0.000000
# 2 0.001416 0.010501 -0.005471 0.000000 0.000000 0.000000
# 3 -0.006504 -0.005471 0.017695 0.000000 0.000000 0.000000
# 4 0.000000 0.000000 0.000000 0.015549 0.000000 0.000000
# 5 0.000000 0.000000 0.000000 0.000000 0.130070 0.000000
# 6 0.000000 0.000000 0.000000 0.000000 0.000000 0.055007
#
#
# Mechanical properties :
#
#
# Convention : Reuss Voigt Hill
#
# Bulk Modulus (GPa) = 49.25409 49.71881 49.48645
# Shear Modulus (GPa) = 18.52298 31.91231 25.21764
#
# Velocity S-wave (km/s) = 2.87116 3.76861 3.35007
# Velocity P-wave (km/s) = 5.73687 6.40809 6.08175
#
# Compressibility (1/GPa) = 0.02030288
#
# Stress axis : x y z
#
# Youngs Moduli (GPa) = 75.60611 95.22853 56.51423
#
# Poissons Ratio (x) = -0.13483 0.36759
# Poissons Ratio (y) = -0.10705 0.30919
# Poissons Ratio (z) = 0.49177 0.52100
#
# Static dielectric constant tensor:
#      x y z
#    x 4.028050 0.000000 0.000000 
#    y 0.000000 4.419710 0.000000 
#    z 0.000000 0.000000 4.142270 
# 
# 
# High freq. dielectric constant tensor:
#      x y z
#    x 1.890860 0.000000 0.000000 
#    y 0.000000 1.913300 0.000000 
#    z 0.000000 0.000000 1.891940 
# 
# From -- ./inp_files/35453.got.cif
#   From: 2010.06.25/outbox.cif.g09.slc.cpg/sg52_18_cif.got.tgz:35453.got - 2010.06.26 19:32:48.
