data_PCOD8217630
_publ_section_title
;
Structure prediction by ZEFSAII (Michael W. Deem and Ramdas Pophale) SiO2 
 PCOD8217630
Probable space group: P M N A
;
_chemical_formula_sum "Si O2"
_cell_formula_units_Z 48
_cell_length_a 13.568328
_cell_length_b 13.292581
_cell_length_c 14.150878
_cell_angle_alpha 90.000000
_cell_angle_beta 90.000000
_cell_angle_gamma 90.000000
_cell_volume 2552.225455
_symmetry_space_group_name_H-M "P M N A"
_symmetry_group_IT_number 53
_symmetry_cell_setting 'orthorhombic'
loop_
_space_group_symop_operation_xyz
x,y,z
1/2-x,-y,1/2+z
x,-y,-z
1/2-x,y,1/2-z
-x,-y,-z
1/2+x,y,1/2-z
-x,y,z
1/2+x,-y,1/2+z
loop_
_atom_site_type_symbol
_atom_site_label
_atom_site_fract_x
_atom_site_fract_y
_atom_site_fract_z
Si Si1 0.210215 0.052111 0.397351
Si Si2 0.610278 0.990292 0.290064
Si Si3 0.885406 0.737730 0.570950
Si Si4 0.891022 0.479197 0.389592
Si Si5 0.110430 0.760159 0.183901
Si Si6 0.305423 0.319030 0.872723
O O1 0.177354 0.167735 0.395575
O O2 0.196140 0.000000 0.500000
O O3 0.148453 0.990964 0.318451
O O4 0.323421 0.055033 0.362485
O O5 0.500000 0.034874 0.292070
O O6 0.612274 0.878817 0.332578
O O7 0.855393 0.636077 0.628991
O O8 0.866659 0.715263 0.462103
O O9 0.000000 0.762498 0.585423
O O10 0.897650 0.500000 0.500000
O O11 0.816182 0.561934 0.347286
O O12 0.000000 0.494176 0.344945
O O13 0.145552 0.743955 0.290033
O O14 0.189050 0.706051 0.114328
O O15 0.000000 0.717614 0.165653
#
# Coordination Sequence:
#
# PCOD8217630 Si02
#       6
#     8   8   8   8   8   8
#     4  11  21  35  56  81 105 136 183 225 260 307
#     4  10  22  38  52  74 112 145 171 215 270 318
#     4  10  19  31  51  77 101 129 168 212 256 303
#     4   8  15  28  47  71  97 124 156 202 260 310
#     4  10  19  31  49  72 100 133 167 208 257 305
#     4  10  17  30  51  74 100 127 164 212 257 303
#
# _framework density 18.807116000000001
#
# number of rings (size 3 to 8) (size 9 to 14) (size 15 to 20)
#    0.000    2.167    0.000    7.000    0.000    3.000 
#    0.000    4.167    0.000    7.500    0.000    0.000 
#    0.000    0.000    0.000    0.000    0.000    0.000 
#
# Total GULP energy -594821.519610 kJ/mol
# GULP energy per Si atom -12392.114992 kJ/mol
# Density = 1.876431 g / cm^3
# Si number density = 18.807116 Si / 1000 Ang^3
#
#
#
# Elastic Constant Matrix: (Units=GPa)
#
#
# Indices 1 2 3 4 5 6 
#
# 1 141.0158 65.7144 21.6354 0.0000 0.0000 0.0000
# 2 65.7144 120.9306 22.6487 0.0000 0.0000 0.0000
# 3 21.6354 22.6487 43.0726 0.0000 0.0000 0.0000
# 4 0.0000 0.0000 0.0000 18.9891 0.0000 0.0000
# 5 0.0000 0.0000 0.0000 0.0000 22.5977 0.0000
# 6 0.0000 0.0000 0.0000 0.0000 0.0000 31.7592
#
#
#
# Elastic Compliance Matrix: (Units=1/GPa)
#
#
# Indices 1 2 3 4 5 6 
#
# 1 0.009703 -0.004836 -0.002331 0.000000 0.000000 0.000000
# 2 -0.004836 0.011583 -0.003661 0.000000 0.000000 0.000000
# 3 -0.002331 -0.003661 0.026313 0.000000 0.000000 0.000000
# 4 0.000000 0.000000 0.000000 0.052662 0.000000 0.000000
# 5 0.000000 0.000000 0.000000 0.000000 0.044252 0.000000
# 6 0.000000 0.000000 0.000000 0.000000 0.000000 0.031487
#
#
# Mechanical properties :
#
#
# Convention : Reuss Voigt Hill
#
# Bulk Modulus (GPa) = 38.54787 58.33513 48.44150
# Shear Modulus (GPa) = 24.23625 27.67057 25.95341
#
# Velocity S-wave (km/s) = 3.59371 3.83989 3.71884
# Velocity P-wave (km/s) = 6.14496 7.12352 6.65226
#
# Compressibility (1/GPa) = 0.02594177
#
# Stress axis : x y z
#
# Youngs Moduli (GPa) = 103.06544 86.33484 38.00450
#
# Poissons Ratio (x) = 0.41751 0.08858
# Poissons Ratio (y) = 0.49842 0.13915
# Poissons Ratio (z) = 0.24022 0.31611
#
# Static dielectric constant tensor:
#      x y z
#    x 3.788960 0.000000 0.000000 
#    y 0.000000 3.857190 0.000000 
#    z 0.000000 0.000000 3.158500 
# 
# 
# High freq. dielectric constant tensor:
#      x y z
#    x 1.732360 0.000000 0.000000 
#    y 0.000000 1.736110 0.000000 
#    z 0.000000 0.000000 1.693540 
# 
# From -- ./inp_files/22694.got.cif
#   From: 2010.03.12/outbox.cif.g09.slc.cpg/sg53_12_cif.got.tgz:22694.got - 2010.04.16 14:36:59.
