data_PCOD8217793
_publ_section_title
;
Structure prediction by ZEFSAII (Michael W. Deem and Ramdas Pophale) SiO2 
 PCOD8217793
Probable space group: P M N A
;
_chemical_formula_sum "Si O2"
_cell_formula_units_Z 64
_cell_length_a 8.928625
_cell_length_b 17.158135
_cell_length_c 26.914656
_cell_angle_alpha 90.000000
_cell_angle_beta 90.000000
_cell_angle_gamma 90.000000
_cell_volume 4123.286357
_symmetry_space_group_name_H-M "P M N A"
_symmetry_group_IT_number 53
_symmetry_cell_setting 'orthorhombic'
loop_
_space_group_symop_operation_xyz
x,y,z
1/2-x,-y,1/2+z
x,-y,-z
1/2-x,y,1/2-z
-x,-y,-z
1/2+x,y,1/2-z
-x,y,z
1/2+x,-y,1/2+z
loop_
_atom_site_type_symbol
_atom_site_label
_atom_site_fract_x
_atom_site_fract_y
_atom_site_fract_z
Si Si1 0.323248 0.724551 0.621036
Si Si2 0.327840 0.510844 0.390568
Si Si3 0.328757 0.654084 0.449101
Si Si4 0.174352 0.405077 0.197370
Si Si5 0.834179 0.987122 0.058574
Si Si6 0.824174 0.387945 0.454017
Si Si7 0.175218 0.174828 0.971166
Si Si8 0.323689 0.139040 0.074997
O O1 0.500000 0.735468 0.618758
O O2 0.274430 0.674313 0.669320
O O3 0.268305 0.680572 0.571986
O O4 0.245032 0.809391 0.620075
O O5 0.500000 0.484572 0.399653
O O6 0.309232 0.604586 0.397640
O O7 0.280472 0.480905 0.335754
O O8 0.223812 0.470762 0.431752
O O9 0.500000 0.646442 0.467974
O O10 0.217617 0.614622 0.488285
O O11 0.288581 0.745254 0.441540
O O12 0.250000 0.412418 0.250000
O O13 0.000000 0.402569 0.207310
O O14 0.779612 0.897178 0.065448
O O15 0.000000 0.999517 0.081252
O O16 0.723103 0.048966 0.084067
O O17 0.837455 0.000000 0.000000
O O18 0.000000 0.374795 0.446521
O O19 0.000000 0.167317 0.985072
O O20 0.266153 0.171844 0.022401
O O21 0.500000 0.145533 0.076496
#
# Coordination Sequence:
#
# PCOD8217793 Si02
#       8
#     8   8   8   8   8   8   8   8
#     4  10  19  32  47  63  85 116 149 179 215 265
#     4   9  19  33  46  62  83 114 149 176 212 265
#     4  10  18  29  45  60  83 119 153 181 212 254
#     4   9  19  34  51  67  85 109 140 179 222 267
#     4   8  15  27  40  55  79 115 153 182 211 250
#     4  11  20  28  40  62  88 114 145 183 221 252
#     4   9  17  28  42  58  81 119 156 184 214 250
#     4  11  19  26  40  63  87 113 146 185 220 253
#
# _framework density 15.521599999999999
#
# number of rings (size 3 to 8) (size 9 to 14) (size 15 to 20)
#    0.000    2.375    1.250    4.500    0.000    6.750 
#    0.000    0.000    0.000    0.000    0.000    0.000 
#    0.000    1.000    0.000    4.250    0.000    2.000 
#
# Total GULP energy -793139.390045 kJ/mol
# GULP energy per Si atom -12392.802969 kJ/mol
# Density = 1.548627 g / cm^3
# Si number density = 15.521600 Si / 1000 Ang^3
#
#
#
# Elastic Constant Matrix: (Units=GPa)
#
#
# Indices 1 2 3 4 5 6 
#
# 1 69.5424 44.4873 29.3740 0.0000 0.0000 0.0000
# 2 44.4873 137.1562 55.6005 0.0000 0.0000 0.0000
# 3 29.3740 55.6005 69.7226 0.0000 0.0000 0.0000
# 4 0.0000 0.0000 0.0000 13.3480 0.0000 0.0000
# 5 0.0000 0.0000 0.0000 0.0000 18.0949 0.0000
# 6 0.0000 0.0000 0.0000 0.0000 0.0000 12.4465
#
#
#
# Elastic Compliance Matrix: (Units=1/GPa)
#
#
# Indices 1 2 3 4 5 6 
#
# 1 0.019089 -0.004332 -0.004588 0.000000 0.000000 0.000000
# 2 -0.004332 0.011757 -0.007551 0.000000 0.000000 0.000000
# 3 -0.004588 -0.007551 0.022297 0.000000 0.000000 0.000000
# 4 0.000000 0.000000 0.000000 0.074917 0.000000 0.000000
# 5 0.000000 0.000000 0.000000 0.000000 0.055264 0.000000
# 6 0.000000 0.000000 0.000000 0.000000 0.000000 0.080344
#
#
# Mechanical properties :
#
#
# Convention : Reuss Voigt Hill
#
# Bulk Modulus (GPa) = 49.49985 59.48273 54.49129
# Shear Modulus (GPa) = 16.48308 18.57519 17.52914
#
# Velocity S-wave (km/s) = 3.26228 3.46313 3.36421
# Velocity P-wave (km/s) = 6.79339 7.37542 7.09038
#
# Compressibility (1/GPa) = 0.02020208
#
# Stress axis : x y z
#
# Youngs Moduli (GPa) = 52.38742 85.05694 44.85009
#
# Poissons Ratio (x) = 0.36844 0.20575
# Poissons Ratio (y) = 0.22693 0.33864
# Poissons Ratio (z) = 0.24033 0.64223
#
# Static dielectric constant tensor:
#      x y z
#    x 2.924080 0.000000 0.000000 
#    y 0.000000 3.456410 0.000000 
#    z 0.000000 0.000000 2.560760 
# 
# 
# High freq. dielectric constant tensor:
#      x y z
#    x 1.596700 0.000000 0.000000 
#    y 0.000000 1.607160 0.000000 
#    z 0.000000 0.000000 1.528600 
# 
# From -- ./inp_files/34424.got.cif
#   From: 2010.03.12/outbox.cif.g09.slc.cpg/sg53_18_cif.got.tgz:34424.got - 2010.04.16 14:36:59.
