data_PCOD8217203
_publ_section_title
;
Structure prediction by ZEFSAII (Michael W. Deem and Ramdas Pophale) SiO2 
 PCOD8217203
Probable space group: P N N A
;
_chemical_formula_sum "Si O2"
_cell_formula_units_Z 56
_cell_length_a 10.947256
_cell_length_b 19.756374
_cell_length_c 12.168248
_cell_angle_alpha 90.000000
_cell_angle_beta 90.000000
_cell_angle_gamma 90.000000
_cell_volume 2631.725361
_symmetry_space_group_name_H-M "P N N A"
_symmetry_group_IT_number 52
_symmetry_cell_setting 'orthorhombic'
loop_
_space_group_symop_operation_xyz
x,y,z
1/2-x,-y,z
x,1/2-y,1/2-z
1/2-x,1/2+y,1/2-z
-x,-y,-z
1/2+x,y,-z
-x,1/2+y,1/2+z
1/2+x,1/2-y,1/2+z
loop_
_atom_site_type_symbol
_atom_site_label
_atom_site_fract_x
_atom_site_fract_y
_atom_site_fract_z
Si Si1 0.250000 0.770919 0.915339
Si Si2 0.505023 0.922001 0.372504
Si Si3 0.889248 0.675267 0.714134
Si Si4 0.005023 0.077999 0.627496
Si Si5 0.750000 0.135991 0.280136
Si Si6 0.389248 0.324733 0.285865
Si Si7 1.000000 0.192329 1.000000
O O1 0.250000 0.843245 0.849300
O O2 0.250000 0.707426 0.837973
O O3 0.374415 0.764397 0.987471
O O4 0.125585 0.764397 0.987471
O O5 0.402494 0.876784 0.313730
O O6 0.500000 0.902048 0.500000
O O7 0.634428 0.908060 0.315808
O O8 0.469981 0.000000 0.356417
O O9 0.935390 0.750000 0.750000
O O10 0.750000 0.677218 0.675050
O O11 0.974915 0.650103 0.612082
O O12 0.902494 0.123216 0.686270
O O13 0.134428 0.091940 0.684192
O O14 0.435390 0.250000 0.250000
O O15 0.474915 0.349897 0.387918
#
# Coordination Sequence:
#
# PCOD8217203 Si02
#       7
#     8   8   8   8   8   8   8
#     4  11  24  38  70 102 138 169 230 282 345 394
#     4  11  26  44  67  98 137 179 222 274 339 411
#     4  11  25  41  67 101 136 176 225 282 340 401
#     4  11  26  44  67  98 137 179 222 274 339 411
#     4  11  23  42  67  97 131 178 223 281 328 407
#     4  11  25  41  67 101 136 176 225 282 340 401
#     4  12  22  42  63 102 135 174 220 284 344 396
#
# _framework density 21.278817
#
# number of rings (size 3 to 8) (size 9 to 14) (size 15 to 20)
#    0.000    0.857    4.286    2.143   10.000    0.571 
#    0.000    0.714    0.000    0.000    0.000    0.000 
#    0.000    0.000    0.000    0.000    0.000    0.000 
#
# Total GULP energy -694150.487093 kJ/mol
# GULP energy per Si atom -12395.544412 kJ/mol
# Density = 2.123039 g / cm^3
# Si number density = 21.278817 Si / 1000 Ang^3
#
#
#
# Elastic Constant Matrix: (Units=GPa)
#
#
# Indices 1 2 3 4 5 6 
#
# 1 126.4882 19.9899 37.9722 0.0000 0.0000 0.0000
# 2 19.9899 94.7367 60.1457 0.0000 0.0000 0.0000
# 3 37.9722 60.1457 132.1473 0.0000 0.0000 0.0000
# 4 0.0000 0.0000 0.0000 26.2677 0.0000 0.0000
# 5 0.0000 0.0000 0.0000 0.0000 36.5806 0.0000
# 6 0.0000 0.0000 0.0000 0.0000 0.0000 21.0967
#
#
#
# Elastic Compliance Matrix: (Units=1/GPa)
#
#
# Indices 1 2 3 4 5 6 
#
# 1 0.008660 -0.000348 -0.002330 0.000000 0.000000 0.000000
# 2 -0.000348 0.014859 -0.006663 0.000000 0.000000 0.000000
# 3 -0.002330 -0.006663 0.011269 0.000000 0.000000 0.000000
# 4 0.000000 0.000000 0.000000 0.038070 0.000000 0.000000
# 5 0.000000 0.000000 0.000000 0.000000 0.027337 0.000000
# 6 0.000000 0.000000 0.000000 0.000000 0.000000 0.047401
#
#
# Mechanical properties :
#
#
# Convention : Reuss Voigt Hill
#
# Bulk Modulus (GPa) = 62.08612 65.50977 63.79794
# Shear Modulus (GPa) = 29.12947 32.47330 30.80139
#
# Velocity S-wave (km/s) = 3.70394 3.91075 3.80875
# Velocity P-wave (km/s) = 6.89442 7.15857 7.02774
#
# Compressibility (1/GPa) = 0.01610666
#
# Stress axis : x y z
#
# Youngs Moduli (GPa) = 115.46820 67.29846 88.73524
#
# Poissons Ratio (x) = 0.02342 0.20676
# Poissons Ratio (y) = 0.04019 0.59124
# Poissons Ratio (z) = 0.26906 0.44841
#
# Static dielectric constant tensor:
#      x y z
#    x 4.015800 0.000000 0.000000 
#    y 0.000000 3.547200 0.000000 
#    z 0.000000 0.000000 4.344600 
# 
# 
# High freq. dielectric constant tensor:
#      x y z
#    x 1.855010 0.000000 0.000000 
#    y 0.000000 1.788270 0.000000 
#    z 0.000000 0.000000 1.854700 
# 
# From -- ./inp_files/18340.got.cif
#   From: 2010.06.25/outbox.cif.g09.slc.cpg/sg52_10_cif.got.tgz:18340.got - 2010.06.26 19:32:48.
