data_PCOD8217043
_publ_section_title
;
Structure prediction by ZEFSAII (Michael W. Deem and Ramdas Pophale) SiO2 
 PCOD8217043
Probable space group: P N N A
;
_chemical_formula_sum "Si O2"
_cell_formula_units_Z 52
_cell_length_a 16.734959
_cell_length_b 8.875937
_cell_length_c 16.287196
_cell_angle_alpha 90.000000
_cell_angle_beta 90.000000
_cell_angle_gamma 90.000000
_cell_volume 2419.274715
_symmetry_space_group_name_H-M "P N N A"
_symmetry_group_IT_number 52
_symmetry_cell_setting 'orthorhombic'
loop_
_space_group_symop_operation_xyz
x,y,z
1/2-x,-y,z
x,1/2-y,1/2-z
1/2-x,1/2+y,1/2-z
-x,-y,-z
1/2+x,y,-z
-x,1/2+y,1/2+z
1/2+x,1/2-y,1/2+z
loop_
_atom_site_type_symbol
_atom_site_label
_atom_site_fract_x
_atom_site_fract_y
_atom_site_fract_z
Si Si1 0.978447 0.064884 0.702050
Si Si2 0.650600 0.407148 0.553971
Si Si3 0.323885 0.919589 0.228737
Si Si4 0.007114 0.200983 0.416376
Si Si5 0.966296 0.178345 0.920971
Si Si6 0.750000 0.500000 0.411952
Si Si7 0.417329 0.467411 0.656049
O O1 0.962935 0.235363 0.667966
O O2 0.904518 0.015203 0.758734
O O3 0.987498 0.964683 0.620459
O O4 0.059127 0.044626 0.756756
O O5 0.704621 0.413532 0.634769
O O6 0.594949 0.263044 0.566120
O O7 0.605760 0.568811 0.555594
O O8 0.707807 0.381112 0.474407
O O9 0.343540 0.750000 0.250000
O O10 0.250000 0.000000 0.277483
O O11 0.965679 0.199264 0.505887
O O12 0.959531 0.305435 0.351334
O O13 0.047983 0.075726 0.917563
O O14 0.678376 0.558309 0.352951
#
# Coordination Sequence:
#
# PCOD8217043 Si02
#       7
#     8   8   8   8   8   4   8
#     4  12  24  40  62  97 134 162 205 273 341 374
#     4  11  21  38  66  88 121 160 218 256 310 379
#     4  12  25  38  62  95 132 164 203 266 334 393
#     4  11  20  43  64  90 118 173 216 260 318 391
#     4  11  22  39  66  94 118 169 218 263 314 392
#     4  12  22  40  66  96 122 168 228 266 296 378
#     4  11  22  39  68  92 124 170 224 260 314 385
#
# _framework density 21.494043999999999
#
# number of rings (size 3 to 8) (size 9 to 14) (size 15 to 20)
#    0.000    0.615    8.462    2.308    2.154    0.000 
#    0.000    3.077    0.000    1.846    0.000    0.000 
#    0.000    0.000    0.000    0.000    0.000    0.000 
#
# Total GULP energy -644195.281730 kJ/mol
# GULP energy per Si atom -12388.370803 kJ/mol
# Density = 2.144512 g / cm^3
# Si number density = 21.494044 Si / 1000 Ang^3
#
#
#
# Elastic Constant Matrix: (Units=GPa)
#
#
# Indices 1 2 3 4 5 6 
#
# 1 122.3750 31.0857 20.6045 0.0000 0.0000 0.0000
# 2 31.0857 76.4634 11.7390 0.0000 0.0000 0.0000
# 3 20.6045 11.7390 84.6285 0.0000 0.0000 0.0000
# 4 0.0000 0.0000 0.0000 29.6102 0.0000 0.0000
# 5 0.0000 0.0000 0.0000 0.0000 31.7211 0.0000
# 6 0.0000 0.0000 0.0000 0.0000 0.0000 15.5845
#
#
#
# Elastic Compliance Matrix: (Units=1/GPa)
#
#
# Indices 1 2 3 4 5 6 
#
# 1 0.009371 -0.003535 -0.001791 0.000000 0.000000 0.000000
# 2 -0.003535 0.014696 -0.001178 0.000000 0.000000 0.000000
# 3 -0.001791 -0.001178 0.012416 0.000000 0.000000 0.000000
# 4 0.000000 0.000000 0.000000 0.033772 0.000000 0.000000
# 5 0.000000 0.000000 0.000000 0.000000 0.031525 0.000000
# 6 0.000000 0.000000 0.000000 0.000000 0.000000 0.064167
#
#
# Mechanical properties :
#
#
# Convention : Reuss Voigt Hill
#
# Bulk Modulus (GPa) = 42.59830 45.59171 44.09500
# Shear Modulus (GPa) = 26.76955 30.05232 28.41094
#
# Velocity S-wave (km/s) = 3.53291 3.74327 3.63961
# Velocity P-wave (km/s) = 6.04182 6.31982 6.18238
#
# Compressibility (1/GPa) = 0.02347511
#
# Stress axis : x y z
#
# Youngs Moduli (GPa) = 106.71096 68.04559 80.54216
#
# Poissons Ratio (x) = 0.24053 0.14427
# Poissons Ratio (y) = 0.37720 0.09487
# Poissons Ratio (z) = 0.19115 0.08015
#
# Static dielectric constant tensor:
#      x y z
#    x 3.779900 0.000000 0.000000 
#    y 0.000000 3.685250 0.000000 
#    z 0.000000 0.000000 4.126890 
# 
# 
# High freq. dielectric constant tensor:
#      x y z
#    x 1.828100 0.000000 0.000000 
#    y 0.000000 1.823740 0.000000 
#    z 0.000000 0.000000 1.858560 
# 
# From -- ./inp_files/33726.got.cif
#   From: 2010.06.25/outbox.cif.g09.slc.cpg/sg52_17_cif.got.tgz:33726.got - 2010.06.26 19:32:48.
