data_PCOD8217346
_publ_section_title
;
Structure prediction by ZEFSAII (Michael W. Deem and Ramdas Pophale) SiO2 
 PCOD8217346
Probable space group: P N N A
;
_chemical_formula_sum "Si O2"
_cell_formula_units_Z 48
_cell_length_a 32.396518
_cell_length_b 9.087673
_cell_length_c 8.251584
_cell_angle_alpha 90.000000
_cell_angle_beta 90.000000
_cell_angle_gamma 90.000000
_cell_volume 2429.340280
_symmetry_space_group_name_H-M "P N N A"
_symmetry_group_IT_number 52
_symmetry_cell_setting 'orthorhombic'
loop_
_space_group_symop_operation_xyz
x,y,z
1/2-x,-y,z
x,1/2-y,1/2-z
1/2-x,1/2+y,1/2-z
-x,-y,-z
1/2+x,y,-z
-x,1/2+y,1/2+z
1/2+x,1/2-y,1/2+z
loop_
_atom_site_type_symbol
_atom_site_label
_atom_site_fract_x
_atom_site_fract_y
_atom_site_fract_z
Si Si1 0.654950 0.008367 0.700966
Si Si2 0.437202 0.703436 0.501403
Si Si3 0.759784 0.668855 0.407539
Si Si4 0.436092 0.996109 0.302066
Si Si5 0.496334 0.250000 0.250000
Si Si6 0.846273 0.776531 0.003480
Si Si7 0.280763 0.250000 0.250000
O O1 0.609832 0.933435 0.684550
O O2 0.662032 0.105633 0.540663
O O3 0.691063 0.891668 0.723431
O O4 0.654687 0.120666 0.847607
O O5 0.443241 0.866488 0.430014
O O6 0.441726 0.572675 0.374389
O O7 0.473711 0.669007 0.624541
O O8 0.391491 0.700309 0.584215
O O9 0.750000 0.500000 0.397866
O O10 0.739162 0.750000 0.250000
O O11 0.809062 0.678253 0.380310
O O12 0.746435 0.732790 0.585341
O O13 0.468255 0.126559 0.335274
#
# Coordination Sequence:
#
# PCOD8217346 Si02
#       7
#     8   8   8   8   4   8   4
#     4   9  18  36  64  86 111 157 201 252 299 365
#     4   9  20  35  55  80 111 154 193 238 285 362
#     4  12  28  42  63  94 128 163 207 264 309 368
#     4   9  19  36  54  82 116 146 196 243 291 350
#     4  12  19  30  56  86 112 150 190 242 301 342
#     4   9  19  39  59  81 116 157 205 239 302 369
#     4  12  23  40  66  94 120 160 214 252 319 370
#
# _framework density 19.758451999999998
#
# number of rings (size 3 to 8) (size 9 to 14) (size 15 to 20)
#    0.000    2.000    1.667    4.500    3.500    0.000 
#    0.000    0.000    0.000    0.000    0.000    0.000 
#    0.000    0.000    0.000    0.000    0.000    0.000 
#
# Total GULP energy -594735.120171 kJ/mol
# GULP energy per Si atom -12390.315004 kJ/mol
# Density = 1.971348 g / cm^3
# Si number density = 19.758452 Si / 1000 Ang^3
#
#
#
# Elastic Constant Matrix: (Units=GPa)
#
#
# Indices 1 2 3 4 5 6 
#
# 1 140.5656 47.6615 30.1507 0.0000 0.0000 0.0000
# 2 47.6615 79.6657 15.9611 0.0000 0.0000 0.0000
# 3 30.1507 15.9611 80.6730 0.0000 0.0000 0.0000
# 4 0.0000 0.0000 0.0000 12.9342 0.0000 0.0000
# 5 0.0000 0.0000 0.0000 0.0000 18.9746 0.0000
# 6 0.0000 0.0000 0.0000 0.0000 0.0000 31.4555
#
#
#
# Elastic Compliance Matrix: (Units=1/GPa)
#
#
# Indices 1 2 3 4 5 6 
#
# 1 0.009383 -0.005114 -0.002495 0.000000 0.000000 0.000000
# 2 -0.005114 0.015858 -0.001226 0.000000 0.000000 0.000000
# 3 -0.002495 -0.001226 0.013571 0.000000 0.000000 0.000000
# 4 0.000000 0.000000 0.000000 0.077314 0.000000 0.000000
# 5 0.000000 0.000000 0.000000 0.000000 0.052702 0.000000
# 6 0.000000 0.000000 0.000000 0.000000 0.000000 0.031791
#
#
# Mechanical properties :
#
#
# Convention : Reuss Voigt Hill
#
# Bulk Modulus (GPa) = 47.30049 54.27231 50.78640
# Shear Modulus (GPa) = 22.18906 26.48160 24.33533
#
# Velocity S-wave (km/s) = 3.35478 3.66494 3.51328
# Velocity P-wave (km/s) = 6.24479 6.74066 6.49746
#
# Compressibility (1/GPa) = 0.02114143
#
# Stress axis : x y z
#
# Youngs Moduli (GPa) = 106.57294 63.06149 73.68738
#
# Poissons Ratio (x) = 0.32248 0.18386
# Poissons Ratio (y) = 0.54499 0.09035
# Poissons Ratio (z) = 0.26591 0.07732
#
# Static dielectric constant tensor:
#      x y z
#    x 3.992050 0.000000 0.000000 
#    y 0.000000 3.462600 0.000000 
#    z 0.000000 0.000000 3.590870 
# 
# 
# High freq. dielectric constant tensor:
#      x y z
#    x 1.788180 0.000000 0.000000 
#    y 0.000000 1.762160 0.000000 
#    z 0.000000 0.000000 1.750130 
# 
# From -- ./inp_files/15612.got.cif
#   From: 2010.06.25/outbox.cif.g09.slc.cpg/sg52_8_cif.got.tgz:15612.got - 2010.06.26 19:32:48.
