data_PCOD8217520
_publ_section_title
;
Structure prediction by ZEFSAII (Michael W. Deem and Ramdas Pophale) SiO2 
 PCOD8217520
Probable space group: P M N A
;
_chemical_formula_sum "Si O2"
_cell_formula_units_Z 48
_cell_length_a 8.755777
_cell_length_b 15.490424
_cell_length_c 20.132622
_cell_angle_alpha 90.000000
_cell_angle_beta 90.000000
_cell_angle_gamma 90.000000
_cell_volume 2730.601578
_symmetry_space_group_name_H-M "P M N A"
_symmetry_group_IT_number 53
_symmetry_cell_setting 'orthorhombic'
loop_
_space_group_symop_operation_xyz
x,y,z
1/2-x,-y,1/2+z
x,-y,-z
1/2-x,y,1/2-z
-x,-y,-z
1/2+x,y,1/2-z
-x,y,z
1/2+x,-y,1/2+z
loop_
_atom_site_type_symbol
_atom_site_label
_atom_site_fract_x
_atom_site_fract_y
_atom_site_fract_z
Si Si1 0.678368 0.581026 0.931621
Si Si2 0.679756 0.902911 0.181091
Si Si3 0.318772 0.098357 0.180507
Si Si4 0.677548 0.770542 0.927130
Si Si5 0.319910 0.413260 0.576246
Si Si6 0.818552 0.237888 0.576636
O O1 0.500000 0.566333 0.946223
O O2 0.704726 0.674118 0.896776
O O3 0.746496 0.499972 0.889574
O O4 0.770334 0.585260 0.000009
O O5 0.750000 0.869873 0.250000
O O6 0.500000 0.898156 0.188618
O O7 0.736456 0.841920 0.121536
O O8 0.733227 0.000415 0.164962
O O9 0.250000 0.130048 0.250000
O O10 0.500000 0.106570 0.184801
O O11 0.248807 0.159306 0.122556
O O12 0.500000 0.791431 0.932554
O O13 0.744908 0.778641 0.001863
O O14 0.500000 0.416034 0.585131
O O15 0.253944 0.325157 0.607905
O O16 0.000000 0.249402 0.576316
#
# Coordination Sequence:
#
# PCOD8217520 Si02
#       6
#     8   8   8   8   8   8
#     4   9  15  26  43  63  89 122 153 184 221 269
#     4   9  18  31  49  68  90 119 152 185 224 271
#     4   9  17  31  48  68  91 119 151 185 222 268
#     4   8  15  27  46  69  92 116 150 188 222 258
#     4  10  17  25  40  65  93 120 148 185 227 269
#     4   9  17  30  46  67  91 120 153 187 225 267
#
# _framework density 17.578543
#
# number of rings (size 3 to 8) (size 9 to 14) (size 15 to 20)
#    0.000    3.000    0.000    4.000    0.000    1.333 
#    0.000    7.500    0.000    1.000    0.000   11.667 
#    0.000    0.000    0.000    0.000    0.000    0.000 
#
# Total GULP energy -594757.644398 kJ/mol
# GULP energy per Si atom -12390.784258 kJ/mol
# Density = 1.753853 g / cm^3
# Si number density = 17.578543 Si / 1000 Ang^3
#
#
#
# Elastic Constant Matrix: (Units=GPa)
#
#
# Indices 1 2 3 4 5 6 
#
# 1 34.1784 34.6173 22.9856 0.0000 0.0000 0.0000
# 2 34.6173 155.6921 79.0735 0.0000 0.0000 0.0000
# 3 22.9856 79.0735 83.5385 0.0000 0.0000 0.0000
# 4 0.0000 0.0000 0.0000 8.0375 0.0000 0.0000
# 5 0.0000 0.0000 0.0000 0.0000 17.9387 0.0000
# 6 0.0000 0.0000 0.0000 0.0000 0.0000 14.4563
#
#
#
# Elastic Compliance Matrix: (Units=1/GPa)
#
#
# Indices 1 2 3 4 5 6 
#
# 1 0.038747 -0.006164 -0.004827 0.000000 0.000000 0.000000
# 2 -0.006164 0.013350 -0.010940 0.000000 0.000000 0.000000
# 3 -0.004827 -0.010940 0.023654 0.000000 0.000000 0.000000
# 4 0.000000 0.000000 0.000000 0.124417 0.000000 0.000000
# 5 0.000000 0.000000 0.000000 0.000000 0.055745 0.000000
# 6 0.000000 0.000000 0.000000 0.000000 0.000000 0.069174
#
#
# Mechanical properties :
#
#
# Convention : Reuss Voigt Hill
#
# Bulk Modulus (GPa) = 31.35854 60.75131 46.05492
# Shear Modulus (GPa) = 13.17246 17.20202 15.18724
#
# Velocity S-wave (km/s) = 2.74039 3.13162 2.94252
# Velocity P-wave (km/s) = 5.28118 6.90732 6.14825
#
# Compressibility (1/GPa) = 0.03188924
#
# Stress axis : x y z
#
# Youngs Moduli (GPa) = 25.80819 74.90751 42.27560
#
# Poissons Ratio (x) = 0.46170 0.20407
# Poissons Ratio (y) = 0.15907 0.46251
# Poissons Ratio (z) = 0.12458 0.81951
#
# Static dielectric constant tensor:
#      x y z
#    x 3.037640 0.000000 0.000000 
#    y 0.000000 4.109320 0.000000 
#    z 0.000000 0.000000 3.054400 
# 
# 
# High freq. dielectric constant tensor:
#      x y z
#    x 1.661100 0.000000 0.000000 
#    y 0.000000 1.702100 0.000000 
#    z 0.000000 0.000000 1.629250 
# 
# From -- ./inp_files/30486.got.cif
#   From: 2010.03.12/outbox.cif.g09.slc.cpg/sg53_16_cif.got.tgz:30486.got - 2010.04.16 14:36:59.
