data_PCOD8217970
_publ_section_title
;
Structure prediction by ZEFSAII (Michael W. Deem and Ramdas Pophale) SiO2 
 PCOD8217970
Probable space group: P M N A
;
_chemical_formula_sum "Si O2"
_cell_formula_units_Z 48
_cell_length_a 17.011955
_cell_length_b 12.116513
_cell_length_c 13.136458
_cell_angle_alpha 90.000000
_cell_angle_beta 90.000000
_cell_angle_gamma 90.000000
_cell_volume 2707.759944
_symmetry_space_group_name_H-M "P M N A"
_symmetry_group_IT_number 53
_symmetry_cell_setting 'orthorhombic'
loop_
_space_group_symop_operation_xyz
x,y,z
1/2-x,-y,1/2+z
x,-y,-z
1/2-x,y,1/2-z
-x,-y,-z
1/2+x,y,1/2-z
-x,y,z
1/2+x,-y,1/2+z
loop_
_atom_site_type_symbol
_atom_site_label
_atom_site_fract_x
_atom_site_fract_y
_atom_site_fract_z
Si Si1 0.204270 0.809086 0.354128
Si Si2 0.360998 0.614177 0.877269
Si Si3 0.768991 0.235582 0.061121
Si Si4 0.910611 0.375546 0.601884
Si Si5 0.181316 0.948859 0.670298
Si Si6 0.910852 0.782840 0.790461
O O1 0.250000 0.807286 0.250000
O O2 0.268085 0.767210 0.438463
O O3 0.130028 0.728801 0.346448
O O4 0.166139 0.930099 0.376159
O O5 0.270504 0.652920 0.893552
O O6 0.363250 0.483222 0.858999
O O7 0.398568 0.676724 0.781261
O O8 0.410141 0.638993 0.979727
O O9 0.710066 0.134878 0.084418
O O10 0.855282 0.223859 0.109458
O O11 0.000000 0.383418 0.639697
O O12 0.250000 0.960724 0.750000
O O13 0.106032 0.895241 0.727281
O O14 0.000000 0.785979 0.830170
#
# Coordination Sequence:
#
# PCOD8217970 Si02
#       6
#     8   8   8   8   8   8
#     4  10  20  33  49  68  96 136 172 199 239 299
#     4   9  17  32  51  72  97 126 160 200 248 300
#     4   9  18  32  51  73  96 129 168 204 244 295
#     4  10  19  31  49  74 100 125 160 207 251 290
#     4   8  16  31  50  70  95 126 161 197 236 291
#     4  10  18  30  52  80 104 125 158 209 260 298
#
# _framework density 17.726831000000001
#
# number of rings (size 3 to 8) (size 9 to 14) (size 15 to 20)
#    0.000    2.667    0.000    4.000    0.000    2.000 
#    0.000    0.833    0.000   19.000    0.000   11.667 
#    0.000    0.000    0.000    0.000    0.000    0.000 
#
# Total GULP energy -594899.541423 kJ/mol
# GULP energy per Si atom -12393.740446 kJ/mol
# Density = 1.768648 g / cm^3
# Si number density = 17.726831 Si / 1000 Ang^3
#
#
#
# Elastic Constant Matrix: (Units=GPa)
#
#
# Indices 1 2 3 4 5 6 
#
# 1 117.4996 46.0264 40.2657 0.0000 0.0000 0.0000
# 2 46.0264 123.8697 29.3715 0.0000 0.0000 0.0000
# 3 40.2657 29.3715 71.3239 0.0000 0.0000 0.0000
# 4 0.0000 0.0000 0.0000 17.8727 0.0000 0.0000
# 5 0.0000 0.0000 0.0000 0.0000 18.3901 0.0000
# 6 0.0000 0.0000 0.0000 0.0000 0.0000 18.4834
#
#
#
# Elastic Compliance Matrix: (Units=1/GPa)
#
#
# Indices 1 2 3 4 5 6 
#
# 1 0.011493 -0.003028 -0.005241 0.000000 0.000000 0.000000
# 2 -0.003028 0.009744 -0.002303 0.000000 0.000000 0.000000
# 3 -0.005241 -0.002303 0.017928 0.000000 0.000000 0.000000
# 4 0.000000 0.000000 0.000000 0.055951 0.000000 0.000000
# 5 0.000000 0.000000 0.000000 0.000000 0.054377 0.000000
# 6 0.000000 0.000000 0.000000 0.000000 0.000000 0.054103
#
#
# Mechanical properties :
#
#
# Convention : Reuss Voigt Hill
#
# Bulk Modulus (GPa) = 55.49354 60.44671 57.97013
# Shear Modulus (GPa) = 21.66869 24.08456 22.87663
#
# Velocity S-wave (km/s) = 3.50003 3.68999 3.59626
# Velocity P-wave (km/s) = 6.90698 7.23379 7.07227
#
# Compressibility (1/GPa) = 0.01802012
#
# Stress axis : x y z
#
# Youngs Moduli (GPa) = 87.01107 102.62571 55.77817
#
# Poissons Ratio (x) = 0.31071 0.29236
# Poissons Ratio (y) = 0.26343 0.12848
# Poissons Ratio (z) = 0.45606 0.23640
#
# Static dielectric constant tensor:
#      x y z
#    x 3.389360 0.000000 0.000000 
#    y 0.000000 3.798700 0.000000 
#    z 0.000000 0.000000 3.202220 
# 
# 
# High freq. dielectric constant tensor:
#      x y z
#    x 1.659380 0.000000 0.000000 
#    y 0.000000 1.694500 0.000000 
#    z 0.000000 0.000000 1.671530 
# 
# From -- ./inp_files/22699.got.cif
#   From: 2010.03.12/outbox.cif.g09.slc.cpg/sg53_12_cif.got.tgz:22699.got - 2010.04.16 14:36:59.
