data_PCOD8217652
_publ_section_title
;
Structure prediction by ZEFSAII (Michael W. Deem and Ramdas Pophale) SiO2 
 PCOD8217652
Probable space group: P M N A
;
_chemical_formula_sum "Si O2"
_cell_formula_units_Z 32
_cell_length_a 17.224584
_cell_length_b 7.085307
_cell_length_c 15.936358
_cell_angle_alpha 90.000000
_cell_angle_beta 90.000000
_cell_angle_gamma 90.000000
_cell_volume 1944.896486
_symmetry_space_group_name_H-M "P M N A"
_symmetry_group_IT_number 53
_symmetry_cell_setting 'orthorhombic'
loop_
_space_group_symop_operation_xyz
x,y,z
1/2-x,-y,1/2+z
x,-y,-z
1/2-x,y,1/2-z
-x,-y,-z
1/2+x,y,1/2-z
-x,y,z
1/2+x,-y,1/2+z
loop_
_atom_site_type_symbol
_atom_site_label
_atom_site_fract_x
_atom_site_fract_y
_atom_site_fract_z
Si Si1 0.199176 0.250000 0.166669
Si Si2 0.692733 0.968078 0.095989
Si Si3 0.807267 0.468079 0.595989
Si Si4 0.908843 0.249999 0.303855
O O1 0.250000 0.250003 0.250000
O O2 0.222822 0.435609 0.113063
O O3 0.111211 0.250000 0.202720
O O4 0.222822 0.064389 0.113064
O O5 0.698127 0.749999 0.120020
O O6 0.626082 0.063351 0.152461
O O7 0.669197 0.000000 0.000000
O O8 0.830804 0.500000 0.500000
O O9 0.873919 0.563352 0.652461
O O10 0.000000 0.249998 0.315011
#
# Coordination Sequence:
#
# PCOD8217652 Si02
#       4
#     8   8   8   8
#     4   8  18  32  50  72  98 130 163 206 234 286
#     4  10  17  32  53  77  95 124 170 208 241 276
#     4  10  17  32  53  77  95 124 170 208 241 276
#     4  10  22  34  46  74 110 134 152 192 254 306
#
# _framework density 16.453317999999999
#
# number of rings (size 3 to 8) (size 9 to 14) (size 15 to 20)
#    0.000    3.000    5.000    0.000    0.000   11.000 
#    0.000    0.000    0.000    1.500    0.000    0.000 
#    0.000    0.000    0.000    0.000    0.000    0.000 
#
# Total GULP energy -396437.325963 kJ/mol
# GULP energy per Si atom -12388.666436 kJ/mol
# Density = 1.641587 g / cm^3
# Si number density = 16.453318 Si / 1000 Ang^3
#
#
#
# Elastic Constant Matrix: (Units=GPa)
#
#
# Indices 1 2 3 4 5 6 
#
# 1 79.5529 47.2607 58.3636 0.0000 0.0000 0.0000
# 2 47.2607 177.4638 37.5922 0.0000 0.0000 0.0000
# 3 58.3636 37.5922 53.3447 0.0000 0.0000 0.0000
# 4 0.0000 0.0000 0.0000 23.7538 0.0000 0.0000
# 5 0.0000 0.0000 0.0000 0.0000 16.3609 0.0000
# 6 0.0000 0.0000 0.0000 0.0000 0.0000 2.0672
#
#
#
# Elastic Compliance Matrix: (Units=1/GPa)
#
#
# Indices 1 2 3 4 5 6 
#
# 1 0.064729 -0.002629 -0.068966 0.000000 0.000000 0.000000
# 2 -0.002629 0.006730 -0.001867 0.000000 0.000000 0.000000
# 3 -0.068966 -0.001867 0.095516 0.000000 0.000000 0.000000
# 4 0.000000 0.000000 0.000000 0.042099 0.000000 0.000000
# 5 0.000000 0.000000 0.000000 0.000000 0.061121 0.000000
# 6 0.000000 0.000000 0.000000 0.000000 0.000000 0.483756
#
#
# Mechanical properties :
#
#
# Convention : Reuss Voigt Hill
#
# Bulk Modulus (GPa) = 49.87039 66.31050 58.09045
# Shear Modulus (GPa) = 5.50928 19.57936 12.54432
#
# Velocity S-wave (km/s) = 1.83186 3.45337 2.76419
# Velocity P-wave (km/s) = 5.90341 7.50272 6.75059
#
# Compressibility (1/GPa) = 0.02005198
#
# Stress axis : x y z
#
# Youngs Moduli (GPa) = 15.44908 148.57748 10.46940
#
# Poissons Ratio (x) = 0.39060 0.72203
# Poissons Ratio (y) = 0.04061 0.01954
# Poissons Ratio (z) = 1.06546 0.27735
#
# Static dielectric constant tensor:
#      x y z
#    x 3.266190 0.000000 0.000000 
#    y 0.000000 3.525380 0.000000 
#    z 0.000000 0.000000 3.642730 
# 
# 
# High freq. dielectric constant tensor:
#      x y z
#    x 1.587910 0.000000 0.000000 
#    y 0.000000 1.642540 0.000000 
#    z 0.000000 0.000000 1.637520 
# 
# From -- ./inp_files/27831.got.cif
#   From: 2010.03.12/outbox.cif.g09.slc.cpg/sg53_14_cif.got.tgz:27831.got - 2010.04.16 14:36:59.
