data_PCOD8217744
_publ_section_title
;
Structure prediction by ZEFSAII (Michael W. Deem and Ramdas Pophale) SiO2 
 PCOD8217744
Probable space group: P M N A
;
_chemical_formula_sum "Si O2"
_cell_formula_units_Z 56
_cell_length_a 9.177446
_cell_length_b 13.796859
_cell_length_c 27.542598
_cell_angle_alpha 90.000000
_cell_angle_beta 90.000000
_cell_angle_gamma 90.000000
_cell_volume 3487.441788
_symmetry_space_group_name_H-M "P M N A"
_symmetry_group_IT_number 53
_symmetry_cell_setting 'orthorhombic'
loop_
_space_group_symop_operation_xyz
x,y,z
1/2-x,-y,1/2+z
x,-y,-z
1/2-x,y,1/2-z
-x,-y,-z
1/2+x,y,1/2-z
-x,y,z
1/2+x,-y,1/2+z
loop_
_atom_site_type_symbol
_atom_site_label
_atom_site_fract_x
_atom_site_fract_y
_atom_site_fract_z
Si Si1 0.667447 0.719420 0.969155
Si Si2 0.831726 0.479690 0.702796
Si Si3 0.665758 0.607366 0.449791
Si Si4 0.671641 0.890929 0.489187
Si Si5 0.832846 0.557777 0.601095
Si Si6 0.164503 0.794794 0.109984
Si Si7 0.329087 0.255565 0.798712
O O1 0.500000 0.737735 0.982939
O O2 0.681861 0.670067 0.915769
O O3 0.735014 0.643689 0.006586
O O4 0.750795 0.821914 0.971320
O O5 0.750000 0.519733 0.750000
O O6 0.785850 0.546448 0.657193
O O7 0.790744 0.368110 0.691925
O O8 0.000000 0.489259 0.714781
O O9 0.500000 0.593897 0.468047
O O10 0.727613 0.505481 0.432324
O O11 0.671452 0.683178 0.405854
O O12 0.500000 0.875081 0.495330
O O13 0.719417 0.862587 0.434461
O O14 0.720343 0.000000 0.500000
O O15 0.000000 0.521409 0.594818
O O16 0.268920 0.808052 0.156326
O O17 0.000000 0.823603 0.124725
O O18 0.250000 0.219132 0.750000
O O19 0.500000 0.237134 0.793575
#
# Coordination Sequence:
#
# PCOD8217744 Si02
#       7
#     8   8   8   8   8   8   8
#     4  10  20  31  46  67  93 122 154 190 229 277
#     4   9  18  30  43  61  88 123 161 194 227 266
#     4  10  19  29  43  64  93 126 160 192 223 265
#     4   9  19  36  54  71  94 121 151 193 241 285
#     4  10  19  31  44  63  93 127 157 190 231 269
#     4   9  17  29  45  67  92 121 155 189 229 276
#     4  10  18  28  44  64  91 125 158 192 226 268
#
# _framework density 16.057614999999998
#
# number of rings (size 3 to 8) (size 9 to 14) (size 15 to 20)
#    0.000    2.429    1.429    2.571    0.000    6.571 
#    0.000    0.000    0.000    0.000    0.000    1.000 
#    0.000    4.571    0.000    0.000    0.000    0.000 
#
# Total GULP energy -694305.586932 kJ/mol
# GULP energy per Si atom -12398.314052 kJ/mol
# Density = 1.602107 g / cm^3
# Si number density = 16.057615 Si / 1000 Ang^3
#
#
#
# Elastic Constant Matrix: (Units=GPa)
#
#
# Indices 1 2 3 4 5 6 
#
# 1 67.3063 38.3998 40.7128 0.0000 0.0000 0.0000
# 2 38.3998 87.1484 52.2080 0.0000 0.0000 0.0000
# 3 40.7128 52.2080 88.7491 0.0000 0.0000 0.0000
# 4 0.0000 0.0000 0.0000 15.8979 0.0000 0.0000
# 5 0.0000 0.0000 0.0000 0.0000 26.9125 0.0000
# 6 0.0000 0.0000 0.0000 0.0000 0.0000 15.6810
#
#
#
# Elastic Compliance Matrix: (Units=1/GPa)
#
#
# Indices 1 2 3 4 5 6 
#
# 1 0.022257 -0.005699 -0.006858 0.000000 0.000000 0.000000
# 2 -0.005699 0.019178 -0.008668 0.000000 0.000000 0.000000
# 3 -0.006858 -0.008668 0.019513 0.000000 0.000000 0.000000
# 4 0.000000 0.000000 0.000000 0.062901 0.000000 0.000000
# 5 0.000000 0.000000 0.000000 0.000000 0.037157 0.000000
# 6 0.000000 0.000000 0.000000 0.000000 0.000000 0.063771
#
#
# Mechanical properties :
#
#
# Convention : Reuss Voigt Hill
#
# Bulk Modulus (GPa) = 54.05587 56.20501 55.13044
# Shear Modulus (GPa) = 18.28872 19.15717 18.72294
#
# Velocity S-wave (km/s) = 3.37849 3.45777 3.41836
# Velocity P-wave (km/s) = 6.99683 7.14280 7.07019
#
# Compressibility (1/GPa) = 0.01849938
#
# Stress axis : x y z
#
# Youngs Moduli (GPa) = 44.93000 52.14255 51.24900
#
# Poissons Ratio (x) = 0.29714 0.35146
# Poissons Ratio (y) = 0.25604 0.44421
# Poissons Ratio (z) = 0.30812 0.45196
#
# Static dielectric constant tensor:
#      x y z
#    x 3.088000 0.000000 0.000000 
#    y 0.000000 2.791600 0.000000 
#    z 0.000000 0.000000 3.064920 
# 
# 
# High freq. dielectric constant tensor:
#      x y z
#    x 1.627050 0.000000 0.000000 
#    y 0.000000 1.572310 0.000000 
#    z 0.000000 0.000000 1.611570 
# 
# From -- ./inp_files/38317.got.cif
#   From: 2010.03.12/outbox.cif.g09.slc.cpg/sg53_20_cif.got.tgz:38317.got - 2010.04.16 14:36:59.
