data_PCOD8217413
_publ_section_title
;
Structure prediction by ZEFSAII (Michael W. Deem and Ramdas Pophale) SiO2 
 PCOD8217413
Probable space group: P N N A
;
_chemical_formula_sum "Si O2"
_cell_formula_units_Z 32
_cell_length_a 8.546687
_cell_length_b 31.966906
_cell_length_c 4.857551
_cell_angle_alpha 90.000000
_cell_angle_beta 90.000000
_cell_angle_gamma 90.000000
_cell_volume 1327.137046
_symmetry_space_group_name_H-M "P N N A"
_symmetry_group_IT_number 52
_symmetry_cell_setting 'orthorhombic'
loop_
_space_group_symop_operation_xyz
x,y,z
1/2-x,-y,z
x,1/2-y,1/2-z
1/2-x,1/2+y,1/2-z
-x,-y,-z
1/2+x,y,-z
-x,1/2+y,1/2+z
1/2+x,1/2-y,1/2+z
loop_
_atom_site_type_symbol
_atom_site_label
_atom_site_fract_x
_atom_site_fract_y
_atom_site_fract_z
Si Si1 0.836310 0.830192 0.782111
Si Si2 0.002013 0.797598 0.285130
Si Si3 0.027015 0.545381 0.370634
Si Si4 0.151750 0.423423 0.158708
O O1 0.972674 0.810185 0.598944
O O2 0.684367 0.801440 0.774680
O O3 0.792236 0.875530 0.655626
O O4 0.902489 0.829299 0.092134
O O5 0.947142 0.750000 0.250000
O O6 0.095852 0.443012 0.870615
O O7 0.203789 0.548613 0.265082
O O8 0.000000 0.500000 0.500000
O O9 0.993026 0.576287 0.625693
#
# Coordination Sequence:
#
# PCOD8217413 Si02
#       4
#     8   8   8   8
#     4  12  25  44  70 100 137 183 230 283 340 407
#     4  12  25  44  68 102 141 184 231 284 342 406
#     4  12  27  47  72 102 138 179 227 286 348 415
#     4  12  25  47  71 102 137 180 230 283 344 414
#
# _framework density 24.112051999999998
#
# number of rings (size 3 to 8) (size 9 to 14) (size 15 to 20)
#    0.000    0.000    0.000   11.250    0.000    2.000 
#    0.000    0.000    0.000    0.000    0.000    0.000 
#    0.000    0.000    0.000    0.000    0.000    0.000 
#
# Total GULP energy -396909.380383 kJ/mol
# GULP energy per Si atom -12403.418137 kJ/mol
# Density = 2.405717 g / cm^3
# Si number density = 24.112052 Si / 1000 Ang^3
#
#
#
# Elastic Constant Matrix: (Units=GPa)
#
#
# Indices 1 2 3 4 5 6 
#
# 1 83.1584 11.2967 17.5530 0.0000 0.0000 0.0000
# 2 11.2967 137.7899 39.3385 0.0000 0.0000 0.0000
# 3 17.5530 39.3385 117.0190 0.0000 0.0000 0.0000
# 4 0.0000 0.0000 0.0000 34.6938 0.0000 0.0000
# 5 0.0000 0.0000 0.0000 0.0000 44.0018 0.0000
# 6 0.0000 0.0000 0.0000 0.0000 0.0000 36.2001
#
#
#
# Elastic Compliance Matrix: (Units=1/GPa)
#
#
# Indices 1 2 3 4 5 6 
#
# 1 0.012455 -0.000540 -0.001687 0.000000 0.000000 0.000000
# 2 -0.000540 0.008051 -0.002626 0.000000 0.000000 0.000000
# 3 -0.001687 -0.002626 0.009681 0.000000 0.000000 0.000000
# 4 0.000000 0.000000 0.000000 0.028824 0.000000 0.000000
# 5 0.000000 0.000000 0.000000 0.000000 0.022726 0.000000
# 6 0.000000 0.000000 0.000000 0.000000 0.000000 0.027624
#
#
# Mechanical properties :
#
#
# Convention : Reuss Voigt Hill
#
# Bulk Modulus (GPa) = 48.82063 52.70485 50.76274
# Shear Modulus (GPa) = 39.71623 40.96442 40.34033
#
# Velocity S-wave (km/s) = 4.06292 4.12627 4.09471
# Velocity P-wave (km/s) = 6.50393 6.67886 6.59197
#
# Compressibility (1/GPa) = 0.02048314
#
# Stress axis : x y z
#
# Youngs Moduli (GPa) = 80.29167 124.20385 103.29165
#
# Poissons Ratio (x) = 0.06701 0.17424
# Poissons Ratio (y) = 0.04332 0.27121
# Poissons Ratio (z) = 0.13544 0.32612
#
# Static dielectric constant tensor:
#      x y z
#    x 4.310490 0.000000 0.000000 
#    y 0.000000 4.362150 0.000000 
#    z 0.000000 0.000000 4.657520 
# 
# 
# High freq. dielectric constant tensor:
#      x y z
#    x 1.961380 0.000000 0.000000 
#    y 0.000000 1.964850 0.000000 
#    z 0.000000 0.000000 1.974000 
# 
# From -- ./inp_files/394.got.cif
#   From: 2010.06.25/outbox.cif.g09.slc.cpg/sg52_1_cif.got.tgz:394.got - 2010.06.26 19:32:48.
