data_PCOD8217896
_publ_section_title
;
Structure prediction by ZEFSAII (Michael W. Deem and Ramdas Pophale) SiO2 
 PCOD8217896
Probable space group: P M N A
;
_chemical_formula_sum "Si O2"
_cell_formula_units_Z 64
_cell_length_a 9.349954
_cell_length_b 20.001357
_cell_length_c 19.231902
_cell_angle_alpha 90.000000
_cell_angle_beta 90.000000
_cell_angle_gamma 90.000000
_cell_volume 3596.591993
_symmetry_space_group_name_H-M "P M N A"
_symmetry_group_IT_number 53
_symmetry_cell_setting 'orthorhombic'
loop_
_space_group_symop_operation_xyz
x,y,z
1/2-x,-y,1/2+z
x,-y,-z
1/2-x,y,1/2-z
-x,-y,-z
1/2+x,y,1/2-z
-x,y,z
1/2+x,-y,1/2+z
loop_
_atom_site_type_symbol
_atom_site_label
_atom_site_fract_x
_atom_site_fract_y
_atom_site_fract_z
Si Si1 0.666105 0.976542 0.077632
Si Si2 0.165734 0.649613 0.538999
Si Si3 0.836466 0.260457 0.818302
Si Si4 0.334514 0.387569 0.596318
Si Si5 0.164992 0.798566 0.566674
Si Si6 0.669557 0.154499 0.566639
Si Si7 0.341840 0.511069 0.917776
Si Si8 0.165263 0.903635 0.679126
O O1 0.500000 0.956952 0.085077
O O2 0.710503 0.035013 0.130148
O O3 0.763892 0.913448 0.096789
O O4 0.700837 0.000000 0.000000
O O5 0.260558 0.645432 0.470241
O O6 0.195259 0.719759 0.577010
O O7 0.203819 0.588976 0.592750
O O8 0.000000 0.642595 0.516098
O O9 0.750000 0.242348 0.750000
O O10 0.812640 0.337664 0.839249
O O11 0.785911 0.213598 0.881287
O O12 0.000000 0.245916 0.800603
O O13 0.500000 0.398157 0.578286
O O14 0.267277 0.459274 0.617915
O O15 0.264993 0.829438 0.508073
O O16 0.200479 0.834492 0.639309
O O17 0.000000 0.812321 0.545320
O O18 0.500000 0.147227 0.559096
O O19 0.500000 0.497775 0.886945
O O20 0.340513 0.500000 0.000000
O O21 0.250000 0.906346 0.750000
O O22 0.000000 0.908135 0.698394
#
# Coordination Sequence:
#
# PCOD8217896 Si02
#       8
#     8   8   8   8   8   8   8   8
#     4  10  20  38  60  82 109 143 183 220 258 316
#     4   9  17  29  50  77 103 135 177 218 258 311
#     4  10  23  38  51  73 106 142 184 227 272 327
#     4  10  18  30  47  71 104 136 171 220 272 318
#     4  10  19  35  58  81 107 146 184 217 265 323
#     4  11  22  36  55  83 112 137 176 230 275 317
#     4   8  15  27  43  71 103 131 170 214 256 310
#     4  10  22  39  59  83 112 142 179 220 264 320
#
# _framework density 17.794623999999999
#
# number of rings (size 3 to 8) (size 9 to 14) (size 15 to 20)
#    0.000    2.250    2.500    1.500    0.000    6.000 
#    0.000    2.500    0.000    0.750    0.000    3.500 
#    0.000    0.000    0.000    0.000    0.000    0.000 
#
# Total GULP energy -793545.514774 kJ/mol
# GULP energy per Si atom -12399.148668 kJ/mol
# Density = 1.775412 g / cm^3
# Si number density = 17.794624 Si / 1000 Ang^3
#
#
#
# Elastic Constant Matrix: (Units=GPa)
#
#
# Indices 1 2 3 4 5 6 
#
# 1 81.1134 57.0798 48.3372 0.0000 0.0000 0.0000
# 2 57.0798 145.2542 49.6312 0.0000 0.0000 0.0000
# 3 48.3372 49.6312 94.6717 0.0000 0.0000 0.0000
# 4 0.0000 0.0000 0.0000 16.1866 0.0000 0.0000
# 5 0.0000 0.0000 0.0000 0.0000 27.9450 0.0000
# 6 0.0000 0.0000 0.0000 0.0000 0.0000 15.6020
#
#
#
# Elastic Compliance Matrix: (Units=1/GPa)
#
#
# Indices 1 2 3 4 5 6 
#
# 1 0.020840 -0.005547 -0.007732 0.000000 0.000000 0.000000
# 2 -0.005547 0.009863 -0.002338 0.000000 0.000000 0.000000
# 3 -0.007732 -0.002338 0.015737 0.000000 0.000000 0.000000
# 4 0.000000 0.000000 0.000000 0.061780 0.000000 0.000000
# 5 0.000000 0.000000 0.000000 0.000000 0.035785 0.000000
# 6 0.000000 0.000000 0.000000 0.000000 0.000000 0.064094
#
#
# Mechanical properties :
#
#
# Convention : Reuss Voigt Hill
#
# Bulk Modulus (GPa) = 65.77280 70.12620 67.94950
# Shear Modulus (GPa) = 20.45805 23.01279 21.73542
#
# Velocity S-wave (km/s) = 3.39437 3.60007 3.49873
# Velocity P-wave (km/s) = 7.23911 7.53491 7.38849
#
# Compressibility (1/GPa) = 0.01520385
#
# Stress axis : x y z
#
# Youngs Moduli (GPa) = 47.98479 101.38454 63.54590
#
# Poissons Ratio (x) = 0.56242 0.49135
# Poissons Ratio (y) = 0.26619 0.14860
# Poissons Ratio (z) = 0.37103 0.23709
#
# Static dielectric constant tensor:
#      x y z
#    x 3.300070 0.000000 0.000000 
#    y 0.000000 3.811660 0.000000 
#    z 0.000000 0.000000 2.893950 
# 
# 
# High freq. dielectric constant tensor:
#      x y z
#    x 1.688860 0.000000 0.000000 
#    y 0.000000 1.709040 0.000000 
#    z 0.000000 0.000000 1.647790 
# 
# From -- ./inp_files/26963.got.cif
#   From: 2010.03.12/outbox.cif.g09.slc.cpg/sg53_14_cif.got.tgz:26963.got - 2010.04.16 14:36:59.
