data_PCOD8217949
_publ_section_title
;
Structure prediction by ZEFSAII (Michael W. Deem and Ramdas Pophale) SiO2 
 PCOD8217949
Probable space group: P M N A
;
_chemical_formula_sum "Si O2"
_cell_formula_units_Z 56
_cell_length_a 8.820683
_cell_length_b 23.367866
_cell_length_c 13.681961
_cell_angle_alpha 90.000000
_cell_angle_beta 90.000000
_cell_angle_gamma 90.000000
_cell_volume 2820.133167
_symmetry_space_group_name_H-M "P M N A"
_symmetry_group_IT_number 53
_symmetry_cell_setting 'orthorhombic'
loop_
_space_group_symop_operation_xyz
x,y,z
1/2-x,-y,1/2+z
x,-y,-z
1/2-x,y,1/2-z
-x,-y,-z
1/2+x,y,1/2-z
-x,y,z
1/2+x,-y,1/2+z
loop_
_atom_site_type_symbol
_atom_site_label
_atom_site_fract_x
_atom_site_fract_y
_atom_site_fract_z
Si Si1 0.677047 0.694675 0.855606
Si Si2 0.828806 0.201253 0.045736
Si Si3 0.322116 0.526476 0.351520
Si Si4 0.176394 0.918572 0.854463
Si Si5 0.821248 0.588128 0.954075
Si Si6 0.680561 0.969486 0.141946
Si Si7 0.175635 0.145603 0.852418
O O1 0.750000 0.688688 0.750000
O O2 0.500000 0.688940 0.841358
O O3 0.713207 0.755347 0.904716
O O4 0.734323 0.645424 0.927308
O O5 0.797441 0.137826 0.083128
O O6 0.000000 0.221025 0.071115
O O7 0.805097 0.198248 0.928285
O O8 0.250000 0.545913 0.250000
O O9 0.500000 0.526104 0.338679
O O10 0.275528 0.571584 0.435252
O O11 0.268395 0.462845 0.381964
O O12 0.250000 0.906528 0.750000
O O13 0.000000 0.933415 0.841683
O O14 0.259401 0.972191 0.910265
O O15 0.000000 0.598433 0.945300
O O16 0.750000 0.973880 0.250000
O O17 0.500000 0.968210 0.140543
O O18 0.745818 0.910359 0.098739
O O19 0.250000 0.163918 0.750000
O O20 0.000000 0.131152 0.834322
#
# Coordination Sequence:
#
# PCOD8217949 Si02
#       7
#     8   8   8   8   8   8   8
#     4  12  25  40  61  86 114 148 187 229 274 326
#     4  10  23  40  58  79 106 142 183 228 277 327
#     4   9  18  33  57  88 122 159 194 237 284 328
#     4  10  19  33  52  76 105 137 173 216 270 328
#     4   9  19  37  58  84 120 158 197 235 279 329
#     4  10  18  30  50  76 105 137 172 214 268 329
#     4  10  20  37  58  79 104 136 176 224 277 332
#
# _framework density 19.857216999999999
#
# number of rings (size 3 to 8) (size 9 to 14) (size 15 to 20)
#    0.000    2.000    0.000    6.857    0.000    6.286 
#    0.000    5.000    0.000    0.000    0.000    0.000 
#    0.000    0.000    0.000    0.000    0.000    0.000 
#
# Total GULP energy -694327.790527 kJ/mol
# GULP energy per Si atom -12398.710545 kJ/mol
# Density = 1.981202 g / cm^3
# Si number density = 19.857217 Si / 1000 Ang^3
#
#
#
# Elastic Constant Matrix: (Units=GPa)
#
#
# Indices 1 2 3 4 5 6 
#
# 1 127.2918 46.5647 44.4641 0.0000 0.0000 0.0000
# 2 46.5647 71.2180 39.3609 0.0000 0.0000 0.0000
# 3 44.4641 39.3609 103.3758 0.0000 0.0000 0.0000
# 4 0.0000 0.0000 0.0000 21.2427 0.0000 0.0000
# 5 0.0000 0.0000 0.0000 0.0000 28.5632 0.0000
# 6 0.0000 0.0000 0.0000 0.0000 0.0000 33.4466
#
#
#
# Elastic Compliance Matrix: (Units=1/GPa)
#
#
# Indices 1 2 3 4 5 6 
#
# 1 0.010805 -0.005694 -0.002479 0.000000 0.000000 0.000000
# 2 -0.005694 0.020785 -0.005465 0.000000 0.000000 0.000000
# 3 -0.002479 -0.005465 0.012821 0.000000 0.000000 0.000000
# 4 0.000000 0.000000 0.000000 0.047075 0.000000 0.000000
# 5 0.000000 0.000000 0.000000 0.000000 0.035010 0.000000
# 6 0.000000 0.000000 0.000000 0.000000 0.000000 0.029898
#
#
# Mechanical properties :
#
#
# Convention : Reuss Voigt Hill
#
# Bulk Modulus (GPa) = 58.36463 62.51835 60.44149
# Shear Modulus (GPa) = 26.40165 28.08354 27.24260
#
# Velocity S-wave (km/s) = 3.65029 3.76476 3.70797
# Velocity P-wave (km/s) = 6.87183 7.10283 6.98829
#
# Compressibility (1/GPa) = 0.01713366
#
# Stress axis : x y z
#
# Youngs Moduli (GPa) = 92.54885 48.11194 77.99983
#
# Poissons Ratio (x) = 0.27397 0.19338
# Poissons Ratio (y) = 0.52702 0.42624
# Poissons Ratio (z) = 0.22946 0.26291
#
# Static dielectric constant tensor:
#      x y z
#    x 3.589700 0.000000 0.000000 
#    y 0.000000 3.659520 0.000000 
#    z 0.000000 0.000000 3.353540 
# 
# 
# High freq. dielectric constant tensor:
#      x y z
#    x 1.776030 0.000000 0.000000 
#    y 0.000000 1.762760 0.000000 
#    z 0.000000 0.000000 1.780190 
# 
# From -- ./inp_files/20607.got.cif
#   From: 2010.03.12/outbox.cif.g09.slc.cpg/sg53_11_cif.got.tgz:20607.got - 2010.04.16 14:36:59.
