data_PCOD8217019
_publ_section_title
;
Structure prediction by ZEFSAII (Michael W. Deem and Ramdas Pophale) SiO2 
 PCOD8217019
Probable space group: P N N A
;
_chemical_formula_sum "Si O2"
_cell_formula_units_Z 56
_cell_length_a 15.394305
_cell_length_b 11.664275
_cell_length_c 16.192190
_cell_angle_alpha 90.000000
_cell_angle_beta 90.000000
_cell_angle_gamma 90.000000
_cell_volume 2907.524802
_symmetry_space_group_name_H-M "P N N A"
_symmetry_group_IT_number 52
_symmetry_cell_setting 'orthorhombic'
loop_
_space_group_symop_operation_xyz
x,y,z
1/2-x,-y,z
x,1/2-y,1/2-z
1/2-x,1/2+y,1/2-z
-x,-y,-z
1/2+x,y,-z
-x,1/2+y,1/2+z
1/2+x,1/2-y,1/2+z
loop_
_atom_site_type_symbol
_atom_site_label
_atom_site_fract_x
_atom_site_fract_y
_atom_site_fract_z
Si Si1 0.325190 0.842869 0.878946
Si Si2 0.157136 0.709555 0.154899
Si Si3 0.916337 0.473120 0.264882
Si Si4 0.691955 0.750000 0.250000
Si Si5 0.222965 0.376005 0.436186
Si Si6 0.463779 0.680972 0.834731
Si Si7 0.401630 0.632033 0.298680
Si Si8 0.750000 0.500000 0.794507
O O1 0.250929 0.777322 0.828465
O O2 0.400110 0.748569 0.896254
O O3 0.359470 0.957453 0.832450
O O4 0.287091 0.878287 0.966078
O O5 0.164800 0.750000 0.250000
O O6 0.196111 0.798309 0.090526
O O7 0.211466 0.594306 0.144534
O O8 0.059209 0.684392 0.126825
O O9 0.866949 0.361093 0.231908
O O10 0.933264 0.551212 0.183846
O O11 0.008507 0.437890 0.305206
O O12 0.250000 0.500000 0.404948
O O13 0.133298 0.338268 0.390714
O O14 0.460774 0.750000 0.750000
O O15 0.415837 0.750000 0.250000
O O16 0.328101 0.552254 0.258987
#
# Coordination Sequence:
#
# PCOD8217019 Si02
#       8
#     8   8   8   4   8   8   8   4
#     4  11  25  43  64  90 123 167 216 265 315 373
#     4  11  20  36  64  91 124 167 205 248 317 386
#     4  11  22  40  67  93 121 164 218 264 307 370
#     4  12  22  42  68  88 118 166 222 266 306 368
#     4  12  24  39  62  96 134 160 201 259 326 377
#     4   9  20  38  63  88 117 162 213 251 305 376
#     4  12  22  38  64 101 131 165 204 256 316 382
#     4  12  18  36  66  92 126 164 202 248 304 386
#
# _framework density 19.260369000000001
#
# number of rings (size 3 to 8) (size 9 to 14) (size 15 to 20)
#    0.000    0.857    7.857    1.286    4.000    0.571 
#    2.571    1.429    0.000    2.571    0.000    0.000 
#    0.000    0.000    0.000    0.000    0.000    0.000 
#
# Total GULP energy -694336.072800 kJ/mol
# GULP energy per Si atom -12398.858443 kJ/mol
# Density = 1.921653 g / cm^3
# Si number density = 19.260369 Si / 1000 Ang^3
#
#
#
# Elastic Constant Matrix: (Units=GPa)
#
#
# Indices 1 2 3 4 5 6 
#
# 1 134.8263 66.0266 30.5741 0.0000 0.0000 0.0000
# 2 66.0266 146.1432 37.4346 0.0000 0.0000 0.0000
# 3 30.5741 37.4346 61.6994 0.0000 0.0000 0.0000
# 4 0.0000 0.0000 0.0000 21.3127 0.0000 0.0000
# 5 0.0000 0.0000 0.0000 0.0000 32.8144 0.0000
# 6 0.0000 0.0000 0.0000 0.0000 0.0000 36.5235
#
#
#
# Elastic Compliance Matrix: (Units=1/GPa)
#
#
# Indices 1 2 3 4 5 6 
#
# 1 0.009861 -0.003793 -0.002585 0.000000 0.000000 0.000000
# 2 -0.003793 0.009561 -0.003921 0.000000 0.000000 0.000000
# 3 -0.002585 -0.003921 0.019868 0.000000 0.000000 0.000000
# 4 0.000000 0.000000 0.000000 0.046920 0.000000 0.000000
# 5 0.000000 0.000000 0.000000 0.000000 0.030474 0.000000
# 6 0.000000 0.000000 0.000000 0.000000 0.000000 0.027380
#
#
# Mechanical properties :
#
#
# Convention : Reuss Voigt Hill
#
# Bulk Modulus (GPa) = 53.50242 67.85996 60.68119
# Shear Modulus (GPa) = 29.25831 32.03901 30.64866
#
# Velocity S-wave (km/s) = 3.90178 4.08299 3.99341
# Velocity P-wave (km/s) = 6.93811 7.58533 7.26892
#
# Compressibility (1/GPa) = 0.01869074
#
# Stress axis : x y z
#
# Youngs Moduli (GPa) = 101.41442 104.59625 50.33298
#
# Poissons Ratio (x) = 0.39671 0.13011
# Poissons Ratio (y) = 0.38464 0.19737
# Poissons Ratio (z) = 0.26216 0.41014
#
# Static dielectric constant tensor:
#      x y z
#    x 3.924140 0.000000 0.000000 
#    y 0.000000 3.929840 0.000000 
#    z 0.000000 0.000000 3.064160 
# 
# 
# High freq. dielectric constant tensor:
#      x y z
#    x 1.768740 0.000000 0.000000 
#    y 0.000000 1.769040 0.000000 
#    z 0.000000 0.000000 1.701040 
# 
# From -- ./inp_files/27337.got.cif
#   From: 2010.06.25/outbox.cif.g09.slc.cpg/sg52_14_cif.got.tgz:27337.got - 2010.06.26 19:32:48.
