data_PCOD8217128
_publ_section_title
;
Structure prediction by ZEFSAII (Michael W. Deem and Ramdas Pophale) SiO2 
 PCOD8217128
Probable space group: P N N A
;
_chemical_formula_sum "Si O2"
_cell_formula_units_Z 56
_cell_length_a 21.410198
_cell_length_b 13.762478
_cell_length_c 9.385787
_cell_angle_alpha 90.000000
_cell_angle_beta 90.000000
_cell_angle_gamma 90.000000
_cell_volume 2765.591397
_symmetry_space_group_name_H-M "P N N A"
_symmetry_group_IT_number 52
_symmetry_cell_setting 'orthorhombic'
loop_
_space_group_symop_operation_xyz
x,y,z
1/2-x,-y,z
x,1/2-y,1/2-z
1/2-x,1/2+y,1/2-z
-x,-y,-z
1/2+x,y,-z
-x,1/2+y,1/2+z
1/2+x,1/2-y,1/2+z
loop_
_atom_site_type_symbol
_atom_site_label
_atom_site_fract_x
_atom_site_fract_y
_atom_site_fract_z
Si Si1 0.683651 0.250000 0.750000
Si Si2 0.238925 0.733784 0.525388
Si Si3 0.478144 0.250000 0.750000
Si Si4 0.780142 0.899007 0.266621
Si Si5 0.052851 0.900075 0.272210
Si Si6 0.918565 0.887132 0.639365
Si Si7 0.404803 0.229321 0.030072
Si Si8 0.083384 0.359514 0.804465
O O1 0.726402 0.285137 0.621370
O O2 0.642215 0.156971 0.712904
O O3 0.269465 0.825668 0.603280
O O4 0.247073 0.638690 0.623222
O O5 0.167192 0.754134 0.492128
O O6 0.519253 0.158090 0.705767
O O7 0.435292 0.288455 0.622557
O O8 0.854670 0.912009 0.243450
O O9 0.750000 0.000000 0.311241
O O10 0.086712 0.867340 0.126290
O O11 0.061362 0.819213 0.393832
O O12 0.978462 0.912788 0.244786
O O13 0.082810 0.998583 0.329810
O O14 0.916569 0.863335 0.473947
O O15 0.083761 0.250000 0.750000
#
# Coordination Sequence:
#
# PCOD8217128 Si02
#       8
#     4   8   4   8   8   8   8   8
#     4  11  22  44  66  92 128 177 216 270 328 387
#     4  11  24  44  65  93 132 176 219 266 326 388
#     4  11  22  40  64  94 132 169 210 274 338 381
#     4  11  25  43  68  97 126 177 221 265 319 389
#     4  11  24  42  67  98 126 174 217 268 337 391
#     4  11  24  39  67  97 128 167 221 273 328 400
#     4  11  24  42  63  94 135 169 214 276 329 390
#     4  12  20  44  70  94 131 169 223 270 324 399
#
# _framework density 20.248833000000001
#
# number of rings (size 3 to 8) (size 9 to 14) (size 15 to 20)
#    0.000    0.857    5.714    2.143    2.000    4.000 
#    0.000    2.143    0.000    0.000    0.000    0.000 
#    0.000    0.000    0.000    0.000    0.000    0.000 
#
# Total GULP energy -694690.251878 kJ/mol
# GULP energy per Si atom -12405.183069 kJ/mol
# Density = 2.020275 g / cm^3
# Si number density = 20.248833 Si / 1000 Ang^3
#
#
#
# Elastic Constant Matrix: (Units=GPa)
#
#
# Indices 1 2 3 4 5 6 
#
# 1 118.7933 13.1806 20.0917 0.0000 0.0000 0.0000
# 2 13.1806 98.0283 37.6938 0.0000 0.0000 0.0000
# 3 20.0917 37.6938 124.1189 0.0000 0.0000 0.0000
# 4 0.0000 0.0000 0.0000 19.9466 0.0000 0.0000
# 5 0.0000 0.0000 0.0000 0.0000 33.7555 0.0000
# 6 0.0000 0.0000 0.0000 0.0000 0.0000 25.3354
#
#
#
# Elastic Compliance Matrix: (Units=1/GPa)
#
#
# Indices 1 2 3 4 5 6 
#
# 1 0.008699 -0.000711 -0.001192 0.000000 0.000000 0.000000
# 2 -0.000711 0.011608 -0.003410 0.000000 0.000000 0.000000
# 3 -0.001192 -0.003410 0.009285 0.000000 0.000000 0.000000
# 4 0.000000 0.000000 0.000000 0.050134 0.000000 0.000000
# 5 0.000000 0.000000 0.000000 0.000000 0.029625 0.000000
# 6 0.000000 0.000000 0.000000 0.000000 0.000000 0.039471
#
#
# Mechanical properties :
#
#
# Convention : Reuss Voigt Hill
#
# Bulk Modulus (GPa) = 52.72843 53.65253 53.19048
# Shear Modulus (GPa) = 30.16235 33.80579 31.98407
#
# Velocity S-wave (km/s) = 3.86370 4.09041 3.97867
# Velocity P-wave (km/s) = 6.78240 6.99019 6.88708
#
# Compressibility (1/GPa) = 0.01896510
#
# Stress axis : x y z
#
# Youngs Moduli (GPa) = 114.96219 86.14729 107.69611
#
# Poissons Ratio (x) = 0.06127 0.12838
# Poissons Ratio (y) = 0.08176 0.36726
# Poissons Ratio (z) = 0.13705 0.29377
#
# Static dielectric constant tensor:
#      x y z
#    x 4.018990 0.000000 0.000000 
#    y 0.000000 3.450120 0.000000 
#    z 0.000000 0.000000 3.802850 
# 
# 
# High freq. dielectric constant tensor:
#      x y z
#    x 1.810920 0.000000 0.000000 
#    y 0.000000 1.774890 0.000000 
#    z 0.000000 0.000000 1.801140 
# 
# From -- ./inp_files/13486.got.cif
#   From: 2010.06.25/outbox.cif.g09.slc.cpg/sg52_7_cif.got.tgz:13486.got - 2010.06.26 19:32:48.
