data_PCOD8217547
_publ_section_title
;
Structure prediction by ZEFSAII (Michael W. Deem and Ramdas Pophale) SiO2 
 PCOD8217547
Probable space group: P M N A
;
_chemical_formula_sum "Si O2"
_cell_formula_units_Z 64
_cell_length_a 9.127488
_cell_length_b 16.845075
_cell_length_c 25.721359
_cell_angle_alpha 90.000000
_cell_angle_beta 90.000000
_cell_angle_gamma 90.000000
_cell_volume 3954.741767
_symmetry_space_group_name_H-M "P M N A"
_symmetry_group_IT_number 53
_symmetry_cell_setting 'orthorhombic'
loop_
_space_group_symop_operation_xyz
x,y,z
1/2-x,-y,1/2+z
x,-y,-z
1/2-x,y,1/2-z
-x,-y,-z
1/2+x,y,1/2-z
-x,y,z
1/2+x,-y,1/2+z
loop_
_atom_site_type_symbol
_atom_site_label
_atom_site_fract_x
_atom_site_fract_y
_atom_site_fract_z
Si Si1 0.829149 0.588465 0.697491
Si Si2 0.671602 0.595324 0.197033
Si Si3 0.332078 0.593446 0.005750
Si Si4 0.837888 0.004679 0.061943
Si Si5 0.670983 0.323065 0.097316
Si Si6 0.170012 0.166011 0.948354
Si Si7 0.670332 0.156774 0.055661
Si Si8 0.171039 0.669179 0.100866
O O1 0.750000 0.615617 0.750000
O O2 0.798110 0.496733 0.684482
O O3 0.761486 0.640074 0.650014
O O4 0.000000 0.604845 0.705545
O O5 0.750000 0.620702 0.250000
O O6 0.500000 0.613213 0.201675
O O7 0.740072 0.648378 0.152130
O O8 0.500000 0.621091 0.015994
O O9 0.230513 0.617930 0.053285
O O10 0.324164 0.500000 0.000000
O O11 0.265237 0.634025 0.953948
O O12 0.733371 0.075807 0.080887
O O13 0.000000 0.023420 0.083365
O O14 0.784442 0.916935 0.080428
O O15 0.836997 0.000000 0.000000
O O16 0.500000 0.342682 0.098047
O O17 0.702442 0.228849 0.095429
O O18 0.198726 0.237569 0.908966
O O19 0.000000 0.160373 0.965042
O O20 0.260764 0.180068 0.000610
O O21 0.500000 0.144169 0.046287
O O22 0.000000 0.650106 0.108401
#
# Coordination Sequence:
#
# PCOD8217547 Si02
#       8
#     8   8   8   8   8   8   8   8
#     4   9  18  34  52  69  90 120 158 198 237 277
#     4  10  20  35  54  72  93 123 161 202 242 282
#     4  10  19  32  48  65  91 130 165 189 230 290
#     4   8  15  28  43  59  87 125 157 184 227 279
#     4   9  17  29  45  67  95 124 153 190 235 279
#     4   9  18  31  44  62  93 129 156 187 231 281
#     4  10  17  26  43  67  93 121 156 194 230 274
#     4  11  21  32  48  71  98 125 158 198 240 281
#
# _framework density 16.183105000000001
#
# number of rings (size 3 to 8) (size 9 to 14) (size 15 to 20)
#    0.000    2.500    1.250    2.625    0.000    5.500 
#    0.000    1.875    0.000    0.000    0.000    0.875 
#    0.000    4.000    0.000    0.000    0.000    0.000 
#
# Total GULP energy -793451.873202 kJ/mol
# GULP energy per Si atom -12397.685519 kJ/mol
# Density = 1.614627 g / cm^3
# Si number density = 16.183105 Si / 1000 Ang^3
#
#
#
# Elastic Constant Matrix: (Units=GPa)
#
#
# Indices 1 2 3 4 5 6 
#
# 1 75.7568 48.9745 48.1321 0.0000 0.0000 0.0000
# 2 48.9745 108.2652 57.5910 0.0000 0.0000 0.0000
# 3 48.1321 57.5910 105.4789 0.0000 0.0000 0.0000
# 4 0.0000 0.0000 0.0000 15.2082 0.0000 0.0000
# 5 0.0000 0.0000 0.0000 0.0000 22.7848 0.0000
# 6 0.0000 0.0000 0.0000 0.0000 0.0000 21.8604
#
#
#
# Elastic Compliance Matrix: (Units=1/GPa)
#
#
# Indices 1 2 3 4 5 6 
#
# 1 0.021237 -0.006274 -0.006265 0.000000 0.000000 0.000000
# 2 -0.006274 0.014871 -0.005257 0.000000 0.000000 0.000000
# 3 -0.006265 -0.005257 0.015210 0.000000 0.000000 0.000000
# 4 0.000000 0.000000 0.000000 0.065754 0.000000 0.000000
# 5 0.000000 0.000000 0.000000 0.000000 0.043889 0.000000
# 6 0.000000 0.000000 0.000000 0.000000 0.000000 0.045745
#
#
# Mechanical properties :
#
#
# Convention : Reuss Voigt Hill
#
# Bulk Modulus (GPa) = 63.58959 66.54403 65.06681
# Shear Modulus (GPa) = 20.19898 20.95757 20.57828
#
# Velocity S-wave (km/s) = 3.53675 3.60255 3.56980
# Velocity P-wave (km/s) = 7.48714 7.64939 7.56870
#
# Compressibility (1/GPa) = 0.01572584
#
# Stress axis : x y z
#
# Youngs Moduli (GPa) = 47.08872 67.24622 65.74818
#
# Poissons Ratio (x) = 0.42188 0.41193
# Poissons Ratio (y) = 0.29542 0.34561
# Poissons Ratio (z) = 0.29502 0.35348
#
# Static dielectric constant tensor:
#      x y z
#    x 3.066540 0.000000 0.000000 
#    y 0.000000 3.383790 0.000000 
#    z 0.000000 0.000000 2.910770 
# 
# 
# High freq. dielectric constant tensor:
#      x y z
#    x 1.618690 0.000000 0.000000 
#    y 0.000000 1.630140 0.000000 
#    z 0.000000 0.000000 1.587710 
# 
# From -- ./inp_files/34536.got.cif
#   From: 2010.03.12/outbox.cif.g09.slc.cpg/sg53_18_cif.got.tgz:34536.got - 2010.04.16 14:36:59.
