data_PCOD8217293
_publ_section_title
;
Structure prediction by ZEFSAII (Michael W. Deem and Ramdas Pophale) SiO2 
 PCOD8217293
Probable space group: P N N A
;
_chemical_formula_sum "Si O2"
_cell_formula_units_Z 40
_cell_length_a 12.544029
_cell_length_b 4.932254
_cell_length_c 25.600024
_cell_angle_alpha 90.000000
_cell_angle_beta 90.000000
_cell_angle_gamma 90.000000
_cell_volume 1583.882117
_symmetry_space_group_name_H-M "P N N A"
_symmetry_group_IT_number 52
_symmetry_cell_setting 'orthorhombic'
loop_
_space_group_symop_operation_xyz
x,y,z
1/2-x,-y,z
x,1/2-y,1/2-z
1/2-x,1/2+y,1/2-z
-x,-y,-z
1/2+x,y,-z
-x,1/2+y,1/2+z
1/2+x,1/2-y,1/2+z
loop_
_atom_site_type_symbol
_atom_site_label
_atom_site_fract_x
_atom_site_fract_y
_atom_site_fract_z
Si Si1 0.818457 0.747119 0.859856
Si Si2 0.865199 0.593096 0.444993
Si Si3 0.520085 0.598811 0.304048
Si Si4 0.050093 0.200618 0.457023
Si Si5 0.629867 0.072120 0.347628
O O1 0.750000 0.500000 0.834689
O O2 0.881726 0.596220 0.907613
O O3 0.893458 0.887331 0.815509
O O4 0.750000 0.000000 0.881384
O O5 0.750000 0.500000 0.425333
O O6 0.863350 0.642623 0.506970
O O7 0.886445 0.854925 0.408620
O O8 0.960458 0.390036 0.432273
O O9 0.547900 0.750000 0.250000
O O10 0.573095 0.298237 0.309441
O O11 0.571441 0.786562 0.347943
O O12 0.000000 0.000000 0.500000
O O13 0.750000 0.000000 0.330077
#
# Coordination Sequence:
#
# PCOD8217293 Si02
#       5
#     8   8   8   8   8
#     4  12  28  48  76 108 150 199 259 319 384 454
#     4  11  25  43  69 105 147 195 245 298 368 451
#     4  12  27  51  78 110 151 195 258 325 391 462
#     4  11  26  43  71 105 151 196 250 302 373 447
#     4  12  26  47  77 113 153 199 249 311 387 467
#
# _framework density 25.254403
#
# number of rings (size 3 to 8) (size 9 to 14) (size 15 to 20)
#    0.000    0.400    2.000    5.400   11.200    2.400 
#    0.000    1.000    0.000    0.000    0.000    0.000 
#    0.000    0.000    0.000    0.000    0.000    0.000 
#
# Total GULP energy -495537.342444 kJ/mol
# GULP energy per Si atom -12388.433561 kJ/mol
# Density = 2.519692 g / cm^3
# Si number density = 25.254403 Si / 1000 Ang^3
#
#
#
# Elastic Constant Matrix: (Units=GPa)
#
#
# Indices 1 2 3 4 5 6 
#
# 1 116.9067 26.1309 21.7415 0.0000 0.0000 0.0000
# 2 26.1309 84.3441 -11.0989 0.0000 0.0000 0.0000
# 3 21.7415 -11.0989 73.1041 0.0000 0.0000 0.0000
# 4 0.0000 0.0000 0.0000 37.4988 0.0000 0.0000
# 5 0.0000 0.0000 0.0000 0.0000 2.8416 0.0000
# 6 0.0000 0.0000 0.0000 0.0000 0.0000 50.1254
#
#
#
# Elastic Compliance Matrix: (Units=1/GPa)
#
#
# Indices 1 2 3 4 5 6 
#
# 1 0.010004 -0.003562 -0.003516 0.000000 0.000000 0.000000
# 2 -0.003562 0.013366 0.003089 0.000000 0.000000 0.000000
# 3 -0.003516 0.003089 0.015194 0.000000 0.000000 0.000000
# 4 0.000000 0.000000 0.000000 0.026667 0.000000 0.000000
# 5 0.000000 0.000000 0.000000 0.000000 0.351913 0.000000
# 6 0.000000 0.000000 0.000000 0.000000 0.000000 0.019950
#
#
# Mechanical properties :
#
#
# Convention : Reuss Voigt Hill
#
# Bulk Modulus (GPa) = 32.69565 38.65575 35.67570
# Shear Modulus (GPa) = 10.98254 33.93194 22.45724
#
# Velocity S-wave (km/s) = 2.08763 3.66950 2.98525
# Velocity P-wave (km/s) = 4.33423 5.77004 5.10289
#
# Compressibility (1/GPa) = 0.03058511
#
# Stress axis : x y z
#
# Youngs Moduli (GPa) = 99.96120 74.81565 65.81664
#
# Poissons Ratio (x) = 0.26649 0.23141
# Poissons Ratio (y) = 0.35606 -0.20328
# Poissons Ratio (z) = 0.35146 -0.23108
#
# Static dielectric constant tensor:
#      x y z
#    x 4.897540 0.000000 0.000000 
#    y 0.000000 4.569050 0.000000 
#    z 0.000000 0.000000 4.493820 
# 
# 
# High freq. dielectric constant tensor:
#      x y z
#    x 2.019340 0.000000 0.000000 
#    y 0.000000 2.007170 0.000000 
#    z 0.000000 0.000000 2.010250 
# 
# From -- ./inp_files/42519.got.cif
#   From: 2010.06.25/outbox.cif.g09.slc.cpg/sg52_22_cif.got.tgz:42519.got - 2010.06.26 19:32:48.
