data_PCOD8217854
_publ_section_title
;
Structure prediction by ZEFSAII (Michael W. Deem and Ramdas Pophale) SiO2 
 PCOD8217854
Probable space group: P M N A
;
_chemical_formula_sum "Si O2"
_cell_formula_units_Z 64
_cell_length_a 9.245551
_cell_length_b 11.856946
_cell_length_c 33.483479
_cell_angle_alpha 90.000000
_cell_angle_beta 90.000000
_cell_angle_gamma 90.000000
_cell_volume 3670.592867
_symmetry_space_group_name_H-M "P M N A"
_symmetry_group_IT_number 53
_symmetry_cell_setting 'orthorhombic'
loop_
_space_group_symop_operation_xyz
x,y,z
1/2-x,-y,1/2+z
x,-y,-z
1/2-x,y,1/2-z
-x,-y,-z
1/2+x,y,1/2-z
-x,y,z
1/2+x,-y,1/2+z
loop_
_atom_site_type_symbol
_atom_site_label
_atom_site_fract_x
_atom_site_fract_y
_atom_site_fract_z
Si Si1 0.164973 0.289707 0.862284
Si Si2 0.166580 0.113310 0.587717
Si Si3 0.334646 0.545708 0.432782
Si Si4 0.663720 0.273075 0.981348
Si Si5 0.667961 0.032331 0.209890
Si Si6 0.829599 0.116888 0.374723
Si Si7 0.168305 0.313388 0.429829
Si Si8 0.667140 0.231535 0.789229
O O1 0.224239 0.182247 0.885334
O O2 0.178011 0.400532 0.889078
O O3 0.263771 0.308202 0.823666
O O4 0.000000 0.265511 0.849750
O O5 0.189536 0.154692 0.541992
O O6 0.000000 0.134639 0.601475
O O7 0.209379 0.983260 0.594181
O O8 0.500000 0.526615 0.445383
O O9 0.265450 0.626476 0.466053
O O10 0.255309 0.427896 0.430046
O O11 0.500000 0.315176 0.974133
O O12 0.692440 0.250013 0.027920
O O13 0.750000 0.072547 0.250000
O O14 0.500000 0.059233 0.216717
O O15 0.730734 0.096417 0.170393
O O16 0.692406 0.900282 0.201631
O O17 0.770549 0.232262 0.394553
O O18 0.000000 0.124426 0.370804
O O19 0.000000 0.340553 0.422996
O O20 0.750000 0.268904 0.750000
O O21 0.500000 0.261553 0.784671
#
# Coordination Sequence:
#
# PCOD8217854 Si02
#       8
#     8   8   8   8   8   8   8   8
#     4  10  19  31  48  71  98 127 164 207 248 292
#     4   9  16  30  49  70  99 132 161 196 249 304
#     4  10  21  35  51  70  95 130 169 211 254 296
#     4   9  18  31  51  76  98 124 164 210 253 297
#     4   9  17  30  48  72 100 130 160 192 234 285
#     4   9  17  31  50  72 102 133 163 200 244 296
#     4  10  20  33  50  73  98 128 169 212 246 290
#     4  10  18  29  48  75 105 132 158 194 245 300
#
# _framework density 17.435874999999999
#
# number of rings (size 3 to 8) (size 9 to 14) (size 15 to 20)
#    0.000    2.500    1.250    1.500    0.000    4.500 
#    0.000    3.750    0.000    0.750    0.000    7.875 
#    0.000    0.000    0.000    0.000    0.000    0.000 
#
# Total GULP energy -793348.827923 kJ/mol
# GULP energy per Si atom -12396.075436 kJ/mol
# Density = 1.739619 g / cm^3
# Si number density = 17.435875 Si / 1000 Ang^3
#
#
#
# Elastic Constant Matrix: (Units=GPa)
#
#
# Indices 1 2 3 4 5 6 
#
# 1 79.7813 23.7936 46.7311 0.0000 0.0000 0.0000
# 2 23.7936 65.6538 38.2293 0.0000 0.0000 0.0000
# 3 46.7311 38.2293 115.7888 0.0000 0.0000 0.0000
# 4 0.0000 0.0000 0.0000 20.0286 0.0000 0.0000
# 5 0.0000 0.0000 0.0000 0.0000 26.7259 0.0000
# 6 0.0000 0.0000 0.0000 0.0000 0.0000 4.7607
#
#
#
# Elastic Compliance Matrix: (Units=1/GPa)
#
#
# Indices 1 2 3 4 5 6 
#
# 1 0.016778 -0.002646 -0.005898 0.000000 0.000000 0.000000
# 2 -0.002646 0.019274 -0.005296 0.000000 0.000000 0.000000
# 3 -0.005898 -0.005296 0.012765 0.000000 0.000000 0.000000
# 4 0.000000 0.000000 0.000000 0.049929 0.000000 0.000000
# 5 0.000000 0.000000 0.000000 0.000000 0.037417 0.000000
# 6 0.000000 0.000000 0.000000 0.000000 0.000000 0.210054
#
#
# Mechanical properties :
#
#
# Convention : Reuss Voigt Hill
#
# Bulk Modulus (GPa) = 47.30846 53.19243 50.25044
# Shear Modulus (GPa) = 13.12536 20.46767 16.79652
#
# Velocity S-wave (km/s) = 2.74666 3.42991 3.10712
# Velocity P-wave (km/s) = 6.10332 6.80143 6.46181
#
# Compressibility (1/GPa) = 0.02113787
#
# Stress axis : x y z
#
# Youngs Moduli (GPa) = 59.60177 51.88332 78.33888
#
# Poissons Ratio (x) = 0.13730 0.46202
# Poissons Ratio (y) = 0.15773 0.41485
# Poissons Ratio (z) = 0.35151 0.27475
#
# Static dielectric constant tensor:
#      x y z
#    x 3.225360 0.000000 0.000000 
#    y 0.000000 3.068440 0.000000 
#    z 0.000000 0.000000 3.651390 
# 
# 
# High freq. dielectric constant tensor:
#      x y z
#    x 1.665180 0.000000 0.000000 
#    y 0.000000 1.642510 0.000000 
#    z 0.000000 0.000000 1.681630 
# 
# From -- ./inp_files/38147.got.cif
#   From: 2010.03.12/outbox.cif.g09.slc.cpg/sg53_20_cif.got.tgz:38147.got - 2010.04.16 14:36:59.
