data_PCOD8217068
_publ_section_title
;
Structure prediction by ZEFSAII (Michael W. Deem and Ramdas Pophale) SiO2 
 PCOD8217068
Probable space group: P N N A
;
_chemical_formula_sum "Si O2"
_cell_formula_units_Z 44
_cell_length_a 13.607832
_cell_length_b 12.547665
_cell_length_c 13.130053
_cell_angle_alpha 90.000000
_cell_angle_beta 90.000000
_cell_angle_gamma 90.000000
_cell_volume 2241.910822
_symmetry_space_group_name_H-M "P N N A"
_symmetry_group_IT_number 52
_symmetry_cell_setting 'orthorhombic'
loop_
_space_group_symop_operation_xyz
x,y,z
1/2-x,-y,z
x,1/2-y,1/2-z
1/2-x,1/2+y,1/2-z
-x,-y,-z
1/2+x,y,-z
-x,1/2+y,1/2+z
1/2+x,1/2-y,1/2+z
loop_
_atom_site_type_symbol
_atom_site_label
_atom_site_fract_x
_atom_site_fract_y
_atom_site_fract_z
Si Si1 0.672622 0.699151 0.051541
Si Si2 0.498514 0.681475 0.343686
Si Si3 0.483988 0.399947 0.075138
Si Si4 0.250000 0.500000 0.829933
Si Si5 0.881991 0.788733 0.038586
Si Si6 0.062020 0.051801 0.784722
O O1 0.594983 0.755694 0.123398
O O2 0.700421 0.588162 0.101112
O O3 0.763242 0.781136 0.037564
O O4 0.616323 0.666128 0.947143
O O5 0.453873 0.750000 0.250000
O O6 0.414359 0.670207 0.428248
O O7 0.532594 0.563207 0.322480
O O8 0.580655 0.330419 0.054711
O O9 0.482389 0.424126 0.195751
O O10 0.500000 0.500000 0.000000
O O11 0.170935 0.443423 0.759222
O O12 0.933594 0.863209 0.123687
#
# Coordination Sequence:
#
# PCOD8217068 Si02
#       6
#     8   8   8   4   8   8
#     4  11  22  39  62  94 125 161 215 268 313 385
#     4  11  23  42  63  89 130 172 211 266 325 388
#     4  11  21  39  61  90 126 163 209 265 323 382
#     4  12  20  34  68  96 120 160 216 272 318 368
#     4  11  24  39  62  93 127 166 212 265 327 385
#     4  12  22  37  64  96 128 162 218 268 329 381
#
# _framework density 19.626114999999999
#
# number of rings (size 3 to 8) (size 9 to 14) (size 15 to 20)
#    0.000    0.727    5.455    3.273    0.000    0.000 
#    0.000    3.636    0.000    4.364    0.000    0.000 
#    0.000    0.000    0.000    0.000    0.000    0.000 
#
# Total GULP energy -545413.948041 kJ/mol
# GULP energy per Si atom -12395.771546 kJ/mol
# Density = 1.958145 g / cm^3
# Si number density = 19.626115 Si / 1000 Ang^3
#
#
#
# Elastic Constant Matrix: (Units=GPa)
#
#
# Indices 1 2 3 4 5 6 
#
# 1 62.4948 20.7404 52.7515 0.0000 0.0000 0.0000
# 2 20.7404 98.2108 53.5196 0.0000 0.0000 0.0000
# 3 52.7515 53.5196 151.1623 0.0000 0.0000 0.0000
# 4 0.0000 0.0000 0.0000 36.9353 0.0000 0.0000
# 5 0.0000 0.0000 0.0000 0.0000 21.2099 0.0000
# 6 0.0000 0.0000 0.0000 0.0000 0.0000 21.4289
#
#
#
# Elastic Compliance Matrix: (Units=1/GPa)
#
#
# Indices 1 2 3 4 5 6 
#
# 1 0.022711 -0.000591 -0.007716 0.000000 0.000000 0.000000
# 2 -0.000591 0.012632 -0.004266 0.000000 0.000000 0.000000
# 3 -0.007716 -0.004266 0.010818 0.000000 0.000000 0.000000
# 4 0.000000 0.000000 0.000000 0.027074 0.000000 0.000000
# 5 0.000000 0.000000 0.000000 0.000000 0.047148 0.000000
# 6 0.000000 0.000000 0.000000 0.000000 0.000000 0.046666
#
#
# Mechanical properties :
#
#
# Convention : Reuss Voigt Hill
#
# Bulk Modulus (GPa) = 47.58664 62.87675 55.23169
# Shear Modulus (GPa) = 25.10034 28.23857 26.66946
#
# Velocity S-wave (km/s) = 3.58009 3.79730 3.69029
# Velocity P-wave (km/s) = 6.43340 7.16469 6.80887
#
# Compressibility (1/GPa) = 0.02101430
#
# Stress axis : x y z
#
# Youngs Moduli (GPa) = 44.03223 79.16542 92.43431
#
# Poissons Ratio (x) = 0.04681 0.71323
# Poissons Ratio (y) = 0.02603 0.39433
# Poissons Ratio (z) = 0.33976 0.33772
#
# Static dielectric constant tensor:
#      x y z
#    x 5.387650 0.000000 0.000000 
#    y 0.000000 4.581150 0.000000 
#    z 0.000000 0.000000 4.187660 
# 
# 
# High freq. dielectric constant tensor:
#      x y z
#    x 1.756360 0.000000 0.000000 
#    y 0.000000 1.780370 0.000000 
#    z 0.000000 0.000000 1.767140 
# 
# From -- ./inp_files/19472.got.cif
#   From: 2010.06.25/outbox.cif.g09.slc.cpg/sg52_10_cif.got.tgz:19472.got - 2010.06.26 19:32:48.
