data_PCOD8217999
_publ_section_title
;
Structure prediction by ZEFSAII (Michael W. Deem and Ramdas Pophale) SiO2 
 PCOD8217999
Probable space group: P M N A
;
_chemical_formula_sum "Si O2"
_cell_formula_units_Z 64
_cell_length_a 8.885021
_cell_length_b 16.835366
_cell_length_c 25.736906
_cell_angle_alpha 90.000000
_cell_angle_beta 90.000000
_cell_angle_gamma 90.000000
_cell_volume 3849.792812
_symmetry_space_group_name_H-M "P M N A"
_symmetry_group_IT_number 53
_symmetry_cell_setting 'orthorhombic'
loop_
_space_group_symop_operation_xyz
x,y,z
1/2-x,-y,1/2+z
x,-y,-z
1/2-x,y,1/2-z
-x,-y,-z
1/2+x,y,1/2-z
-x,y,z
1/2+x,-y,1/2+z
loop_
_atom_site_type_symbol
_atom_site_label
_atom_site_fract_x
_atom_site_fract_y
_atom_site_fract_z
Si Si1 0.821975 0.822393 0.097940
Si Si2 0.175373 0.336348 0.058607
Si Si3 0.178024 0.180374 0.401434
Si Si4 0.677516 0.901067 0.695905
Si Si5 0.669136 0.495361 0.061686
Si Si6 0.326959 0.093519 0.495031
Si Si7 0.823264 0.916153 0.196526
Si Si8 0.825583 0.653048 0.062390
O O1 0.755503 0.862416 0.149944
O O2 0.777091 0.729629 0.096106
O O3 0.000000 0.833521 0.097609
O O4 0.759052 0.867039 0.047061
O O5 0.269080 0.269662 0.088036
O O6 0.229463 0.421643 0.080300
O O7 0.000000 0.325943 0.070626
O O8 0.210306 0.328098 0.997557
O O9 0.251606 0.153228 0.348014
O O10 0.229011 0.121363 0.446746
O O11 0.000000 0.177912 0.396340
O O12 0.750000 0.874126 0.750000
O O13 0.500000 0.887496 0.698033
O O14 0.717782 0.992778 0.684242
O O15 0.500000 0.483675 0.082293
O O16 0.733822 0.577851 0.084200
O O17 0.674569 0.500000 0.000000
O O18 0.500000 0.120261 0.485712
O O19 0.314208 0.000000 0.500000
O O20 0.750000 0.886954 0.250000
O O21 0.000000 0.904179 0.202047
O O22 0.000000 0.632586 0.069031
#
# Coordination Sequence:
#
# PCOD8217999 Si02
#       8
#     8   8   8   8   8   8   8   8
#     4   9  16  29  48  71  96 128 167 204 242 290
#     4  10  18  31  49  69  95 130 170 203 238 290
#     4  12  23  33  48  73 105 134 163 203 253 301
#     4  10  20  36  55  74  96 128 171 215 257 296
#     4   9  17  28  43  66  97 128 159 196 247 297
#     4  10  19  33  51  69  94 132 173 206 244 298
#     4   9  18  33  53  73  95 125 165 212 254 292
#     4   9  16  28  46  67  94 128 168 203 237 290
#
# _framework density 16.624272000000001
#
# number of rings (size 3 to 8) (size 9 to 14) (size 15 to 20)
#    0.000    2.250    1.250    3.000    0.000    4.750 
#    0.000    1.250    0.000    0.000    0.000    0.875 
#    0.000    2.000    0.000    0.000    0.000    0.000 
#
# Total GULP energy -793665.532087 kJ/mol
# GULP energy per Si atom -12401.023939 kJ/mol
# Density = 1.658643 g / cm^3
# Si number density = 16.624272 Si / 1000 Ang^3
#
#
#
# Elastic Constant Matrix: (Units=GPa)
#
#
# Indices 1 2 3 4 5 6 
#
# 1 72.7184 40.3407 39.2910 0.0000 0.0000 0.0000
# 2 40.3407 101.9552 51.4652 0.0000 0.0000 0.0000
# 3 39.2910 51.4652 95.2391 0.0000 0.0000 0.0000
# 4 0.0000 0.0000 0.0000 5.7673 0.0000 0.0000
# 5 0.0000 0.0000 0.0000 0.0000 23.3780 0.0000
# 6 0.0000 0.0000 0.0000 0.0000 0.0000 23.4464
#
#
#
# Elastic Compliance Matrix: (Units=1/GPa)
#
#
# Indices 1 2 3 4 5 6 
#
# 1 0.019386 -0.004996 -0.005298 0.000000 0.000000 0.000000
# 2 -0.004996 0.014775 -0.005923 0.000000 0.000000 0.000000
# 3 -0.005298 -0.005923 0.015886 0.000000 0.000000 0.000000
# 4 0.000000 0.000000 0.000000 0.173391 0.000000 0.000000
# 5 0.000000 0.000000 0.000000 0.000000 0.042775 0.000000
# 6 0.000000 0.000000 0.000000 0.000000 0.000000 0.042651
#
#
# Mechanical properties :
#
#
# Convention : Reuss Voigt Hill
#
# Bulk Modulus (GPa) = 56.77593 59.12294 57.94943
# Shear Modulus (GPa) = 14.40225 19.77272 17.08748
#
# Velocity S-wave (km/s) = 2.94656 3.45249 3.20951
# Velocity P-wave (km/s) = 6.76778 7.17874 6.97629
#
# Compressibility (1/GPa) = 0.01761310
#
# Stress axis : x y z
#
# Youngs Moduli (GPa) = 51.58421 67.68283 62.94817
#
# Poissons Ratio (x) = 0.33815 0.33349
# Poissons Ratio (y) = 0.25772 0.37283
# Poissons Ratio (z) = 0.27328 0.40087
#
# Static dielectric constant tensor:
#      x y z
#    x 3.083230 0.000000 0.000000 
#    y 0.000000 3.247720 0.000000 
#    z 0.000000 0.000000 2.357290 
# 
# 
# High freq. dielectric constant tensor:
#      x y z
#    x 1.635240 0.000000 0.000000 
#    y 0.000000 1.646920 0.000000 
#    z 0.000000 0.000000 1.607610 
# 
# From -- ./inp_files/34494.got.cif
#   From: 2010.03.12/outbox.cif.g09.slc.cpg/sg53_18_cif.got.tgz:34494.got - 2010.04.16 14:36:59.
