data_PCOD8217159
_publ_section_title
;
Structure prediction by ZEFSAII (Michael W. Deem and Ramdas Pophale) SiO2 
 PCOD8217159
Probable space group: P N N A
;
_chemical_formula_sum "Si O2"
_cell_formula_units_Z 48
_cell_length_a 8.382269
_cell_length_b 10.034569
_cell_length_c 25.903313
_cell_angle_alpha 90.000000
_cell_angle_beta 90.000000
_cell_angle_gamma 90.000000
_cell_volume 2178.791292
_symmetry_space_group_name_H-M "P N N A"
_symmetry_group_IT_number 52
_symmetry_cell_setting 'orthorhombic'
loop_
_space_group_symop_operation_xyz
x,y,z
1/2-x,-y,z
x,1/2-y,1/2-z
1/2-x,1/2+y,1/2-z
-x,-y,-z
1/2+x,y,-z
-x,1/2+y,1/2+z
1/2+x,1/2-y,1/2+z
loop_
_atom_site_type_symbol
_atom_site_label
_atom_site_fract_x
_atom_site_fract_y
_atom_site_fract_z
Si Si1 0.345399 0.863392 0.955179
Si Si2 0.750000 0.000000 0.213460
Si Si3 0.243311 0.247192 0.852803
Si Si4 0.607209 0.284973 0.845259
Si Si5 0.716983 0.646233 0.565308
Si Si6 0.702497 0.750000 0.750000
Si Si7 0.526544 0.037411 0.298349
O O1 0.295681 0.753886 0.913263
O O2 0.533623 0.867530 0.949215
O O3 0.250000 0.000000 0.943095
O O4 0.311505 0.817209 0.013192
O O5 0.678162 0.120020 0.179143
O O6 0.609390 0.951359 0.252593
O O7 0.432183 0.227067 0.851668
O O8 0.165084 0.380596 0.829269
O O9 0.726381 0.258338 0.893761
O O10 0.685286 0.207063 0.797358
O O11 0.577978 0.443571 0.835977
O O12 0.750000 0.500000 0.588293
O O13 0.596890 0.868975 0.729730
#
# Coordination Sequence:
#
# PCOD8217159 Si02
#       7
#     8   4   8   8   8   4   8
#     4  11  22  43  68 103 133 182 234 301 350 427
#     4  12  22  40  68  94 136 180 246 280 350 416
#     4  12  23  41  70  97 135 185 240 287 360 421
#     4  12  26  43  65 102 139 184 226 298 355 430
#     4  11  24  42  69  99 141 177 236 294 365 419
#     4  12  26  42  66  96 140 180 238 286 356 424
#     4  12  25  45  66  99 140 190 239 295 355 436
#
# _framework density 22.030563000000001
#
# number of rings (size 3 to 8) (size 9 to 14) (size 15 to 20)
#    0.000    0.333    4.167    6.500    0.000    1.333 
#    0.000    0.833    0.000    2.000    0.000    0.000 
#    0.000    0.000    0.000    0.000    0.000    0.000 
#
# Total GULP energy -594723.491147 kJ/mol
# GULP energy per Si atom -12390.072732 kJ/mol
# Density = 2.198042 g / cm^3
# Si number density = 22.030563 Si / 1000 Ang^3
#
#
#
# Elastic Constant Matrix: (Units=GPa)
#
#
# Indices 1 2 3 4 5 6 
#
# 1 149.2125 18.4023 57.2410 0.0000 0.0000 0.0000
# 2 18.4023 89.7195 56.6863 0.0000 0.0000 0.0000
# 3 57.2410 56.6863 156.3345 0.0000 0.0000 0.0000
# 4 0.0000 0.0000 0.0000 29.2183 0.0000 0.0000
# 5 0.0000 0.0000 0.0000 0.0000 51.4956 0.0000
# 6 0.0000 0.0000 0.0000 0.0000 0.0000 27.0251
#
#
#
# Elastic Compliance Matrix: (Units=1/GPa)
#
#
# Indices 1 2 3 4 5 6 
#
# 1 0.007802 0.000265 -0.002953 0.000000 0.000000 0.000000
# 2 0.000265 0.014467 -0.005343 0.000000 0.000000 0.000000
# 3 -0.002953 -0.005343 0.009415 0.000000 0.000000 0.000000
# 4 0.000000 0.000000 0.000000 0.034225 0.000000 0.000000
# 5 0.000000 0.000000 0.000000 0.000000 0.019419 0.000000
# 6 0.000000 0.000000 0.000000 0.000000 0.000000 0.037003
#
#
# Mechanical properties :
#
#
# Convention : Reuss Voigt Hill
#
# Bulk Modulus (GPa) = 64.00664 73.32508 68.66586
# Shear Modulus (GPa) = 34.81907 39.07694 36.94801
#
# Velocity S-wave (km/s) = 3.97985 4.21617 4.09971
# Velocity P-wave (km/s) = 7.08771 7.55361 7.32437
#
# Compressibility (1/GPa) = 0.01562338
#
# Stress axis : x y z
#
# Youngs Moduli (GPa) = 128.17395 69.12209 106.21305
#
# Poissons Ratio (x) = -0.01835 0.31363
# Poissons Ratio (y) = -0.03402 0.56749
# Poissons Ratio (z) = 0.37848 0.36931
#
# Static dielectric constant tensor:
#      x y z
#    x 4.510750 0.000000 0.000000 
#    y 0.000000 4.159870 0.000000 
#    z 0.000000 0.000000 5.383970 
# 
# 
# High freq. dielectric constant tensor:
#      x y z
#    x 1.898310 0.000000 0.000000 
#    y 0.000000 1.838320 0.000000 
#    z 0.000000 0.000000 1.873480 
# 
# From -- ./inp_files/39512.got.cif
#   From: 2010.06.25/outbox.cif.g09.slc.cpg/sg52_20_cif.got.tgz:39512.got - 2010.06.26 19:32:48.
