data_PCOD8217810
_publ_section_title
;
Structure prediction by ZEFSAII (Michael W. Deem and Ramdas Pophale) SiO2 
 PCOD8217810
Probable space group: P M N A
;
_chemical_formula_sum "Si O2"
_cell_formula_units_Z 56
_cell_length_a 8.865101
_cell_length_b 20.624445
_cell_length_c 18.043479
_cell_angle_alpha 90.000000
_cell_angle_beta 90.000000
_cell_angle_gamma 90.000000
_cell_volume 3299.029788
_symmetry_space_group_name_H-M "P M N A"
_symmetry_group_IT_number 53
_symmetry_cell_setting 'orthorhombic'
loop_
_space_group_symop_operation_xyz
x,y,z
1/2-x,-y,1/2+z
x,-y,-z
1/2-x,y,1/2-z
-x,-y,-z
1/2+x,y,1/2-z
-x,y,z
1/2+x,-y,1/2+z
loop_
_atom_site_type_symbol
_atom_site_label
_atom_site_fract_x
_atom_site_fract_y
_atom_site_fract_z
Si Si1 0.669952 0.070552 0.964598
Si Si2 0.665724 0.562378 0.051152
Si Si3 0.677786 0.252693 0.328481
Si Si4 0.177681 0.018604 0.827808
Si Si5 0.675923 0.116454 0.397215
Si Si6 0.822137 0.488997 0.171829
Si Si7 0.178950 0.632128 0.590811
O O1 0.500000 0.092128 0.946825
O O2 0.764350 0.070264 0.888514
O O3 0.740591 0.120536 0.023586
O O4 0.677287 0.000000 0.000000
O O5 0.500000 0.577336 0.085387
O O6 0.784282 0.549033 0.116731
O O7 0.652120 0.500000 0.000000
O O8 0.718247 0.620215 0.996213
O O9 0.750000 0.269940 0.250000
O O10 0.500000 0.264521 0.324718
O O11 0.718506 0.179179 0.349545
O O12 0.751102 0.298568 0.390136
O O13 0.250000 0.037359 0.750000
O O14 0.229140 0.945930 0.850164
O O15 0.000000 0.024272 0.821299
O O16 0.500000 0.112056 0.414818
O O17 0.750000 0.506821 0.250000
O O18 0.752616 0.421976 0.143164
O O19 0.000000 0.481171 0.179010
O O20 0.000000 0.630892 0.604209
#
# Coordination Sequence:
#
# PCOD8217810 Si02
#       7
#     8   8   8   8   8   8   8
#     4   9  17  29  46  67  90 118 153 191 231 277
#     4   8  16  31  48  66  90 119 151 189 232 276
#     4  11  22  34  48  68  95 126 162 196 227 267
#     4  10  18  29  46  68  95 123 153 190 234 278
#     4   9  19  33  47  65  92 126 158 192 231 272
#     4  11  20  30  47  70  96 123 153 190 232 276
#     4  10  20  34  49  66  93 126 158 192 231 274
#
# _framework density 16.974686999999999
#
# number of rings (size 3 to 8) (size 9 to 14) (size 15 to 20)
#    0.000    2.286    0.000    4.714    0.000    6.571 
#    0.000    0.000    0.000    0.000    0.000    1.000 
#    0.000    2.286    0.000    0.000    0.000    0.000 
#
# Total GULP energy -694372.591615 kJ/mol
# GULP energy per Si atom -12399.510565 kJ/mol
# Density = 1.693605 g / cm^3
# Si number density = 16.974687 Si / 1000 Ang^3
#
#
#
# Elastic Constant Matrix: (Units=GPa)
#
#
# Indices 1 2 3 4 5 6 
#
# 1 98.1896 20.4119 47.9511 0.0000 0.0000 0.0000
# 2 20.4119 31.0233 16.6099 0.0000 0.0000 0.0000
# 3 47.9511 16.6099 98.6646 0.0000 0.0000 0.0000
# 4 0.0000 0.0000 0.0000 26.2163 0.0000 0.0000
# 5 0.0000 0.0000 0.0000 0.0000 33.4190 0.0000
# 6 0.0000 0.0000 0.0000 0.0000 0.0000 16.0640
#
#
#
# Elastic Compliance Matrix: (Units=1/GPa)
#
#
# Indices 1 2 3 4 5 6 
#
# 1 0.014390 -0.006291 -0.005935 0.000000 0.000000 0.000000
# 2 -0.006291 0.038177 -0.003370 0.000000 0.000000 0.000000
# 3 -0.005935 -0.003370 0.013587 0.000000 0.000000 0.000000
# 4 0.000000 0.000000 0.000000 0.038144 0.000000 0.000000
# 5 0.000000 0.000000 0.000000 0.000000 0.029923 0.000000
# 6 0.000000 0.000000 0.000000 0.000000 0.000000 0.062251
#
#
# Mechanical properties :
#
#
# Convention : Reuss Voigt Hill
#
# Bulk Modulus (GPa) = 28.60085 44.20260 36.40173
# Shear Modulus (GPa) = 20.89274 24.66682 22.77978
#
# Velocity S-wave (km/s) = 3.51211 3.81616 3.66729
# Velocity P-wave (km/s) = 5.77341 6.74643 6.27879
#
# Compressibility (1/GPa) = 0.03496399
#
# Stress axis : x y z
#
# Youngs Moduli (GPa) = 69.49106 26.19378 73.60030
#
# Poissons Ratio (x) = 0.16478 0.43680
# Poissons Ratio (y) = 0.43715 0.24801
# Poissons Ratio (z) = 0.41241 0.08826
#
# Static dielectric constant tensor:
#      x y z
#    x 3.265970 0.000000 0.000000 
#    y 0.000000 2.999830 0.000000 
#    z 0.000000 0.000000 3.321310 
# 
# 
# High freq. dielectric constant tensor:
#      x y z
#    x 1.667810 0.000000 0.000000 
#    y 0.000000 1.610840 0.000000 
#    z 0.000000 0.000000 1.656090 
# 
# From -- ./inp_files/26679.got.cif
#   From: 2010.03.12/outbox.cif.g09.slc.cpg/sg53_14_cif.got.tgz:26679.got - 2010.04.16 14:36:59.
