data_PCOD8217766
_publ_section_title
;
Structure prediction by ZEFSAII (Michael W. Deem and Ramdas Pophale) SiO2 
 PCOD8217766
Probable space group: P M N A
;
_chemical_formula_sum "Si O2"
_cell_formula_units_Z 56
_cell_length_a 9.199896
_cell_length_b 17.563724
_cell_length_c 20.122593
_cell_angle_alpha 90.000000
_cell_angle_beta 90.000000
_cell_angle_gamma 90.000000
_cell_volume 3251.497804
_symmetry_space_group_name_H-M "P M N A"
_symmetry_group_IT_number 53
_symmetry_cell_setting 'orthorhombic'
loop_
_space_group_symop_operation_xyz
x,y,z
1/2-x,-y,1/2+z
x,-y,-z
1/2-x,y,1/2-z
-x,-y,-z
1/2+x,y,1/2-z
-x,y,z
1/2+x,-y,1/2+z
loop_
_atom_site_type_symbol
_atom_site_label
_atom_site_fract_x
_atom_site_fract_y
_atom_site_fract_z
Si Si1 0.165770 0.530354 0.928536
Si Si2 0.836686 0.013480 0.078486
Si Si3 0.336469 0.842730 0.939459
Si Si4 0.166650 0.301425 0.032958
Si Si5 0.661081 0.872219 0.095742
Si Si6 0.831524 0.293833 0.601623
Si Si7 0.169241 0.559751 0.318088
O O1 0.177953 0.621516 0.924882
O O2 0.271829 0.497271 0.873457
O O3 0.000000 0.503631 0.915292
O O4 0.217956 0.500000 0.000000
O O5 0.770381 0.939664 0.115840
O O6 0.000000 0.024818 0.104306
O O7 0.744407 0.088054 0.097964
O O8 0.833092 0.000000 0.000000
O O9 0.500000 0.836149 0.911344
O O10 0.251567 0.763999 0.926557
O O11 0.337794 0.859283 0.017199
O O12 0.000000 0.275584 0.023598
O O13 0.233120 0.316969 0.960531
O O14 0.500000 0.896464 0.119131
O O15 0.707989 0.791273 0.128234
O O16 0.801903 0.352972 0.660617
O O17 0.000000 0.295322 0.578315
O O18 0.250000 0.543005 0.250000
O O19 0.000000 0.543293 0.308187
#
# Coordination Sequence:
#
# PCOD8217766 Si02
#       7
#     8   8   8   8   8   8   8
#     4  10  20  35  53  75 101 130 165 208 257 307
#     4   9  15  22  33  53  81 114 153 190 230 278
#     4   9  16  25  37  55  85 121 155 191 234 283
#     4  10  18  28  46  69  94 123 158 203 247 291
#     4   8  14  24  37  54  80 115 153 189 229 277
#     4   9  18  31  46  66  92 124 161 199 241 293
#     4  11  23  37  54  74 100 133 169 210 255 304
#
# _framework density 17.222832
#
# number of rings (size 3 to 8) (size 9 to 14) (size 15 to 20)
#    0.000    2.571    1.429    2.571    0.000    7.143 
#    0.000    0.000    0.000    0.000    0.000    0.000 
#    0.000    1.143    0.000   10.571    0.000    7.000 
#
# Total GULP energy -694304.513314 kJ/mol
# GULP energy per Si atom -12398.294881 kJ/mol
# Density = 1.718363 g / cm^3
# Si number density = 17.222832 Si / 1000 Ang^3
#
#
#
# Elastic Constant Matrix: (Units=GPa)
#
#
# Indices 1 2 3 4 5 6 
#
# 1 133.3465 68.2379 39.7440 0.0000 0.0000 0.0000
# 2 68.2379 118.2689 33.3291 0.0000 0.0000 0.0000
# 3 39.7440 33.3291 52.0823 0.0000 0.0000 0.0000
# 4 0.0000 0.0000 0.0000 10.7268 0.0000 0.0000
# 5 0.0000 0.0000 0.0000 0.0000 14.5825 0.0000
# 6 0.0000 0.0000 0.0000 0.0000 0.0000 34.5690
#
#
#
# Elastic Compliance Matrix: (Units=1/GPa)
#
#
# Indices 1 2 3 4 5 6 
#
# 1 0.011888 -0.005249 -0.005713 0.000000 0.000000 0.000000
# 2 -0.005249 0.012633 -0.004079 0.000000 0.000000 0.000000
# 3 -0.005713 -0.004079 0.026170 0.000000 0.000000 0.000000
# 4 0.000000 0.000000 0.000000 0.093224 0.000000 0.000000
# 5 0.000000 0.000000 0.000000 0.000000 0.068575 0.000000
# 6 0.000000 0.000000 0.000000 0.000000 0.000000 0.028928
#
#
# Mechanical properties :
#
#
# Convention : Reuss Voigt Hill
#
# Bulk Modulus (GPa) = 48.52028 65.14664 56.83346
# Shear Modulus (GPa) = 17.96170 22.80144 20.38157
#
# Velocity S-wave (km/s) = 3.23290 3.64250 3.44380
# Velocity P-wave (km/s) = 6.49375 7.45643 6.99167
#
# Compressibility (1/GPa) = 0.02060994
#
# Stress axis : x y z
#
# Youngs Moduli (GPa) = 84.11733 79.15500 38.21188
#
# Poissons Ratio (x) = 0.41551 0.21829
# Poissons Ratio (y) = 0.44155 0.15586
# Poissons Ratio (z) = 0.48053 0.32286
#
# Static dielectric constant tensor:
#      x y z
#    x 3.396890 0.000000 0.000000 
#    y 0.000000 3.514390 0.000000 
#    z 0.000000 0.000000 2.588290 
# 
# 
# High freq. dielectric constant tensor:
#      x y z
#    x 1.679160 0.000000 0.000000 
#    y 0.000000 1.682530 0.000000 
#    z 0.000000 0.000000 1.582790 
# 
# From -- ./inp_files/31034.got.cif
#   From: 2010.03.12/outbox.cif.g09.slc.cpg/sg53_16_cif.got.tgz:31034.got - 2010.04.16 14:36:59.
