data_PCOD8217084
_publ_section_title
;
Structure prediction by ZEFSAII (Michael W. Deem and Ramdas Pophale) SiO2 
 PCOD8217084
Probable space group: P N N A
;
_chemical_formula_sum "Si O2"
_cell_formula_units_Z 40
_cell_length_a 22.084641
_cell_length_b 8.374934
_cell_length_c 9.366275
_cell_angle_alpha 90.000000
_cell_angle_beta 90.000000
_cell_angle_gamma 90.000000
_cell_volume 1732.361973
_symmetry_space_group_name_H-M "P N N A"
_symmetry_group_IT_number 52
_symmetry_cell_setting 'orthorhombic'
loop_
_space_group_symop_operation_xyz
x,y,z
1/2-x,-y,z
x,1/2-y,1/2-z
1/2-x,1/2+y,1/2-z
-x,-y,-z
1/2+x,y,-z
-x,1/2+y,1/2+z
1/2+x,1/2-y,1/2+z
loop_
_atom_site_type_symbol
_atom_site_label
_atom_site_fract_x
_atom_site_fract_y
_atom_site_fract_z
Si Si1 0.395154 0.394043 0.160324
Si Si2 0.612006 0.336719 0.401016
Si Si3 0.974225 0.677574 0.895091
Si Si4 0.390014 0.285734 0.603461
Si Si5 0.194965 0.108414 0.153049
O O1 0.424379 0.250000 0.250000
O O2 0.452873 0.492667 0.100503
O O3 0.351101 0.501848 0.254236
O O4 0.358229 0.302763 0.030997
O O5 0.627101 0.250000 0.250000
O O6 0.550513 0.264038 0.463590
O O7 0.602380 0.525728 0.401465
O O8 0.666073 0.306885 0.513652
O O9 0.944291 0.750000 0.750000
O O10 0.045521 0.697234 0.887865
O O11 0.353491 0.250000 0.750000
O O12 0.221129 0.250000 0.250000
O O13 0.250000 0.000000 0.098525
#
# Coordination Sequence:
#
# PCOD8217084 Si02
#       5
#     8   8   8   8   8
#     4  12  21  42  71 103 140 180 235 304 338 423
#     4  12  24  46  69 100 146 183 230 300 354 426
#     4  11  21  42  64 102 145 192 240 276 342 426
#     4  11  25  38  65 105 146 192 234 281 353 413
#     4  12  26  49  79 105 132 181 245 303 371 420
#
# _framework density 23.089863999999999
#
# number of rings (size 3 to 8) (size 9 to 14) (size 15 to 20)
#    0.000    0.400    6.000    3.000    0.000    4.000 
#    0.000    2.000    0.000    0.000    0.000    0.000 
#    0.000    0.000    0.000    0.000    0.000    0.000 
#
# Total GULP energy -495699.886791 kJ/mol
# GULP energy per Si atom -12392.497170 kJ/mol
# Density = 2.303731 g / cm^3
# Si number density = 23.089864 Si / 1000 Ang^3
#
#
#
# Elastic Constant Matrix: (Units=GPa)
#
#
# Indices 1 2 3 4 5 6 
#
# 1 33.1881 -14.6630 1.3018 0.0000 0.0000 0.0000
# 2 -14.6630 111.6068 33.1496 0.0000 0.0000 0.0000
# 3 1.3018 33.1496 163.2392 0.0000 0.0000 0.0000
# 4 0.0000 0.0000 0.0000 61.4246 0.0000 0.0000
# 5 0.0000 0.0000 0.0000 0.0000 -21.5157 0.0000
# 6 0.0000 0.0000 0.0000 0.0000 0.0000 17.5308
#
#
#
# Elastic Compliance Matrix: (Units=1/GPa)
#
#
# Indices 1 2 3 4 5 6 
#
# 1 0.032203 0.004584 -0.001188 0.000000 0.000000 0.000000
# 2 0.004584 0.010188 -0.002105 0.000000 0.000000 0.000000
# 3 -0.001188 -0.002105 0.006563 0.000000 0.000000 0.000000
# 4 0.000000 0.000000 0.000000 0.016280 0.000000 0.000000
# 5 0.000000 0.000000 0.000000 0.000000 -0.046478 0.000000
# 6 0.000000 0.000000 0.000000 0.000000 0.000000 0.057043
#
#
# Mechanical properties :
#
#
# Convention : Reuss Voigt Hill
#
# Bulk Modulus (GPa) = 19.40438 38.62343 29.01391
# Shear Modulus (GPa) = 55.31248 30.70432 43.00840
#
# Velocity S-wave (km/s) = 4.89973 3.65056 4.32053
# Velocity P-wave (km/s) = 6.35860 5.87644 6.12227
#
# Compressibility (1/GPa) = 0.05153475
#
# Stress axis : x y z
#
# Youngs Moduli (GPa) = 31.05303 98.15883 152.36938
#
# Poissons Ratio (x) = -0.44992 0.18096
# Poissons Ratio (y) = -0.14233 0.32080
# Poissons Ratio (z) = 0.03688 0.20666
#
# Static dielectric constant tensor:
#      x y z
#    x 3.641330 0.000000 0.000000 
#    y 0.000000 4.494060 0.000000 
#    z 0.000000 0.000000 5.602920 
# 
# 
# High freq. dielectric constant tensor:
#      x y z
#    x 1.859360 0.000000 0.000000 
#    y 0.000000 1.940170 0.000000 
#    z 0.000000 0.000000 1.940110 
# 
# From -- ./inp_files/13936.got.cif
#   From: 2010.06.25/outbox.cif.g09.slc.cpg/sg52_7_cif.got.tgz:13936.got - 2010.06.26 19:32:48.
