data_PCOD8217948
_publ_section_title
;
Structure prediction by ZEFSAII (Michael W. Deem and Ramdas Pophale) SiO2 
 PCOD8217948
Probable space group: P M N A
;
_chemical_formula_sum "Si O2"
_cell_formula_units_Z 48
_cell_length_a 14.212472
_cell_length_b 11.367208
_cell_length_c 17.126740
_cell_angle_alpha 90.000000
_cell_angle_beta 90.000000
_cell_angle_gamma 90.000000
_cell_volume 2766.929755
_symmetry_space_group_name_H-M "P M N A"
_symmetry_group_IT_number 53
_symmetry_cell_setting 'orthorhombic'
loop_
_space_group_symop_operation_xyz
x,y,z
1/2-x,-y,1/2+z
x,-y,-z
1/2-x,y,1/2-z
-x,-y,-z
1/2+x,y,1/2-z
-x,y,z
1/2+x,-y,1/2+z
loop_
_atom_site_type_symbol
_atom_site_label
_atom_site_fract_x
_atom_site_fract_y
_atom_site_fract_z
Si Si1 0.741469 0.477431 0.417155
Si Si2 0.107126 0.288939 0.776714
Si Si3 0.606000 0.432871 0.285419
Si Si4 0.106589 0.319229 0.374616
Si Si5 0.717335 0.266845 0.871648
Si Si6 0.107348 0.863424 0.502914
O O1 0.689797 0.500000 0.500000
O O2 0.669969 0.408388 0.360621
O O3 0.830323 0.393900 0.434168
O O4 0.785845 0.593819 0.381330
O O5 0.114644 0.429480 0.765279
O O6 0.144727 0.231304 0.696821
O O7 0.173637 0.240228 0.846955
O O8 0.000000 0.249500 0.793711
O O9 0.500000 0.398834 0.307925
O O10 0.640849 0.347854 0.214209
O O11 0.116083 0.184947 0.407090
O O12 0.000000 0.364232 0.381049
O O13 0.685122 0.198536 0.948611
O O14 0.000000 0.839676 0.473476
O O15 0.131279 0.000000 0.500000
#
# Coordination Sequence:
#
# PCOD8217948 Si02
#       6
#     8   8   8   8   8   8
#     4  11  19  29  48  77 106 132 168 206 255 316
#     4   9  17  29  49  76 104 132 162 205 256 309
#     4   9  18  31  48  73 106 139 165 197 252 316
#     4  10  19  31  50  74 101 132 167 209 261 316
#     4  10  18  30  50  75 102 132 167 209 258 312
#     4  10  21  35  52  74 101 134 174 223 267 308
#
# _framework density 17.347747999999999
#
# number of rings (size 3 to 8) (size 9 to 14) (size 15 to 20)
#    0.000    2.167    3.333    1.000    0.000    1.333 
#    0.000    0.000    7.333    0.500    0.000    0.000 
#    0.000    0.000    0.000    0.000    0.000    0.000 
#
# Total GULP energy -594630.102727 kJ/mol
# GULP energy per Si atom -12388.127140 kJ/mol
# Density = 1.730826 g / cm^3
# Si number density = 17.347748 Si / 1000 Ang^3
#
#
#
# Elastic Constant Matrix: (Units=GPa)
#
#
# Indices 1 2 3 4 5 6 
#
# 1 106.9089 35.7621 59.5517 0.0000 0.0000 0.0000
# 2 35.7621 60.3936 37.3658 0.0000 0.0000 0.0000
# 3 59.5517 37.3658 118.7393 0.0000 0.0000 0.0000
# 4 0.0000 0.0000 0.0000 18.3569 0.0000 0.0000
# 5 0.0000 0.0000 0.0000 0.0000 25.6240 0.0000
# 6 0.0000 0.0000 0.0000 0.0000 0.0000 13.0311
#
#
#
# Elastic Compliance Matrix: (Units=1/GPa)
#
#
# Indices 1 2 3 4 5 6 
#
# 1 0.014068 -0.004924 -0.005506 0.000000 0.000000 0.000000
# 2 -0.004924 0.022285 -0.004543 0.000000 0.000000 0.000000
# 3 -0.005506 -0.004543 0.012613 0.000000 0.000000 0.000000
# 4 0.000000 0.000000 0.000000 0.054475 0.000000 0.000000
# 5 0.000000 0.000000 0.000000 0.000000 0.039026 0.000000
# 6 0.000000 0.000000 0.000000 0.000000 0.000000 0.076739
#
#
# Mechanical properties :
#
#
# Convention : Reuss Voigt Hill
#
# Bulk Modulus (GPa) = 52.57803 61.26677 56.92240
# Shear Modulus (GPa) = 19.57010 21.62655 20.59832
#
# Velocity S-wave (km/s) = 3.36237 3.53462 3.44957
# Velocity P-wave (km/s) = 6.74152 7.21468 6.98211
#
# Compressibility (1/GPa) = 0.01901935
#
# Stress axis : x y z
#
# Youngs Moduli (GPa) = 71.08422 44.87412 79.28315
#
# Poissons Ratio (x) = 0.22094 0.43654
# Poissons Ratio (y) = 0.34999 0.36021
# Poissons Ratio (z) = 0.39139 0.20388
#
# Static dielectric constant tensor:
#      x y z
#    x 3.408610 0.000000 0.000000 
#    y 0.000000 2.853560 0.000000 
#    z 0.000000 0.000000 3.292640 
# 
# 
# High freq. dielectric constant tensor:
#      x y z
#    x 1.676190 0.000000 0.000000 
#    y 0.000000 1.617570 0.000000 
#    z 0.000000 0.000000 1.668590 
# 
# From -- ./inp_files/22650.got.cif
#   From: 2010.03.12/outbox.cif.g09.slc.cpg/sg53_12_cif.got.tgz:22650.got - 2010.04.16 14:36:59.
