data_PCOD8217002
_publ_section_title
;
Structure prediction by ZEFSAII (Michael W. Deem and Ramdas Pophale) SiO2 
 PCOD8217002
Probable space group: P N N A
;
_chemical_formula_sum "Si O2"
_cell_formula_units_Z 48
_cell_length_a 22.082983
_cell_length_b 9.262092
_cell_length_c 11.293554
_cell_angle_alpha 90.000000
_cell_angle_beta 90.000000
_cell_angle_gamma 90.000000
_cell_volume 2309.922778
_symmetry_space_group_name_H-M "P N N A"
_symmetry_group_IT_number 52
_symmetry_cell_setting 'orthorhombic'
loop_
_space_group_symop_operation_xyz
x,y,z
1/2-x,-y,z
x,1/2-y,1/2-z
1/2-x,1/2+y,1/2-z
-x,-y,-z
1/2+x,y,-z
-x,1/2+y,1/2+z
1/2+x,1/2-y,1/2+z
loop_
_atom_site_type_symbol
_atom_site_label
_atom_site_fract_x
_atom_site_fract_y
_atom_site_fract_z
Si Si1 0.519446 0.548522 0.372133
Si Si2 0.394643 0.913294 0.247274
Si Si3 0.610482 0.312925 0.367835
Si Si4 0.428363 0.968188 0.503685
Si Si5 0.319712 0.475988 0.465204
Si Si6 0.625221 0.761000 0.382024
O O1 0.500000 0.500000 0.500000
O O2 0.463781 0.590822 0.292445
O O3 0.557806 0.417138 0.315872
O O4 0.559496 0.689950 0.383901
O O5 0.368595 0.750000 0.250000
O O6 0.355156 0.011963 0.159089
O O7 0.395963 0.984353 0.376328
O O8 0.642759 0.250000 0.250000
O O9 0.658831 0.402093 0.443084
O O10 0.580218 0.194675 0.452241
O O11 0.388445 0.073367 0.586233
O O12 0.500000 0.000000 0.500000
O O13 0.250000 0.500000 0.437278
O O14 0.330991 0.318245 0.523096
O O15 0.654146 0.750000 0.250000
#
# Coordination Sequence:
#
# PCOD8217002 Si02
#       6
#     8   8   8   8   8   8
#     4  11  19  37  64  94 137 172 201 267 341 411
#     4  12  22  42  67  95 132 171 218 272 338 395
#     4  11  22  40  65  98 132 172 220 270 336 399
#     4  12  23  37  65 105 132 165 208 265 341 411
#     4  11  26  48  67  88 132 183 232 278 325 384
#     4  11  23  42  65  99 133 166 217 275 335 393
#
# _framework density 20.779914999999999
#
# number of rings (size 3 to 8) (size 9 to 14) (size 15 to 20)
#    0.000    0.667    5.000    6.500    0.000    1.333 
#    3.000    0.833    0.000    0.000    0.000    0.000 
#    0.000    0.000    0.000    0.000    0.000    0.000 
#
# Total GULP energy -595238.085421 kJ/mol
# GULP energy per Si atom -12400.793446 kJ/mol
# Density = 2.073262 g / cm^3
# Si number density = 20.779915 Si / 1000 Ang^3
#
#
#
# Elastic Constant Matrix: (Units=GPa)
#
#
# Indices 1 2 3 4 5 6 
#
# 1 86.3967 11.9689 13.8307 0.0000 0.0000 0.0000
# 2 11.9689 79.8887 8.9935 0.0000 0.0000 0.0000
# 3 13.8307 8.9935 117.6099 0.0000 0.0000 0.0000
# 4 0.0000 0.0000 0.0000 39.6766 0.0000 0.0000
# 5 0.0000 0.0000 0.0000 0.0000 12.9708 0.0000
# 6 0.0000 0.0000 0.0000 0.0000 0.0000 17.1037
#
#
#
# Elastic Compliance Matrix: (Units=1/GPa)
#
#
# Indices 1 2 3 4 5 6 
#
# 1 0.012010 -0.001655 -0.001286 0.000000 0.000000 0.000000
# 2 -0.001655 0.012854 -0.000788 0.000000 0.000000 0.000000
# 3 -0.001286 -0.000788 0.008714 0.000000 0.000000 0.000000
# 4 0.000000 0.000000 0.000000 0.025204 0.000000 0.000000
# 5 0.000000 0.000000 0.000000 0.000000 0.077096 0.000000
# 6 0.000000 0.000000 0.000000 0.000000 0.000000 0.058467
#
#
# Mechanical properties :
#
#
# Convention : Reuss Voigt Hill
#
# Bulk Modulus (GPa) = 38.28418 39.27571 38.77995
# Shear Modulus (GPa) = 23.75197 30.55705 27.15451
#
# Velocity S-wave (km/s) = 3.38453 3.83888 3.61884
# Velocity P-wave (km/s) = 5.80836 6.21218 6.01366
#
# Compressibility (1/GPa) = 0.02612045
#
# Stress axis : x y z
#
# Youngs Moduli (GPa) = 83.26707 77.79649 114.75556
#
# Poissons Ratio (x) = 0.12872 0.14755
# Poissons Ratio (y) = 0.13777 0.09047
# Poissons Ratio (z) = 0.10706 0.06133
#
# Static dielectric constant tensor:
#      x y z
#    x 3.482540 0.000000 0.000000 
#    y 0.000000 4.194630 0.000000 
#    z 0.000000 0.000000 4.258820 
# 
# 
# High freq. dielectric constant tensor:
#      x y z
#    x 1.772720 0.000000 0.000000 
#    y 0.000000 1.823330 0.000000 
#    z 0.000000 0.000000 1.834780 
# 
# From -- ./inp_files/22314.got.cif
#   From: 2010.06.25/outbox.cif.g09.slc.cpg/sg52_12_cif.got.tgz:22314.got - 2010.06.26 19:32:48.
