data_PCOD8217823
_publ_section_title
;
Structure prediction by ZEFSAII (Michael W. Deem and Ramdas Pophale) SiO2 
 PCOD8217823
Probable space group: P M N A
;
_chemical_formula_sum "Si O2"
_cell_formula_units_Z 56
_cell_length_a 24.344885
_cell_length_b 12.352353
_cell_length_c 9.858457
_cell_angle_alpha 90.000000
_cell_angle_beta 90.000000
_cell_angle_gamma 90.000000
_cell_volume 2964.601801
_symmetry_space_group_name_H-M "P M N A"
_symmetry_group_IT_number 53
_symmetry_cell_setting 'orthorhombic'
loop_
_space_group_symop_operation_xyz
x,y,z
1/2-x,-y,1/2+z
x,-y,-z
1/2-x,y,1/2-z
-x,-y,-z
1/2+x,y,1/2-z
-x,y,z
1/2+x,-y,1/2+z
loop_
_atom_site_type_symbol
_atom_site_label
_atom_site_fract_x
_atom_site_fract_y
_atom_site_fract_z
Si Si1 0.647137 0.732427 0.331181
Si Si2 0.436467 0.375840 0.470825
Si Si3 0.230707 0.317508 0.050944
Si Si4 0.698660 0.560144 0.150352
Si Si5 0.183632 0.844332 0.608013
Si Si6 0.859696 0.357927 0.265977
Si Si7 0.689121 0.924125 0.196521
O O1 0.593732 0.697923 0.416351
O O2 0.701689 0.725363 0.418881
O O3 0.660102 0.658901 0.200399
O O4 0.643975 0.858633 0.285970
O O5 0.423744 0.500000 0.500000
O O6 0.500000 0.345906 0.480820
O O7 0.416735 0.357351 0.316474
O O8 0.276938 0.405717 0.000794
O O9 0.258088 0.215697 0.126344
O O10 0.188650 0.370143 0.154421
O O11 0.750000 0.534765 0.250000
O O12 0.653566 0.461971 0.140798
O O13 0.138329 0.754444 0.649899
O O14 0.178732 0.884328 0.455341
O O15 0.178703 0.947195 0.708563
O O16 0.750000 0.896531 0.250000
#
# Coordination Sequence:
#
# PCOD8217823 Si02
#       7
#     8   8   8   8   8   8   8
#     4  10  18  34  55  78 110 149 186 230 277 326
#     4  10  21  39  63  84 108 142 187 245 301 338
#     4  10  19  33  47  79 115 155 184 212 268 332
#     4  10  18  29  46  75 117 150 174 216 267 335
#     4  11  22  33  53  80 115 161 192 220 271 324
#     4  11  22  34  50  84 115 147 187 232 279 338
#     4  11  20  37  53  77 120 158 194 223 260 334
#
# _framework density 18.889552999999999
#
# number of rings (size 3 to 8) (size 9 to 14) (size 15 to 20)
#    0.000    1.571    4.286    2.571    0.000    2.857 
#    0.000    0.000    0.000    2.571    0.000    5.000 
#    0.000    0.000    0.000    0.000    0.000    0.000 
#
# Total GULP energy -693827.841001 kJ/mol
# GULP energy per Si atom -12389.782875 kJ/mol
# Density = 1.884656 g / cm^3
# Si number density = 18.889553 Si / 1000 Ang^3
#
#
#
# Elastic Constant Matrix: (Units=GPa)
#
#
# Indices 1 2 3 4 5 6 
#
# 1 68.2859 43.3389 19.1573 0.0000 0.0000 0.0000
# 2 43.3389 153.7314 37.5859 0.0000 0.0000 0.0000
# 3 19.1573 37.5859 59.2207 0.0000 0.0000 0.0000
# 4 0.0000 0.0000 0.0000 30.4652 0.0000 0.0000
# 5 0.0000 0.0000 0.0000 0.0000 21.5632 0.0000
# 6 0.0000 0.0000 0.0000 0.0000 0.0000 16.6665
#
#
#
# Elastic Compliance Matrix: (Units=1/GPa)
#
#
# Indices 1 2 3 4 5 6 
#
# 1 0.018314 -0.004397 -0.003134 0.000000 0.000000 0.000000
# 2 -0.004397 0.008755 -0.004134 0.000000 0.000000 0.000000
# 3 -0.003134 -0.004134 0.020524 0.000000 0.000000 0.000000
# 4 0.000000 0.000000 0.000000 0.032824 0.000000 0.000000
# 5 0.000000 0.000000 0.000000 0.000000 0.046375 0.000000
# 6 0.000000 0.000000 0.000000 0.000000 0.000000 0.060001
#
#
# Mechanical properties :
#
#
# Convention : Reuss Voigt Hill
#
# Bulk Modulus (GPa) = 41.21525 53.48915 47.35220
# Shear Modulus (GPa) = 22.91362 25.81603 24.36482
#
# Velocity S-wave (km/s) = 3.48664 3.70088 3.59535
# Velocity P-wave (km/s) = 6.17052 6.82937 6.50829
#
# Compressibility (1/GPa) = 0.02426286
#
# Stress axis : x y z
#
# Youngs Moduli (GPa) = 54.60309 114.21831 48.72403
#
# Poissons Ratio (x) = 0.50219 0.15270
# Poissons Ratio (y) = 0.24008 0.20144
# Poissons Ratio (z) = 0.17112 0.47222
#
# Static dielectric constant tensor:
#      x y z
#    x 2.994040 0.000000 0.000000 
#    y 0.000000 3.808130 0.000000 
#    z 0.000000 0.000000 3.772500 
# 
# 
# High freq. dielectric constant tensor:
#      x y z
#    x 1.662190 0.000000 0.000000 
#    y 0.000000 1.749730 0.000000 
#    z 0.000000 0.000000 1.751690 
# 
# From -- ./inp_files/18432.got.cif
#   From: 2010.03.12/outbox.cif.g09.slc.cpg/sg53_10_cif.got.tgz:18432.got - 2010.04.16 14:36:59.
