data_PCOD8217298
_publ_section_title
;
Structure prediction by ZEFSAII (Michael W. Deem and Ramdas Pophale) SiO2 
 PCOD8217298
Probable space group: P N N A
;
_chemical_formula_sum "Si O2"
_cell_formula_units_Z 48
_cell_length_a 25.795602
_cell_length_b 8.914312
_cell_length_c 9.185522
_cell_angle_alpha 90.000000
_cell_angle_beta 90.000000
_cell_angle_gamma 90.000000
_cell_volume 2112.211192
_symmetry_space_group_name_H-M "P N N A"
_symmetry_group_IT_number 52
_symmetry_cell_setting 'orthorhombic'
loop_
_space_group_symop_operation_xyz
x,y,z
1/2-x,-y,z
x,1/2-y,1/2-z
1/2-x,1/2+y,1/2-z
-x,-y,-z
1/2+x,y,-z
-x,1/2+y,1/2+z
1/2+x,1/2-y,1/2+z
loop_
_atom_site_type_symbol
_atom_site_label
_atom_site_fract_x
_atom_site_fract_y
_atom_site_fract_z
Si Si1 0.400521 0.461309 0.896416
Si Si2 0.247466 0.820513 0.106983
Si Si3 0.136448 0.271804 0.083958
Si Si4 0.066112 0.076224 0.910532
Si Si5 0.711600 0.639188 0.134377
Si Si6 0.540247 0.782687 0.917114
O O1 0.431468 0.531244 0.759739
O O2 0.347109 0.402878 0.824589
O O3 0.384037 0.569300 0.027947
O O4 0.438415 0.340092 0.969669
O O5 0.223572 0.750000 0.250000
O O6 0.301978 0.738985 0.078408
O O7 0.250000 0.000000 0.106455
O O8 0.205549 0.753901 0.998477
O O9 0.116069 0.250000 0.250000
O O10 0.118835 0.148544 0.967441
O O11 0.022233 0.205838 0.925278
O O12 0.059036 0.942331 0.024520
O O13 0.750000 0.500000 0.108838
O O14 0.738094 0.750000 0.250000
O O15 0.558318 0.750000 0.750000
#
# Coordination Sequence:
#
# PCOD8217298 Si02
#       6
#     8   8   8   8   8   8
#     4  12  26  46  72 104 145 189 249 300 377 446
#     4  11  26  45  71 103 148 193 244 301 370 447
#     4  11  25  44  70 103 143 190 238 300 367 443
#     4  11  26  46  71 106 145 184 245 304 371 441
#     4  12  26  44  69 104 143 194 246 306 370 445
#     4  11  25  46  73 104 140 190 240 302 369 437
#
# _framework density 22.725002
#
# number of rings (size 3 to 8) (size 9 to 14) (size 15 to 20)
#    0.000    0.667    1.667    5.000    9.333    6.000 
#    0.000    0.000    0.000    0.000    0.000    0.000 
#    0.000    0.000    0.000    0.000    0.000    0.000 
#
# Total GULP energy -594770.320152 kJ/mol
# GULP energy per Si atom -12391.048337 kJ/mol
# Density = 2.267328 g / cm^3
# Si number density = 22.725002 Si / 1000 Ang^3
#
#
#
# Elastic Constant Matrix: (Units=GPa)
#
#
# Indices 1 2 3 4 5 6 
#
# 1 68.2552 30.4066 27.3916 0.0000 0.0000 0.0000
# 2 30.4066 128.3693 51.5499 0.0000 0.0000 0.0000
# 3 27.3916 51.5499 137.0883 0.0000 0.0000 0.0000
# 4 0.0000 0.0000 0.0000 55.8247 0.0000 0.0000
# 5 0.0000 0.0000 0.0000 0.0000 37.6009 0.0000
# 6 0.0000 0.0000 0.0000 0.0000 0.0000 42.3491
#
#
#
# Elastic Compliance Matrix: (Units=1/GPa)
#
#
# Indices 1 2 3 4 5 6 
#
# 1 0.016928 -0.003123 -0.002208 0.000000 0.000000 0.000000
# 2 -0.003123 0.009752 -0.003043 0.000000 0.000000 0.000000
# 3 -0.002208 -0.003043 0.008880 0.000000 0.000000 0.000000
# 4 0.000000 0.000000 0.000000 0.017913 0.000000 0.000000
# 5 0.000000 0.000000 0.000000 0.000000 0.026595 0.000000
# 6 0.000000 0.000000 0.000000 0.000000 0.000000 0.023613
#
#
# Mechanical properties :
#
#
# Convention : Reuss Voigt Hill
#
# Bulk Modulus (GPa) = 53.15794 61.37880 57.26837
# Shear Modulus (GPa) = 39.46313 42.11258 40.78785
#
# Velocity S-wave (km/s) = 4.17172 4.30948 4.24116
# Velocity P-wave (km/s) = 6.82985 7.19932 7.01702
#
# Compressibility (1/GPa) = 0.01881187
#
# Stress axis : x y z
#
# Youngs Moduli (GPa) = 59.07264 102.54549 112.61228
#
# Poissons Ratio (x) = 0.32026 0.24866
# Poissons Ratio (y) = 0.18449 0.34268
# Poissons Ratio (z) = 0.13044 0.31204
#
# Static dielectric constant tensor:
#      x y z
#    x 4.074820 0.000000 0.000000 
#    y 0.000000 4.185550 0.000000 
#    z 0.000000 0.000000 4.294520 
# 
# 
# High freq. dielectric constant tensor:
#      x y z
#    x 1.891810 0.000000 0.000000 
#    y 0.000000 1.910790 0.000000 
#    z 0.000000 0.000000 1.916370 
# 
# From -- ./inp_files/15499.got.cif
#   From: 2010.06.25/outbox.cif.g09.slc.cpg/sg52_8_cif.got.tgz:15499.got - 2010.06.26 19:32:48.
