data_PCOD8217366
_publ_section_title
;
Structure prediction by ZEFSAII (Michael W. Deem and Ramdas Pophale) SiO2 
 PCOD8217366
Probable space group: P N N A
;
_chemical_formula_sum "Si O2"
_cell_formula_units_Z 32
_cell_length_a 20.542370
_cell_length_b 13.893624
_cell_length_c 4.865799
_cell_angle_alpha 90.000000
_cell_angle_beta 90.000000
_cell_angle_gamma 90.000000
_cell_volume 1388.737790
_symmetry_space_group_name_H-M "P N N A"
_symmetry_group_IT_number 52
_symmetry_cell_setting 'orthorhombic'
loop_
_space_group_symop_operation_xyz
x,y,z
1/2-x,-y,z
x,1/2-y,1/2-z
1/2-x,1/2+y,1/2-z
-x,-y,-z
1/2+x,y,-z
-x,1/2+y,1/2+z
1/2+x,1/2-y,1/2+z
loop_
_atom_site_type_symbol
_atom_site_label
_atom_site_fract_x
_atom_site_fract_y
_atom_site_fract_z
Si Si1 0.662677 0.147025 0.343961
Si Si2 0.568131 0.524065 0.142123
Si Si3 0.108705 0.645846 0.339253
Si Si4 0.253958 0.607543 0.345631
O O1 0.636302 0.250000 0.250000
O O2 0.600062 0.079466 0.321339
O O3 0.698161 0.163400 0.637003
O O4 0.715631 0.101874 0.144730
O O5 0.433232 0.410164 0.577433
O O6 0.500000 0.500000 0.000000
O O7 0.611671 0.582110 0.931160
O O8 0.078375 0.750000 0.250000
O O9 0.184804 0.658781 0.407783
O O10 0.250000 0.500000 0.226221
#
# Coordination Sequence:
#
# PCOD8217366 Si02
#       4
#     8   8   8   8
#     4  12  24  42  69 103 139 183 228 284 351 420
#     4  12  26  46  68  97 139 187 239 289 340 411
#     4  12  25  44  71 103 137 181 230 289 355 418
#     4  12  22  43  70 103 143 178 220 287 360 418
#
# _framework density 23.042508999999999
#
# number of rings (size 3 to 8) (size 9 to 14) (size 15 to 20)
#    0.000    0.000    5.000    6.000    0.000    1.000 
#    0.000    5.000    0.000    0.000    0.000    0.000 
#    0.000    0.000    0.000    0.000    0.000    0.000 
#
# Total GULP energy -396632.786066 kJ/mol
# GULP energy per Si atom -12394.774565 kJ/mol
# Density = 2.299006 g / cm^3
# Si number density = 23.042509 Si / 1000 Ang^3
#
#
#
# Elastic Constant Matrix: (Units=GPa)
#
#
# Indices 1 2 3 4 5 6 
#
# 1 91.8500 60.0989 18.2058 0.0000 0.0000 0.0000
# 2 60.0989 172.0084 54.9374 0.0000 0.0000 0.0000
# 3 18.2058 54.9374 110.9411 0.0000 0.0000 0.0000
# 4 0.0000 0.0000 0.0000 34.9913 0.0000 0.0000
# 5 0.0000 0.0000 0.0000 0.0000 35.8403 0.0000
# 6 0.0000 0.0000 0.0000 0.0000 0.0000 20.8407
#
#
#
# Elastic Compliance Matrix: (Units=1/GPa)
#
#
# Indices 1 2 3 4 5 6 
#
# 1 0.014116 -0.004980 0.000149 0.000000 0.000000 0.000000
# 2 -0.004980 0.008663 -0.003472 0.000000 0.000000 0.000000
# 3 0.000149 -0.003472 0.010709 0.000000 0.000000 0.000000
# 4 0.000000 0.000000 0.000000 0.028579 0.000000 0.000000
# 5 0.000000 0.000000 0.000000 0.000000 0.027902 0.000000
# 6 0.000000 0.000000 0.000000 0.000000 0.000000 0.047983
#
#
# Mechanical properties :
#
#
# Convention : Reuss Voigt Hill
#
# Bulk Modulus (GPa) = 59.23509 71.25374 65.24441
# Shear Modulus (GPa) = 31.21416 34.43828 32.82622
#
# Velocity S-wave (km/s) = 3.68453 3.87014 3.77847
# Velocity P-wave (km/s) = 6.62297 7.13866 6.88564
#
# Compressibility (1/GPa) = 0.01688189
#
# Stress axis : x y z
#
# Youngs Moduli (GPa) = 70.84125 115.43788 93.38102
#
# Poissons Ratio (x) = 0.57486 -0.01396
# Poissons Ratio (y) = 0.35278 0.32427
# Poissons Ratio (z) = -0.01059 0.40086
#
# Static dielectric constant tensor:
#      x y z
#    x 3.880990 0.000000 0.000000 
#    y 0.000000 4.550860 0.000000 
#    z 0.000000 0.000000 4.555050 
# 
# 
# High freq. dielectric constant tensor:
#      x y z
#    x 1.890490 0.000000 0.000000 
#    y 0.000000 1.929660 0.000000 
#    z 0.000000 0.000000 1.926430 
# 
# From -- ./inp_files/3069.got.cif
#   From: 2010.06.25/outbox.cif.g09.slc.cpg/sg52_2_cif.got.tgz:3069.got - 2010.06.26 19:32:48.
