data_PCOD8217326
_publ_section_title
;
Structure prediction by ZEFSAII (Michael W. Deem and Ramdas Pophale) SiO2 
 PCOD8217326
Probable space group: P N N A
;
_chemical_formula_sum "Si O2"
_cell_formula_units_Z 32
_cell_length_a 32.901032
_cell_length_b 5.291672
_cell_length_c 7.842466
_cell_angle_alpha 90.000000
_cell_angle_beta 90.000000
_cell_angle_gamma 90.000000
_cell_volume 1365.384857
_symmetry_space_group_name_H-M "P N N A"
_symmetry_group_IT_number 52
_symmetry_cell_setting 'orthorhombic'
loop_
_space_group_symop_operation_xyz
x,y,z
1/2-x,-y,z
x,1/2-y,1/2-z
1/2-x,1/2+y,1/2-z
-x,-y,-z
1/2+x,y,-z
-x,1/2+y,1/2+z
1/2+x,1/2-y,1/2+z
loop_
_atom_site_type_symbol
_atom_site_label
_atom_site_fract_x
_atom_site_fract_y
_atom_site_fract_z
Si Si1 0.750000 0.500000 0.547440
Si Si2 0.163895 0.250000 0.750000
Si Si3 0.816319 0.250000 0.750000
Si Si4 0.783074 0.250000 0.250000
Si Si5 0.876412 0.912634 0.579429
Si Si6 0.534179 0.502616 0.859672
O O1 0.789107 0.480268 0.671805
O O2 0.753179 0.256906 0.418163
O O3 0.190177 0.501705 0.742911
O O4 0.135235 0.253169 0.583984
O O5 0.844303 0.357779 0.901810
O O6 0.874608 0.750000 0.750000
O O7 0.921518 0.022492 0.552594
O O8 0.526613 0.750000 0.750000
O O9 0.530524 0.250000 0.750000
O O10 0.500000 0.500000 0.000000
#
# Coordination Sequence:
#
# PCOD8217326 Si02
#       6
#     4   4   4   4   8   8
#     4  12  28  44  74  98 148 198 262 324 392 456
#     4  12  27  48  75 108 144 202 262 315 394 462
#     4  12  26  50  73 110 146 212 262 329 398 464
#     4  12  27  50  68 106 146 190 260 332 382 464
#     4  11  26  50  79 109 158 203 263 328 395 470
#     4  11  25  48  79 120 163 205 255 321 395 481
#
# _framework density 23.436613999999999
#
# number of rings (size 3 to 8) (size 9 to 14) (size 15 to 20)
#    0.000    0.500    3.750    3.000    7.000    1.000 
#    2.250    0.000    0.000    0.000    0.000    0.000 
#    0.000    0.000    0.000    0.000    0.000    0.000 
#
# Total GULP energy -396647.218889 kJ/mol
# GULP energy per Si atom -12395.225590 kJ/mol
# Density = 2.338327 g / cm^3
# Si number density = 23.436614 Si / 1000 Ang^3
#
#
#
# Elastic Constant Matrix: (Units=GPa)
#
#
# Indices 1 2 3 4 5 6 
#
# 1 210.7611 86.3810 94.5619 0.0000 0.0000 0.0000
# 2 86.3810 153.4983 65.7826 0.0000 0.0000 0.0000
# 3 94.5619 65.7826 168.3758 0.0000 0.0000 0.0000
# 4 0.0000 0.0000 0.0000 48.7045 0.0000 0.0000
# 5 0.0000 0.0000 0.0000 0.0000 38.8115 0.0000
# 6 0.0000 0.0000 0.0000 0.0000 0.0000 38.5881
#
#
#
# Elastic Compliance Matrix: (Units=1/GPa)
#
#
# Indices 1 2 3 4 5 6 
#
# 1 0.007219 -0.002792 -0.002963 0.000000 0.000000 0.000000
# 2 -0.002792 0.008905 -0.001911 0.000000 0.000000 0.000000
# 3 -0.002963 -0.001911 0.008350 0.000000 0.000000 0.000000
# 4 0.000000 0.000000 0.000000 0.020532 0.000000 0.000000
# 5 0.000000 0.000000 0.000000 0.000000 0.025766 0.000000
# 6 0.000000 0.000000 0.000000 0.000000 0.000000 0.025915
#
#
# Mechanical properties :
#
#
# Convention : Reuss Voigt Hill
#
# Bulk Modulus (GPa) = 109.40078 114.00957 111.70517
# Shear Modulus (GPa) = 43.45354 44.28147 43.86751
#
# Velocity S-wave (km/s) = 4.31058 4.35145 4.33107
# Velocity P-wave (km/s) = 8.45905 8.60223 8.53094
#
# Compressibility (1/GPa) = 0.00914070
#
# Stress axis : x y z
#
# Youngs Moduli (GPa) = 138.53017 112.29553 119.76390
#
# Poissons Ratio (x) = 0.31358 0.35487
# Poissons Ratio (y) = 0.38684 0.22885
# Poissons Ratio (z) = 0.41048 0.21458
#
# Static dielectric constant tensor:
#      x y z
#    x 4.683230 0.000000 0.000000 
#    y 0.000000 4.482980 0.000000 
#    z 0.000000 0.000000 4.779390 
# 
# 
# High freq. dielectric constant tensor:
#      x y z
#    x 1.936060 0.000000 0.000000 
#    y 0.000000 1.932300 0.000000 
#    z 0.000000 0.000000 1.937790 
# 
# From -- ./inp_files/15318.got.cif
#   From: 2010.06.25/outbox.cif.g09.slc.cpg/sg52_8_cif.got.tgz:15318.got - 2010.06.26 19:32:48.
