data_PCOD8217521
_publ_section_title
;
Structure prediction by ZEFSAII (Michael W. Deem and Ramdas Pophale) SiO2 
 PCOD8217521
Probable space group: P M N A
;
_chemical_formula_sum "Si O2"
_cell_formula_units_Z 48
_cell_length_a 8.816703
_cell_length_b 15.257955
_cell_length_c 20.201954
_cell_angle_alpha 90.000000
_cell_angle_beta 90.000000
_cell_angle_gamma 90.000000
_cell_volume 2717.664986
_symmetry_space_group_name_H-M "P M N A"
_symmetry_group_IT_number 53
_symmetry_cell_setting 'orthorhombic'
loop_
_space_group_symop_operation_xyz
x,y,z
1/2-x,-y,1/2+z
x,-y,-z
1/2-x,y,1/2-z
-x,-y,-z
1/2+x,y,1/2-z
-x,y,z
1/2+x,-y,1/2+z
loop_
_atom_site_type_symbol
_atom_site_label
_atom_site_fract_x
_atom_site_fract_y
_atom_site_fract_z
Si Si1 0.178458 0.776863 0.453708
Si Si2 0.320862 0.601595 0.435380
Si Si3 0.174022 0.756450 0.605878
Si Si4 0.823414 0.567472 0.576364
Si Si5 0.822371 0.092451 0.180586
Si Si6 0.821463 0.043297 0.931277
O O1 0.257896 0.696773 0.414088
O O2 0.227033 0.776424 0.530837
O O3 0.233776 0.866146 0.420141
O O4 0.000000 0.765494 0.446065
O O5 0.500000 0.598857 0.426398
O O6 0.244653 0.522284 0.391806
O O7 0.271857 0.586043 0.510566
O O8 0.197092 0.652976 0.622902
O O9 0.273484 0.811036 0.657193
O O10 0.000000 0.784372 0.615047
O O11 0.000000 0.555553 0.558237
O O12 0.750000 0.066746 0.250000
O O13 0.000000 0.092566 0.189481
O O14 0.769528 0.020987 0.127127
O O15 0.000000 0.061844 0.930940
O O16 0.769755 0.000000 0.000000
#
# Coordination Sequence:
#
# PCOD8217521 Si02
#       6
#     8   8   8   8   8   8
#     4  10  19  30  48  73 101 134 169 212 258 308
#     4  10  17  25  40  65  98 133 166 204 247 299
#     4   9  18  31  48  71  99 132 169 207 253 305
#     4   9  16  27  42  64  96 131 165 204 247 297
#     4  11  23  37  54  74 103 137 171 216 260 312
#     4  10  20  35  53  76 102 132 172 218 266 311
#
# _framework density 17.662222
#
# number of rings (size 3 to 8) (size 9 to 14) (size 15 to 20)
#    0.000    2.167    1.667    5.000    0.000    5.000 
#    0.000    0.000    0.000    0.000    0.000    1.167 
#    0.000    2.667    0.000    0.000    0.000    0.000 
#
# Total GULP energy -595032.007920 kJ/mol
# GULP energy per Si atom -12396.500165 kJ/mol
# Density = 1.762202 g / cm^3
# Si number density = 17.662222 Si / 1000 Ang^3
#
#
#
# Elastic Constant Matrix: (Units=GPa)
#
#
# Indices 1 2 3 4 5 6 
#
# 1 81.5414 59.8225 32.9797 0.0000 0.0000 0.0000
# 2 59.8225 161.9823 47.2576 0.0000 0.0000 0.0000
# 3 32.9797 47.2576 70.5014 0.0000 0.0000 0.0000
# 4 0.0000 0.0000 0.0000 13.0365 0.0000 0.0000
# 5 0.0000 0.0000 0.0000 0.0000 16.4025 0.0000
# 6 0.0000 0.0000 0.0000 0.0000 0.0000 35.0539
#
#
#
# Elastic Compliance Matrix: (Units=1/GPa)
#
#
# Indices 1 2 3 4 5 6 
#
# 1 0.018117 -0.005244 -0.004960 0.000000 0.000000 0.000000
# 2 -0.005244 0.009192 -0.003709 0.000000 0.000000 0.000000
# 3 -0.004960 -0.003709 0.018990 0.000000 0.000000 0.000000
# 4 0.000000 0.000000 0.000000 0.076708 0.000000 0.000000
# 5 0.000000 0.000000 0.000000 0.000000 0.060966 0.000000
# 6 0.000000 0.000000 0.000000 0.000000 0.000000 0.028528
#
#
# Mechanical properties :
#
#
# Convention : Reuss Voigt Hill
#
# Bulk Modulus (GPa) = 54.12827 66.01610 60.07218
# Shear Modulus (GPa) = 20.28537 24.49627 22.39082
#
# Velocity S-wave (km/s) = 3.39265 3.72819 3.56437
# Velocity P-wave (km/s) = 6.78673 7.48269 7.14319
#
# Compressibility (1/GPa) = 0.01847463
#
# Stress axis : x y z
#
# Youngs Moduli (GPa) = 55.19726 108.78940 52.65887
#
# Poissons Ratio (x) = 0.57047 0.26118
# Poissons Ratio (y) = 0.28944 0.19529
# Poissons Ratio (z) = 0.27377 0.40345
#
# Static dielectric constant tensor:
#      x y z
#    x 3.244520 0.000000 0.000000 
#    y 0.000000 3.957010 0.000000 
#    z 0.000000 0.000000 2.770880 
# 
# 
# High freq. dielectric constant tensor:
#      x y z
#    x 1.692700 0.000000 0.000000 
#    y 0.000000 1.708650 0.000000 
#    z 0.000000 0.000000 1.608550 
# 
# From -- ./inp_files/30485.got.cif
#   From: 2010.03.12/outbox.cif.g09.slc.cpg/sg53_16_cif.got.tgz:30485.got - 2010.04.16 14:36:59.
