data_PCOD8217370
_publ_section_title
;
Structure prediction by ZEFSAII (Michael W. Deem and Ramdas Pophale) SiO2 
 PCOD8217370
Probable space group: P N N A
;
_chemical_formula_sum "Si O2"
_cell_formula_units_Z 32
_cell_length_a 5.439122
_cell_length_b 15.451768
_cell_length_c 16.763198
_cell_angle_alpha 90.000000
_cell_angle_beta 90.000000
_cell_angle_gamma 90.000000
_cell_volume 1408.847072
_symmetry_space_group_name_H-M "P N N A"
_symmetry_group_IT_number 52
_symmetry_cell_setting 'orthorhombic'
loop_
_space_group_symop_operation_xyz
x,y,z
1/2-x,-y,z
x,1/2-y,1/2-z
1/2-x,1/2+y,1/2-z
-x,-y,-z
1/2+x,y,-z
-x,1/2+y,1/2+z
1/2+x,1/2-y,1/2+z
loop_
_atom_site_type_symbol
_atom_site_label
_atom_site_fract_x
_atom_site_fract_y
_atom_site_fract_z
Si Si1 0.982125 0.750000 0.250000
Si Si2 0.250000 0.000000 0.951672
Si Si3 0.835655 0.598520 0.800656
Si Si4 0.625042 0.845420 0.152207
Si Si5 0.083767 0.206087 0.448798
O O1 0.816326 0.769934 0.173046
O O2 0.126612 0.664715 0.225851
O O3 0.232475 0.085493 0.899852
O O4 0.500000 0.000000 0.000000
O O5 0.750000 0.500000 0.803195
O O6 0.931459 0.624519 0.888408
O O7 0.041655 0.606913 0.732835
O O8 0.410011 0.796288 0.102393
O O9 0.338128 0.202764 0.497472
#
# Coordination Sequence:
#
# PCOD8217370 Si02
#       5
#     4   4   8   8   8
#     4  12  22  48  80 110 154 198 278 310 386 456
#     4  12  30  48  76 122 162 198 256 330 410 476
#     4  12  27  47  80 110 149 207 265 323 383 469
#     4  12  25  49  76 112 150 212 258 323 389 477
#     4  12  26  48  76 108 157 204 250 319 390 455
#
# _framework density 22.713609000000002
#
# number of rings (size 3 to 8) (size 9 to 14) (size 15 to 20)
#    0.000    0.000    5.000    4.500    5.250    1.000 
#    0.000    0.000    0.000    0.000    0.000    0.000 
#    0.000    0.000    0.000    0.000    0.000    0.000 
#
# Total GULP energy -396766.223319 kJ/mol
# GULP energy per Si atom -12398.944479 kJ/mol
# Density = 2.266191 g / cm^3
# Si number density = 22.713609 Si / 1000 Ang^3
#
#
#
# Elastic Constant Matrix: (Units=GPa)
#
#
# Indices 1 2 3 4 5 6 
#
# 1 136.3188 48.1757 67.6689 0.0000 0.0000 0.0000
# 2 48.1757 180.8117 64.8721 0.0000 0.0000 0.0000
# 3 67.6689 64.8721 150.1337 0.0000 0.0000 0.0000
# 4 0.0000 0.0000 0.0000 37.2274 0.0000 0.0000
# 5 0.0000 0.0000 0.0000 0.0000 63.3428 0.0000
# 6 0.0000 0.0000 0.0000 0.0000 0.0000 32.0801
#
#
#
# Elastic Compliance Matrix: (Units=1/GPa)
#
#
# Indices 1 2 3 4 5 6 
#
# 1 0.009664 -0.001198 -0.003838 0.000000 0.000000 0.000000
# 2 -0.001198 0.006694 -0.002352 0.000000 0.000000 0.000000
# 3 -0.003838 -0.002352 0.009407 0.000000 0.000000 0.000000
# 4 0.000000 0.000000 0.000000 0.026862 0.000000 0.000000
# 5 0.000000 0.000000 0.000000 0.000000 0.015787 0.000000
# 6 0.000000 0.000000 0.000000 0.000000 0.000000 0.031172
#
#
# Mechanical properties :
#
#
# Convention : Reuss Voigt Hill
#
# Bulk Modulus (GPa) = 91.00769 92.07751 91.54260
# Shear Modulus (GPa) = 42.36328 45.63322 43.99825
#
# Velocity S-wave (km/s) = 4.32337 4.48713 4.40601
# Velocity P-wave (km/s) = 8.06700 8.21415 8.14091
#
# Compressibility (1/GPa) = 0.01098808
#
# Stress axis : x y z
#
# Youngs Moduli (GPa) = 103.47175 149.39204 106.30056
#
# Poissons Ratio (x) = 0.17895 0.40803
# Poissons Ratio (y) = 0.12394 0.25007
# Poissons Ratio (z) = 0.39717 0.35144
#
# Static dielectric constant tensor:
#      x y z
#    x 4.164070 0.000000 0.000000 
#    y 0.000000 4.949710 0.000000 
#    z 0.000000 0.000000 4.664380 
# 
# 
# High freq. dielectric constant tensor:
#      x y z
#    x 1.902870 0.000000 0.000000 
#    y 0.000000 1.900390 0.000000 
#    z 0.000000 0.000000 1.918530 
# 
# From -- ./inp_files/23470.got.cif
#   From: 2010.06.25/outbox.cif.g09.slc.cpg/sg52_12_cif.got.tgz:23470.got - 2010.06.26 19:32:48.
