data_PCOD8217449
_publ_section_title
;
Structure prediction by ZEFSAII (Michael W. Deem and Ramdas Pophale) SiO2 
 PCOD8217449
Probable space group: P N N A
;
_chemical_formula_sum "Si O2"
_cell_formula_units_Z 20
_cell_length_a 27.354999
_cell_length_b 5.302233
_cell_length_c 5.253876
_cell_angle_alpha 90.000000
_cell_angle_beta 90.000000
_cell_angle_gamma 90.000000
_cell_volume 762.035722
_symmetry_space_group_name_H-M "P N N A"
_symmetry_group_IT_number 52
_symmetry_cell_setting 'orthorhombic'
loop_
_space_group_symop_operation_xyz
x,y,z
1/2-x,-y,z
x,1/2-y,1/2-z
1/2-x,1/2+y,1/2-z
-x,-y,-z
1/2+x,y,-z
-x,1/2+y,1/2+z
1/2+x,1/2-y,1/2+z
loop_
_atom_site_type_symbol
_atom_site_label
_atom_site_fract_x
_atom_site_fract_y
_atom_site_fract_z
Si Si1 0.055271 0.999644 0.908158
Si Si2 0.196288 0.593423 0.990121
Si Si3 0.874142 0.750000 0.750000
O O1 0.067300 0.750000 0.750000
O O2 0.065023 0.250000 0.750000
O O3 0.091895 0.019591 0.148200
O O4 0.000000 0.000000 0.000000
O O5 0.250000 0.500000 0.917941
O O6 0.198030 0.750000 0.250000
O O7 0.160107 0.357074 0.025150
O O8 0.175924 0.750000 0.750000
#
# Coordination Sequence:
#
# PCOD8217449 Si02
#       3
#     8   8   4
#     4  12  29  53  84 121 174 231 293 364 440 521
#     4  12  29  54  85 122 177 230 293 367 448 532
#     4  12  32  50  82 128 168 232 296 362 446 528
#
# _framework density 26.245486
#
# number of rings (size 3 to 8) (size 9 to 14) (size 15 to 20)
#    0.000    0.000    4.000    2.400   11.200    0.000 
#    0.000    0.000    0.000    0.000    0.000    0.000 
#    0.000    0.000    0.000    0.000    0.000    0.000 
#
# Total GULP energy -248170.532420 kJ/mol
# GULP energy per Si atom -12408.526621 kJ/mol
# Density = 2.618575 g / cm^3
# Si number density = 26.245486 Si / 1000 Ang^3
#
#
#
# Elastic Constant Matrix: (Units=GPa)
#
#
# Indices 1 2 3 4 5 6 
#
# 1 197.5811 62.1069 51.9510 0.0000 0.0000 0.0000
# 2 62.1069 177.7183 71.9002 0.0000 0.0000 0.0000
# 3 51.9510 71.9002 155.5299 0.0000 0.0000 0.0000
# 4 0.0000 0.0000 0.0000 73.8088 0.0000 0.0000
# 5 0.0000 0.0000 0.0000 0.0000 35.5036 0.0000
# 6 0.0000 0.0000 0.0000 0.0000 0.0000 36.2117
#
#
#
# Elastic Compliance Matrix: (Units=1/GPa)
#
#
# Indices 1 2 3 4 5 6 
#
# 1 0.005876 -0.001549 -0.001247 0.000000 0.000000 0.000000
# 2 -0.001549 0.007330 -0.002871 0.000000 0.000000 0.000000
# 3 -0.001247 -0.002871 0.008173 0.000000 0.000000 0.000000
# 4 0.000000 0.000000 0.000000 0.013549 0.000000 0.000000
# 5 0.000000 0.000000 0.000000 0.000000 0.028166 0.000000
# 6 0.000000 0.000000 0.000000 0.000000 0.000000 0.027615
#
#
# Mechanical properties :
#
#
# Convention : Reuss Voigt Hill
#
# Bulk Modulus (GPa) = 99.54685 100.30504 99.92595
# Shear Modulus (GPa) = 47.44235 52.09624 49.76930
#
# Velocity S-wave (km/s) = 4.25625 4.46012 4.35938
# Velocity P-wave (km/s) = 7.88452 8.05137 7.96838
#
# Compressibility (1/GPa) = 0.01004552
#
# Stress axis : x y z
#
# Youngs Moduli (GPa) = 170.18603 136.42924 122.34980
#
# Poissons Ratio (x) = 0.21135 0.15252
# Poissons Ratio (y) = 0.26364 0.35127
# Poissons Ratio (z) = 0.21215 0.39170
#
# Static dielectric constant tensor:
#      x y z
#    x 5.359140 0.000000 0.000000 
#    y 0.000000 4.774280 0.000000 
#    z 0.000000 0.000000 5.375640 
# 
# 
# High freq. dielectric constant tensor:
#      x y z
#    x 2.081340 0.000000 0.000000 
#    y 0.000000 2.057230 0.000000 
#    z 0.000000 0.000000 2.058260 
# 
# From -- ./inp_files/5400.got.cif
#   From: 2010.06.25/outbox.cif.g09.slc.cpg/sg52_3_cif.got.tgz:5400.got - 2010.06.26 19:32:48.
