data_PCOD8217062
_publ_section_title
;
Structure prediction by ZEFSAII (Michael W. Deem and Ramdas Pophale) SiO2 
 PCOD8217062
Probable space group: P N N A
;
_chemical_formula_sum "Si O2"
_cell_formula_units_Z 48
_cell_length_a 19.379671
_cell_length_b 14.732768
_cell_length_c 8.530774
_cell_angle_alpha 90.000000
_cell_angle_beta 90.000000
_cell_angle_gamma 90.000000
_cell_volume 2435.674148
_symmetry_space_group_name_H-M "P N N A"
_symmetry_group_IT_number 52
_symmetry_cell_setting 'orthorhombic'
loop_
_space_group_symop_operation_xyz
x,y,z
1/2-x,-y,z
x,1/2-y,1/2-z
1/2-x,1/2+y,1/2-z
-x,-y,-z
1/2+x,y,-z
-x,1/2+y,1/2+z
1/2+x,1/2-y,1/2+z
loop_
_atom_site_type_symbol
_atom_site_label
_atom_site_fract_x
_atom_site_fract_y
_atom_site_fract_z
Si Si1 0.615177 0.259416 0.932758
Si Si2 0.435961 0.555254 0.934065
Si Si3 0.366245 0.341121 0.349899
Si Si4 0.682748 0.941427 0.564452
Si Si5 0.020362 0.160275 0.854487
Si Si6 0.767438 0.254053 0.065956
O O1 0.628485 0.250000 0.750000
O O2 0.576128 0.353605 0.965703
O O3 0.568607 0.175593 0.994180
O O4 0.687984 0.252408 0.018682
O O5 0.449991 0.578144 0.751397
O O6 0.500000 0.500000 0.000000
O O7 0.368857 0.492872 0.947968
O O8 0.365672 0.250000 0.250000
O O9 0.348075 0.426058 0.238212
O O10 0.443028 0.359760 0.416519
O O11 0.310008 0.330030 0.489011
O O12 0.698018 0.846620 0.485512
O O13 0.750000 0.000000 0.587918
O O14 0.021513 0.250000 0.750000
O O15 0.773433 0.250000 0.250000
#
# Coordination Sequence:
#
# PCOD8217062 Si02
#       6
#     8   8   8   8   8   8
#     4  11  23  40  62  88 120 166 212 257 313 382
#     4  11  21  39  64  89 124 163 207 254 316 372
#     4   9  19  37  60  86 118 160 202 244 304 373
#     4  11  21  37  64  91 123 164 204 254 315 368
#     4   9  19  37  61  86 119 162 202 245 304 377
#     4  11  23  40  61  89 124 163 211 259 311 379
#
# _framework density 19.707068
#
# number of rings (size 3 to 8) (size 9 to 14) (size 15 to 20)
#    0.000    1.667    3.333    3.000    2.333    0.667 
#    0.000    3.333    0.000    0.000    0.000    0.000 
#    0.000    0.000    0.000    0.000    0.000    0.000 
#
# Total GULP energy -595178.096831 kJ/mol
# GULP energy per Si atom -12399.543684 kJ/mol
# Density = 1.966221 g / cm^3
# Si number density = 19.707068 Si / 1000 Ang^3
#
#
#
# Elastic Constant Matrix: (Units=GPa)
#
#
# Indices 1 2 3 4 5 6 
#
# 1 157.2747 48.0381 48.1036 0.0000 0.0000 0.0000
# 2 48.0381 66.9993 25.0090 0.0000 0.0000 0.0000
# 3 48.1036 25.0090 100.5166 0.0000 0.0000 0.0000
# 4 0.0000 0.0000 0.0000 350.6973 0.0000 0.0000
# 5 0.0000 0.0000 0.0000 0.0000 33.1789 0.0000
# 6 0.0000 0.0000 0.0000 0.0000 0.0000 3.9077
#
#
#
# Elastic Compliance Matrix: (Units=1/GPa)
#
#
# Indices 1 2 3 4 5 6 
#
# 1 0.008862 -0.005259 -0.002932 0.000000 0.000000 0.000000
# 2 -0.005259 0.019575 -0.002353 0.000000 0.000000 0.000000
# 3 -0.002932 -0.002353 0.011937 0.000000 0.000000 0.000000
# 4 0.000000 0.000000 0.000000 0.002851 0.000000 0.000000
# 5 0.000000 0.000000 0.000000 0.000000 0.030140 0.000000
# 6 0.000000 0.000000 0.000000 0.000000 0.000000 0.255902
#
#
# Mechanical properties :
#
#
# Convention : Reuss Voigt Hill
#
# Bulk Modulus (GPa) = 51.85658 63.01022 57.43340
# Shear Modulus (GPa) = 14.01404 91.13277 52.57341
#
# Velocity S-wave (km/s) = 2.66957 6.80765 5.17062
# Velocity P-wave (km/s) = 5.98940 9.68684 8.05320
#
# Compressibility (1/GPa) = 0.01928396
#
# Stress axis : x y z
#
# Youngs Moduli (GPa) = 112.84759 51.08623 83.76992
#
# Poissons Ratio (x) = 0.26867 0.24564
# Poissons Ratio (y) = 0.59348 0.19715
# Poissons Ratio (z) = 0.33090 0.12023
#
# Static dielectric constant tensor:
#      x y z
#    x 3.911940 0.000000 0.000000 
#    y 0.000000 3.637700 0.000000 
#    z 0.000000 0.000000 3.636220 
# 
# 
# High freq. dielectric constant tensor:
#      x y z
#    x 1.790710 0.000000 0.000000 
#    y 0.000000 1.755370 0.000000 
#    z 0.000000 0.000000 1.754140 
# 
# From -- ./inp_files/12083.got.cif
#   From: 2010.06.25/outbox.cif.g09.slc.cpg/sg52_7_cif.got.tgz:12083.got - 2010.06.26 19:32:48.
