data_PCOD8217060
_publ_section_title
;
Structure prediction by ZEFSAII (Michael W. Deem and Ramdas Pophale) SiO2 
 PCOD8217060
Probable space group: P N N A
;
_chemical_formula_sum "Si O2"
_cell_formula_units_Z 36
_cell_length_a 14.590861
_cell_length_b 4.920001
_cell_length_c 22.897482
_cell_angle_alpha 90.000000
_cell_angle_beta 90.000000
_cell_angle_gamma 90.000000
_cell_volume 1643.742701
_symmetry_space_group_name_H-M "P N N A"
_symmetry_group_IT_number 52
_symmetry_cell_setting 'orthorhombic'
loop_
_space_group_symop_operation_xyz
x,y,z
1/2-x,-y,z
x,1/2-y,1/2-z
1/2-x,1/2+y,1/2-z
-x,-y,-z
1/2+x,y,-z
-x,1/2+y,1/2+z
1/2+x,1/2-y,1/2+z
loop_
_atom_site_type_symbol
_atom_site_label
_atom_site_fract_x
_atom_site_fract_y
_atom_site_fract_z
Si Si1 0.308559 0.233854 0.890266
Si Si2 0.250000 0.000000 0.207504
Si Si3 0.424963 0.385177 0.371893
Si Si4 0.992620 0.876067 0.563766
Si Si5 0.090343 0.502255 0.711907
O O1 0.250000 0.500000 0.882042
O O2 0.402622 0.319736 0.919959
O O3 0.250000 0.000000 0.925535
O O4 0.325610 0.101226 0.827219
O O5 0.223863 0.250000 0.250000
O O6 0.331797 0.079447 0.163867
O O7 0.435234 0.082133 0.396182
O O8 0.506486 0.413059 0.327090
O O9 0.435986 0.595404 0.426832
O O10 0.000000 0.000000 0.500000
O O11 0.125510 0.250000 0.750000
O O12 0.053081 0.750000 0.750000
#
# Coordination Sequence:
#
# PCOD8217060 Si02
#       5
#     8   4   8   8   8
#     4  11  23  41  62  92 127 162 214 266 316 387
#     4  12  24  42  70 102 144 178 220 290 348 410
#     4  11  23  42  66  96 132 167 227 266 328 410
#     4  11  24  46  68  89 128 173 217 278 336 387
#     4  11  21  37  61  88 125 169 201 244 313 378
#
# _framework density 21.901239
#
# number of rings (size 3 to 8) (size 9 to 14) (size 15 to 20)
#    0.000    0.889    0.000   10.000    0.000    1.778 
#    6.000    2.222    0.000    0.000    0.000    0.000 
#    0.000    0.000    0.000    0.000    0.000    0.000 
#
# Total GULP energy -446178.901851 kJ/mol
# GULP energy per Si atom -12393.858385 kJ/mol
# Density = 2.185139 g / cm^3
# Si number density = 21.901239 Si / 1000 Ang^3
#
#
#
# Elastic Constant Matrix: (Units=GPa)
#
#
# Indices 1 2 3 4 5 6 
#
# 1 118.3384 47.9793 40.8252 0.0000 0.0000 0.0000
# 2 47.9793 151.0570 37.0451 0.0000 0.0000 0.0000
# 3 40.8252 37.0451 97.6988 0.0000 0.0000 0.0000
# 4 0.0000 0.0000 0.0000 82.9213 0.0000 0.0000
# 5 0.0000 0.0000 0.0000 0.0000 -32.9180 0.0000
# 6 0.0000 0.0000 0.0000 0.0000 0.0000 39.3407
#
#
#
# Elastic Compliance Matrix: (Units=1/GPa)
#
#
# Indices 1 2 3 4 5 6 
#
# 1 0.010687 -0.002535 -0.003505 0.000000 0.000000 0.000000
# 2 -0.002535 0.007900 -0.001936 0.000000 0.000000 0.000000
# 3 -0.003505 -0.001936 0.012434 0.000000 0.000000 0.000000
# 4 0.000000 0.000000 0.000000 0.012060 0.000000 0.000000
# 5 0.000000 0.000000 0.000000 0.000000 -0.030379 0.000000
# 6 0.000000 0.000000 0.000000 0.000000 0.000000 0.025419
#
#
# Mechanical properties :
#
#
# Convention : Reuss Voigt Hill
#
# Bulk Modulus (GPa) = 66.35828 68.75480 67.55654
# Shear Modulus (GPa) = 84.60766 33.95180 59.27973
#
# Velocity S-wave (km/s) = 6.22216 3.94156 5.20822
# Velocity P-wave (km/s) = 9.05456 7.22328 8.19026
#
# Compressibility (1/GPa) = 0.01506971
#
# Stress axis : x y z
#
# Youngs Moduli (GPa) = 93.56991 126.58174 80.42363
#
# Poissons Ratio (x) = 0.32089 0.28185
# Poissons Ratio (y) = 0.23720 0.15572
# Poissons Ratio (z) = 0.32793 0.24509
#
# Static dielectric constant tensor:
#      x y z
#    x 3.705200 0.000000 0.000000 
#    y 0.000000 4.412810 0.000000 
#    z 0.000000 0.000000 3.975890 
# 
# 
# High freq. dielectric constant tensor:
#      x y z
#    x 1.866350 0.000000 0.000000 
#    y 0.000000 1.891550 0.000000 
#    z 0.000000 0.000000 1.849240 
# 
# From -- ./inp_files/37051.got.cif
#   From: 2010.06.25/outbox.cif.g09.slc.cpg/sg52_19_cif.got.tgz:37051.got - 2010.06.26 19:32:48.
