data_PCOD8217622
_publ_section_title
;
Structure prediction by ZEFSAII (Michael W. Deem and Ramdas Pophale) SiO2 
 PCOD8217622
Probable space group: P M N A
;
_chemical_formula_sum "Si O2"
_cell_formula_units_Z 64
_cell_length_a 27.517381
_cell_length_b 9.864454
_cell_length_c 11.648050
_cell_angle_alpha 90.000000
_cell_angle_beta 90.000000
_cell_angle_gamma 90.000000
_cell_volume 3161.792575
_symmetry_space_group_name_H-M "P M N A"
_symmetry_group_IT_number 53
_symmetry_cell_setting 'orthorhombic'
loop_
_space_group_symop_operation_xyz
x,y,z
1/2-x,-y,1/2+z
x,-y,-z
1/2-x,y,1/2-z
-x,-y,-z
1/2+x,y,1/2-z
-x,y,z
1/2+x,-y,1/2+z
loop_
_atom_site_type_symbol
_atom_site_label
_atom_site_fract_x
_atom_site_fract_y
_atom_site_fract_z
Si Si1 0.946665 0.483024 0.221439
Si Si2 0.267758 0.149642 0.001663
Si Si3 0.913111 0.629556 0.432932
Si Si4 0.170693 0.224644 0.700887
Si Si5 0.553597 0.785791 0.856254
Si Si6 0.155557 0.541417 0.129539
Si Si7 0.204604 0.278454 0.172401
Si Si8 0.349718 0.080799 0.188139
O O1 0.948498 0.580106 0.332183
O O2 0.937353 0.328901 0.260166
O O3 0.902973 0.530508 0.138800
O O4 0.000000 0.495883 0.161198
O O5 0.226216 0.253901 0.045059
O O6 0.316559 0.129479 0.080263
O O7 0.280071 0.209193 0.875006
O O8 0.243665 0.000000 0.000000
O O9 0.891220 0.500000 0.500000
O O10 0.867474 0.707580 0.383235
O O11 0.944265 0.722982 0.516802
O O12 0.174732 0.314730 0.818468
O O13 0.155542 0.072464 0.731404
O O14 0.500000 0.850351 0.840314
O O15 0.593898 0.901732 0.844569
O O16 0.183684 0.426546 0.201673
O O17 0.169704 0.500000 0.000000
O O18 0.250000 0.243202 0.250000
O O19 0.162383 0.171543 0.200969
#
# Coordination Sequence:
#
# PCOD8217622 Si02
#       8
#     8   8   8   8   8   8   8   8
#     4   9  18  34  56  82 116 158 200 241 290 353
#     4   9  19  36  63  87 113 153 197 238 303 368
#     4   9  17  29  52  87 124 155 196 240 294 355
#     4  10  21  37  61  84 121 160 192 244 302 359
#     4  10  17  29  56  88 121 159 195 239 298 362
#     4  11  24  40  57  86 114 147 199 250 297 348
#     4  10  22  39  60  82 113 151 191 242 293 360
#     4  10  19  37  57  88 123 156 195 236 296 366
#
# _framework density 20.241681
#
# number of rings (size 3 to 8) (size 9 to 14) (size 15 to 20)
#    0.000    2.250    2.500    0.375    0.000    3.750 
#    0.000    6.875    0.000    0.000    0.000    1.750 
#    0.000    0.000    0.000    0.000    0.000    0.000 
#
# Total GULP energy -792907.474013 kJ/mol
# GULP energy per Si atom -12389.179281 kJ/mol
# Density = 2.019561 g / cm^3
# Si number density = 20.241681 Si / 1000 Ang^3
#
#
#
# Elastic Constant Matrix: (Units=GPa)
#
#
# Indices 1 2 3 4 5 6 
#
# 1 71.9808 36.3580 18.1323 0.0000 0.0000 0.0000
# 2 36.3580 122.7221 36.8096 0.0000 0.0000 0.0000
# 3 18.1323 36.8096 79.8200 0.0000 0.0000 0.0000
# 4 0.0000 0.0000 0.0000 26.4237 0.0000 0.0000
# 5 0.0000 0.0000 0.0000 0.0000 21.3586 0.0000
# 6 0.0000 0.0000 0.0000 0.0000 0.0000 16.7807
#
#
#
# Elastic Compliance Matrix: (Units=1/GPa)
#
#
# Indices 1 2 3 4 5 6 
#
# 1 0.016543 -0.004380 -0.001738 0.000000 0.000000 0.000000
# 2 -0.004380 0.010616 -0.003901 0.000000 0.000000 0.000000
# 3 -0.001738 -0.003901 0.014722 0.000000 0.000000 0.000000
# 4 0.000000 0.000000 0.000000 0.037845 0.000000 0.000000
# 5 0.000000 0.000000 0.000000 0.000000 0.046819 0.000000
# 6 0.000000 0.000000 0.000000 0.000000 0.000000 0.059592
#
#
# Mechanical properties :
#
#
# Convention : Reuss Voigt Hill
#
# Bulk Modulus (GPa) = 45.78042 50.79140 48.28591
# Shear Modulus (GPa) = 23.42411 25.12747 24.27579
#
# Velocity S-wave (km/s) = 3.40549 3.52713 3.46684
# Velocity P-wave (km/s) = 6.17488 6.46023 6.31916
#
# Compressibility (1/GPa) = 0.02184340
#
# Stress axis : x y z
#
# Youngs Moduli (GPa) = 60.44991 94.19730 67.92590
#
# Poissons Ratio (x) = 0.41255 0.11807
# Poissons Ratio (y) = 0.26475 0.26496
# Poissons Ratio (z) = 0.10507 0.36744
#
# Static dielectric constant tensor:
#      x y z
#    x 3.622510 0.000000 0.000000 
#    y 0.000000 3.688900 0.000000 
#    z 0.000000 0.000000 3.649000 
# 
# 
# High freq. dielectric constant tensor:
#      x y z
#    x 1.786480 0.000000 0.000000 
#    y 0.000000 1.783740 0.000000 
#    z 0.000000 0.000000 1.768270 
# 
# From -- ./inp_files/19017.got.cif
#   From: 2010.03.12/outbox.cif.g09.slc.cpg/sg53_10_cif.got.tgz:19017.got - 2010.04.16 14:36:59.
