data_PCOD8217522
_publ_section_title
;
Structure prediction by ZEFSAII (Michael W. Deem and Ramdas Pophale) SiO2 
 PCOD8217522
Probable space group: P M N A
;
_chemical_formula_sum "Si O2"
_cell_formula_units_Z 48
_cell_length_a 8.693634
_cell_length_b 15.292882
_cell_length_c 20.336225
_cell_angle_alpha 90.000000
_cell_angle_beta 90.000000
_cell_angle_gamma 90.000000
_cell_volume 2703.715734
_symmetry_space_group_name_H-M "P M N A"
_symmetry_group_IT_number 53
_symmetry_cell_setting 'orthorhombic'
loop_
_space_group_symop_operation_xyz
x,y,z
1/2-x,-y,1/2+z
x,-y,-z
1/2-x,y,1/2-z
-x,-y,-z
1/2+x,y,1/2-z
-x,y,z
1/2+x,-y,1/2+z
loop_
_atom_site_type_symbol
_atom_site_label
_atom_site_fract_x
_atom_site_fract_y
_atom_site_fract_z
Si Si1 0.817298 0.908483 0.319762
Si Si2 0.818832 0.962582 0.567990
Si Si3 0.818157 0.747540 0.108979
Si Si4 0.676664 0.786851 0.540168
Si Si5 0.679247 0.595952 0.555787
Si Si6 0.319163 0.429162 0.914359
O O1 0.750000 0.936799 0.250000
O O2 0.755021 0.813488 0.339105
O O3 0.000000 0.905636 0.316843
O O4 0.754975 0.980140 0.371716
O O5 0.772997 0.861516 0.576716
O O6 0.000000 0.970260 0.566143
O O7 0.747803 0.000000 0.500000
O O8 0.752497 0.651295 0.126579
O O9 0.000000 0.745562 0.116778
O O10 0.768448 0.775718 0.035350
O O11 0.500000 0.815168 0.541618
O O12 0.702783 0.695858 0.580253
O O13 0.500000 0.580120 0.539455
O O14 0.742409 0.522904 0.607238
O O15 0.778704 0.585546 0.490201
O O16 0.500000 0.433043 0.902426
#
# Coordination Sequence:
#
# PCOD8217522 Si02
#       6
#     8   8   8   8   8   8
#     4  11  23  38  54  75 103 136 173 215 262 312
#     4  10  20  34  52  75 102 133 170 217 264 310
#     4  10  19  32  49  71  99 134 169 208 255 306
#     4   9  18  29  47  73 100 132 170 210 255 306
#     4   9  16  27  40  63  98 132 165 204 250 299
#     4  10  17  25  41  66  95 131 167 202 246 298
#
# _framework density 17.753346000000001
#
# number of rings (size 3 to 8) (size 9 to 14) (size 15 to 20)
#    0.000    2.167    1.667    5.000    0.000    5.000 
#    0.000    0.000    0.000    0.000    0.000    1.167 
#    0.000    5.333    0.000    0.000    0.000    0.000 
#
# Total GULP energy -594989.863999 kJ/mol
# GULP energy per Si atom -12395.622167 kJ/mol
# Density = 1.771294 g / cm^3
# Si number density = 17.753346 Si / 1000 Ang^3
#
#
#
# Elastic Constant Matrix: (Units=GPa)
#
#
# Indices 1 2 3 4 5 6 
#
# 1 69.2025 39.9596 28.8205 0.0000 0.0000 0.0000
# 2 39.9596 155.2962 52.7498 0.0000 0.0000 0.0000
# 3 28.8205 52.7498 73.1463 0.0000 0.0000 0.0000
# 4 0.0000 0.0000 0.0000 30.0126 0.0000 0.0000
# 5 0.0000 0.0000 0.0000 0.0000 18.3888 0.0000
# 6 0.0000 0.0000 0.0000 0.0000 0.0000 35.7895
#
#
#
# Elastic Compliance Matrix: (Units=1/GPa)
#
#
# Indices 1 2 3 4 5 6 
#
# 1 0.018278 -0.002989 -0.005046 0.000000 0.000000 0.000000
# 2 -0.002989 0.009017 -0.005325 0.000000 0.000000 0.000000
# 3 -0.005046 -0.005325 0.019500 0.000000 0.000000 0.000000
# 4 0.000000 0.000000 0.000000 0.033319 0.000000 0.000000
# 5 0.000000 0.000000 0.000000 0.000000 0.054381 0.000000
# 6 0.000000 0.000000 0.000000 0.000000 0.000000 0.027941
#
#
# Mechanical properties :
#
#
# Convention : Reuss Voigt Hill
#
# Bulk Modulus (GPa) = 49.81514 60.07831 54.94672
# Shear Modulus (GPa) = 25.53001 28.57919 27.05460
#
# Velocity S-wave (km/s) = 3.79626 4.01657 3.90797
# Velocity P-wave (km/s) = 6.88011 7.44476 7.16800
#
# Compressibility (1/GPa) = 0.02007422
#
# Stress axis : x y z
#
# Youngs Moduli (GPa) = 54.71099 110.89893 51.28301
#
# Poissons Ratio (x) = 0.33149 0.25878
# Poissons Ratio (y) = 0.16354 0.27309
# Poissons Ratio (z) = 0.27608 0.59054
#
# Static dielectric constant tensor:
#      x y z
#    x 3.218230 0.000000 0.000000 
#    y 0.000000 3.891880 0.000000 
#    z 0.000000 0.000000 2.847210 
# 
# 
# High freq. dielectric constant tensor:
#      x y z
#    x 1.693580 0.000000 0.000000 
#    y 0.000000 1.710990 0.000000 
#    z 0.000000 0.000000 1.613710 
# 
# From -- ./inp_files/30496.got.cif
#   From: 2010.03.12/outbox.cif.g09.slc.cpg/sg53_16_cif.got.tgz:30496.got - 2010.04.16 14:36:59.
