data_PCOD8217194
_publ_section_title
;
Structure prediction by ZEFSAII (Michael W. Deem and Ramdas Pophale) SiO2 
 PCOD8217194
Probable space group: P N N A
;
_chemical_formula_sum "Si O2"
_cell_formula_units_Z 32
_cell_length_a 17.006756
_cell_length_b 4.831130
_cell_length_c 17.273651
_cell_angle_alpha 90.000000
_cell_angle_beta 90.000000
_cell_angle_gamma 90.000000
_cell_volume 1419.235107
_symmetry_space_group_name_H-M "P N N A"
_symmetry_group_IT_number 52
_symmetry_cell_setting 'orthorhombic'
loop_
_space_group_symop_operation_xyz
x,y,z
1/2-x,-y,z
x,1/2-y,1/2-z
1/2-x,1/2+y,1/2-z
-x,-y,-z
1/2+x,y,-z
-x,1/2+y,1/2+z
1/2+x,1/2-y,1/2+z
loop_
_atom_site_type_symbol
_atom_site_label
_atom_site_fract_x
_atom_site_fract_y
_atom_site_fract_z
Si Si1 0.697093 0.757218 0.430601
Si Si2 0.418500 0.002281 0.696040
Si Si3 0.660528 0.906410 0.907548
Si Si4 0.411902 0.600557 0.168206
O O1 0.750000 0.500000 0.398875
O O2 0.648532 0.899108 0.361941
O O3 0.643071 0.665902 0.502350
O O4 0.750000 0.000000 0.465820
O O5 0.442100 0.250000 0.750000
O O6 0.502979 0.949325 0.656074
O O7 0.388504 0.750000 0.750000
O O8 0.647906 0.650875 0.848680
O O9 0.750000 0.000000 0.896388
O O10 0.600223 0.157673 0.894108
O O11 0.394678 0.750000 0.250000
#
# Coordination Sequence:
#
# PCOD8217194 Si02
#       4
#     8   8   8   8
#     4  11  24  43  66  94 129 167 213 267 321 385
#     4  11  24  43  66  94 129 167 213 267 320 383
#     4  11  23  41  64  93 128 168 215 266 320 381
#     4  11  23  41  64  93 128 168 215 266 320 381
#
# _framework density 22.547357999999999
#
# number of rings (size 3 to 8) (size 9 to 14) (size 15 to 20)
#    0.000    1.000    0.000    9.000    0.000    6.000 
#    0.000    2.500    0.000    0.000    0.000    0.000 
#    0.000    0.000    0.000    0.000    0.000    0.000 
#
# Total GULP energy -396595.783669 kJ/mol
# GULP energy per Si atom -12393.618240 kJ/mol
# Density = 2.249604 g / cm^3
# Si number density = 22.547358 Si / 1000 Ang^3
#
#
#
# Elastic Constant Matrix: (Units=GPa)
#
#
# Indices 1 2 3 4 5 6 
#
# 1 87.3213 51.4053 71.4529 0.0000 0.0000 0.0000
# 2 51.4053 160.2249 57.9216 0.0000 0.0000 0.0000
# 3 71.4529 57.9216 112.5581 0.0000 0.0000 0.0000
# 4 0.0000 0.0000 0.0000 53.1360 0.0000 0.0000
# 5 0.0000 0.0000 0.0000 0.0000 12.0668 0.0000
# 6 0.0000 0.0000 0.0000 0.0000 0.0000 41.3943
#
#
#
# Elastic Compliance Matrix: (Units=1/GPa)
#
#
# Indices 1 2 3 4 5 6 
#
# 1 0.024802 -0.002783 -0.014312 0.000000 0.000000 0.000000
# 2 -0.002783 0.007980 -0.002340 0.000000 0.000000 0.000000
# 3 -0.014312 -0.002340 0.019174 0.000000 0.000000 0.000000
# 4 0.000000 0.000000 0.000000 0.018820 0.000000 0.000000
# 5 0.000000 0.000000 0.000000 0.000000 0.082872 0.000000
# 6 0.000000 0.000000 0.000000 0.000000 0.000000 0.024158
#
#
# Mechanical properties :
#
#
# Convention : Reuss Voigt Hill
#
# Bulk Modulus (GPa) = 76.42095 80.18488 78.30291
# Shear Modulus (GPa) = 22.62067 33.27438 27.94753
#
# Velocity S-wave (km/s) = 3.17085 3.84572 3.52448
# Velocity P-wave (km/s) = 6.88279 7.44040 7.16702
#
# Compressibility (1/GPa) = 0.01308542
#
# Stress axis : x y z
#
# Youngs Moduli (GPa) = 40.31978 125.31388 52.15499
#
# Poissons Ratio (x) = 0.34879 0.74645
# Poissons Ratio (y) = 0.11222 0.12202
# Poissons Ratio (z) = 0.57706 0.29317
#
# Static dielectric constant tensor:
#      x y z
#    x 3.963490 0.000000 0.000000 
#    y 0.000000 4.434160 0.000000 
#    z 0.000000 0.000000 3.999480 
# 
# 
# High freq. dielectric constant tensor:
#      x y z
#    x 1.878080 0.000000 0.000000 
#    y 0.000000 1.917480 0.000000 
#    z 0.000000 0.000000 1.881930 
# 
# From -- ./inp_files/33390.got.cif
#   From: 2010.06.25/outbox.cif.g09.slc.cpg/sg52_17_cif.got.tgz:33390.got - 2010.06.26 19:32:48.
