data_PCOD8217606
_publ_section_title
;
Structure prediction by ZEFSAII (Michael W. Deem and Ramdas Pophale) SiO2 
 PCOD8217606
Probable space group: P M N A
;
_chemical_formula_sum "Si O2"
_cell_formula_units_Z 56
_cell_length_a 13.774365
_cell_length_b 14.403849
_cell_length_c 14.179144
_cell_angle_alpha 90.000000
_cell_angle_beta 90.000000
_cell_angle_gamma 90.000000
_cell_volume 2813.197093
_symmetry_space_group_name_H-M "P M N A"
_symmetry_group_IT_number 53
_symmetry_cell_setting 'orthorhombic'
loop_
_space_group_symop_operation_xyz
x,y,z
1/2-x,-y,1/2+z
x,-y,-z
1/2-x,y,1/2-z
-x,-y,-z
1/2+x,y,1/2-z
-x,y,z
1/2+x,-y,1/2+z
loop_
_atom_site_type_symbol
_atom_site_label
_atom_site_fract_x
_atom_site_fract_y
_atom_site_fract_z
Si Si1 0.727232 0.211870 0.144532
Si Si2 0.890642 0.252705 0.008278
Si Si3 0.238074 0.231666 0.638957
Si Si4 0.389507 0.609377 0.821655
Si Si5 0.386682 0.892236 0.003996
Si Si6 0.777089 0.437278 0.642158
Si Si7 0.107542 0.560671 0.890868
O O1 0.750000 0.178555 0.250000
O O2 0.827177 0.201158 0.087546
O O3 0.685779 0.316576 0.136732
O O4 0.646091 0.147212 0.097213
O O5 0.888019 0.362534 0.027761
O O6 0.000000 0.213540 0.012012
O O7 0.846088 0.229629 0.905683
O O8 0.250000 0.213173 0.750000
O O9 0.168970 0.155159 0.591993
O O10 0.193999 0.333441 0.609889
O O11 0.500000 0.636573 0.845454
O O12 0.366694 0.509126 0.868804
O O13 0.370597 0.609045 0.709557
O O14 0.500000 0.873889 0.019076
O O15 0.361071 0.000000 0.000000
O O16 0.750000 0.427280 0.750000
O O17 0.683832 0.478893 0.586984
O O18 0.000000 0.515118 0.888860
#
# Coordination Sequence:
#
# PCOD8217606 Si02
#       7
#     8   8   8   8   8   8   8
#     4  11  19  35  62  91 120 152 188 239 296 357
#     4  10  20  34  54  85 120 155 195 240 284 337
#     4  10  23  40  62  83 116 157 200 245 291 348
#     4  10  17  28  51  84 123 161 195 230 278 336
#     4  10  24  45  65  87 114 146 194 251 305 362
#     4   9  17  32  49  79 119 159 198 234 276 333
#     4   9  16  28  48  77 121 163 194 229 268 320
#
# _framework density 19.906178000000001
#
# number of rings (size 3 to 8) (size 9 to 14) (size 15 to 20)
#    0.000    2.143    2.857    0.857    0.000    3.429 
#    0.000    4.286    0.000    9.429    0.000    0.000 
#    0.000    0.000    0.000    0.000    0.000    0.000 
#
# Total GULP energy -694179.534964 kJ/mol
# GULP energy per Si atom -12396.063124 kJ/mol
# Density = 1.986087 g / cm^3
# Si number density = 19.906178 Si / 1000 Ang^3
#
#
#
# Elastic Constant Matrix: (Units=GPa)
#
#
# Indices 1 2 3 4 5 6 
#
# 1 132.8782 55.2186 56.2869 0.0000 0.0000 0.0000
# 2 55.2186 107.1102 41.9091 0.0000 0.0000 0.0000
# 3 56.2869 41.9091 119.9715 0.0000 0.0000 0.0000
# 4 0.0000 0.0000 0.0000 22.5192 0.0000 0.0000
# 5 0.0000 0.0000 0.0000 0.0000 17.3645 0.0000
# 6 0.0000 0.0000 0.0000 0.0000 0.0000 14.4269
#
#
#
# Elastic Compliance Matrix: (Units=1/GPa)
#
#
# Indices 1 2 3 4 5 6 
#
# 1 0.010776 -0.004144 -0.003608 0.000000 0.000000 0.000000
# 2 -0.004144 0.012408 -0.002390 0.000000 0.000000 0.000000
# 3 -0.003608 -0.002390 0.010863 0.000000 0.000000 0.000000
# 4 0.000000 0.000000 0.000000 0.044406 0.000000 0.000000
# 5 0.000000 0.000000 0.000000 0.000000 0.057589 0.000000
# 6 0.000000 0.000000 0.000000 0.000000 0.000000 0.069315
#
#
# Mechanical properties :
#
#
# Convention : Reuss Voigt Hill
#
# Bulk Modulus (GPa) = 72.66106 74.08768 73.37437
# Shear Modulus (GPa) = 21.71754 24.63182 23.17468
#
# Velocity S-wave (km/s) = 3.30660 3.52148 3.41573
# Velocity P-wave (km/s) = 7.15256 7.33714 7.24544
#
# Compressibility (1/GPa) = 0.01376253
#
# Stress axis : x y z
#
# Youngs Moduli (GPa) = 92.79835 80.59619 92.05385
#
# Poissons Ratio (x) = 0.33395 0.33216
# Poissons Ratio (y) = 0.38451 0.22003
# Poissons Ratio (z) = 0.33485 0.19264
#
# Static dielectric constant tensor:
#      x y z
#    x 3.713200 0.000000 0.000000 
#    y 0.000000 3.440340 0.000000 
#    z 0.000000 0.000000 3.634740 
# 
# 
# High freq. dielectric constant tensor:
#      x y z
#    x 1.779870 0.000000 0.000000 
#    y 0.000000 1.742900 0.000000 
#    z 0.000000 0.000000 1.780690 
# 
# From -- ./inp_files/22811.got.cif
#   From: 2010.03.12/outbox.cif.g09.slc.cpg/sg53_12_cif.got.tgz:22811.got - 2010.04.16 14:36:59.
