data_PCOD8217342
_publ_section_title
;
Structure prediction by ZEFSAII (Michael W. Deem and Ramdas Pophale) SiO2 
 PCOD8217342
Probable space group: P N N A
;
_chemical_formula_sum "Si O2"
_cell_formula_units_Z 20
_cell_length_a 8.027977
_cell_length_b 7.246748
_cell_length_c 11.857287
_cell_angle_alpha 90.000000
_cell_angle_beta 90.000000
_cell_angle_gamma 90.000000
_cell_volume 689.818140
_symmetry_space_group_name_H-M "P N N A"
_symmetry_group_IT_number 52
_symmetry_cell_setting 'orthorhombic'
loop_
_space_group_symop_operation_xyz
x,y,z
1/2-x,-y,z
x,1/2-y,1/2-z
1/2-x,1/2+y,1/2-z
-x,-y,-z
1/2+x,y,-z
-x,1/2+y,1/2+z
1/2+x,1/2-y,1/2+z
loop_
_atom_site_type_symbol
_atom_site_label
_atom_site_fract_x
_atom_site_fract_y
_atom_site_fract_z
Si Si1 0.250000 0.500000 0.830826
Si Si2 0.443729 0.210229 0.516194
Si Si3 0.571559 0.511411 0.676051
O O1 0.270832 0.315140 0.909832
O O2 0.417159 0.522665 0.759481
O O3 0.564025 0.335008 0.593296
O O4 0.416641 0.301428 0.395926
O O5 0.500000 0.000000 0.500000
O O6 0.750000 0.500000 0.741220
#
# Coordination Sequence:
#
# PCOD8217342 Si02
#       3
#     4   8   8
#     4  12  28  56  86 126 178 234 286 362 450 514
#     4  11  27  50  86 121 167 229 291 360 435 524
#     4  11  28  54  82 122 174 224 292 366 431 525
#
# _framework density 28.993151000000001
#
# number of rings (size 3 to 8) (size 9 to 14) (size 15 to 20)
#    0.000    0.800    0.000    3.600   22.400    0.000 
#   18.000    4.000    0.000    0.000    0.000    0.000 
#    0.000    0.000    0.000    0.000    0.000    0.000 
#
# Total GULP energy -247838.637270 kJ/mol
# GULP energy per Si atom -12391.931864 kJ/mol
# Density = 2.892716 g / cm^3
# Si number density = 28.993151 Si / 1000 Ang^3
#
#
#
# Elastic Constant Matrix: (Units=GPa)
#
#
# Indices 1 2 3 4 5 6 
#
# 1 203.6382 50.1539 70.6768 0.0000 0.0000 0.0000
# 2 50.1539 215.4944 58.2394 0.0000 0.0000 0.0000
# 3 70.6768 58.2394 136.9376 0.0000 0.0000 0.0000
# 4 0.0000 0.0000 0.0000 35.4236 0.0000 0.0000
# 5 0.0000 0.0000 0.0000 0.0000 24.4506 0.0000
# 6 0.0000 0.0000 0.0000 0.0000 0.0000 26.2985
#
#
#
# Elastic Compliance Matrix: (Units=1/GPa)
#
#
# Indices 1 2 3 4 5 6 
#
# 1 0.006059 -0.000638 -0.002856 0.000000 0.000000 0.000000
# 2 -0.000638 0.005310 -0.001929 0.000000 0.000000 0.000000
# 3 -0.002856 -0.001929 0.009597 0.000000 0.000000 0.000000
# 4 0.000000 0.000000 0.000000 0.028230 0.000000 0.000000
# 5 0.000000 0.000000 0.000000 0.000000 0.040899 0.000000
# 6 0.000000 0.000000 0.000000 0.000000 0.000000 0.038025
#
#
# Mechanical properties :
#
#
# Convention : Reuss Voigt Hill
#
# Bulk Modulus (GPa) = 98.81317 101.57895 100.19606
# Shear Modulus (GPa) = 35.12729 42.36788 38.74759
#
# Velocity S-wave (km/s) = 3.48454 3.82685 3.65970
# Velocity P-wave (km/s) = 7.09541 7.39175 7.24510
#
# Compressibility (1/GPa) = 0.01012011
#
# Stress axis : x y z
#
# Youngs Moduli (GPa) = 165.04295 188.30951 104.20022
#
# Poissons Ratio (x) = 0.12021 0.29757
# Poissons Ratio (y) = 0.10536 0.20100
# Poissons Ratio (z) = 0.47131 0.36325
#
# Static dielectric constant tensor:
#      x y z
#    x 6.127350 0.000000 0.000000 
#    y 0.000000 5.946780 0.000000 
#    z 0.000000 0.000000 6.254530 
# 
# 
# High freq. dielectric constant tensor:
#      x y z
#    x 2.199630 0.000000 0.000000 
#    y 0.000000 2.197240 0.000000 
#    z 0.000000 0.000000 2.185960 
# 
# From -- ./inp_files/16169.got.cif
#   From: 2010.06.25/outbox.cif.g09.slc.cpg/sg52_9_cif.got.tgz:16169.got - 2010.06.26 19:32:48.
