data_PCOD8217445
_publ_section_title
;
Structure prediction by ZEFSAII (Michael W. Deem and Ramdas Pophale) SiO2 
 PCOD8217445
Probable space group: P N N A
;
_chemical_formula_sum "Si O2"
_cell_formula_units_Z 28
_cell_length_a 9.668268
_cell_length_b 15.411636
_cell_length_c 8.104492
_cell_angle_alpha 90.000000
_cell_angle_beta 90.000000
_cell_angle_gamma 90.000000
_cell_volume 1207.600325
_symmetry_space_group_name_H-M "P N N A"
_symmetry_group_IT_number 52
_symmetry_cell_setting 'orthorhombic'
loop_
_space_group_symop_operation_xyz
x,y,z
1/2-x,-y,z
x,1/2-y,1/2-z
1/2-x,1/2+y,1/2-z
-x,-y,-z
1/2+x,y,-z
-x,1/2+y,1/2+z
1/2+x,1/2-y,1/2+z
loop_
_atom_site_type_symbol
_atom_site_label
_atom_site_fract_x
_atom_site_fract_y
_atom_site_fract_z
Si Si1 0.399293 0.748374 0.431441
Si Si2 0.250000 0.000000 0.862481
Si Si3 0.464777 0.579826 0.883132
Si Si4 0.627096 0.859154 0.904284
O O1 0.468468 0.750000 0.250000
O O2 0.401119 0.844044 0.506329
O O3 0.481540 0.682058 0.544783
O O4 0.242920 0.714522 0.414352
O O5 0.349500 0.943608 0.749741
O O6 0.157316 0.939605 0.978072
O O7 0.604246 0.608524 0.784703
O O8 0.500000 0.500000 0.000000
#
# Coordination Sequence:
#
# PCOD8217445 Si02
#       4
#     8   4   8   8
#     4  12  28  48  79 111 158 204 257 318 392 468
#     4  12  28  48  82 114 154 204 262 326 386 462
#     4  12  29  51  80 118 155 208 264 323 392 469
#     4  12  28  52  76 114 159 203 258 322 394 466
#
# _framework density 23.186478000000001
#
# number of rings (size 3 to 8) (size 9 to 14) (size 15 to 20)
#    0.000    0.000    2.857    5.143   16.000    0.000 
#    0.000    0.000    0.000    0.000    0.000    0.000 
#    0.000    0.000    0.000    0.000    0.000    0.000 
#
# Total GULP energy -347394.422818 kJ/mol
# GULP energy per Si atom -12406.943672 kJ/mol
# Density = 2.313370 g / cm^3
# Si number density = 23.186478 Si / 1000 Ang^3
#
#
#
# Elastic Constant Matrix: (Units=GPa)
#
#
# Indices 1 2 3 4 5 6 
#
# 1 120.6300 69.8629 55.3787 0.0000 0.0000 0.0000
# 2 69.8629 188.2658 104.0929 0.0000 0.0000 0.0000
# 3 55.3787 104.0929 166.6409 0.0000 0.0000 0.0000
# 4 0.0000 0.0000 0.0000 66.3567 0.0000 0.0000
# 5 0.0000 0.0000 0.0000 0.0000 12.2660 0.0000
# 6 0.0000 0.0000 0.0000 0.0000 0.0000 36.9237
#
#
#
# Elastic Compliance Matrix: (Units=1/GPa)
#
#
# Indices 1 2 3 4 5 6 
#
# 1 0.010854 -0.003106 -0.001667 0.000000 0.000000 0.000000
# 2 -0.003106 0.009003 -0.004591 0.000000 0.000000 0.000000
# 3 -0.001667 -0.004591 0.009423 0.000000 0.000000 0.000000
# 4 0.000000 0.000000 0.000000 0.015070 0.000000 0.000000
# 5 0.000000 0.000000 0.000000 0.000000 0.081526 0.000000
# 6 0.000000 0.000000 0.000000 0.000000 0.000000 0.027083
#
#
# Mechanical properties :
#
#
# Convention : Reuss Voigt Hill
#
# Bulk Modulus (GPa) = 94.77776 103.80065 99.28921
# Shear Modulus (GPa) = 28.53805 39.52276 34.03041
#
# Velocity S-wave (km/s) = 3.51209 4.13311 3.83519
# Velocity P-wave (km/s) = 7.57703 8.22446 7.90738
#
# Compressibility (1/GPa) = 0.01055100
#
# Stress axis : x y z
#
# Youngs Moduli (GPa) = 92.13253 111.07467 106.12458
#
# Poissons Ratio (x) = 0.34502 0.17688
# Poissons Ratio (y) = 0.28618 0.48727
# Poissons Ratio (z) = 0.15356 0.51000
#
# Static dielectric constant tensor:
#      x y z
#    x 3.994020 0.000000 0.000000 
#    y 0.000000 11.695590 0.000000 
#    z 0.000000 0.000000 4.666730 
# 
# 
# High freq. dielectric constant tensor:
#      x y z
#    x 1.916720 0.000000 0.000000 
#    y 0.000000 1.938260 0.000000 
#    z 0.000000 0.000000 1.939860 
# 
# From -- ./inp_files/8112.got.cif
#   From: 2010.06.25/outbox.cif.g09.slc.cpg/sg52_5_cif.got.tgz:8112.got - 2010.06.26 19:32:48.
