data_PCOD8217318
_publ_section_title
;
Structure prediction by ZEFSAII (Michael W. Deem and Ramdas Pophale) SiO2 
 PCOD8217318
Probable space group: P N N A
;
_chemical_formula_sum "Si O2"
_cell_formula_units_Z 28
_cell_length_a 11.077664
_cell_length_b 11.092814
_cell_length_c 9.743658
_cell_angle_alpha 90.000000
_cell_angle_beta 90.000000
_cell_angle_gamma 90.000000
_cell_volume 1197.324726
_symmetry_space_group_name_H-M "P N N A"
_symmetry_group_IT_number 52
_symmetry_cell_setting 'orthorhombic'
loop_
_space_group_symop_operation_xyz
x,y,z
1/2-x,-y,z
x,1/2-y,1/2-z
1/2-x,1/2+y,1/2-z
-x,-y,-z
1/2+x,y,-z
-x,1/2+y,1/2+z
1/2+x,1/2-y,1/2+z
loop_
_atom_site_type_symbol
_atom_site_label
_atom_site_fract_x
_atom_site_fract_y
_atom_site_fract_z
Si Si1 0.508261 0.871242 0.576461
Si Si2 0.580550 0.350335 0.591253
Si Si3 0.114051 0.016651 0.817623
Si Si4 0.289656 0.250000 0.250000
O O1 0.449996 0.779507 0.469936
O O2 0.435327 0.879491 0.718553
O O3 0.637478 0.820474 0.629261
O O4 0.500000 0.000000 0.500000
O O5 0.469684 0.396175 0.688389
O O6 0.609806 0.444836 0.474173
O O7 0.702759 0.347731 0.679203
O O8 0.250000 0.000000 0.767364
#
# Coordination Sequence:
#
# PCOD8217318 Si02
#       4
#     8   8   8   4
#     4  12  27  49  75 111 149 200 254 315 385 458
#     4  11  25  47  74 109 148 203 244 317 385 449
#     4  11  25  46  74 105 151 191 252 312 380 454
#     4  12  26  50  76 110 158 192 270 310 388 468
#
# _framework density 23.385470000000002
#
# number of rings (size 3 to 8) (size 9 to 14) (size 15 to 20)
#    0.000    0.571    2.857    3.429    8.000    2.286 
#   10.286    0.000    0.000    0.000    0.000    0.000 
#    0.000    0.000    0.000    0.000    0.000    0.000 
#
# Total GULP energy -347037.644617 kJ/mol
# GULP energy per Si atom -12394.201593 kJ/mol
# Density = 2.333224 g / cm^3
# Si number density = 23.385470 Si / 1000 Ang^3
#
#
#
# Elastic Constant Matrix: (Units=GPa)
#
#
# Indices 1 2 3 4 5 6 
#
# 1 165.2776 43.9664 32.2726 0.0000 0.0000 0.0000
# 2 43.9664 103.7921 15.4222 0.0000 0.0000 0.0000
# 3 32.2726 15.4222 67.0078 0.0000 0.0000 0.0000
# 4 0.0000 0.0000 0.0000 42.8752 0.0000 0.0000
# 5 0.0000 0.0000 0.0000 0.0000 36.4711 0.0000
# 6 0.0000 0.0000 0.0000 0.0000 0.0000 44.5035
#
#
#
# Elastic Compliance Matrix: (Units=1/GPa)
#
#
# Indices 1 2 3 4 5 6 
#
# 1 0.007331 -0.002672 -0.002916 0.000000 0.000000 0.000000
# 2 -0.002672 0.010950 -0.001233 0.000000 0.000000 0.000000
# 3 -0.002916 -0.001233 0.016612 0.000000 0.000000 0.000000
# 4 0.000000 0.000000 0.000000 0.023324 0.000000 0.000000
# 5 0.000000 0.000000 0.000000 0.000000 0.027419 0.000000
# 6 0.000000 0.000000 0.000000 0.000000 0.000000 0.022470
#
#
# Mechanical properties :
#
#
# Convention : Reuss Voigt Hill
#
# Bulk Modulus (GPa) = 47.05812 57.71110 52.38461
# Shear Modulus (GPa) = 38.81093 41.06438 39.93765
#
# Velocity S-wave (km/s) = 4.07826 4.19499 4.13703
# Velocity P-wave (km/s) = 6.50713 6.94231 6.72824
#
# Compressibility (1/GPa) = 0.02125032
#
# Stress axis : x y z
#
# Youngs Moduli (GPa) = 136.41579 91.32629 60.19854
#
# Poissons Ratio (x) = 0.24402 0.17551
# Poissons Ratio (y) = 0.36450 0.07424
# Poissons Ratio (z) = 0.39773 0.11263
#
# Static dielectric constant tensor:
#      x y z
#    x 4.418730 0.000000 0.000000 
#    y 0.000000 4.459650 0.000000 
#    z 0.000000 0.000000 4.486660 
# 
# 
# High freq. dielectric constant tensor:
#      x y z
#    x 1.929200 0.000000 0.000000 
#    y 0.000000 1.928670 0.000000 
#    z 0.000000 0.000000 1.943760 
# 
# From -- ./inp_files/17564.got.cif
#   From: 2010.06.25/outbox.cif.g09.slc.cpg/sg52_9_cif.got.tgz:17564.got - 2010.06.26 19:32:48.
