data_PCOD8217250
_publ_section_title
;
Structure prediction by ZEFSAII (Michael W. Deem and Ramdas Pophale) SiO2 
 PCOD8217250
Probable space group: P N N A
;
_chemical_formula_sum "Si O2"
_cell_formula_units_Z 40
_cell_length_a 13.570176
_cell_length_b 4.776849
_cell_length_c 23.039636
_cell_angle_alpha 90.000000
_cell_angle_beta 90.000000
_cell_angle_gamma 90.000000
_cell_volume 1493.490990
_symmetry_space_group_name_H-M "P N N A"
_symmetry_group_IT_number 52
_symmetry_cell_setting 'orthorhombic'
loop_
_space_group_symop_operation_xyz
x,y,z
1/2-x,-y,z
x,1/2-y,1/2-z
1/2-x,1/2+y,1/2-z
-x,-y,-z
1/2+x,y,-z
-x,1/2+y,1/2+z
1/2+x,1/2-y,1/2+z
loop_
_atom_site_type_symbol
_atom_site_label
_atom_site_fract_x
_atom_site_fract_y
_atom_site_fract_z
Si Si1 0.442399 0.184503 0.314676
Si Si2 0.659397 0.704229 0.065604
Si Si3 0.859163 0.094449 0.306251
Si Si4 0.908693 0.792633 0.003394
Si Si5 0.851345 0.835558 0.874882
O O1 0.405483 0.250000 0.250000
O O2 0.436570 0.447832 0.357858
O O3 0.560236 0.143456 0.317162
O O4 0.369614 0.937750 0.335836
O O5 0.750000 0.500000 0.049753
O O6 0.647365 0.765748 0.133902
O O7 0.570806 0.507894 0.036888
O O8 0.669019 0.014570 0.039467
O O9 0.902687 0.250000 0.250000
O O10 0.750000 0.000000 0.288472
O O11 0.860424 0.734641 0.940940
O O12 0.000000 0.000000 0.000000
O O13 0.750000 0.000000 0.861665
#
# Coordination Sequence:
#
# PCOD8217250 Si02
#       5
#     8   8   8   8   8
#     4  12  26  47  71 103 141 184 239 300 354 419
#     4  11  24  42  67 100 139 177 223 277 342 418
#     4  11  25  45  73 106 143 187 234 292 363 434
#     4  12  24  44  71 103 140 181 230 289 350 414
#     4  12  26  46  74 104 143 191 240 290 352 419
#
# _framework density 26.782885
#
# number of rings (size 3 to 8) (size 9 to 14) (size 15 to 20)
#    0.000    0.400    0.000    9.000    0.000    6.400 
#    0.000    1.000    0.000    0.000    0.000    0.000 
#    0.000    0.000    0.000    0.000    0.000    0.000 
#
# Total GULP energy -495814.901367 kJ/mol
# GULP energy per Si atom -12395.372534 kJ/mol
# Density = 2.672193 g / cm^3
# Si number density = 26.782885 Si / 1000 Ang^3
#
#
#
# Elastic Constant Matrix: (Units=GPa)
#
#
# Indices 1 2 3 4 5 6 
#
# 1 30.7105 -23.3433 33.6625 0.0000 0.0000 0.0000
# 2 -23.3433 148.6045 65.2719 0.0000 0.0000 0.0000
# 3 33.6625 65.2719 184.4190 0.0000 0.0000 0.0000
# 4 0.0000 0.0000 0.0000 23.9959 0.0000 0.0000
# 5 0.0000 0.0000 0.0000 0.0000 28.9972 0.0000
# 6 0.0000 0.0000 0.0000 0.0000 0.0000 25.8974
#
#
#
# Elastic Compliance Matrix: (Units=1/GPa)
#
#
# Indices 1 2 3 4 5 6 
#
# 1 0.068208 0.019162 -0.019232 0.000000 0.000000 0.000000
# 2 0.019162 0.013351 -0.008223 0.000000 0.000000 0.000000
# 3 -0.019232 -0.008223 0.011843 0.000000 0.000000 0.000000
# 4 0.000000 0.000000 0.000000 0.041674 0.000000 0.000000
# 5 0.000000 0.000000 0.000000 0.000000 0.034486 0.000000
# 6 0.000000 0.000000 0.000000 0.000000 0.000000 0.038614
#
#
# Mechanical properties :
#
#
# Convention : Reuss Voigt Hill
#
# Bulk Modulus (GPa) = 13.01822 57.21291 35.11556
# Shear Modulus (GPa) = 19.97060 34.98762 27.47911
#
# Velocity S-wave (km/s) = 2.73362 3.61826 3.20659
# Velocity P-wave (km/s) = 3.85159 6.23409 5.18163
#
# Compressibility (1/GPa) = 0.07681541
#
# Stress axis : x y z
#
# Youngs Moduli (GPa) = 14.66106 74.90042 84.43587
#
# Poissons Ratio (x) = -1.43522 1.62388
# Poissons Ratio (y) = -0.28093 0.69432
# Poissons Ratio (z) = 0.28196 0.61591
#
# Static dielectric constant tensor:
#      x y z
#    x 5.250200 0.000000 0.000000 
#    y 0.000000 5.013280 0.000000 
#    z 0.000000 0.000000 5.148050 
# 
# 
# High freq. dielectric constant tensor:
#      x y z
#    x 2.094300 0.000000 0.000000 
#    y 0.000000 2.085370 0.000000 
#    z 0.000000 0.000000 2.087810 
# 
# From -- ./inp_files/42508.got.cif
#   From: 2010.06.25/outbox.cif.g09.slc.cpg/sg52_22_cif.got.tgz:42508.got - 2010.06.26 19:32:48.
