data_PCOD8217081
_publ_section_title
;
Structure prediction by ZEFSAII (Michael W. Deem and Ramdas Pophale) SiO2 
 PCOD8217081
Probable space group: P N N A
;
_chemical_formula_sum "Si O2"
_cell_formula_units_Z 48
_cell_length_a 15.043972
_cell_length_b 8.641248
_cell_length_c 18.179701
_cell_angle_alpha 90.000000
_cell_angle_beta 90.000000
_cell_angle_gamma 90.000000
_cell_volume 2363.337368
_symmetry_space_group_name_H-M "P N N A"
_symmetry_group_IT_number 52
_symmetry_cell_setting 'orthorhombic'
loop_
_space_group_symop_operation_xyz
x,y,z
1/2-x,-y,z
x,1/2-y,1/2-z
1/2-x,1/2+y,1/2-z
-x,-y,-z
1/2+x,y,-z
-x,1/2+y,1/2+z
1/2+x,1/2-y,1/2+z
loop_
_atom_site_type_symbol
_atom_site_label
_atom_site_fract_x
_atom_site_fract_y
_atom_site_fract_z
Si Si1 0.728280 0.679846 0.172618
Si Si2 0.652977 0.572564 0.771865
Si Si3 0.494479 0.622083 0.310370
Si Si4 0.939140 0.326644 0.073044
Si Si5 0.408917 0.829551 0.826683
Si Si6 0.459666 0.135682 0.409158
O O1 0.750000 0.500000 0.183755
O O2 0.697611 0.750000 0.250000
O O3 0.653549 0.704185 0.112416
O O4 0.813648 0.776246 0.142865
O O5 0.750000 0.500000 0.771510
O O6 0.658724 0.750000 0.750000
O O7 0.592762 0.475554 0.713621
O O8 0.615806 0.568319 0.855076
O O9 0.516005 0.750000 0.250000
O O10 0.487140 0.710205 0.389925
O O11 0.582210 0.513434 0.314586
O O12 0.967054 0.503293 0.082570
O O13 0.921605 0.302646 0.986533
O O14 0.429439 0.750000 0.750000
O O15 0.489765 0.785192 0.879442
#
# Coordination Sequence:
#
# PCOD8217081 Si02
#       6
#     8   8   8   8   8   8
#     4  11  25  39  64 100 136 175 227 281 327 401
#     4  12  25  45  73  98 130 175 235 292 338 396
#     4  12  22  41  72  99 132 172 234 280 331 412
#     4  11  25  39  68 101 137 182 224 270 348 411
#     4  11  21  41  69  96 132 180 223 284 328 401
#     4  11  22  46  66  97 136 182 222 276 345 415
#
# _framework density 20.310261000000001
#
# number of rings (size 3 to 8) (size 9 to 14) (size 15 to 20)
#    0.000    0.667    6.667    1.000    7.000    1.333 
#    0.000    0.000    0.000    0.000    0.000    0.000 
#    0.000    0.000    0.000    0.000    0.000    0.000 
#
# Total GULP energy -594986.374225 kJ/mol
# GULP energy per Si atom -12395.549463 kJ/mol
# Density = 2.026403 g / cm^3
# Si number density = 20.310261 Si / 1000 Ang^3
#
#
#
# Elastic Constant Matrix: (Units=GPa)
#
#
# Indices 1 2 3 4 5 6 
#
# 1 139.8332 52.7538 66.4599 0.0000 0.0000 0.0000
# 2 52.7538 119.3050 34.0429 0.0000 0.0000 0.0000
# 3 66.4599 34.0429 133.1271 0.0000 0.0000 0.0000
# 4 0.0000 0.0000 0.0000 32.9766 0.0000 0.0000
# 5 0.0000 0.0000 0.0000 0.0000 24.8516 0.0000
# 6 0.0000 0.0000 0.0000 0.0000 0.0000 35.9507
#
#
#
# Elastic Compliance Matrix: (Units=1/GPa)
#
#
# Indices 1 2 3 4 5 6 
#
# 1 0.010516 -0.003400 -0.004380 0.000000 0.000000 0.000000
# 2 -0.003400 0.010141 -0.000896 0.000000 0.000000 0.000000
# 3 -0.004380 -0.000896 0.009927 0.000000 0.000000 0.000000
# 4 0.000000 0.000000 0.000000 0.030325 0.000000 0.000000
# 5 0.000000 0.000000 0.000000 0.000000 0.040239 0.000000
# 6 0.000000 0.000000 0.000000 0.000000 0.000000 0.027816
#
#
# Mechanical properties :
#
#
# Convention : Reuss Voigt Hill
#
# Bulk Modulus (GPa) = 75.57479 77.64204 76.60841
# Shear Modulus (GPa) = 33.17266 34.68971 33.93118
#
# Velocity S-wave (km/s) = 4.04579 4.13727 4.09178
# Velocity P-wave (km/s) = 7.68866 7.81880 7.75400
#
# Compressibility (1/GPa) = 0.01323193
#
# Stress axis : x y z
#
# Youngs Moduli (GPa) = 95.09347 98.61059 100.73060
#
# Poissons Ratio (x) = 0.33528 0.44124
# Poissons Ratio (y) = 0.32332 0.09024
# Poissons Ratio (z) = 0.41654 0.08834
#
# Static dielectric constant tensor:
#      x y z
#    x 3.816230 0.000000 0.000000 
#    y 0.000000 4.507920 0.000000 
#    z 0.000000 0.000000 4.057140 
# 
# 
# High freq. dielectric constant tensor:
#      x y z
#    x 1.786840 0.000000 0.000000 
#    y 0.000000 1.815020 0.000000 
#    z 0.000000 0.000000 1.779800 
# 
# From -- ./inp_files/33040.got.cif
#   From: 2010.06.25/outbox.cif.g09.slc.cpg/sg52_17_cif.got.tgz:33040.got - 2010.06.26 19:32:48.
