data_PCOD8217899
_publ_section_title
;
Structure prediction by ZEFSAII (Michael W. Deem and Ramdas Pophale) SiO2 
 PCOD8217899
Probable space group: P M N A
;
_chemical_formula_sum "Si O2"
_cell_formula_units_Z 40
_cell_length_a 8.997463
_cell_length_b 14.078591
_cell_length_c 20.209797
_cell_angle_alpha 90.000000
_cell_angle_beta 90.000000
_cell_angle_gamma 90.000000
_cell_volume 2560.007354
_symmetry_space_group_name_H-M "P M N A"
_symmetry_group_IT_number 53
_symmetry_cell_setting 'orthorhombic'
loop_
_space_group_symop_operation_xyz
x,y,z
1/2-x,-y,1/2+z
x,-y,-z
1/2-x,y,1/2-z
-x,-y,-z
1/2+x,y,1/2-z
-x,y,z
1/2+x,-y,1/2+z
loop_
_atom_site_type_symbol
_atom_site_label
_atom_site_fract_x
_atom_site_fract_y
_atom_site_fract_z
Si Si1 0.326489 0.955982 0.430764
Si Si2 0.832853 0.261390 0.396120
Si Si3 0.166316 0.226966 0.540822
Si Si4 0.324603 0.392467 0.485967
Si Si5 0.325053 0.894376 0.682116
O O1 0.500000 0.933303 0.433522
O O2 0.242701 0.856742 0.417585
O O3 0.272844 0.000000 0.500000
O O4 0.285276 0.026001 0.371461
O O5 0.837637 0.197114 0.462936
O O6 0.748441 0.359836 0.415720
O O7 0.742809 0.206641 0.339569
O O8 0.000000 0.283414 0.370923
O O9 0.259848 0.325821 0.545386
O O10 0.000000 0.243835 0.568227
O O11 0.277810 0.500000 0.500000
O O12 0.500000 0.379000 0.481808
O O13 0.250000 0.927401 0.750000
O O14 0.500000 0.881966 0.691376
#
# Coordination Sequence:
#
# PCOD8217899 Si02
#       5
#     8   8   8   8   8
#     4  10  18  30  48  67  91 124 161 198 238 284
#     4   9  18  30  45  68  96 126 159 198 243 289
#     4   9  18  27  43  68  94 123 154 196 241 282
#     4   9  16  27  45  69  97 125 154 191 237 288
#     4  11  22  34  49  69  98 133 166 203 244 295
#
# _framework density 15.624955
#
# number of rings (size 3 to 8) (size 9 to 14) (size 15 to 20)
#    1.200    1.200    2.000    1.800    0.000    3.600 
#    0.000    0.000    0.000    0.000    0.000    1.400 
#    0.000    6.400    0.000    0.000    0.000    0.000 
#
# Total GULP energy -495654.720257 kJ/mol
# GULP energy per Si atom -12391.368006 kJ/mol
# Density = 1.558939 g / cm^3
# Si number density = 15.624955 Si / 1000 Ang^3
#
#
#
# Elastic Constant Matrix: (Units=GPa)
#
#
# Indices 1 2 3 4 5 6 
#
# 1 106.6919 69.3446 38.7623 0.0000 0.0000 0.0000
# 2 69.3446 124.5549 40.7522 0.0000 0.0000 0.0000
# 3 38.7623 40.7522 68.3658 0.0000 0.0000 0.0000
# 4 0.0000 0.0000 0.0000 17.3929 0.0000 0.0000
# 5 0.0000 0.0000 0.0000 0.0000 22.4423 0.0000
# 6 0.0000 0.0000 0.0000 0.0000 0.0000 20.3974
#
#
#
# Elastic Compliance Matrix: (Units=1/GPa)
#
#
# Indices 1 2 3 4 5 6 
#
# 1 0.015775 -0.007275 -0.004608 0.000000 0.000000 0.000000
# 2 -0.007275 0.013329 -0.003820 0.000000 0.000000 0.000000
# 3 -0.004608 -0.003820 0.019517 0.000000 0.000000 0.000000
# 4 0.000000 0.000000 0.000000 0.057495 0.000000 0.000000
# 5 0.000000 0.000000 0.000000 0.000000 0.044559 0.000000
# 6 0.000000 0.000000 0.000000 0.000000 0.000000 0.049026
#
#
# Mechanical properties :
#
#
# Convention : Reuss Voigt Hill
#
# Bulk Modulus (GPa) = 58.08961 66.37008 62.22985
# Shear Modulus (GPa) = 21.11084 22.09675 21.60380
#
# Velocity S-wave (km/s) = 3.67972 3.76466 3.72243
# Velocity P-wave (km/s) = 7.43720 7.84003 7.64127
#
# Compressibility (1/GPa) = 0.01721478
#
# Stress axis : x y z
#
# Youngs Moduli (GPa) = 63.39013 75.02487 51.23755
#
# Poissons Ratio (x) = 0.54582 0.23609
# Poissons Ratio (y) = 0.46117 0.19574
# Poissons Ratio (z) = 0.29208 0.28662
#
# Static dielectric constant tensor:
#      x y z
#    x 3.031900 0.000000 0.000000 
#    y 0.000000 2.819200 0.000000 
#    z 0.000000 0.000000 2.625400 
# 
# 
# High freq. dielectric constant tensor:
#      x y z
#    x 1.618210 0.000000 0.000000 
#    y 0.000000 1.586770 0.000000 
#    z 0.000000 0.000000 1.550660 
# 
# From -- ./inp_files/30442.got.cif
#   From: 2010.03.12/outbox.cif.g09.slc.cpg/sg53_16_cif.got.tgz:30442.got - 2010.04.16 14:36:59.
