data_PCOD8217146
_publ_section_title
;
Structure prediction by ZEFSAII (Michael W. Deem and Ramdas Pophale) SiO2 
 PCOD8217146
Probable space group: P N N A
;
_chemical_formula_sum "Si O2"
_cell_formula_units_Z 40
_cell_length_a 17.661509
_cell_length_b 9.395464
_cell_length_c 11.440916
_cell_angle_alpha 90.000000
_cell_angle_beta 90.000000
_cell_angle_gamma 90.000000
_cell_volume 1898.483543
_symmetry_space_group_name_H-M "P N N A"
_symmetry_group_IT_number 52
_symmetry_cell_setting 'orthorhombic'
loop_
_space_group_symop_operation_xyz
x,y,z
1/2-x,-y,z
x,1/2-y,1/2-z
1/2-x,1/2+y,1/2-z
-x,-y,-z
1/2+x,y,-z
-x,1/2+y,1/2+z
1/2+x,1/2-y,1/2+z
loop_
_atom_site_type_symbol
_atom_site_label
_atom_site_fract_x
_atom_site_fract_y
_atom_site_fract_z
Si Si1 0.250000 0.000000 0.982981
Si Si2 0.620934 0.250000 0.750000
Si Si3 0.023309 0.491390 0.363223
Si Si4 0.752304 0.711658 0.908268
Si Si5 0.636634 0.914287 0.213320
Si Si6 0.115880 0.750000 0.250000
Si Si7 0.750000 0.000000 0.391652
O O1 0.321478 0.056742 0.909376
O O2 0.226827 0.123979 0.071294
O O3 0.571857 0.350756 0.665420
O O4 0.677749 0.346925 0.829989
O O5 0.064582 0.632934 0.315877
O O6 0.000000 0.500000 0.500000
O O7 0.947465 0.473167 0.289251
O O8 0.671351 0.681890 0.847356
O O9 0.750456 0.641241 0.033525
O O10 0.640668 0.750000 0.250000
O O11 0.675934 0.008963 0.312073
#
# Coordination Sequence:
#
# PCOD8217146 Si02
#       7
#     4   4   8   8   8   4   4
#     4  11  22  41  72  94 132 181 216 277 346 382
#     4  11  24  42  68  97 130 182 228 267 342 412
#     4  12  26  45  69  96 141 185 219 281 345 396
#     4  11  22  43  67 100 133 170 227 280 329 402
#     4  11  23  43  65  99 136 170 230 278 325 409
#     4  11  26  44  68 101 138 174 230 277 330 410
#     4  11  24  39  70  94 130 171 218 285 336 384
#
# _framework density 21.069447
#
# number of rings (size 3 to 8) (size 9 to 14) (size 15 to 20)
#    0.000    0.800    3.000    4.800    0.000    6.400 
#    0.000    3.000    0.000    0.000    0.000    0.000 
#    0.000    0.000    0.000    0.000    0.000    0.000 
#
# Total GULP energy -495840.716568 kJ/mol
# GULP energy per Si atom -12396.017914 kJ/mol
# Density = 2.102149 g / cm^3
# Si number density = 21.069447 Si / 1000 Ang^3
#
#
#
# Elastic Constant Matrix: (Units=GPa)
#
#
# Indices 1 2 3 4 5 6 
#
# 1 173.1352 44.4057 63.6267 0.0000 0.0000 0.0000
# 2 44.4057 105.9770 47.3191 0.0000 0.0000 0.0000
# 3 63.6267 47.3191 132.7088 0.0000 0.0000 0.0000
# 4 0.0000 0.0000 0.0000 39.2528 0.0000 0.0000
# 5 0.0000 0.0000 0.0000 0.0000 16.8815 0.0000
# 6 0.0000 0.0000 0.0000 0.0000 0.0000 15.8854
#
#
#
# Elastic Compliance Matrix: (Units=1/GPa)
#
#
# Indices 1 2 3 4 5 6 
#
# 1 0.007281 -0.001775 -0.002858 0.000000 0.000000 0.000000
# 2 -0.001775 0.011655 -0.003305 0.000000 0.000000 0.000000
# 3 -0.002858 -0.003305 0.010084 0.000000 0.000000 0.000000
# 4 0.000000 0.000000 0.000000 0.025476 0.000000 0.000000
# 5 0.000000 0.000000 0.000000 0.000000 0.059237 0.000000
# 6 0.000000 0.000000 0.000000 0.000000 0.000000 0.062951
#
#
# Mechanical properties :
#
#
# Convention : Reuss Voigt Hill
#
# Bulk Modulus (GPa) = 76.07510 80.28047 78.17779
# Shear Modulus (GPa) = 25.38819 31.50188 28.44504
#
# Velocity S-wave (km/s) = 3.47504 3.87091 3.67830
# Velocity P-wave (km/s) = 7.23094 7.62654 7.43137
#
# Compressibility (1/GPa) = 0.01314490
#
# Stress axis : x y z
#
# Youngs Moduli (GPa) = 137.33581 85.79755 99.16614
#
# Poissons Ratio (x) = 0.15227 0.28344
# Poissons Ratio (y) = 0.24374 0.32774
# Poissons Ratio (z) = 0.39254 0.28356
#
# Static dielectric constant tensor:
#      x y z
#    x 3.988880 0.000000 0.000000 
#    y 0.000000 3.857100 0.000000 
#    z 0.000000 0.000000 4.061030 
# 
# 
# High freq. dielectric constant tensor:
#      x y z
#    x 1.838970 0.000000 0.000000 
#    y 0.000000 1.821440 0.000000 
#    z 0.000000 0.000000 1.843240 
# 
# From -- ./inp_files/20423.got.cif
#   From: 2010.06.25/outbox.cif.g09.slc.cpg/sg52_11_cif.got.tgz:20423.got - 2010.06.26 19:32:48.
