data_PCOD8217053
_publ_section_title
;
Structure prediction by ZEFSAII (Michael W. Deem and Ramdas Pophale) SiO2 
 PCOD8217053
Probable space group: P N N A
;
_chemical_formula_sum "Si O2"
_cell_formula_units_Z 40
_cell_length_a 8.547451
_cell_length_b 12.846818
_cell_length_c 18.121095
_cell_angle_alpha 90.000000
_cell_angle_beta 90.000000
_cell_angle_gamma 90.000000
_cell_volume 1989.832997
_symmetry_space_group_name_H-M "P N N A"
_symmetry_group_IT_number 52
_symmetry_cell_setting 'orthorhombic'
loop_
_space_group_symop_operation_xyz
x,y,z
1/2-x,-y,z
x,1/2-y,1/2-z
1/2-x,1/2+y,1/2-z
-x,-y,-z
1/2+x,y,-z
-x,1/2+y,1/2+z
1/2+x,1/2-y,1/2+z
loop_
_atom_site_type_symbol
_atom_site_label
_atom_site_fract_x
_atom_site_fract_y
_atom_site_fract_z
Si Si1 0.193789 0.109783 0.290907
Si Si2 0.507571 0.738529 0.829947
Si Si3 0.257146 0.616323 0.375522
Si Si4 0.785762 0.619991 0.058131
Si Si5 0.545326 0.197275 0.578344
O O1 0.327441 0.188457 0.312440
O O2 0.156592 0.109749 0.204337
O O3 0.046045 0.146994 0.339434
O O4 0.250000 0.000000 0.319951
O O5 0.420150 0.750000 0.750000
O O6 0.573955 0.844786 0.868589
O O7 0.403166 0.669019 0.882542
O O8 0.250000 0.500000 0.409968
O O9 0.372050 0.688772 0.425091
O O10 0.750000 0.500000 0.079337
O O11 0.635864 0.696697 0.055477
O O12 0.863090 0.621441 0.977740
#
# Coordination Sequence:
#
# PCOD8217053 Si02
#       5
#     8   8   8   8   8
#     4   9  16  32  58  84 110 145 183 224 273 324
#     4   9  19  36  55  80 113 142 179 227 271 325
#     4   9  19  37  60  82 111 149 185 221 267 322
#     4  12  24  38  57  82 112 145 180 229 283 327
#     4  11  21  35  55  82 113 145 186 227 269 328
#
# _framework density 20.102188000000002
#
# number of rings (size 3 to 8) (size 9 to 14) (size 15 to 20)
#    0.000    2.000    0.000    6.600    0.000    1.600 
#    0.000    5.000    0.000    0.000    0.000    0.000 
#    0.000    0.000    0.000    0.000    0.000    0.000 
#
# Total GULP energy -495585.099891 kJ/mol
# GULP energy per Si atom -12389.627497 kJ/mol
# Density = 2.005643 g / cm^3
# Si number density = 20.102188 Si / 1000 Ang^3
#
#
#
# Elastic Constant Matrix: (Units=GPa)
#
#
# Indices 1 2 3 4 5 6 
#
# 1 71.6594 21.4213 18.4651 0.0000 0.0000 0.0000
# 2 21.4213 126.9696 16.3298 0.0000 0.0000 0.0000
# 3 18.4651 16.3298 63.1533 0.0000 0.0000 0.0000
# 4 0.0000 0.0000 0.0000 30.5368 0.0000 0.0000
# 5 0.0000 0.0000 0.0000 0.0000 30.4137 0.0000
# 6 0.0000 0.0000 0.0000 0.0000 0.0000 24.1787
#
#
#
# Elastic Compliance Matrix: (Units=1/GPa)
#
#
# Indices 1 2 3 4 5 6 
#
# 1 0.015624 -0.002119 -0.004020 0.000000 0.000000 0.000000
# 2 -0.002119 0.008434 -0.001561 0.000000 0.000000 0.000000
# 3 -0.004020 -0.001561 0.017414 0.000000 0.000000 0.000000
# 4 0.000000 0.000000 0.000000 0.032747 0.000000 0.000000
# 5 0.000000 0.000000 0.000000 0.000000 0.032880 0.000000
# 6 0.000000 0.000000 0.000000 0.000000 0.000000 0.041359
#
#
# Mechanical properties :
#
#
# Convention : Reuss Voigt Hill
#
# Bulk Modulus (GPa) = 38.35699 41.57942 39.96821
# Shear Modulus (GPa) = 28.97713 30.73025 29.85369
#
# Velocity S-wave (km/s) = 3.80082 3.91410 3.85788
# Velocity P-wave (km/s) = 6.19549 6.41528 6.30634
#
# Compressibility (1/GPa) = 0.02607086
#
# Stress axis : x y z
#
# Youngs Moduli (GPa) = 64.00282 118.56501 57.42602
#
# Poissons Ratio (x) = 0.25123 0.23088
# Poissons Ratio (y) = 0.13562 0.08966
# Poissons Ratio (z) = 0.25732 0.18512
#
# Static dielectric constant tensor:
#      x y z
#    x 3.245430 0.000000 0.000000 
#    y 0.000000 3.839080 0.000000 
#    z 0.000000 0.000000 4.247690 
# 
# 
# High freq. dielectric constant tensor:
#      x y z
#    x 1.754360 0.000000 0.000000 
#    y 0.000000 1.790610 0.000000 
#    z 0.000000 0.000000 1.783670 
# 
# From -- ./inp_files/31058.got.cif
#   From: 2010.06.25/outbox.cif.g09.slc.cpg/sg52_16_cif.got.tgz:31058.got - 2010.06.26 19:32:48.
