data_PCOD8217997
_publ_section_title
;
Structure prediction by ZEFSAII (Michael W. Deem and Ramdas Pophale) SiO2 
 PCOD8217997
Probable space group: P M N A
;
_chemical_formula_sum "Si O2"
_cell_formula_units_Z 48
_cell_length_a 8.912444
_cell_length_b 15.224252
_cell_length_c 20.664369
_cell_angle_alpha 90.000000
_cell_angle_beta 90.000000
_cell_angle_gamma 90.000000
_cell_volume 2803.850971
_symmetry_space_group_name_H-M "P M N A"
_symmetry_group_IT_number 53
_symmetry_cell_setting 'orthorhombic'
loop_
_space_group_symop_operation_xyz
x,y,z
1/2-x,-y,1/2+z
x,-y,-z
1/2-x,y,1/2-z
-x,-y,-z
1/2+x,y,1/2-z
-x,y,z
1/2+x,-y,1/2+z
loop_
_atom_site_type_symbol
_atom_site_label
_atom_site_fract_x
_atom_site_fract_y
_atom_site_fract_z
Si Si1 0.331521 0.516576 0.576107
Si Si2 0.322902 0.122208 0.044261
Si Si3 0.822475 0.939710 0.405208
Si Si4 0.322453 0.801913 0.318911
Si Si5 0.329808 0.686624 0.946035
Si Si6 0.670375 0.345500 0.901949
O O1 0.327152 0.500000 0.500000
O O2 0.500000 0.511203 0.603152
O O3 0.267279 0.613494 0.591083
O O4 0.231680 0.443437 0.612128
O O5 0.500000 0.128717 0.036408
O O6 0.262893 0.216233 0.070231
O O7 0.281635 0.043771 0.093785
O O8 0.261984 0.102014 0.972276
O O9 0.735582 0.895165 0.346103
O O10 0.000000 0.924726 0.396374
O O11 0.250000 0.783945 0.250000
O O12 0.500000 0.804493 0.312471
O O13 0.274576 0.723815 0.366113
O O14 0.500000 0.676767 0.921481
O O15 0.322026 0.674664 0.022621
O O16 0.500000 0.338772 0.876300
#
# Coordination Sequence:
#
# PCOD8217997 Si02
#       6
#     8   8   8   8   8   8
#     4   9  17  27  40  64  97 128 156 190 233 277
#     4   8  14  26  49  73  97 128 161 195 239 295
#     4   9  16  31  50  70  95 127 163 200 241 289
#     4  12  24  36  50  69  95 128 166 206 246 290
#     4   9  15  26  45  70  96 128 162 190 230 288
#     4  10  18  31  49  67  92 125 162 200 237 285
#
# _framework density 17.119312000000001
#
# number of rings (size 3 to 8) (size 9 to 14) (size 15 to 20)
#    0.000    2.500    1.667    3.500    0.000    2.667 
#    0.000    2.500    0.000    0.000    0.000    1.167 
#    0.000    2.667    0.000    0.000    0.000    0.000 
#
# Total GULP energy -595000.947645 kJ/mol
# GULP energy per Si atom -12395.853076 kJ/mol
# Density = 1.708035 g / cm^3
# Si number density = 17.119312 Si / 1000 Ang^3
#
#
#
# Elastic Constant Matrix: (Units=GPa)
#
#
# Indices 1 2 3 4 5 6 
#
# 1 96.4225 44.8440 17.5692 0.0000 0.0000 0.0000
# 2 44.8440 150.7553 10.3785 0.0000 0.0000 0.0000
# 3 17.5692 10.3785 19.8753 0.0000 0.0000 0.0000
# 4 0.0000 0.0000 0.0000 8.6705 0.0000 0.0000
# 5 0.0000 0.0000 0.0000 0.0000 17.1389 0.0000
# 6 0.0000 0.0000 0.0000 0.0000 0.0000 24.1961
#
#
#
# Elastic Compliance Matrix: (Units=1/GPa)
#
#
# Indices 1 2 3 4 5 6 
#
# 1 0.013862 -0.003402 -0.010477 0.000000 0.000000 0.000000
# 2 -0.003402 0.007716 -0.001021 0.000000 0.000000 0.000000
# 3 -0.010477 -0.001021 0.060109 0.000000 0.000000 0.000000
# 4 0.000000 0.000000 0.000000 0.115334 0.000000 0.000000
# 5 0.000000 0.000000 0.000000 0.000000 0.058347 0.000000
# 6 0.000000 0.000000 0.000000 0.000000 0.000000 0.041329
#
#
# Mechanical properties :
#
#
# Convention : Reuss Voigt Hill
#
# Bulk Modulus (GPa) = 19.27356 45.84853 32.56105
# Shear Modulus (GPa) = 14.54362 22.95186 18.74774
#
# Velocity S-wave (km/s) = 2.91786 3.66553 3.31285
# Velocity P-wave (km/s) = 4.75759 6.68990 5.80471
#
# Compressibility (1/GPa) = 0.05188455
#
# Stress axis : x y z
#
# Youngs Moduli (GPa) = 72.13737 129.60708 16.63652
#
# Poissons Ratio (x) = 0.44096 0.17431
# Poissons Ratio (y) = 0.24543 0.01699
# Poissons Ratio (z) = 0.75581 0.13239
#
# Static dielectric constant tensor:
#      x y z
#    x 3.143970 0.000000 0.000000 
#    y 0.000000 3.748670 0.000000 
#    z 0.000000 0.000000 2.715250 
# 
# 
# High freq. dielectric constant tensor:
#      x y z
#    x 1.650620 0.000000 0.000000 
#    y 0.000000 1.681510 0.000000 
#    z 0.000000 0.000000 1.594660 
# 
# From -- ./inp_files/26295.got.cif
#   From: 2010.03.12/outbox.cif.g09.slc.cpg/sg53_14_cif.got.tgz:26295.got - 2010.04.16 14:36:59.
