data_PCOD8217382
_publ_section_title
;
Structure prediction by ZEFSAII (Michael W. Deem and Ramdas Pophale) SiO2 
 PCOD8217382
Probable space group: P N N A
;
_chemical_formula_sum "Si O2"
_cell_formula_units_Z 32
_cell_length_a 9.272856
_cell_length_b 12.462164
_cell_length_c 12.412485
_cell_angle_alpha 90.000000
_cell_angle_beta 90.000000
_cell_angle_gamma 90.000000
_cell_volume 1434.384932
_symmetry_space_group_name_H-M "P N N A"
_symmetry_group_IT_number 52
_symmetry_cell_setting 'orthorhombic'
loop_
_space_group_symop_operation_xyz
x,y,z
1/2-x,-y,z
x,1/2-y,1/2-z
1/2-x,1/2+y,1/2-z
-x,-y,-z
1/2+x,y,-z
-x,1/2+y,1/2+z
1/2+x,1/2-y,1/2+z
loop_
_atom_site_type_symbol
_atom_site_label
_atom_site_fract_x
_atom_site_fract_y
_atom_site_fract_z
Si Si1 0.750000 0.500000 0.159152
Si Si2 0.504517 0.369225 0.794842
Si Si3 0.620135 0.180549 0.488838
Si Si4 0.250000 0.500000 0.316724
Si Si5 0.628029 0.789064 0.873628
O O1 0.636557 0.561551 0.236542
O O2 0.666013 0.415273 0.087066
O O3 0.490404 0.250000 0.750000
O O4 0.507688 0.365779 0.924198
O O5 0.648506 0.425869 0.755387
O O6 0.753775 0.232164 0.551534
O O7 0.533036 0.266816 0.416588
O O8 0.346515 0.417310 0.385703
O O9 0.643401 0.750000 0.750000
#
# Coordination Sequence:
#
# PCOD8217382 Si02
#       5
#     4   8   8   4   8
#     4  12  27  40  77 102 140 190 245 298 359 418
#     4  12  25  46  70 106 142 185 241 301 352 431
#     4  12  24  48  70 107 140 187 241 295 354 432
#     4  12  23  46  75  98 148 200 223 294 377 408
#     4  12  26  46  75 106 148 186 243 296 354 430
#
# _framework density 22.309211999999999
#
# number of rings (size 3 to 8) (size 9 to 14) (size 15 to 20)
#    0.000    0.000    7.500    3.000    0.000    4.000 
#    0.000    0.000    0.000    0.000    0.000    0.000 
#    0.000    0.000    0.000    0.000    0.000    0.000 
#
# Total GULP energy -396785.163757 kJ/mol
# GULP energy per Si atom -12399.536367 kJ/mol
# Density = 2.225844 g / cm^3
# Si number density = 22.309212 Si / 1000 Ang^3
#
#
#
# Elastic Constant Matrix: (Units=GPa)
#
#
# Indices 1 2 3 4 5 6 
#
# 1 126.8501 66.9724 60.6771 0.0000 0.0000 0.0000
# 2 66.9724 163.6625 51.2620 0.0000 0.0000 0.0000
# 3 60.6771 51.2620 61.8891 0.0000 0.0000 0.0000
# 4 0.0000 0.0000 0.0000 -5.1784 0.0000 0.0000
# 5 0.0000 0.0000 0.0000 0.0000 37.1520 0.0000
# 6 0.0000 0.0000 0.0000 0.0000 0.0000 61.2705
#
#
#
# Elastic Compliance Matrix: (Units=1/GPa)
#
#
# Indices 1 2 3 4 5 6 
#
# 1 0.015371 -0.002120 -0.013314 0.000000 0.000000 0.000000
# 2 -0.002120 0.008543 -0.004998 0.000000 0.000000 0.000000
# 3 -0.013314 -0.004998 0.033351 0.000000 0.000000 0.000000
# 4 0.000000 0.000000 0.000000 -0.193109 0.000000 0.000000
# 5 0.000000 0.000000 0.000000 0.000000 0.026916 0.000000
# 6 0.000000 0.000000 0.000000 0.000000 0.000000 0.016321
#
#
# Mechanical properties :
#
#
# Convention : Reuss Voigt Hill
#
# Bulk Modulus (GPa) = 60.97021 78.91386 69.94203
# Shear Modulus (GPa) = -108.04996 30.21483 -38.91757
#
# Velocity S-wave (km/s) = -6.96692 3.68416 -4.18121
# Velocity P-wave (km/s) = 6.10970 7.31758 2.84768
#
# Compressibility (1/GPa) = 0.01640145
#
# Stress axis : x y z
#
# Youngs Moduli (GPa) = 65.05641 117.05547 29.98390
#
# Poissons Ratio (x) = 0.24813 0.39922
# Poissons Ratio (y) = 0.13790 0.14985
# Poissons Ratio (z) = 0.86619 0.58502
#
# Static dielectric constant tensor:
#      x y z
#    x 4.325940 0.000000 0.000000 
#    y 0.000000 4.431620 0.000000 
#    z 0.000000 0.000000 3.984520 
# 
# 
# High freq. dielectric constant tensor:
#      x y z
#    x 1.898000 0.000000 0.000000 
#    y 0.000000 1.894140 0.000000 
#    z 0.000000 0.000000 1.857760 
# 
# From -- ./inp_files/24131.got.cif
#   From: 2010.06.25/outbox.cif.g09.slc.cpg/sg52_13_cif.got.tgz:24131.got - 2010.06.26 19:32:48.
