data_PCOD8217118
_publ_section_title
;
Structure prediction by ZEFSAII (Michael W. Deem and Ramdas Pophale) SiO2 
 PCOD8217118
Probable space group: P N N A
;
_chemical_formula_sum "Si O2"
_cell_formula_units_Z 32
_cell_length_a 17.076013
_cell_length_b 17.367148
_cell_length_c 4.904939
_cell_angle_alpha 90.000000
_cell_angle_beta 90.000000
_cell_angle_gamma 90.000000
_cell_volume 1454.616779
_symmetry_space_group_name_H-M "P N N A"
_symmetry_group_IT_number 52
_symmetry_cell_setting 'orthorhombic'
loop_
_space_group_symop_operation_xyz
x,y,z
1/2-x,-y,z
x,1/2-y,1/2-z
1/2-x,1/2+y,1/2-z
-x,-y,-z
1/2+x,y,-z
-x,1/2+y,1/2+z
1/2+x,1/2-y,1/2+z
loop_
_atom_site_type_symbol
_atom_site_label
_atom_site_fract_x
_atom_site_fract_y
_atom_site_fract_z
Si Si1 0.941684 0.899009 0.896332
Si Si2 0.361323 0.832468 0.611976
Si Si3 0.290951 0.421612 0.947120
Si Si4 0.105515 0.932569 0.071604
O O1 0.908766 0.839025 0.672639
O O2 0.033719 0.882475 0.950263
O O3 0.896311 0.894064 0.180944
O O4 0.927622 0.986943 0.807781
O O5 0.372191 0.750000 0.750000
O O6 0.270412 0.851523 0.566897
O O7 0.250000 0.500000 0.056502
O O8 0.327922 0.440013 0.655514
O O9 0.355800 0.392785 0.164128
#
# Coordination Sequence:
#
# PCOD8217118 Si02
#       4
#     8   8   8   8
#     4  11  22  41  63  95 127 167 218 273 321 393
#     4  12  25  41  63  92 133 177 212 260 334 402
#     4  12  21  39  64  97 130 166 213 277 324 385
#     4  11  22  38  67  97 124 161 223 278 326 367
#
# _framework density 21.998922
#
# number of rings (size 3 to 8) (size 9 to 14) (size 15 to 20)
#    0.000    0.500    5.000    4.500    0.000    4.000 
#    0.000    5.000    0.000    0.000    0.000    0.000 
#    0.000    0.000    0.000    0.000    0.000    0.000 
#
# Total GULP energy -396901.412365 kJ/mol
# GULP energy per Si atom -12403.169136 kJ/mol
# Density = 2.194885 g / cm^3
# Si number density = 21.998922 Si / 1000 Ang^3
#
#
#
# Elastic Constant Matrix: (Units=GPa)
#
#
# Indices 1 2 3 4 5 6 
#
# 1 126.8756 32.3054 47.2548 0.0000 0.0000 0.0000
# 2 32.3054 50.9439 10.8965 0.0000 0.0000 0.0000
# 3 47.2548 10.8965 123.0240 0.0000 0.0000 0.0000
# 4 0.0000 0.0000 0.0000 19.9257 0.0000 0.0000
# 5 0.0000 0.0000 0.0000 0.0000 39.9514 0.0000
# 6 0.0000 0.0000 0.0000 0.0000 0.0000 17.9104
#
#
#
# Elastic Compliance Matrix: (Units=1/GPa)
#
#
# Indices 1 2 3 4 5 6 
#
# 1 0.010764 -0.006056 -0.003598 0.000000 0.000000 0.000000
# 2 -0.006056 0.023416 0.000252 0.000000 0.000000 0.000000
# 3 -0.003598 0.000252 0.009488 0.000000 0.000000 0.000000
# 4 0.000000 0.000000 0.000000 0.050186 0.000000 0.000000
# 5 0.000000 0.000000 0.000000 0.000000 0.025030 0.000000
# 6 0.000000 0.000000 0.000000 0.000000 0.000000 0.055833
#
#
# Mechanical properties :
#
#
# Convention : Reuss Voigt Hill
#
# Bulk Modulus (GPa) = 40.21885 53.52854 46.87369
# Shear Modulus (GPa) = 24.77573 29.58330 27.17952
#
# Velocity S-wave (km/s) = 3.35957 3.67108 3.51877
# Velocity P-wave (km/s) = 5.77675 6.50801 6.15325
#
# Compressibility (1/GPa) = 0.02486397
#
# Stress axis : x y z
#
# Youngs Moduli (GPa) = 92.90316 42.70594 105.39371
#
# Poissons Ratio (x) = 0.25863 0.37922
# Poissons Ratio (y) = 0.56264 -0.02659
# Poissons Ratio (z) = 0.33428 -0.01077
#
# Static dielectric constant tensor:
#      x y z
#    x 4.190990 0.000000 0.000000 
#    y 0.000000 3.446590 0.000000 
#    z 0.000000 0.000000 4.035640 
# 
# 
# High freq. dielectric constant tensor:
#      x y z
#    x 1.880470 0.000000 0.000000 
#    y 0.000000 1.819140 0.000000 
#    z 0.000000 0.000000 1.883390 
# 
# From -- ./inp_files/1936.got.cif
#   From: 2010.06.25/outbox.cif.g09.slc.cpg/sg52_1_cif.got.tgz:1936.got - 2010.06.26 19:32:48.
