data_PCOD8217799
_publ_section_title
;
Structure prediction by ZEFSAII (Michael W. Deem and Ramdas Pophale) SiO2 
 PCOD8217799
Probable space group: P M N A
;
_chemical_formula_sum "Si O2"
_cell_formula_units_Z 64
_cell_length_a 9.047820
_cell_length_b 14.971661
_cell_length_c 29.558631
_cell_angle_alpha 90.000000
_cell_angle_beta 90.000000
_cell_angle_gamma 90.000000
_cell_volume 4004.038576
_symmetry_space_group_name_H-M "P M N A"
_symmetry_group_IT_number 53
_symmetry_cell_setting 'orthorhombic'
loop_
_space_group_symop_operation_xyz
x,y,z
1/2-x,-y,1/2+z
x,-y,-z
1/2-x,y,1/2-z
-x,-y,-z
1/2+x,y,1/2-z
-x,y,z
1/2+x,-y,1/2+z
loop_
_atom_site_type_symbol
_atom_site_label
_atom_site_fract_x
_atom_site_fract_y
_atom_site_fract_z
Si Si1 0.825825 0.325060 0.040302
Si Si2 0.824303 0.534621 0.887062
Si Si3 0.326979 0.356090 0.560739
Si Si4 0.327927 0.290313 0.794271
Si Si5 0.325722 0.054599 0.566268
Si Si6 0.674833 0.202800 0.886054
Si Si7 0.674692 0.503351 0.203994
Si Si8 0.325250 0.128457 0.470310
O O1 0.763682 0.386060 0.080796
O O2 0.757666 0.224594 0.043847
O O3 0.000000 0.319937 0.046055
O O4 0.787502 0.370357 0.992082
O O5 0.776859 0.442185 0.910891
O O6 0.743726 0.547238 0.839054
O O7 0.000000 0.538341 0.879986
O O8 0.500000 0.336865 0.566892
O O9 0.239604 0.269511 0.576818
O O10 0.250000 0.251024 0.750000
O O11 0.500000 0.280114 0.786571
O O12 0.271612 0.233760 0.836739
O O13 0.283968 0.393014 0.802188
O O14 0.500000 0.066968 0.573295
O O15 0.238295 0.103234 0.606626
O O16 0.269629 0.100047 0.519841
O O17 0.282320 0.949267 0.565568
O O18 0.500000 0.203187 0.890056
O O19 0.750000 0.466623 0.250000
O O20 0.500000 0.486408 0.206285
O O21 0.500000 0.136019 0.473288
#
# Coordination Sequence:
#
# PCOD8217799 Si02
#       8
#     8   8   8   8   8   8   8   8
#     4   9  16  28  46  68  94 124 160 199 228 259
#     4  10  19  29  46  71  94 122 159 194 232 273
#     4  10  18  29  45  65  92 128 164 191 216 263
#     4   9  19  32  46  64  88 118 150 185 227 274
#     4   9  16  28  47  68  87 118 158 190 224 268
#     4  11  20  30  44  67  96 123 150 188 235 278
#     4  10  19  33  49  66  91 120 153 192 233 277
#     4   8  14  26  46  68  90 116 155 198 225 255
#
# _framework density 15.983862
#
# number of rings (size 3 to 8) (size 9 to 14) (size 15 to 20)
#    0.000    2.500    2.500    1.875    0.000    3.000 
#    0.000    1.875    0.000    1.500    0.000    0.875 
#    0.000    2.000    0.000    0.000    0.000    0.000 
#
# Total GULP energy -793389.302414 kJ/mol
# GULP energy per Si atom -12396.707850 kJ/mol
# Density = 1.594748 g / cm^3
# Si number density = 15.983862 Si / 1000 Ang^3
#
#
#
# Elastic Constant Matrix: (Units=GPa)
#
#
# Indices 1 2 3 4 5 6 
#
# 1 35.4680 19.1473 34.0660 0.0000 0.0000 0.0000
# 2 19.1473 76.4933 42.7834 0.0000 0.0000 0.0000
# 3 34.0660 42.7834 118.1543 0.0000 0.0000 0.0000
# 4 0.0000 0.0000 0.0000 22.9831 0.0000 0.0000
# 5 0.0000 0.0000 0.0000 0.0000 24.4001 0.0000
# 6 0.0000 0.0000 0.0000 0.0000 0.0000 13.1682
#
#
#
# Elastic Compliance Matrix: (Units=1/GPa)
#
#
# Indices 1 2 3 4 5 6 
#
# 1 0.040184 -0.004487 -0.009961 0.000000 0.000000 0.000000
# 2 -0.004487 0.016894 -0.004824 0.000000 0.000000 0.000000
# 3 -0.009961 -0.004824 0.013082 0.000000 0.000000 0.000000
# 4 0.000000 0.000000 0.000000 0.043510 0.000000 0.000000
# 5 0.000000 0.000000 0.000000 0.000000 0.040983 0.000000
# 6 0.000000 0.000000 0.000000 0.000000 0.000000 0.075941
#
#
# Mechanical properties :
#
#
# Convention : Reuss Voigt Hill
#
# Bulk Modulus (GPa) = 31.62898 46.90100 39.26499
# Shear Modulus (GPa) = 17.87776 21.05154 19.46465
#
# Velocity S-wave (km/s) = 3.34801 3.63306 3.49344
# Velocity P-wave (km/s) = 5.89717 6.85603 6.39460
#
# Compressibility (1/GPa) = 0.03161657
#
# Stress axis : x y z
#
# Youngs Moduli (GPa) = 24.88550 59.19215 76.44087
#
# Poissons Ratio (x) = 0.26562 0.76142
# Poissons Ratio (y) = 0.11167 0.36872
# Poissons Ratio (z) = 0.24788 0.28552
#
# Static dielectric constant tensor:
#      x y z
#    x 2.773720 0.000000 0.000000 
#    y 0.000000 3.236220 0.000000 
#    z 0.000000 0.000000 3.070030 
# 
# 
# High freq. dielectric constant tensor:
#      x y z
#    x 1.591170 0.000000 0.000000 
#    y 0.000000 1.598470 0.000000 
#    z 0.000000 0.000000 1.604180 
# 
# From -- ./inp_files/38409.got.cif
#   From: 2010.03.12/outbox.cif.g09.slc.cpg/sg53_20_cif.got.tgz:38409.got - 2010.04.16 14:36:59.
