data_PCOD8217404
_publ_section_title
;
Structure prediction by ZEFSAII (Michael W. Deem and Ramdas Pophale) SiO2 
 PCOD8217404
Probable space group: P N N A
;
_chemical_formula_sum "Si O2"
_cell_formula_units_Z 40
_cell_length_a 18.572409
_cell_length_b 7.980350
_cell_length_c 11.584216
_cell_angle_alpha 90.000000
_cell_angle_beta 90.000000
_cell_angle_gamma 90.000000
_cell_volume 1716.946745
_symmetry_space_group_name_H-M "P N N A"
_symmetry_group_IT_number 52
_symmetry_cell_setting 'orthorhombic'
loop_
_space_group_symop_operation_xyz
x,y,z
1/2-x,-y,z
x,1/2-y,1/2-z
1/2-x,1/2+y,1/2-z
-x,-y,-z
1/2+x,y,-z
-x,1/2+y,1/2+z
1/2+x,1/2-y,1/2+z
loop_
_atom_site_type_symbol
_atom_site_label
_atom_site_fract_x
_atom_site_fract_y
_atom_site_fract_z
Si Si1 0.117661 0.572104 0.254117
Si Si2 0.108864 0.689785 0.875453
Si Si3 0.965761 0.853886 0.923546
Si Si4 0.153690 0.106595 0.481720
Si Si5 0.713340 0.660668 0.541202
O O1 0.074867 0.750000 0.250000
O O2 0.066035 0.431484 0.305992
O O3 0.140613 0.516000 0.126683
O O4 0.190163 0.611635 0.328354
O O5 0.134942 0.750000 0.750000
O O6 0.022880 0.710158 0.888691
O O7 0.137178 0.501106 0.902279
O O8 0.141192 0.815265 0.969296
O O9 0.899863 0.764371 0.988160
O O10 0.000000 0.000000 0.000000
O O11 0.235344 0.175622 0.471586
O O12 0.750000 0.500000 0.484235
#
# Coordination Sequence:
#
# PCOD8217404 Si02
#       5
#     8   8   8   8   8
#     4  12  25  42  74 112 149 186 245 313 386 447
#     4  12  27  47  69 100 148 196 250 296 366 447
#     4  12  24  47  71 109 149 192 245 303 374 450
#     4  12  26  45  74 108 145 199 246 312 375 442
#     4  12  26  44  71 107 146 188 242 309 376 445
#
# _framework density 23.297169
#
# number of rings (size 3 to 8) (size 9 to 14) (size 15 to 20)
#    0.000    0.000    6.000    3.000    2.800    3.200 
#    0.000    2.000    0.000    0.000    0.000    0.000 
#    0.000    0.000    0.000    0.000    0.000    0.000 
#
# Total GULP energy -495957.557284 kJ/mol
# GULP energy per Si atom -12398.938932 kJ/mol
# Density = 2.324414 g / cm^3
# Si number density = 23.297169 Si / 1000 Ang^3
#
#
#
# Elastic Constant Matrix: (Units=GPa)
#
#
# Indices 1 2 3 4 5 6 
#
# 1 113.4770 31.9792 38.7323 0.0000 0.0000 0.0000
# 2 31.9792 109.1381 36.6817 0.0000 0.0000 0.0000
# 3 38.7323 36.6817 114.9021 0.0000 0.0000 0.0000
# 4 0.0000 0.0000 0.0000 45.9946 0.0000 0.0000
# 5 0.0000 0.0000 0.0000 0.0000 17.8524 0.0000
# 6 0.0000 0.0000 0.0000 0.0000 0.0000 56.3498
#
#
#
# Elastic Compliance Matrix: (Units=1/GPa)
#
#
# Indices 1 2 3 4 5 6 
#
# 1 0.010366 -0.002087 -0.002828 0.000000 0.000000 0.000000
# 2 -0.002087 0.010684 -0.002707 0.000000 0.000000 0.000000
# 3 -0.002828 -0.002707 0.010521 0.000000 0.000000 0.000000
# 4 0.000000 0.000000 0.000000 0.021742 0.000000 0.000000
# 5 0.000000 0.000000 0.000000 0.000000 0.056015 0.000000
# 6 0.000000 0.000000 0.000000 0.000000 0.000000 0.017746
#
#
# Mechanical properties :
#
#
# Convention : Reuss Voigt Hill
#
# Bulk Modulus (GPa) = 61.25148 61.36705 61.30927
# Shear Modulus (GPa) = 33.83872 39.38097 36.60984
#
# Velocity S-wave (km/s) = 3.81528 4.11588 3.96843
# Velocity P-wave (km/s) = 6.76439 6.99896 6.88267
#
# Compressibility (1/GPa) = 0.01632614
#
# Stress axis : x y z
#
# Youngs Moduli (GPa) = 96.47209 93.59676 95.05117
#
# Poissons Ratio (x) = 0.19532 0.26880
# Poissons Ratio (y) = 0.20132 0.25734
# Poissons Ratio (z) = 0.27282 0.25340
#
# Static dielectric constant tensor:
#      x y z
#    x 4.335460 0.000000 0.000000 
#    y 0.000000 4.616770 0.000000 
#    z 0.000000 0.000000 4.058370 
# 
# 
# High freq. dielectric constant tensor:
#      x y z
#    x 1.927260 0.000000 0.000000 
#    y 0.000000 1.947010 0.000000 
#    z 0.000000 0.000000 1.900550 
# 
# From -- ./inp_files/20289.got.cif
#   From: 2010.06.25/outbox.cif.g09.slc.cpg/sg52_11_cif.got.tgz:20289.got - 2010.06.26 19:32:48.
