data_PCOD8217189
_publ_section_title
;
Structure prediction by ZEFSAII (Michael W. Deem and Ramdas Pophale) SiO2 
 PCOD8217189
Probable space group: P N N A
;
_chemical_formula_sum "Si O2"
_cell_formula_units_Z 56
_cell_length_a 14.011245
_cell_length_b 15.450440
_cell_length_c 11.413989
_cell_angle_alpha 90.000000
_cell_angle_beta 90.000000
_cell_angle_gamma 90.000000
_cell_volume 2470.899200
_symmetry_space_group_name_H-M "P N N A"
_symmetry_group_IT_number 52
_symmetry_cell_setting 'orthorhombic'
loop_
_space_group_symop_operation_xyz
x,y,z
1/2-x,-y,z
x,1/2-y,1/2-z
1/2-x,1/2+y,1/2-z
-x,-y,-z
1/2+x,y,-z
-x,1/2+y,1/2+z
1/2+x,1/2-y,1/2+z
loop_
_atom_site_type_symbol
_atom_site_label
_atom_site_fract_x
_atom_site_fract_y
_atom_site_fract_z
Si Si1 0.063343 0.160948 0.290749
Si Si2 0.274971 0.348798 0.255627
Si Si3 0.509508 0.201423 0.469327
Si Si4 0.143463 0.427413 0.875229
Si Si5 0.064011 0.974263 0.825823
Si Si6 0.170819 0.595664 0.002133
Si Si7 0.928033 0.112603 0.940088
O O1 0.012950 0.250000 0.250000
O O2 0.161997 0.145836 0.220247
O O3 0.085689 0.180213 0.427541
O O4 0.993703 0.080923 0.270540
O O5 0.310694 0.250000 0.250000
O O6 0.297017 0.401564 0.137529
O O7 0.330872 0.387347 0.365973
O O8 0.556500 0.142971 0.365960
O O9 0.407985 0.168472 0.516032
O O10 0.493576 0.300702 0.434983
O O11 0.145583 0.475102 0.747990
O O12 0.128633 0.499698 0.977895
O O13 0.245328 0.383663 0.906870
O O14 0.104268 0.910472 0.926830
O O15 0.994009 0.039892 0.887676
#
# Coordination Sequence:
#
# PCOD8217189 Si02
#       7
#     8   8   8   8   8   8   8
#     4  11  23  42  74 101 142 188 238 301 360 431
#     4  11  23  41  70 109 140 181 247 298 355 438
#     4  12  22  43  73 101 142 190 240 303 362 431
#     4  11  25  41  72 105 142 182 244 303 357 434
#     4  11  25  46  68 104 146 193 232 295 377 433
#     4  11  23  40  69 109 137 178 247 305 358 424
#     4  11  26  44  72 103 147 192 236 294 375 443
#
# _framework density 22.663813999999999
#
# number of rings (size 3 to 8) (size 9 to 14) (size 15 to 20)
#    0.000    0.857    5.714    1.286    2.000    0.571 
#    0.000    5.714    9.429    0.000    0.000    0.000 
#    0.000    0.000    0.000    0.000    0.000    0.000 
#
# Total GULP energy -694027.275501 kJ/mol
# GULP energy per Si atom -12393.344205 kJ/mol
# Density = 2.261223 g / cm^3
# Si number density = 22.663814 Si / 1000 Ang^3
#
#
#
# Elastic Constant Matrix: (Units=GPa)
#
#
# Indices 1 2 3 4 5 6 
#
# 1 94.4840 21.6143 33.4811 0.0000 0.0000 0.0000
# 2 21.6143 88.0979 23.8527 0.0000 0.0000 0.0000
# 3 33.4811 23.8527 113.9670 0.0000 0.0000 0.0000
# 4 0.0000 0.0000 0.0000 27.7209 0.0000 0.0000
# 5 0.0000 0.0000 0.0000 0.0000 33.9725 0.0000
# 6 0.0000 0.0000 0.0000 0.0000 0.0000 27.0956
#
#
#
# Elastic Compliance Matrix: (Units=1/GPa)
#
#
# Indices 1 2 3 4 5 6 
#
# 1 0.012183 -0.002141 -0.003131 0.000000 0.000000 0.000000
# 2 -0.002141 0.012409 -0.001968 0.000000 0.000000 0.000000
# 3 -0.003131 -0.001968 0.010106 0.000000 0.000000 0.000000
# 4 0.000000 0.000000 0.000000 0.036074 0.000000 0.000000
# 5 0.000000 0.000000 0.000000 0.000000 0.029436 0.000000
# 6 0.000000 0.000000 0.000000 0.000000 0.000000 0.036906
#
#
# Mechanical properties :
#
#
# Convention : Reuss Voigt Hill
#
# Bulk Modulus (GPa) = 49.46155 50.49391 49.97773
# Shear Modulus (GPa) = 31.57873 32.26453 31.92163
#
# Velocity S-wave (km/s) = 3.73682 3.77717 3.75705
# Velocity P-wave (km/s) = 6.36316 6.43045 6.39689
#
# Compressibility (1/GPa) = 0.02021772
#
# Stress axis : x y z
#
# Youngs Moduli (GPa) = 82.08067 80.58507 98.94917
#
# Poissons Ratio (x) = 0.17256 0.30981
# Poissons Ratio (y) = 0.17576 0.19474
# Poissons Ratio (z) = 0.25699 0.15860
#
# Static dielectric constant tensor:
#      x y z
#    x 3.918760 0.000000 0.000000 
#    y 0.000000 4.231880 0.000000 
#    z 0.000000 0.000000 4.373490 
# 
# 
# High freq. dielectric constant tensor:
#      x y z
#    x 1.878770 0.000000 0.000000 
#    y 0.000000 1.900680 0.000000 
#    z 0.000000 0.000000 1.892590 
# 
# From -- ./inp_files/19616.got.cif
#   From: 2010.06.25/outbox.cif.g09.slc.cpg/sg52_10_cif.got.tgz:19616.got - 2010.06.26 19:32:48.
