data_PCOD8217393
_publ_section_title
;
Structure prediction by ZEFSAII (Michael W. Deem and Ramdas Pophale) SiO2 
 PCOD8217393
Probable space group: P N N A
;
_chemical_formula_sum "Si O2"
_cell_formula_units_Z 48
_cell_length_a 22.649039
_cell_length_b 6.486160
_cell_length_c 14.864894
_cell_angle_alpha 90.000000
_cell_angle_beta 90.000000
_cell_angle_gamma 90.000000
_cell_volume 2183.731576
_symmetry_space_group_name_H-M "P N N A"
_symmetry_group_IT_number 52
_symmetry_cell_setting 'orthorhombic'
loop_
_space_group_symop_operation_xyz
x,y,z
1/2-x,-y,z
x,1/2-y,1/2-z
1/2-x,1/2+y,1/2-z
-x,-y,-z
1/2+x,y,-z
-x,1/2+y,1/2+z
1/2+x,1/2-y,1/2+z
loop_
_atom_site_type_symbol
_atom_site_label
_atom_site_fract_x
_atom_site_fract_y
_atom_site_fract_z
Si Si1 0.976286 0.898339 0.165082
Si Si2 0.194522 0.857019 0.005787
Si Si3 0.097589 0.406520 0.394686
Si Si4 0.435996 0.576697 0.971409
Si Si5 0.674077 0.250000 0.750000
Si Si6 0.123027 0.723370 0.652623
Si Si7 0.250000 0.500000 0.109800
O O1 0.990179 0.750000 0.250000
O O2 0.942765 0.774401 0.089617
O O3 0.931670 0.082295 0.185051
O O4 0.034041 0.998767 0.122906
O O5 0.207278 0.630499 0.044953
O O6 0.250000 0.000000 0.029354
O O7 0.132644 0.933234 0.044991
O O8 0.180000 0.864752 0.899879
O O9 0.096032 0.174898 0.439594
O O10 0.131191 0.409228 0.299507
O O11 0.399500 0.409901 0.912946
O O12 0.500000 0.500000 0.000000
O O13 0.713404 0.351766 0.826242
O O14 0.152752 0.750000 0.750000
#
# Coordination Sequence:
#
# PCOD8217393 Si02
#       7
#     8   8   8   8   4   8   4
#     4  12  26  44  71 109 150 182 239 294 360 449
#     4  12  27  52  72 101 143 187 249 300 362 426
#     4  12  26  44  70 110 144 193 229 296 368 440
#     4  12  24  44  71 103 147 193 234 288 363 441
#     4  12  26  42  74 102 140 182 242 288 360 426
#     4  12  26  48  74 105 142 190 244 305 362 426
#     4  12  26  52  72 102 140 194 242 304 356 430
#
# _framework density 21.980723000000001
#
# number of rings (size 3 to 8) (size 9 to 14) (size 15 to 20)
#    0.000    0.000    6.667    3.500    5.833    0.000 
#    1.500    0.000    0.000    0.000    0.000    0.000 
#    0.000    0.000    0.000    0.000    0.000    0.000 
#
# Total GULP energy -594711.964411 kJ/mol
# GULP energy per Si atom -12389.832592 kJ/mol
# Density = 2.193069 g / cm^3
# Si number density = 21.980723 Si / 1000 Ang^3
#
#
#
# Elastic Constant Matrix: (Units=GPa)
#
#
# Indices 1 2 3 4 5 6 
#
# 1 73.5479 28.2039 34.9319 0.0000 0.0000 0.0000
# 2 28.2039 96.1579 36.4460 0.0000 0.0000 0.0000
# 3 34.9319 36.4460 136.9358 0.0000 0.0000 0.0000
# 4 0.0000 0.0000 0.0000 -2.6981 0.0000 0.0000
# 5 0.0000 0.0000 0.0000 0.0000 40.0057 0.0000
# 6 0.0000 0.0000 0.0000 0.0000 0.0000 20.7019
#
#
#
# Elastic Compliance Matrix: (Units=1/GPa)
#
#
# Indices 1 2 3 4 5 6 
#
# 1 0.016528 -0.003614 -0.003254 0.000000 0.000000 0.000000
# 2 -0.003614 0.012357 -0.002367 0.000000 0.000000 0.000000
# 3 -0.003254 -0.002367 0.008763 0.000000 0.000000 0.000000
# 4 0.000000 0.000000 0.000000 -0.370629 0.000000 0.000000
# 5 0.000000 0.000000 0.000000 0.000000 0.024996 0.000000
# 6 0.000000 0.000000 0.000000 0.000000 0.000000 0.048305
#
#
# Mechanical properties :
#
#
# Convention : Reuss Voigt Hill
#
# Bulk Modulus (GPa) = 52.14636 56.20059 54.17348
# Shear Modulus (GPa) = -21.29320 25.40589 2.05634
#
# Velocity S-wave (km/s) = -3.11581 3.40343 0.96827
# Velocity P-wave (km/s) = 3.29103 6.40844 5.09406
#
# Compressibility (1/GPa) = 0.01917679
#
# Stress axis : x y z
#
# Youngs Moduli (GPa) = 60.50239 80.92730 114.11895
#
# Poissons Ratio (x) = 0.29251 0.37138
# Poissons Ratio (y) = 0.21868 0.27009
# Poissons Ratio (z) = 0.19689 0.19154
#
# Static dielectric constant tensor:
#      x y z
#    x 3.728320 0.000000 0.000000 
#    y 0.000000 4.190030 0.000000 
#    z 0.000000 0.000000 3.431350 
# 
# 
# High freq. dielectric constant tensor:
#      x y z
#    x 1.868050 0.000000 0.000000 
#    y 0.000000 1.867370 0.000000 
#    z 0.000000 0.000000 1.886040 
# 
# From -- ./inp_files/29456.got.cif
#   From: 2010.06.25/outbox.cif.g09.slc.cpg/sg52_15_cif.got.tgz:29456.got - 2010.06.26 19:32:48.
