data_PCOD8217987
_publ_section_title
;
Structure prediction by ZEFSAII (Michael W. Deem and Ramdas Pophale) SiO2 
 PCOD8217987
Probable space group: P M N A
;
_chemical_formula_sum "Si O2"
_cell_formula_units_Z 64
_cell_length_a 8.760363
_cell_length_b 15.114300
_cell_length_c 29.729643
_cell_angle_alpha 90.000000
_cell_angle_beta 90.000000
_cell_angle_gamma 90.000000
_cell_volume 3936.405542
_symmetry_space_group_name_H-M "P M N A"
_symmetry_group_IT_number 53
_symmetry_cell_setting 'orthorhombic'
loop_
_space_group_symop_operation_xyz
x,y,z
1/2-x,-y,1/2+z
x,-y,-z
1/2-x,y,1/2-z
-x,-y,-z
1/2+x,y,1/2-z
-x,y,z
1/2+x,-y,1/2+z
loop_
_atom_site_type_symbol
_atom_site_label
_atom_site_fract_x
_atom_site_fract_y
_atom_site_fract_z
Si Si1 0.318580 0.447921 0.562175
Si Si2 0.819883 0.998315 0.203347
Si Si3 0.819070 0.370634 0.031074
Si Si4 0.820530 0.794475 0.204966
Si Si5 0.679931 0.962010 0.890134
Si Si6 0.680191 0.173688 0.456441
Si Si7 0.821639 0.124526 0.942959
Si Si8 0.180978 0.711509 0.115756
O O1 0.500000 0.444061 0.559727
O O2 0.254367 0.402526 0.516900
O O3 0.269074 0.551398 0.566441
O O4 0.258468 0.387088 0.603335
O O5 0.750000 0.036774 0.250000
O O6 0.752447 0.046244 0.159528
O O7 0.000000 0.012507 0.204514
O O8 0.772359 0.895998 0.198721
O O9 0.754962 0.274430 0.044227
O O10 0.000000 0.361503 0.028283
O O11 0.750000 0.753756 0.250000
O O12 0.748930 0.739699 0.163551
O O13 0.000000 0.784790 0.207560
O O14 0.500000 0.964098 0.884681
O O15 0.730487 0.875501 0.917224
O O16 0.731366 0.047945 0.917706
O O17 0.500000 0.170066 0.446863
O O18 0.716265 0.126573 0.504100
O O19 0.770875 0.218716 0.922593
O O20 0.000000 0.106363 0.934495
O O21 0.000000 0.711816 0.119616
#
# Coordination Sequence:
#
# PCOD8217987 Si02
#       8
#     8   8   8   8   8   8   8   8
#     4   8  12  20  39  67  95 115 141 185 234 279
#     4  10  19  34  53  72  94 120 154 194 237 284
#     4   8  13  22  39  67  95 115 142 190 239 277
#     4   9  17  28  44  64  89 118 149 183 222 269
#     4  12  24  34  45  65  94 129 165 200 237 276
#     4  10  19  31  48  67  92 127 164 200 240 284
#     4  10  18  31  47  65  91 127 164 195 232 283
#     4   9  14  24  42  65  92 122 150 181 227 283
#
# _framework density 16.258488
#
# number of rings (size 3 to 8) (size 9 to 14) (size 15 to 20)
#    0.000    2.500    2.500    2.625    0.000    2.500 
#    0.000    0.000    0.000    0.000    0.000    4.375 
#    0.000    2.000    0.000    0.000    0.000    0.000 
#
# Total GULP energy -793116.932547 kJ/mol
# GULP energy per Si atom -12392.452071 kJ/mol
# Density = 1.622148 g / cm^3
# Si number density = 16.258488 Si / 1000 Ang^3
#
#
#
# Elastic Constant Matrix: (Units=GPa)
#
#
# Indices 1 2 3 4 5 6 
#
# 1 41.4738 25.0889 34.1502 0.0000 0.0000 0.0000
# 2 25.0889 90.2174 52.6394 0.0000 0.0000 0.0000
# 3 34.1502 52.6394 127.7761 0.0000 0.0000 0.0000
# 4 0.0000 0.0000 0.0000 21.7674 0.0000 0.0000
# 5 0.0000 0.0000 0.0000 0.0000 21.9868 0.0000
# 6 0.0000 0.0000 0.0000 0.0000 0.0000 5.1769
#
#
#
# Elastic Compliance Matrix: (Units=1/GPa)
#
#
# Indices 1 2 3 4 5 6 
#
# 1 0.032707 -0.005259 -0.006575 0.000000 0.000000 0.000000
# 2 -0.005259 0.015438 -0.004954 0.000000 0.000000 0.000000
# 3 -0.006575 -0.004954 0.011624 0.000000 0.000000 0.000000
# 4 0.000000 0.000000 0.000000 0.045940 0.000000 0.000000
# 5 0.000000 0.000000 0.000000 0.000000 0.045482 0.000000
# 6 0.000000 0.000000 0.000000 0.000000 0.000000 0.193165
#
#
# Mechanical properties :
#
#
# Convention : Reuss Voigt Hill
#
# Bulk Modulus (GPa) = 38.17915 53.69160 45.93538
# Shear Modulus (GPa) = 12.93114 19.62545 16.27829
#
# Velocity S-wave (km/s) = 2.82325 3.47809 3.16764
# Velocity P-wave (km/s) = 5.84476 7.01605 6.45702
#
# Compressibility (1/GPa) = 0.02619231
#
# Stress axis : x y z
#
# Youngs Moduli (GPa) = 30.57453 64.77724 86.02652
#
# Poissons Ratio (x) = 0.34069 0.56561
# Poissons Ratio (y) = 0.16080 0.42618
# Poissons Ratio (z) = 0.20102 0.32091
#
# Static dielectric constant tensor:
#      x y z
#    x 2.709760 0.000000 0.000000 
#    y 0.000000 3.264460 0.000000 
#    z 0.000000 0.000000 3.233280 
# 
# 
# High freq. dielectric constant tensor:
#      x y z
#    x 1.590000 0.000000 0.000000 
#    y 0.000000 1.612280 0.000000 
#    z 0.000000 0.000000 1.617400 
# 
# From -- ./inp_files/38436.got.cif
#   From: 2010.03.12/outbox.cif.g09.slc.cpg/sg53_20_cif.got.tgz:38436.got - 2010.04.16 14:36:59.
