data_PCOD8217954
_publ_section_title
;
Structure prediction by ZEFSAII (Michael W. Deem and Ramdas Pophale) SiO2 
 PCOD8217954
Probable space group: P M N A
;
_chemical_formula_sum "Si O2"
_cell_formula_units_Z 64
_cell_length_a 8.879590
_cell_length_b 12.271181
_cell_length_c 28.577719
_cell_angle_alpha 90.000000
_cell_angle_beta 90.000000
_cell_angle_gamma 90.000000
_cell_volume 3113.915598
_symmetry_space_group_name_H-M "P M N A"
_symmetry_group_IT_number 53
_symmetry_cell_setting 'orthorhombic'
loop_
_space_group_symop_operation_xyz
x,y,z
1/2-x,-y,1/2+z
x,-y,-z
1/2-x,y,1/2-z
-x,-y,-z
1/2+x,y,1/2-z
-x,y,z
1/2+x,-y,1/2+z
loop_
_atom_site_type_symbol
_atom_site_label
_atom_site_fract_x
_atom_site_fract_y
_atom_site_fract_z
Si Si1 0.331155 0.484265 0.432180
Si Si2 0.173255 0.700832 0.445429
Si Si3 0.167632 0.449953 0.826420
Si Si4 0.327763 0.738127 0.953846
Si Si5 0.323775 0.318089 0.296339
Si Si6 0.176211 0.153767 0.361335
Si Si7 0.176497 0.237584 0.656080
Si Si8 0.178704 0.970315 0.199984
O O1 0.500000 0.490875 0.450758
O O2 0.244462 0.583428 0.457067
O O3 0.320348 0.498402 0.377195
O O4 0.270695 0.366690 0.444485
O O5 0.198508 0.775930 0.491819
O O6 0.236347 0.758232 0.398091
O O7 0.000000 0.678602 0.434909
O O8 0.201996 0.551864 0.792887
O O9 0.288601 0.353709 0.819251
O O10 0.000000 0.402680 0.817423
O O11 0.500000 0.702226 0.946728
O O12 0.291233 0.836214 0.917412
O O13 0.250000 0.265768 0.250000
O O14 0.500000 0.287555 0.299766
O O15 0.234259 0.267090 0.339748
O O16 0.000000 0.135966 0.351140
O O17 0.268530 0.054011 0.339888
O O18 0.269715 0.148673 0.684182
O O19 0.000000 0.210880 0.659857
O O20 0.250000 0.001045 0.250000
O O21 0.000000 0.974519 0.204764
#
# Coordination Sequence:
#
# PCOD8217954 Si02
#       8
#     8   8   8   8   8   8   8   8
#     4  10  18  30  50  80 118 160 202 244 287 337
#     4   9  19  35  55  84 121 162 202 241 288 345
#     4   9  19  35  54  80 119 159 194 237 293 353
#     4  10  20  34  55  83 119 161 203 243 287 345
#     4  11  22  37  56  82 117 155 193 240 298 362
#     4  11  23  40  62  88 118 154 200 248 296 350
#     4  10  21  39  64  90 120 155 198 247 296 350
#     4  12  26  46  70  91 115 148 194 248 303 361
#
# _framework density 20.552902
#
# number of rings (size 3 to 8) (size 9 to 14) (size 15 to 20)
#    0.000    1.750    1.250    3.375    0.000    5.000 
#    0.000    1.875    0.000    3.750    0.000    0.000 
#    0.000    0.000    0.000    0.000    0.000    0.000 
#
# Total GULP energy -793374.326198 kJ/mol
# GULP energy per Si atom -12396.473847 kJ/mol
# Density = 2.050612 g / cm^3
# Si number density = 20.552902 Si / 1000 Ang^3
#
#
#
# Elastic Constant Matrix: (Units=GPa)
#
#
# Indices 1 2 3 4 5 6 
#
# 1 92.9387 24.0751 23.4781 0.0000 0.0000 0.0000
# 2 24.0751 60.9527 15.4507 0.0000 0.0000 0.0000
# 3 23.4781 15.4507 49.6900 0.0000 0.0000 0.0000
# 4 0.0000 0.0000 0.0000 20.7781 0.0000 0.0000
# 5 0.0000 0.0000 0.0000 0.0000 22.0229 0.0000
# 6 0.0000 0.0000 0.0000 0.0000 0.0000 35.1246
#
#
#
# Elastic Compliance Matrix: (Units=1/GPa)
#
#
# Indices 1 2 3 4 5 6 
#
# 1 0.013015 -0.003888 -0.004940 0.000000 0.000000 0.000000
# 2 -0.003888 0.018972 -0.004062 0.000000 0.000000 0.000000
# 3 -0.004940 -0.004062 0.023722 0.000000 0.000000 0.000000
# 4 0.000000 0.000000 0.000000 0.048128 0.000000 0.000000
# 5 0.000000 0.000000 0.000000 0.000000 0.045407 0.000000
# 6 0.000000 0.000000 0.000000 0.000000 0.000000 0.028470
#
#
# Mechanical properties :
#
#
# Convention : Reuss Voigt Hill
#
# Bulk Modulus (GPa) = 33.41413 36.62102 35.01757
# Shear Modulus (GPa) = 23.42238 24.95694 24.18966
#
# Velocity S-wave (km/s) = 3.37948 3.48843 3.43439
# Velocity P-wave (km/s) = 5.61434 5.83799 5.72725
#
# Compressibility (1/GPa) = 0.02992746
#
# Stress axis : x y z
#
# Youngs Moduli (GPa) = 76.83386 52.71029 42.15475
#
# Poissons Ratio (x) = 0.20496 0.20826
# Poissons Ratio (y) = 0.29876 0.17123
# Poissons Ratio (z) = 0.37960 0.21410
#
# Static dielectric constant tensor:
#      x y z
#    x 3.766680 0.000000 0.000000 
#    y 0.000000 3.504910 0.000000 
#    z 0.000000 0.000000 4.117540 
# 
# 
# High freq. dielectric constant tensor:
#      x y z
#    x 1.806390 0.000000 0.000000 
#    y 0.000000 1.778030 0.000000 
#    z 0.000000 0.000000 1.817400 
# 
# From -- ./inp_files/38225.got.cif
#   From: 2010.03.12/outbox.cif.g09.slc.cpg/sg53_20_cif.got.tgz:38225.got - 2010.04.16 14:36:59.
