data_PCOD8217759
_publ_section_title
;
Structure prediction by ZEFSAII (Michael W. Deem and Ramdas Pophale) SiO2 
 PCOD8217759
Probable space group: P M N A
;
_chemical_formula_sum "Si O2"
_cell_formula_units_Z 64
_cell_length_a 9.405304
_cell_length_b 19.868049
_cell_length_c 19.019778
_cell_angle_alpha 90.000000
_cell_angle_beta 90.000000
_cell_angle_gamma 90.000000
_cell_volume 3554.131591
_symmetry_space_group_name_H-M "P M N A"
_symmetry_group_IT_number 53
_symmetry_cell_setting 'orthorhombic'
loop_
_space_group_symop_operation_xyz
x,y,z
1/2-x,-y,1/2+z
x,-y,-z
1/2-x,y,1/2-z
-x,-y,-z
1/2+x,y,1/2-z
-x,y,z
1/2+x,-y,1/2+z
loop_
_atom_site_type_symbol
_atom_site_label
_atom_site_fract_x
_atom_site_fract_y
_atom_site_fract_z
Si Si1 0.331940 0.340114 0.093065
Si Si2 0.830345 0.710518 0.445476
Si Si3 0.165160 0.464517 0.319336
Si Si4 0.163693 0.910358 0.585991
Si Si5 0.168381 0.033447 0.676877
Si Si6 0.833812 0.617580 0.319774
Si Si7 0.163525 0.216607 0.318115
Si Si8 0.667756 0.138107 0.939881
O O1 0.500000 0.332323 0.087642
O O2 0.287399 0.415109 0.117261
O O3 0.276655 0.286529 0.150606
O O4 0.267583 0.323046 0.016578
O O5 0.775427 0.665604 0.380901
O O6 0.769770 0.786209 0.436775
O O7 0.000000 0.710400 0.446743
O O8 0.250000 0.444129 0.250000
O O9 0.198297 0.540707 0.342655
O O10 0.000000 0.454399 0.301744
O O11 0.231375 0.970202 0.632546
O O12 0.186069 0.839269 0.622929
O O13 0.230407 0.902888 0.507472
O O14 0.000000 0.930422 0.578338
O O15 0.250000 0.038300 0.750000
O O16 0.000000 0.026650 0.691639
O O17 0.204732 0.100306 0.632316
O O18 0.750000 0.637315 0.250000
O O19 0.000000 0.628320 0.305190
O O20 0.250000 0.195262 0.250000
O O21 0.000000 0.222494 0.295845
O O22 0.500000 0.143335 0.951478
#
# Coordination Sequence:
#
# PCOD8217759 Si02
#       8
#     8   8   8   8   8   8   8   8
#     4   9  16  27  44  67  94 120 150 190 231 268
#     4   9  16  28  47  71  94 117 152 197 235 266
#     4   9  17  29  45  67  94 123 153 187 229 275
#     4   9  16  29  48  70  93 120 155 192 226 267
#     4  10  20  32  49  73  97 121 153 193 233 274
#     4   9  18  31  48  69  92 120 154 191 232 275
#     4  10  18  28  45  68  93 122 152 184 224 270
#     4   9  16  29  49  71  93 120 157 196 230 268
#
# _framework density 18.007211999999999
#
# number of rings (size 3 to 8) (size 9 to 14) (size 15 to 20)
#    0.000    2.750    1.250    1.125    0.000    2.500 
#    0.000    2.500    0.000    3.750    0.000    3.500 
#    0.000    0.000    0.000    0.000    0.000    0.000 
#
# Total GULP energy -793370.467752 kJ/mol
# GULP energy per Si atom -12396.413559 kJ/mol
# Density = 1.796623 g / cm^3
# Si number density = 18.007212 Si / 1000 Ang^3
#
#
#
# Elastic Constant Matrix: (Units=GPa)
#
#
# Indices 1 2 3 4 5 6 
#
# 1 22.9411 23.4767 34.6502 0.0000 0.0000 0.0000
# 2 23.4767 120.2153 80.9455 0.0000 0.0000 0.0000
# 3 34.6502 80.9455 146.4452 0.0000 0.0000 0.0000
# 4 0.0000 0.0000 0.0000 25.2547 0.0000 0.0000
# 5 0.0000 0.0000 0.0000 0.0000 23.5641 0.0000
# 6 0.0000 0.0000 0.0000 0.0000 0.0000 12.2673
#
#
#
# Elastic Compliance Matrix: (Units=1/GPa)
#
#
# Indices 1 2 3 4 5 6 
#
# 1 0.068990 -0.003953 -0.014139 0.000000 0.000000 0.000000
# 2 -0.003953 0.013476 -0.006513 0.000000 0.000000 0.000000
# 3 -0.014139 -0.006513 0.013774 0.000000 0.000000 0.000000
# 4 0.000000 0.000000 0.000000 0.039597 0.000000 0.000000
# 5 0.000000 0.000000 0.000000 0.000000 0.042437 0.000000
# 6 0.000000 0.000000 0.000000 0.000000 0.000000 0.081517
#
#
# Mechanical properties :
#
#
# Convention : Reuss Voigt Hill
#
# Bulk Modulus (GPa) = 21.26295 63.08293 42.17294
# Shear Modulus (GPa) = 15.39985 22.25251 18.82618
#
# Velocity S-wave (km/s) = 2.92756 3.51915 3.23690
# Velocity P-wave (km/s) = 4.82298 7.18475 6.11889
#
# Compressibility (1/GPa) = 0.04703017
#
# Stress axis : x y z
#
# Youngs Moduli (GPa) = 14.49484 74.20541 72.60018
#
# Poissons Ratio (x) = 0.29332 1.02648
# Poissons Ratio (y) = 0.05730 0.47288
# Poissons Ratio (z) = 0.20494 0.48333
#
# Static dielectric constant tensor:
#      x y z
#    x 2.788390 0.000000 0.000000 
#    y 0.000000 3.537150 0.000000 
#    z 0.000000 0.000000 3.432610 
# 
# 
# High freq. dielectric constant tensor:
#      x y z
#    x 1.630590 0.000000 0.000000 
#    y 0.000000 1.712460 0.000000 
#    z 0.000000 0.000000 1.704830 
# 
# From -- ./inp_files/26912.got.cif
#   From: 2010.03.12/outbox.cif.g09.slc.cpg/sg53_14_cif.got.tgz:26912.got - 2010.04.16 14:36:59.
