data_PCOD8217817
_publ_section_title
;
Structure prediction by ZEFSAII (Michael W. Deem and Ramdas Pophale) SiO2 
 PCOD8217817
Probable space group: P M N A
;
_chemical_formula_sum "Si O2"
_cell_formula_units_Z 64
_cell_length_a 8.585766
_cell_length_b 31.453016
_cell_length_c 14.181497
_cell_angle_alpha 90.000000
_cell_angle_beta 90.000000
_cell_angle_gamma 90.000000
_cell_volume 3829.688240
_symmetry_space_group_name_H-M "P M N A"
_symmetry_group_IT_number 53
_symmetry_cell_setting 'orthorhombic'
loop_
_space_group_symop_operation_xyz
x,y,z
1/2-x,-y,1/2+z
x,-y,-z
1/2-x,y,1/2-z
-x,-y,-z
1/2+x,y,1/2-z
-x,y,z
1/2+x,-y,1/2+z
loop_
_atom_site_type_symbol
_atom_site_label
_atom_site_fract_x
_atom_site_fract_y
_atom_site_fract_z
Si Si1 0.184087 0.929532 0.651554
Si Si2 0.314296 0.481180 0.354626
Si Si3 0.318255 0.729881 0.352065
Si Si4 0.816801 0.973643 0.348015
Si Si5 0.315563 0.821166 0.354082
Si Si6 0.314974 0.362691 0.644242
Si Si7 0.683349 0.099230 0.530730
Si Si8 0.315310 0.440036 0.964364
O O1 0.250000 0.913235 0.750000
O O2 0.264123 0.898216 0.577079
O O3 0.000000 0.925076 0.647502
O O4 0.238534 0.978162 0.633534
O O5 0.250000 0.471294 0.250000
O O6 0.500000 0.479903 0.352175
O O7 0.257638 0.527175 0.389502
O O8 0.251661 0.446573 0.430017
O O9 0.250000 0.730144 0.250000
O O10 0.500000 0.730609 0.339598
O O11 0.266120 0.774867 0.400075
O O12 0.272001 0.684490 0.398199
O O13 0.750000 0.956078 0.250000
O O14 0.756135 0.944070 0.430556
O O15 0.000000 0.971046 0.344051
O O16 0.250000 0.826827 0.250000
O O17 0.500000 0.824943 0.348475
O O18 0.247528 0.858959 0.418251
O O19 0.250000 0.369068 0.750000
O O20 0.500000 0.370995 0.645842
O O21 0.230410 0.393540 0.571080
O O22 0.500000 0.097068 0.541166
O O23 0.500000 0.446222 0.966677
#
# Coordination Sequence:
#
# PCOD8217817 Si02
#       8
#     8   8   8   8   8   8   8   8
#     4  10  21  36  51  66  87 116 152 192 231 269
#     4  11  21  35  51  69  95 128 164 201 240 282
#     4   8  15  28  45  64  91 123 154 186 226 273
#     4  10  20  33  48  67  92 121 152 186 224 267
#     4   9  18  31  46  68  96 125 153 184 223 271
#     4  10  18  29  46  69  95 126 160 196 235 276
#     4  11  21  31  47  70  95 122 153 186 224 271
#     4  11  21  33  48  70  97 127 163 201 238 279
#
# _framework density 16.711542999999999
#
# number of rings (size 3 to 8) (size 9 to 14) (size 15 to 20)
#    0.000    2.000    0.000    5.625    0.000    5.500 
#    0.000    0.000    0.000    0.000    0.000    0.875 
#    0.000    4.000    0.000    0.000    0.000    0.000 
#
# Total GULP energy -793152.900524 kJ/mol
# GULP energy per Si atom -12393.014071 kJ/mol
# Density = 1.667351 g / cm^3
# Si number density = 16.711543 Si / 1000 Ang^3
#
#
#
# Elastic Constant Matrix: (Units=GPa)
#
#
# Indices 1 2 3 4 5 6 
#
# 1 67.5863 30.0341 29.5998 0.0000 0.0000 0.0000
# 2 30.0341 107.7285 59.4635 0.0000 0.0000 0.0000
# 3 29.5998 59.4635 106.8938 0.0000 0.0000 0.0000
# 4 0.0000 0.0000 0.0000 23.1900 0.0000 0.0000
# 5 0.0000 0.0000 0.0000 0.0000 28.4781 0.0000
# 6 0.0000 0.0000 0.0000 0.0000 0.0000 18.3501
#
#
#
# Elastic Compliance Matrix: (Units=1/GPa)
#
#
# Indices 1 2 3 4 5 6 
#
# 1 0.017567 -0.003193 -0.003088 0.000000 0.000000 0.000000
# 2 -0.003193 0.013976 -0.006891 0.000000 0.000000 0.000000
# 3 -0.003088 -0.006891 0.014043 0.000000 0.000000 0.000000
# 4 0.000000 0.000000 0.000000 0.043122 0.000000 0.000000
# 5 0.000000 0.000000 0.000000 0.000000 0.035115 0.000000
# 6 0.000000 0.000000 0.000000 0.000000 0.000000 0.054496
#
#
# Mechanical properties :
#
#
# Convention : Reuss Voigt Hill
#
# Bulk Modulus (GPa) = 51.96662 57.82260 54.89461
# Shear Modulus (GPa) = 23.68799 24.87774 24.28287
#
# Velocity S-wave (km/s) = 3.76901 3.86250 3.81604
# Velocity P-wave (km/s) = 7.07844 7.38697 7.23435
#
# Compressibility (1/GPa) = 0.01924312
#
# Stress axis : x y z
#
# Youngs Moduli (GPa) = 56.92379 71.55004 71.20781
#
# Poissons Ratio (x) = 0.22846 0.21991
# Poissons Ratio (y) = 0.18176 0.49067
# Poissons Ratio (z) = 0.17580 0.49302
#
# Static dielectric constant tensor:
#      x y z
#    x 2.985800 0.000000 0.000000 
#    y 0.000000 3.703210 0.000000 
#    z 0.000000 0.000000 3.109000 
# 
# 
# High freq. dielectric constant tensor:
#      x y z
#    x 1.658510 0.000000 0.000000 
#    y 0.000000 1.639850 0.000000 
#    z 0.000000 0.000000 1.619650 
# 
# From -- ./inp_files/21078.got.cif
#   From: 2010.03.12/outbox.cif.g09.slc.cpg/sg53_11_cif.got.tgz:21078.got - 2010.04.16 14:36:59.
