data_PCOD8217325
_publ_section_title
;
Structure prediction by ZEFSAII (Michael W. Deem and Ramdas Pophale) SiO2 
 PCOD8217325
Probable space group: P N N A
;
_chemical_formula_sum "Si O2"
_cell_formula_units_Z 40
_cell_length_a 26.288133
_cell_length_b 8.172641
_cell_length_c 7.832340
_cell_angle_alpha 90.000000
_cell_angle_beta 90.000000
_cell_angle_gamma 90.000000
_cell_volume 1682.727132
_symmetry_space_group_name_H-M "P N N A"
_symmetry_group_IT_number 52
_symmetry_cell_setting 'orthorhombic'
loop_
_space_group_symop_operation_xyz
x,y,z
1/2-x,-y,z
x,1/2-y,1/2-z
1/2-x,1/2+y,1/2-z
-x,-y,-z
1/2+x,y,-z
-x,1/2+y,1/2+z
1/2+x,1/2-y,1/2+z
loop_
_atom_site_type_symbol
_atom_site_label
_atom_site_fract_x
_atom_site_fract_y
_atom_site_fract_z
Si Si1 0.250000 0.500000 0.462374
Si Si2 0.508003 0.750000 0.750000
Si Si3 0.431627 0.765714 0.051859
Si Si4 0.347018 0.909275 0.862597
Si Si5 0.091870 0.589162 0.067675
Si Si6 0.316810 0.250000 0.250000
Si Si7 0.886934 0.250000 0.250000
O O1 0.289169 0.604481 0.575379
O O2 0.281202 0.370068 0.354070
O O3 0.476460 0.696161 0.583236
O O4 0.546239 0.599759 0.793559
O O5 0.448872 0.750000 0.250000
O O6 0.406831 0.593202 0.996046
O O7 0.387079 0.900907 0.023331
O O8 0.359595 0.750000 0.750000
O O9 0.352703 0.085965 0.771702
O O10 0.147781 0.637885 0.131377
O O11 0.077664 0.714586 0.913689
#
# Coordination Sequence:
#
# PCOD8217325 Si02
#       7
#     4   4   8   8   8   4   4
#     4  12  28  44  78 112 146 204 260 330 396 472
#     4  11  26  48  71 122 154 211 266 311 410 468
#     4  12  26  48  78 109 157 207 259 327 389 477
#     4  12  27  50  75 110 152 197 264 319 395 469
#     4  11  25  48  75 108 158 204 258 323 394 469
#     4  11  26  46  70 109 151 198 260 321 390 470
#     4  12  24  50  77 105 155 203 248 334 380 460
#
# _framework density 23.770937
#
# number of rings (size 3 to 8) (size 9 to 14) (size 15 to 20)
#    0.000    0.400    5.000    1.800    9.800    0.800 
#    0.000    0.000    0.000    0.000    0.000    0.000 
#    0.000    0.000    0.000    0.000    0.000    0.000 
#
# Total GULP energy -495806.247998 kJ/mol
# GULP energy per Si atom -12395.156200 kJ/mol
# Density = 2.371683 g / cm^3
# Si number density = 23.770937 Si / 1000 Ang^3
#
#
#
# Elastic Constant Matrix: (Units=GPa)
#
#
# Indices 1 2 3 4 5 6 
#
# 1 155.4623 46.3016 64.7890 0.0000 0.0000 0.0000
# 2 46.3016 139.4294 45.9907 0.0000 0.0000 0.0000
# 3 64.7890 45.9907 144.2688 0.0000 0.0000 0.0000
# 4 0.0000 0.0000 0.0000 32.8431 0.0000 0.0000
# 5 0.0000 0.0000 0.0000 0.0000 -122.2103 0.0000
# 6 0.0000 0.0000 0.0000 0.0000 0.0000 15.2510
#
#
#
# Elastic Compliance Matrix: (Units=1/GPa)
#
#
# Indices 1 2 3 4 5 6 
#
# 1 0.008258 -0.001698 -0.003167 0.000000 0.000000 0.000000
# 2 -0.001698 0.008364 -0.001904 0.000000 0.000000 0.000000
# 3 -0.003167 -0.001904 0.008961 0.000000 0.000000 0.000000
# 4 0.000000 0.000000 0.000000 0.030448 0.000000 0.000000
# 5 0.000000 0.000000 0.000000 0.000000 -0.008183 0.000000
# 6 0.000000 0.000000 0.000000 0.000000 0.000000 0.065570
#
#
# Mechanical properties :
#
#
# Convention : Reuss Voigt Hill
#
# Bulk Modulus (GPa) = 83.02212 83.70258 83.36235
# Shear Modulus (GPa) = 38.17659 3.98203 21.07931
#
# Velocity S-wave (km/s) = 4.01187 1.29569 2.98110
# Velocity P-wave (km/s) = 7.51411 6.12593 6.85525
#
# Compressibility (1/GPa) = 0.01204498
#
# Stress axis : x y z
#
# Youngs Moduli (GPa) = 121.09425 119.56263 111.59620
#
# Poissons Ratio (x) = 0.20296 0.35347
# Poissons Ratio (y) = 0.20556 0.21247
# Poissons Ratio (z) = 0.38355 0.22764
#
# Static dielectric constant tensor:
#      x y z
#    x 4.191000 0.000000 0.000000 
#    y 0.000000 4.084800 0.000000 
#    z 0.000000 0.000000 4.577220 
# 
# 
# High freq. dielectric constant tensor:
#      x y z
#    x 1.935380 0.000000 0.000000 
#    y 0.000000 1.952050 0.000000 
#    z 0.000000 0.000000 1.956620 
# 
# From -- ./inp_files/14889.got.cif
#   From: 2010.06.25/outbox.cif.g09.slc.cpg/sg52_8_cif.got.tgz:14889.got - 2010.06.26 19:32:48.
