data_PCOD8217687
_publ_section_title
;
Structure prediction by ZEFSAII (Michael W. Deem and Ramdas Pophale) SiO2 
 PCOD8217687
Probable space group: P M N A
;
_chemical_formula_sum "Si O2"
_cell_formula_units_Z 64
_cell_length_a 9.000961
_cell_length_b 26.473045
_cell_length_c 18.281341
_cell_angle_alpha 90.000000
_cell_angle_beta 90.000000
_cell_angle_gamma 90.000000
_cell_volume 4356.129955
_symmetry_space_group_name_H-M "P M N A"
_symmetry_group_IT_number 53
_symmetry_cell_setting 'orthorhombic'
loop_
_space_group_symop_operation_xyz
x,y,z
1/2-x,-y,1/2+z
x,-y,-z
1/2-x,y,1/2-z
-x,-y,-z
1/2+x,y,1/2-z
-x,y,z
1/2+x,-y,1/2+z
loop_
_atom_site_type_symbol
_atom_site_label
_atom_site_fract_x
_atom_site_fract_y
_atom_site_fract_z
Si Si1 0.174699 0.900976 0.088324
Si Si2 0.326897 0.403669 0.587549
Si Si3 0.673654 0.805012 0.324482
Si Si4 0.327087 0.307665 0.675866
Si Si5 0.676231 0.008304 0.828037
Si Si6 0.664495 0.952033 0.552368
Si Si7 0.824198 0.492730 0.673505
Si Si8 0.663484 0.446486 0.039411
O O1 0.216233 0.843909 0.111166
O O2 0.267034 0.939034 0.138977
O O3 0.000000 0.912906 0.100108
O O4 0.216081 0.906520 0.001895
O O5 0.500000 0.416099 0.594159
O O6 0.288928 0.346403 0.610836
O O7 0.239389 0.440993 0.640855
O O8 0.277055 0.409832 0.502939
O O9 0.750000 0.823078 0.250000
O O10 0.500000 0.805780 0.309256
O O11 0.727220 0.748605 0.347085
O O12 0.250000 0.326131 0.750000
O O13 0.500000 0.307629 0.692938
O O14 0.750000 0.998670 0.750000
O O15 0.500000 0.009829 0.819983
O O16 0.721878 0.961558 0.881190
O O17 0.500000 0.941380 0.584964
O O18 0.658304 0.000000 0.500000
O O19 0.750000 0.505143 0.750000
O O20 0.785274 0.541147 0.622193
O O21 0.000000 0.485756 0.681741
O O22 0.500000 0.421223 0.038384
O O23 0.655874 0.500000 0.000000
#
# Coordination Sequence:
#
# PCOD8217687 Si02
#       8
#     8   8   8   8   8   8   8   8
#     4   9  17  29  44  59  78 106 135 164 198 234
#     4  10  18  27  41  59  79 106 137 166 196 231
#     4   9  17  29  42  57  79 106 135 166 198 228
#     4   9  18  29  40  57  80 105 135 168 197 227
#     4  11  20  28  40  58  81 107 134 164 196 232
#     4   8  15  28  42  57  78 102 130 162 196 234
#     4  10  19  29  41  58  80 105 133 164 197 235
#     4   8  16  29  41  55  77 103 130 162 198 234
#
# _framework density 14.691940000000001
#
# number of rings (size 3 to 8) (size 9 to 14) (size 15 to 20)
#    0.000    2.750    0.000    4.125    0.000    8.500 
#    0.000    0.000    0.000    0.000    0.000    0.000 
#    0.000    1.000    0.000    4.250    0.000    2.750 
#
# Total GULP energy -793211.633132 kJ/mol
# GULP energy per Si atom -12393.931768 kJ/mol
# Density = 1.465850 g / cm^3
# Si number density = 14.691940 Si / 1000 Ang^3
#
#
#
# Elastic Constant Matrix: (Units=GPa)
#
#
# Indices 1 2 3 4 5 6 
#
# 1 74.3254 36.7319 52.1699 0.0000 0.0000 0.0000
# 2 36.7319 75.4379 52.4813 0.0000 0.0000 0.0000
# 3 52.1699 52.4813 107.1663 0.0000 0.0000 0.0000
# 4 0.0000 0.0000 0.0000 22.8251 0.0000 0.0000
# 5 0.0000 0.0000 0.0000 0.0000 25.2710 0.0000
# 6 0.0000 0.0000 0.0000 0.0000 0.0000 10.8220
#
#
#
# Elastic Compliance Matrix: (Units=1/GPa)
#
#
# Indices 1 2 3 4 5 6 
#
# 1 0.021545 -0.004844 -0.008116 0.000000 0.000000 0.000000
# 2 -0.004844 0.021195 -0.008021 0.000000 0.000000 0.000000
# 3 -0.008116 -0.008021 0.017210 0.000000 0.000000 0.000000
# 4 0.000000 0.000000 0.000000 0.043811 0.000000 0.000000
# 5 0.000000 0.000000 0.000000 0.000000 0.039571 0.000000
# 6 0.000000 0.000000 0.000000 0.000000 0.000000 0.092404
#
#
# Mechanical properties :
#
#
# Convention : Reuss Voigt Hill
#
# Bulk Modulus (GPa) = 55.59513 59.96620 57.78066
# Shear Modulus (GPa) = 17.62445 19.48673 18.55559
#
# Velocity S-wave (km/s) = 3.46728 3.64587 3.55770
# Velocity P-wave (km/s) = 7.34521 7.65686 7.50265
#
# Compressibility (1/GPa) = 0.01798719
#
# Stress axis : x y z
#
# Youngs Moduli (GPa) = 46.41378 47.18077 58.10414
#
# Poissons Ratio (x) = 0.22857 0.47158
# Poissons Ratio (y) = 0.22485 0.46607
# Poissons Ratio (z) = 0.37670 0.37845
#
# Static dielectric constant tensor:
#      x y z
#    x 2.905920 0.000000 0.000000 
#    y 0.000000 2.900570 0.000000 
#    z 0.000000 0.000000 3.145920 
# 
# 
# High freq. dielectric constant tensor:
#      x y z
#    x 1.568430 0.000000 0.000000 
#    y 0.000000 1.528710 0.000000 
#    z 0.000000 0.000000 1.551800 
# 
# From -- ./inp_files/27087.got.cif
#   From: 2010.03.12/outbox.cif.g09.slc.cpg/sg53_14_cif.got.tgz:27087.got - 2010.04.16 14:36:59.
