data_PCOD8217620
_publ_section_title
;
Structure prediction by ZEFSAII (Michael W. Deem and Ramdas Pophale) SiO2 
 PCOD8217620
Probable space group: P M N A
;
_chemical_formula_sum "Si O2"
_cell_formula_units_Z 64
_cell_length_a 20.692312
_cell_length_b 17.956058
_cell_length_c 9.520770
_cell_angle_alpha 90.000000
_cell_angle_beta 90.000000
_cell_angle_gamma 90.000000
_cell_volume 3537.464509
_symmetry_space_group_name_H-M "P M N A"
_symmetry_group_IT_number 53
_symmetry_cell_setting 'orthorhombic'
loop_
_space_group_symop_operation_xyz
x,y,z
1/2-x,-y,1/2+z
x,-y,-z
1/2-x,y,1/2-z
-x,-y,-z
1/2+x,y,1/2-z
-x,y,z
1/2+x,-y,1/2+z
loop_
_atom_site_type_symbol
_atom_site_label
_atom_site_fract_x
_atom_site_fract_y
_atom_site_fract_z
Si Si1 0.575176 0.374406 0.715147
Si Si2 0.073691 0.141009 0.807018
Si Si3 0.750396 0.215905 0.914904
Si Si4 0.423665 0.475870 0.150158
Si Si5 0.200979 0.057896 0.873911
Si Si6 0.620551 0.729930 0.505503
Si Si7 0.572282 0.685415 0.788598
Si Si8 0.890352 0.252327 0.573320
O O1 0.500000 0.362165 0.747360
O O2 0.593906 0.461176 0.734178
O O3 0.592558 0.347396 0.558361
O O4 0.613626 0.324456 0.827154
O O5 0.128380 0.076035 0.813841
O O6 0.086151 0.199785 0.931818
O O7 0.079384 0.182809 0.657374
O O8 0.000000 0.109297 0.820936
O O9 0.750000 0.230688 0.750000
O O10 0.768774 0.130749 0.944912
O O11 0.802667 0.269832 0.984476
O O12 0.681278 0.233161 0.980494
O O13 0.500000 0.465503 0.133848
O O14 0.394107 0.395890 0.193372
O O15 0.394356 0.500000 0.000000
O O16 0.250000 0.029971 0.750000
O O17 0.194558 0.000000 0.000000
O O18 0.609600 0.732726 0.671581
O O19 0.500000 0.675073 0.732650
O O20 0.569298 0.730749 0.934038
#
# Coordination Sequence:
#
# PCOD8217620 Si02
#       8
#     8   8   8   8   8   8   8   8
#     4  10  17  29  52  77  99 142 187 225 284 338
#     4  10  19  35  60  87 112 145 189 231 272 331
#     4  10  18  38  59  82 103 141 191 223 257 322
#     4   9  17  29  46  71 104 141 190 230 272 344
#     4  10  20  40  61  85 114 149 186 217 263 331
#     4  10  20  33  52  78 115 142 178 236 288 330
#     4  11  21  32  49  79 113 142 177 238 297 333
#     4  11  18  32  58  77 109 143 187 230 271 329
#
# _framework density 18.092054000000001
#
# number of rings (size 3 to 8) (size 9 to 14) (size 15 to 20)
#    0.000    1.875    6.250    3.000    0.000    1.250 
#    4.500    1.875    0.000    4.875    0.000    0.000 
#    0.000    0.000    0.000    0.000    0.000    0.000 
#
# Total GULP energy -793347.978362 kJ/mol
# GULP energy per Si atom -12396.062162 kJ/mol
# Density = 1.805088 g / cm^3
# Si number density = 18.092054 Si / 1000 Ang^3
#
#
#
# Elastic Constant Matrix: (Units=GPa)
#
#
# Indices 1 2 3 4 5 6 
#
# 1 107.7253 35.8616 18.6058 0.0000 0.0000 0.0000
# 2 35.8616 65.9757 43.7680 0.0000 0.0000 0.0000
# 3 18.6058 43.7680 99.6990 0.0000 0.0000 0.0000
# 4 0.0000 0.0000 0.0000 28.0059 0.0000 0.0000
# 5 0.0000 0.0000 0.0000 0.0000 21.4434 0.0000
# 6 0.0000 0.0000 0.0000 0.0000 0.0000 16.9165
#
#
#
# Elastic Compliance Matrix: (Units=1/GPa)
#
#
# Indices 1 2 3 4 5 6 
#
# 1 0.011383 -0.006741 0.000835 0.000000 0.000000 0.000000
# 2 -0.006741 0.025378 -0.009883 0.000000 0.000000 0.000000
# 3 0.000835 -0.009883 0.014213 0.000000 0.000000 0.000000
# 4 0.000000 0.000000 0.000000 0.035707 0.000000 0.000000
# 5 0.000000 0.000000 0.000000 0.000000 0.046634 0.000000
# 6 0.000000 0.000000 0.000000 0.000000 0.000000 0.059114
#
#
# Mechanical properties :
#
#
# Convention : Reuss Voigt Hill
#
# Bulk Modulus (GPa) = 51.55821 52.20788 51.88304
# Shear Modulus (GPa) = 21.69471 24.95080 23.32276
#
# Velocity S-wave (km/s) = 3.46660 3.71766 3.59432
# Velocity P-wave (km/s) = 6.67703 6.88094 6.77975
#
# Compressibility (1/GPa) = 0.01939555
#
# Stress axis : x y z
#
# Youngs Moduli (GPa) = 87.85205 39.40497 70.35884
#
# Poissons Ratio (x) = 0.26564 -0.05876
# Poissons Ratio (y) = 0.59223 0.69534
# Poissons Ratio (z) = -0.07337 0.38943
#
# Static dielectric constant tensor:
#      x y z
#    x 3.451110 0.000000 0.000000 
#    y 0.000000 3.247460 0.000000 
#    z 0.000000 0.000000 3.179470 
# 
# 
# High freq. dielectric constant tensor:
#      x y z
#    x 1.689620 0.000000 0.000000 
#    y 0.000000 1.678530 0.000000 
#    z 0.000000 0.000000 1.690120 
# 
# From -- ./inp_files/11180.got.cif
#   From: 2010.03.12/outbox.cif.g09.slc.cpg/sg53_6_cif.got.tgz:11180.got - 2010.04.16 14:36:59.
