data_PCOD8217169
_publ_section_title
;
Structure prediction by ZEFSAII (Michael W. Deem and Ramdas Pophale) SiO2 
 PCOD8217169
Probable space group: P N N A
;
_chemical_formula_sum "Si O2"
_cell_formula_units_Z 36
_cell_length_a 14.282435
_cell_length_b 14.181811
_cell_length_c 8.800555
_cell_angle_alpha 90.000000
_cell_angle_beta 90.000000
_cell_angle_gamma 90.000000
_cell_volume 1782.559401
_symmetry_space_group_name_H-M "P N N A"
_symmetry_group_IT_number 52
_symmetry_cell_setting 'orthorhombic'
loop_
_space_group_symop_operation_xyz
x,y,z
1/2-x,-y,z
x,1/2-y,1/2-z
1/2-x,1/2+y,1/2-z
-x,-y,-z
1/2+x,y,-z
-x,1/2+y,1/2+z
1/2+x,1/2-y,1/2+z
loop_
_atom_site_type_symbol
_atom_site_label
_atom_site_fract_x
_atom_site_fract_y
_atom_site_fract_z
Si Si1 0.716973 0.848236 0.808519
Si Si2 0.980125 0.409347 0.596225
Si Si3 0.403627 0.735765 0.421983
Si Si4 0.750000 0.000000 0.556230
Si Si5 0.426521 0.934251 0.580565
O O1 0.673617 0.750000 0.750000
O O2 0.632477 0.904362 0.887249
O O3 0.804207 0.822206 0.921139
O O4 0.752903 0.908186 0.664993
O O5 0.014721 0.319417 0.505504
O O6 0.038259 0.415149 0.750826
O O7 0.000000 0.500000 0.500000
O O8 0.436268 0.750000 0.250000
O O9 0.399754 0.836011 0.502750
O O10 0.665440 0.001775 0.436370
O O11 0.500000 0.000000 0.500000
#
# Coordination Sequence:
#
# PCOD8217169 Si02
#       5
#     8   8   8   4   8
#     4  11  22  44  70  98 137 188 225 285 365 413
#     4  12  26  44  68 102 140 185 233 289 357 420
#     4  11  23  44  69 102 135 183 235 286 345 426
#     4  12  22  42  74 102 140 186 238 286 364 418
#     4  12  24  42  69 104 138 183 239 291 347 429
#
# _framework density 20.195681
#
# number of rings (size 3 to 8) (size 9 to 14) (size 15 to 20)
#    0.000    0.444    6.667    4.667    0.000    1.778 
#    0.000    2.222    0.000    0.000    0.000    0.000 
#    0.000    0.000    0.000    0.000    0.000    0.000 
#
# Total GULP energy -446117.725781 kJ/mol
# GULP energy per Si atom -12392.159049 kJ/mol
# Density = 2.014971 g / cm^3
# Si number density = 20.195681 Si / 1000 Ang^3
#
#
#
# Elastic Constant Matrix: (Units=GPa)
#
#
# Indices 1 2 3 4 5 6 
#
# 1 139.6599 26.5722 54.2612 0.0000 0.0000 0.0000
# 2 26.5722 96.7120 35.5533 0.0000 0.0000 0.0000
# 3 54.2612 35.5533 126.6184 0.0000 0.0000 0.0000
# 4 0.0000 0.0000 0.0000 47.1530 0.0000 0.0000
# 5 0.0000 0.0000 0.0000 0.0000 37.9266 0.0000
# 6 0.0000 0.0000 0.0000 0.0000 0.0000 43.2754
#
#
#
# Elastic Compliance Matrix: (Units=1/GPa)
#
#
# Indices 1 2 3 4 5 6 
#
# 1 0.008701 -0.001137 -0.003410 0.000000 0.000000 0.000000
# 2 -0.001137 0.011679 -0.002792 0.000000 0.000000 0.000000
# 3 -0.003410 -0.002792 0.010143 0.000000 0.000000 0.000000
# 4 0.000000 0.000000 0.000000 0.021208 0.000000 0.000000
# 5 0.000000 0.000000 0.000000 0.000000 0.026367 0.000000
# 6 0.000000 0.000000 0.000000 0.000000 0.000000 0.023108
#
#
# Mechanical properties :
#
#
# Convention : Reuss Voigt Hill
#
# Bulk Modulus (GPa) = 63.10969 66.19597 64.65283
# Shear Modulus (GPa) = 41.26626 42.11126 41.68876
#
# Velocity S-wave (km/s) = 4.52521 4.57131 4.54832
# Velocity P-wave (km/s) = 7.65639 7.79172 7.72436
#
# Compressibility (1/GPa) = 0.01584543
#
# Stress axis : x y z
#
# Youngs Moduli (GPa) = 114.92496 85.62499 98.59200
#
# Poissons Ratio (x) = 0.09738 0.33615
# Poissons Ratio (y) = 0.13071 0.27526
# Poissons Ratio (z) = 0.39184 0.23906
#
# Static dielectric constant tensor:
#      x y z
#    x 3.699220 0.000000 0.000000 
#    y 0.000000 4.079970 0.000000 
#    z 0.000000 0.000000 3.865730 
# 
# 
# High freq. dielectric constant tensor:
#      x y z
#    x 1.802800 0.000000 0.000000 
#    y 0.000000 1.813680 0.000000 
#    z 0.000000 0.000000 1.777300 
# 
# From -- ./inp_files/9952.got.cif
#   From: 2010.06.25/outbox.cif.g09.slc.cpg/sg52_5_cif.got.tgz:9952.got - 2010.06.26 19:32:48.
