data_PCOD8217001
_publ_section_title
;
Structure prediction by ZEFSAII (Michael W. Deem and Ramdas Pophale) SiO2 
 PCOD8217001
Probable space group: P N N A
;
_chemical_formula_sum "Si O2"
_cell_formula_units_Z 48
_cell_length_a 22.109611
_cell_length_b 11.290824
_cell_length_c 9.406080
_cell_angle_alpha 90.000000
_cell_angle_beta 90.000000
_cell_angle_gamma 90.000000
_cell_volume 2348.093614
_symmetry_space_group_name_H-M "P N N A"
_symmetry_group_IT_number 52
_symmetry_cell_setting 'orthorhombic'
loop_
_space_group_symop_operation_xyz
x,y,z
1/2-x,-y,z
x,1/2-y,1/2-z
1/2-x,1/2+y,1/2-z
-x,-y,-z
1/2+x,y,-z
-x,1/2+y,1/2+z
1/2+x,1/2-y,1/2+z
loop_
_atom_site_type_symbol
_atom_site_label
_atom_site_fract_x
_atom_site_fract_y
_atom_site_fract_z
Si Si1 0.234296 0.368771 0.030770
Si Si2 0.821990 0.000520 0.017946
Si Si3 0.855444 0.870735 0.300493
Si Si4 0.369594 0.878121 0.248564
Si Si5 0.639443 0.747902 0.915536
Si Si6 0.430059 0.477279 0.021348
O O1 0.250000 0.500000 0.984672
O O2 0.193657 0.367592 0.170265
O O3 0.293644 0.299615 0.068421
O O4 0.201004 0.316957 0.891231
O O5 0.857203 0.124426 0.990696
O O6 0.750000 0.000000 0.987738
O O7 0.854192 0.908575 0.912991
O O8 0.834447 0.958797 0.177060
O O9 0.889288 0.750000 0.250000
O O10 0.897797 0.945323 0.402549
O O11 0.402657 0.750000 0.250000
O O12 0.411784 0.976707 0.321575
O O13 0.621787 0.750000 0.750000
O O14 0.590423 0.660678 0.991705
O O15 0.500000 0.500000 0.000000
#
# Coordination Sequence:
#
# PCOD8217001 Si02
#       6
#     8   8   8   8   8   8
#     4  11  19  37  64  94 136 173 207 264 350 423
#     4  12  23  37  67 110 139 168 210 279 363 430
#     4  11  24  43  64  97 138 175 218 276 354 425
#     4  11  21  40  66  95 130 172 228 272 337 419
#     4  12  22  41  70 100 137 177 232 285 339 419
#     4  11  26  48  67  89 133 188 237 289 338 385
#
# _framework density 20.442115999999999
#
# number of rings (size 3 to 8) (size 9 to 14) (size 15 to 20)
#    0.000    0.667    5.000    6.500    0.000    1.333 
#    3.000    0.833    0.000    0.000    0.000    0.000 
#    0.000    0.000    0.000    0.000    0.000    0.000 
#
# Total GULP energy -595047.089157 kJ/mol
# GULP energy per Si atom -12396.814357 kJ/mol
# Density = 2.039559 g / cm^3
# Si number density = 20.442116 Si / 1000 Ang^3
#
#
#
# Elastic Constant Matrix: (Units=GPa)
#
#
# Indices 1 2 3 4 5 6 
#
# 1 90.9033 25.6445 24.3705 0.0000 0.0000 0.0000
# 2 25.6445 125.7899 17.5368 0.0000 0.0000 0.0000
# 3 24.3705 17.5368 87.9654 0.0000 0.0000 0.0000
# 4 0.0000 0.0000 0.0000 38.8887 0.0000 0.0000
# 5 0.0000 0.0000 0.0000 0.0000 2.6029 0.0000
# 6 0.0000 0.0000 0.0000 0.0000 0.0000 18.2110
#
#
#
# Elastic Compliance Matrix: (Units=1/GPa)
#
#
# Indices 1 2 3 4 5 6 
#
# 1 0.012404 -0.002108 -0.003016 0.000000 0.000000 0.000000
# 2 -0.002108 0.008535 -0.001118 0.000000 0.000000 0.000000
# 3 -0.003016 -0.001118 0.012427 0.000000 0.000000 0.000000
# 4 0.000000 0.000000 0.000000 0.025714 0.000000 0.000000
# 5 0.000000 0.000000 0.000000 0.000000 0.384188 0.000000
# 6 0.000000 0.000000 0.000000 0.000000 0.000000 0.054912
#
#
# Mechanical properties :
#
#
# Convention : Reuss Voigt Hill
#
# Bulk Modulus (GPa) = 47.88821 48.86246 48.37533
# Shear Modulus (GPa) = 9.65951 27.74765 18.70358
#
# Velocity S-wave (km/s) = 2.17613 3.68826 3.02810
# Velocity P-wave (km/s) = 5.45813 6.48786 5.99515
#
# Compressibility (1/GPa) = 0.02088197
#
# Stress axis : x y z
#
# Youngs Moduli (GPa) = 80.61866 117.15949 80.47310
#
# Poissons Ratio (x) = 0.24701 0.24272
# Poissons Ratio (y) = 0.16997 0.08993
# Poissons Ratio (z) = 0.24316 0.13093
#
# Static dielectric constant tensor:
#      x y z
#    x 3.556050 0.000000 0.000000 
#    y 0.000000 3.677400 0.000000 
#    z 0.000000 0.000000 4.400490 
# 
# 
# High freq. dielectric constant tensor:
#      x y z
#    x 1.758030 0.000000 0.000000 
#    y 0.000000 1.823000 0.000000 
#    z 0.000000 0.000000 1.810200 
# 
# From -- ./inp_files/14269.got.cif
#   From: 2010.06.25/outbox.cif.g09.slc.cpg/sg52_8_cif.got.tgz:14269.got - 2010.06.26 19:32:48.
