data_PCOD8217633
_publ_section_title
;
Structure prediction by ZEFSAII (Michael W. Deem and Ramdas Pophale) SiO2 
 PCOD8217633
Probable space group: P M N A
;
_chemical_formula_sum "Si O2"
_cell_formula_units_Z 48
_cell_length_a 11.219297
_cell_length_b 12.518384
_cell_length_c 18.305257
_cell_angle_alpha 90.000000
_cell_angle_beta 90.000000
_cell_angle_gamma 90.000000
_cell_volume 2570.926998
_symmetry_space_group_name_H-M "P M N A"
_symmetry_group_IT_number 53
_symmetry_cell_setting 'orthorhombic'
loop_
_space_group_symop_operation_xyz
x,y,z
1/2-x,-y,1/2+z
x,-y,-z
1/2-x,y,1/2-z
-x,-y,-z
1/2+x,y,1/2-z
-x,y,z
1/2+x,-y,1/2+z
loop_
_atom_site_type_symbol
_atom_site_label
_atom_site_fract_x
_atom_site_fract_y
_atom_site_fract_z
Si Si1 0.000000 0.889464 0.900691
Si Si2 0.139407 0.374596 0.305064
Si Si3 0.370453 0.021393 0.914385
Si Si4 0.748605 0.188144 0.393843
Si Si5 0.255300 0.771026 0.435683
Si Si6 0.000000 0.129088 0.926640
Si Si7 0.364040 0.446043 0.925963
O O1 0.889767 0.819261 0.870212
O O2 0.000000 0.016845 0.880652
O O3 0.000000 0.894753 0.987825
O O4 0.250000 0.394585 0.250000
O O5 0.169723 0.264243 0.345317
O O6 0.146755 0.471937 0.360441
O O7 0.000000 0.368545 0.274646
O O8 0.500000 0.009160 0.879663
O O9 0.326814 0.140276 0.897610
O O10 0.288215 0.932752 0.878107
O O11 0.370596 0.000000 0.000000
O O12 0.760980 0.225600 0.477123
O O13 0.387506 0.797142 0.407879
O O14 0.217620 0.655345 0.406634
O O15 0.500000 0.407567 0.937860
O O16 0.315553 0.500000 0.000000
#
# Coordination Sequence:
#
# PCOD8217633 Si02
#       7
#     4   8   8   8   8   4   8
#     4   9  16  28  49  78 121 160 179 214 277 354
#     4  11  25  43  61  83 116 157 198 243 297 357
#     4   9  16  24  44  79 113 140 175 225 283 341
#     4  10  18  31  54  80 115 150 190 231 287 350
#     4  10  17  30  51  85 115 149 185 236 295 342
#     4   9  16  28  44  81 126 155 176 213 289 351
#     4  10  20  37  60  84 112 148 196 250 298 340
#
# _framework density 18.670309
#
# number of rings (size 3 to 8) (size 9 to 14) (size 15 to 20)
#    0.000    2.167    3.333    1.000    1.167    1.333 
#    1.500    0.417    0.000    1.000    0.000    0.000 
#    0.000    0.000    0.000    0.000    0.000    0.000 
#
# Total GULP energy -594721.084176 kJ/mol
# GULP energy per Si atom -12390.022587 kJ/mol
# Density = 1.862781 g / cm^3
# Si number density = 18.670309 Si / 1000 Ang^3
#
#
#
# Elastic Constant Matrix: (Units=GPa)
#
#
# Indices 1 2 3 4 5 6 
#
# 1 145.0611 52.4216 23.2250 0.0000 0.0000 0.0000
# 2 52.4216 128.5108 15.5905 0.0000 0.0000 0.0000
# 3 23.2250 15.5905 32.5470 0.0000 0.0000 0.0000
# 4 0.0000 0.0000 0.0000 12.4008 0.0000 0.0000
# 5 0.0000 0.0000 0.0000 0.0000 21.9677 0.0000
# 6 0.0000 0.0000 0.0000 0.0000 0.0000 27.8170
#
#
#
# Elastic Compliance Matrix: (Units=1/GPa)
#
#
# Indices 1 2 3 4 5 6 
#
# 1 0.008741 -0.002982 -0.004809 0.000000 0.000000 0.000000
# 2 -0.002982 0.009279 -0.002317 0.000000 0.000000 0.000000
# 3 -0.004809 -0.002317 0.035266 0.000000 0.000000 0.000000
# 4 0.000000 0.000000 0.000000 0.080640 0.000000 0.000000
# 5 0.000000 0.000000 0.000000 0.000000 0.045521 0.000000
# 6 0.000000 0.000000 0.000000 0.000000 0.000000 0.035949
#
#
# Mechanical properties :
#
#
# Convention : Reuss Voigt Hill
#
# Bulk Modulus (GPa) = 30.23853 54.28815 42.26334
# Shear Modulus (GPa) = 20.27272 26.76255 23.51763
#
# Velocity S-wave (km/s) = 3.29876 3.79017 3.55297
# Velocity P-wave (km/s) = 5.54440 6.94941 6.28628
#
# Compressibility (1/GPa) = 0.03307039
#
# Stress axis : x y z
#
# Youngs Moduli (GPa) = 114.39893 107.76988 28.35578
#
# Poissons Ratio (x) = 0.32140 0.13637
# Poissons Ratio (y) = 0.34117 0.06569
# Poissons Ratio (z) = 0.55015 0.24967
#
# Static dielectric constant tensor:
#      x y z
#    x 3.899490 0.000000 0.000000 
#    y 0.000000 3.460130 0.000000 
#    z 0.000000 0.000000 2.930200 
# 
# 
# High freq. dielectric constant tensor:
#      x y z
#    x 1.742500 0.000000 0.000000 
#    y 0.000000 1.732800 0.000000 
#    z 0.000000 0.000000 1.660300 
# 
# From -- ./inp_files/27580.got.cif
#   From: 2010.03.12/outbox.cif.g09.slc.cpg/sg53_14_cif.got.tgz:27580.got - 2010.04.16 14:36:59.
