data_PCOD8217801
_publ_section_title
;
Structure prediction by ZEFSAII (Michael W. Deem and Ramdas Pophale) SiO2 
 PCOD8217801
Probable space group: P M N A
;
_chemical_formula_sum "Si O2"
_cell_formula_units_Z 40
_cell_length_a 7.888333
_cell_length_b 15.452593
_cell_length_c 19.003895
_cell_angle_alpha 90.000000
_cell_angle_beta 90.000000
_cell_angle_gamma 90.000000
_cell_volume 2316.483568
_symmetry_space_group_name_H-M "P M N A"
_symmetry_group_IT_number 53
_symmetry_cell_setting 'orthorhombic'
loop_
_space_group_symop_operation_xyz
x,y,z
1/2-x,-y,1/2+z
x,-y,-z
1/2-x,y,1/2-z
-x,-y,-z
1/2+x,y,1/2-z
-x,y,z
1/2+x,-y,1/2+z
loop_
_atom_site_type_symbol
_atom_site_label
_atom_site_fract_x
_atom_site_fract_y
_atom_site_fract_z
Si Si1 0.687303 0.731893 0.526263
Si Si2 0.314117 0.662770 0.369353
Si Si3 0.198248 0.159136 0.676421
Si Si4 0.799129 0.091432 0.528248
Si Si5 0.500000 0.440850 0.895921
Si Si6 0.000000 0.627271 0.554878
O O1 0.500000 0.716698 0.559635
O O2 0.695955 0.691168 0.449641
O O3 0.720399 0.834364 0.520905
O O4 0.832599 0.684552 0.572121
O O5 0.500000 0.622932 0.352338
O O6 0.288208 0.747607 0.322130
O O7 0.168131 0.591890 0.354867
O O8 0.250000 0.112349 0.750000
O O9 0.259690 0.102232 0.609714
O O10 0.000000 0.174394 0.669965
O O11 0.000000 0.097922 0.521788
O O12 0.730437 0.000000 0.500000
O O13 0.500000 0.544605 0.894143
O O14 0.500000 0.403720 0.974530
#
# Coordination Sequence:
#
# PCOD8217801 Si02
#       6
#     8   8   8   8   4   4
#     4   9  16  26  41  60  85 118 153 184 227 280
#     4   9  16  27  41  59  85 117 151 182 221 274
#     4  10  18  29  45  66  93 125 157 193 236 287
#     4   9  17  30  47  65  90 127 162 198 244 292
#     4   9  16  26  40  58  84 118 147 182 221 263
#     4   9  16  26  39  58  86 116 149 184 221 264
#
# _framework density 17.267552999999999
#
# number of rings (size 3 to 8) (size 9 to 14) (size 15 to 20)
#    0.000    2.800    2.000    0.600    0.000    2.000 
#    0.000    4.000    0.000    0.000    0.000    0.000 
#    0.000    1.600    1.200    0.000    0.400    0.000 
#
# Total GULP energy -495744.581312 kJ/mol
# GULP energy per Si atom -12393.614533 kJ/mol
# Density = 1.722825 g / cm^3
# Si number density = 17.267553 Si / 1000 Ang^3
#
#
#
# Elastic Constant Matrix: (Units=GPa)
#
#
# Indices 1 2 3 4 5 6 
#
# 1 121.2518 66.1303 18.9647 0.0000 0.0000 0.0000
# 2 66.1303 118.3171 33.5962 0.0000 0.0000 0.0000
# 3 18.9647 33.5962 44.3301 0.0000 0.0000 0.0000
# 4 0.0000 0.0000 0.0000 11.1582 0.0000 0.0000
# 5 0.0000 0.0000 0.0000 0.0000 13.6287 0.0000
# 6 0.0000 0.0000 0.0000 0.0000 0.0000 13.5132
#
#
#
# Elastic Compliance Matrix: (Units=1/GPa)
#
#
# Indices 1 2 3 4 5 6 
#
# 1 0.011864 -0.006613 -0.000064 0.000000 0.000000 0.000000
# 2 -0.006613 0.014455 -0.008126 0.000000 0.000000 0.000000
# 3 -0.000064 -0.008126 0.028744 0.000000 0.000000 0.000000
# 4 0.000000 0.000000 0.000000 0.089621 0.000000 0.000000
# 5 0.000000 0.000000 0.000000 0.000000 0.073374 0.000000
# 6 0.000000 0.000000 0.000000 0.000000 0.000000 0.074001
#
#
# Mechanical properties :
#
#
# Convention : Reuss Voigt Hill
#
# Bulk Modulus (GPa) = 39.28125 57.92015 48.60070
# Shear Modulus (GPa) = 15.14458 18.67389 16.90924
#
# Velocity S-wave (km/s) = 2.96472 3.29210 3.13269
# Velocity P-wave (km/s) = 5.87515 6.93297 6.42587
#
# Compressibility (1/GPa) = 0.02545744
#
# Stress axis : x y z
#
# Youngs Moduli (GPa) = 84.28905 69.17817 34.79006
#
# Poissons Ratio (x) = 0.45747 0.00222
# Poissons Ratio (y) = 0.55740 0.28271
# Poissons Ratio (z) = 0.00537 0.56216
#
# Static dielectric constant tensor:
#      x y z
#    x 3.521100 0.000000 0.000000 
#    y 0.000000 3.175800 0.000000 
#    z 0.000000 0.000000 2.868020 
# 
# 
# High freq. dielectric constant tensor:
#      x y z
#    x 1.686280 0.000000 0.000000 
#    y 0.000000 1.641650 0.000000 
#    z 0.000000 0.000000 1.605240 
# 
# From -- ./inp_files/26017.got.cif
#   From: 2010.03.12/outbox.cif.g09.slc.cpg/sg53_14_cif.got.tgz:26017.got - 2010.04.16 14:36:59.
