data_PCOD8217506
_publ_section_title
;
Structure prediction by ZEFSAII (Michael W. Deem and Ramdas Pophale) SiO2 
 PCOD8217506
Probable space group: P M N A
;
_chemical_formula_sum "Si O2"
_cell_formula_units_Z 64
_cell_length_a 8.587421
_cell_length_b 18.808937
_cell_length_c 25.340134
_cell_angle_alpha 90.000000
_cell_angle_beta 90.000000
_cell_angle_gamma 90.000000
_cell_volume 4092.945047
_symmetry_space_group_name_H-M "P M N A"
_symmetry_group_IT_number 53
_symmetry_cell_setting 'orthorhombic'
loop_
_space_group_symop_operation_xyz
x,y,z
1/2-x,-y,1/2+z
x,-y,-z
1/2-x,y,1/2-z
-x,-y,-z
1/2+x,y,1/2-z
-x,y,z
1/2+x,-y,1/2+z
loop_
_atom_site_type_symbol
_atom_site_label
_atom_site_fract_x
_atom_site_fract_y
_atom_site_fract_z
Si Si1 0.816295 0.234212 0.489719
Si Si2 0.815983 0.816946 0.397538
Si Si3 0.180859 0.035299 0.570324
Si Si4 0.185451 0.278788 0.696086
Si Si5 0.181381 0.095665 0.035565
Si Si6 0.315500 0.612830 0.511748
Si Si7 0.184297 0.483852 0.917460
Si Si8 0.684589 0.564607 0.304930
O O1 0.750923 0.216504 0.548170
O O2 0.736341 0.175972 0.450328
O O3 0.766539 0.313328 0.474596
O O4 0.000000 0.226791 0.484676
O O5 0.770382 0.900383 0.390088
O O6 0.747343 0.772009 0.349411
O O7 0.000000 0.809278 0.399056
O O8 0.214371 0.068181 0.512803
O O9 0.000000 0.016735 0.575678
O O10 0.279492 0.962780 0.581468
O O11 0.250000 0.245346 0.750000
O O12 0.256546 0.355951 0.687746
O O13 0.000000 0.283910 0.696801
O O14 0.000000 0.093942 0.021988
O O15 0.500000 0.623558 0.512042
O O16 0.258021 0.581195 0.455129
O O17 0.261297 0.558639 0.557860
O O18 0.245611 0.477433 0.857065
O O19 0.000000 0.480633 0.917917
O O20 0.750000 0.531220 0.250000
O O21 0.500000 0.563577 0.301382
#
# Coordination Sequence:
#
# PCOD8217506 Si02
#       8
#     8   8   8   8   8   8   8   8
#     4  10  18  28  40  58  81 108 137 168 202 240
#     4   8  16  27  40  55  77 107 137 164 198 238
#     4   9  15  26  40  55  76 104 132 163 198 231
#     4  10  18  29  41  57  79 105 135 170 204 237
#     4  10  17  25  37  56  79 105 133 163 192 228
#     4   9  16  29  45  61  80 108 139 171 206 249
#     4   8  16  29  45  61  82 108 137 169 209 251
#     4  10  18  29  43  61  81 107 138 171 206 244
#
# _framework density 15.636663
#
# number of rings (size 3 to 8) (size 9 to 14) (size 15 to 20)
#    0.000    2.750    0.000    6.375    0.000    0.000 
#    0.000   10.000    0.000    0.000    0.000    0.000 
#    0.000    1.000    0.000   11.500    0.000    3.750 
#
# Total GULP energy -792949.104629 kJ/mol
# GULP energy per Si atom -12389.829760 kJ/mol
# Density = 1.560107 g / cm^3
# Si number density = 15.636663 Si / 1000 Ang^3
#
#
#
# Elastic Constant Matrix: (Units=GPa)
#
#
# Indices 1 2 3 4 5 6 
#
# 1 47.9835 25.5528 19.6614 0.0000 0.0000 0.0000
# 2 25.5528 116.4041 43.4598 0.0000 0.0000 0.0000
# 3 19.6614 43.4598 84.4512 0.0000 0.0000 0.0000
# 4 0.0000 0.0000 0.0000 21.6646 0.0000 0.0000
# 5 0.0000 0.0000 0.0000 0.0000 8.8381 0.0000
# 6 0.0000 0.0000 0.0000 0.0000 0.0000 24.1573
#
#
#
# Elastic Compliance Matrix: (Units=1/GPa)
#
#
# Indices 1 2 3 4 5 6 
#
# 1 0.024466 -0.004016 -0.003630 0.000000 0.000000 0.000000
# 2 -0.004016 0.011293 -0.004877 0.000000 0.000000 0.000000
# 3 -0.003630 -0.004877 0.015196 0.000000 0.000000 0.000000
# 4 0.000000 0.000000 0.000000 0.046158 0.000000 0.000000
# 5 0.000000 0.000000 0.000000 0.000000 0.113146 0.000000
# 6 0.000000 0.000000 0.000000 0.000000 0.000000 0.041395
#
#
# Mechanical properties :
#
#
# Convention : Reuss Voigt Hill
#
# Bulk Modulus (GPa) = 38.59330 47.35410 42.97370
# Shear Modulus (GPa) = 17.52322 21.60964 19.56643
#
# Velocity S-wave (km/s) = 3.35124 3.72154 3.54123
# Velocity P-wave (km/s) = 6.30153 6.98686 6.65303
#
# Compressibility (1/GPa) = 0.02591123
#
# Stress axis : x y z
#
# Youngs Moduli (GPa) = 40.87273 88.55064 65.80782
#
# Poissons Ratio (x) = 0.35559 0.23885
# Poissons Ratio (y) = 0.16413 0.32092
# Poissons Ratio (z) = 0.14835 0.43183
#
# Static dielectric constant tensor:
#      x y z
#    x 2.818840 0.000000 0.000000 
#    y 0.000000 3.359170 0.000000 
#    z 0.000000 0.000000 3.107150 
# 
# 
# High freq. dielectric constant tensor:
#      x y z
#    x 1.595410 0.000000 0.000000 
#    y 0.000000 1.601600 0.000000 
#    z 0.000000 0.000000 1.554850 
# 
# From -- ./inp_files/36529.got.cif
#   From: 2010.03.12/outbox.cif.g09.slc.cpg/sg53_19_cif.got.tgz:36529.got - 2010.04.16 14:36:59.
