data_PCOD8217811
_publ_section_title
;
Structure prediction by ZEFSAII (Michael W. Deem and Ramdas Pophale) SiO2 
 PCOD8217811
Probable space group: P M N A
;
_chemical_formula_sum "Si O2"
_cell_formula_units_Z 56
_cell_length_a 8.980489
_cell_length_b 20.229829
_cell_length_c 17.939734
_cell_angle_alpha 90.000000
_cell_angle_beta 90.000000
_cell_angle_gamma 90.000000
_cell_volume 3259.178872
_symmetry_space_group_name_H-M "P M N A"
_symmetry_group_IT_number 53
_symmetry_cell_setting 'orthorhombic'
loop_
_space_group_symop_operation_xyz
x,y,z
1/2-x,-y,1/2+z
x,-y,-z
1/2-x,y,1/2-z
-x,-y,-z
1/2+x,y,1/2-z
-x,y,z
1/2+x,-y,1/2+z
loop_
_atom_site_type_symbol
_atom_site_label
_atom_site_fract_x
_atom_site_fract_y
_atom_site_fract_z
Si Si1 0.668150 0.565427 0.549143
Si Si2 0.332024 0.072538 0.034036
Si Si3 0.174136 0.744767 0.172554
Si Si4 0.327829 0.115766 0.604346
Si Si5 0.172115 0.360951 0.574135
Si Si6 0.324484 0.023309 0.327669
Si Si7 0.671966 0.490928 0.828443
O O1 0.668344 0.500000 0.500000
O O2 0.500000 0.588992 0.565532
O O3 0.756206 0.622982 0.506048
O O4 0.751485 0.550725 0.626577
O O5 0.500000 0.094923 0.051626
O O6 0.237083 0.073867 0.110036
O O7 0.262314 0.122023 0.973033
O O8 0.325997 0.000000 0.000000
O O9 0.250000 0.725131 0.250000
O O10 0.206745 0.821200 0.155229
O O11 0.242820 0.701886 0.106509
O O12 0.000000 0.729385 0.178926
O O13 0.500000 0.110763 0.582219
O O14 0.278724 0.051674 0.651475
O O15 0.193138 0.422141 0.629341
O O16 0.000000 0.343364 0.562462
O O17 0.250000 0.042482 0.250000
O O18 0.500000 0.032086 0.321117
O O19 0.750000 0.482900 0.750000
O O20 0.500000 0.508759 0.817578
#
# Coordination Sequence:
#
# PCOD8217811 Si02
#       7
#     8   8   8   8   8   8   8
#     4   9  17  30  48  68  91 120 154 192 235 281
#     4   9  17  29  46  67  90 118 153 191 232 279
#     4  11  22  34  48  68  95 127 163 197 230 270
#     4   9  19  33  47  65  92 126 159 193 232 274
#     4  10  20  33  48  67  94 127 161 195 232 275
#     4  10  18  29  46  68  95 123 153 191 235 279
#     4  10  19  30  46  69  96 124 155 193 236 280
#
# _framework density 17.182241000000001
#
# number of rings (size 3 to 8) (size 9 to 14) (size 15 to 20)
#    0.000    2.286    0.000    3.429    0.000    8.000 
#    0.000    0.000    0.000    0.000    0.000    1.000 
#    0.000    6.857    0.000    0.000    0.000    0.000 
#
# Total GULP energy -694535.390775 kJ/mol
# GULP energy per Si atom -12402.417692 kJ/mol
# Density = 1.714313 g / cm^3
# Si number density = 17.182241 Si / 1000 Ang^3
#
#
#
# Elastic Constant Matrix: (Units=GPa)
#
#
# Indices 1 2 3 4 5 6 
#
# 1 118.7419 17.5003 45.5663 0.0000 0.0000 0.0000
# 2 17.5003 22.0697 0.5594 0.0000 0.0000 0.0000
# 3 45.5663 0.5594 67.3482 0.0000 0.0000 0.0000
# 4 0.0000 0.0000 0.0000 16.3745 0.0000 0.0000
# 5 0.0000 0.0000 0.0000 0.0000 37.8337 0.0000
# 6 0.0000 0.0000 0.0000 0.0000 0.0000 21.6340
#
#
#
# Elastic Compliance Matrix: (Units=1/GPa)
#
#
# Indices 1 2 3 4 5 6 
#
# 1 0.013400 -0.010398 -0.008980 0.000000 0.000000 0.000000
# 2 -0.010398 0.053389 0.006592 0.000000 0.000000 0.000000
# 3 -0.008980 0.006592 0.020869 0.000000 0.000000 0.000000
# 4 0.000000 0.000000 0.000000 0.061070 0.000000 0.000000
# 5 0.000000 0.000000 0.000000 0.000000 0.026431 0.000000
# 6 0.000000 0.000000 0.000000 0.000000 0.000000 0.046224
#
#
# Mechanical properties :
#
#
# Convention : Reuss Voigt Hill
#
# Bulk Modulus (GPa) = 16.10680 37.26798 26.68739
# Shear Modulus (GPa) = 18.68104 24.80402 21.74253
#
# Velocity S-wave (km/s) = 3.30089 3.80358 3.56112
# Velocity P-wave (km/s) = 4.89104 6.40519 5.69863
#
# Compressibility (1/GPa) = 0.06208560
#
# Stress axis : x y z
#
# Youngs Moduli (GPa) = 74.62682 18.73045 47.91806
#
# Poissons Ratio (x) = 0.19476 0.43029
# Poissons Ratio (y) = 0.77597 -0.31585
# Poissons Ratio (z) = 0.67013 -0.12346
#
# Static dielectric constant tensor:
#      x y z
#    x 3.391150 0.000000 0.000000 
#    y 0.000000 2.903250 0.000000 
#    z 0.000000 0.000000 3.271560 
# 
# 
# High freq. dielectric constant tensor:
#      x y z
#    x 1.682530 0.000000 0.000000 
#    y 0.000000 1.617470 0.000000 
#    z 0.000000 0.000000 1.662410 
# 
# From -- ./inp_files/26661.got.cif
#   From: 2010.03.12/outbox.cif.g09.slc.cpg/sg53_14_cif.got.tgz:26661.got - 2010.04.16 14:36:59.
