data_PCOD8217661
_publ_section_title
;
Structure prediction by ZEFSAII (Michael W. Deem and Ramdas Pophale) SiO2 
 PCOD8217661
Probable space group: P M N A
;
_chemical_formula_sum "Si O2"
_cell_formula_units_Z 28
_cell_length_a 21.666794
_cell_length_b 11.517826
_cell_length_c 5.255179
_cell_angle_alpha 90.000000
_cell_angle_beta 90.000000
_cell_angle_gamma 90.000000
_cell_volume 1311.452849
_symmetry_space_group_name_H-M "P M N A"
_symmetry_group_IT_number 53
_symmetry_cell_setting 'orthorhombic'
loop_
_space_group_symop_operation_xyz
x,y,z
1/2-x,-y,1/2+z
x,-y,-z
1/2-x,y,1/2-z
-x,-y,-z
1/2+x,y,1/2-z
-x,y,z
1/2+x,-y,1/2+z
loop_
_atom_site_type_symbol
_atom_site_label
_atom_site_fract_x
_atom_site_fract_y
_atom_site_fract_z
Si Si1 0.431361 0.121487 0.361088
Si Si2 0.211127 0.500000 0.000000
Si Si3 0.687487 0.873942 0.917344
Si Si4 0.171454 0.248969 0.915526
O O1 0.500000 0.163153 0.281546
O O2 0.387219 0.114491 0.112858
O O3 0.400081 0.211704 0.560828
O O4 0.434660 0.000000 0.500000
O O5 0.250000 0.476966 0.250000
O O6 0.170236 0.614217 0.037507
O O7 0.710619 0.828122 0.630610
O O8 0.699769 0.777927 0.137082
O O9 0.714217 0.000000 0.000000
#
# Coordination Sequence:
#
# PCOD8217661 Si02
#       4
#     8   4   8   8
#     4   9  18  32  58  94 128 163 191 224 289 365
#     4  12  26  46  69  82 103 158 218 256 300 354
#     4  10  17  34  57  87 124 156 182 234 295 349
#     4  10  21  37  59  87 120 151 200 252 287 344
#
# _framework density 21.350369000000001
#
# number of rings (size 3 to 8) (size 9 to 14) (size 15 to 20)
#    1.714    0.286    2.857    2.571    0.000    1.714 
#    0.000    0.714    0.000   30.857    0.000    0.000 
#    0.000    0.000    0.000    0.000    0.000    0.000 
#
# Total GULP energy -346978.668599 kJ/mol
# GULP energy per Si atom -12392.095307 kJ/mol
# Density = 2.130177 g / cm^3
# Si number density = 21.350369 Si / 1000 Ang^3
#
#
#
# Elastic Constant Matrix: (Units=GPa)
#
#
# Indices 1 2 3 4 5 6 
#
# 1 81.7526 34.2486 56.4053 0.0000 0.0000 0.0000
# 2 34.2486 179.1088 61.4318 0.0000 0.0000 0.0000
# 3 56.4053 61.4318 149.8897 0.0000 0.0000 0.0000
# 4 0.0000 0.0000 0.0000 37.2404 0.0000 0.0000
# 5 0.0000 0.0000 0.0000 0.0000 26.1700 0.0000
# 6 0.0000 0.0000 0.0000 0.0000 0.0000 -8.1509
#
#
#
# Elastic Compliance Matrix: (Units=1/GPa)
#
#
# Indices 1 2 3 4 5 6 
#
# 1 0.016744 -0.001211 -0.005805 0.000000 0.000000 0.000000
# 2 -0.001211 0.006584 -0.002243 0.000000 0.000000 0.000000
# 3 -0.005805 -0.002243 0.009775 0.000000 0.000000 0.000000
# 4 0.000000 0.000000 0.000000 0.026853 0.000000 0.000000
# 5 0.000000 0.000000 0.000000 0.000000 0.038212 0.000000
# 6 0.000000 0.000000 0.000000 0.000000 0.000000 -0.122686
#
#
# Mechanical properties :
#
#
# Convention : Reuss Voigt Hill
#
# Bulk Modulus (GPa) = 68.55591 79.43584 73.99588
# Shear Modulus (GPa) = -4389.78845 28.29626 -2180.74609
#
# Velocity S-wave (km/s) = -45.39312 3.64446 -31.99416
# Velocity P-wave (km/s) = 52.10758 7.41593 36.47057
#
# Compressibility (1/GPa) = 0.01458663
#
# Stress axis : x y z
#
# Youngs Moduli (GPa) = 59.72165 151.88413 102.29969
#
# Poissons Ratio (x) = 0.18390 0.59383
# Poissons Ratio (y) = 0.07231 0.22944
# Poissons Ratio (z) = 0.34668 0.34064
#
# Static dielectric constant tensor:
#      x y z
#    x 4.442690 0.000000 0.000000 
#    y 0.000000 3.728370 0.000000 
#    z 0.000000 0.000000 3.956530 
# 
# 
# High freq. dielectric constant tensor:
#      x y z
#    x 1.842690 0.000000 0.000000 
#    y 0.000000 1.816880 0.000000 
#    z 0.000000 0.000000 1.854200 
# 
# From -- ./inp_files/3379.got.cif
#   From: 2010.03.12/outbox.cif.g09.slc.cpg/sg53_2_cif.got.tgz:3379.got - 2010.04.16 14:36:59.
