data_PCOD8217283
_publ_section_title
;
Structure prediction by ZEFSAII (Michael W. Deem and Ramdas Pophale) SiO2 
 PCOD8217283
Probable space group: P N N A
;
_chemical_formula_sum "Si O2"
_cell_formula_units_Z 40
_cell_length_a 9.400254
_cell_length_b 8.282210
_cell_length_c 22.727819
_cell_angle_alpha 90.000000
_cell_angle_beta 90.000000
_cell_angle_gamma 90.000000
_cell_volume 1769.471568
_symmetry_space_group_name_H-M "P N N A"
_symmetry_group_IT_number 52
_symmetry_cell_setting 'orthorhombic'
loop_
_space_group_symop_operation_xyz
x,y,z
1/2-x,-y,z
x,1/2-y,1/2-z
1/2-x,1/2+y,1/2-z
-x,-y,-z
1/2+x,y,-z
-x,1/2+y,1/2+z
1/2+x,1/2-y,1/2+z
loop_
_atom_site_type_symbol
_atom_site_label
_atom_site_fract_x
_atom_site_fract_y
_atom_site_fract_z
Si Si1 0.143455 0.207838 0.088222
Si Si2 0.385778 0.886274 0.297707
Si Si3 0.879899 0.889434 0.472171
Si Si4 0.458059 0.128188 0.106102
Si Si5 0.894553 0.579605 0.273419
O O1 0.066746 0.316528 0.138098
O O2 0.297597 0.182278 0.115839
O O3 0.049034 0.047405 0.073855
O O4 0.179767 0.289219 0.026525
O O5 0.347946 0.750000 0.250000
O O6 0.250000 0.000000 0.305138
O O7 0.524926 0.983121 0.277832
O O8 0.941995 0.762693 0.424563
O O9 0.750000 0.000000 0.446097
O O10 0.000000 0.000000 0.500000
O O11 0.504074 0.095015 0.171647
O O12 0.750000 0.500000 0.294821
O O13 0.846677 0.750000 0.250000
#
# Coordination Sequence:
#
# PCOD8217283 Si02
#       5
#     8   8   8   8   8
#     4  11  24  46  75 106 144 192 251 306 362 455
#     4  12  23  43  75 106 143 191 248 303 365 446
#     4  12  26  47  74 108 146 190 245 309 377 444
#     4  11  25  48  73 105 148 195 249 304 375 447
#     4  12  28  47  70 107 151 193 242 306 377 443
#
# _framework density 22.605618
#
# number of rings (size 3 to 8) (size 9 to 14) (size 15 to 20)
#    0.000    0.400    4.000    4.800    2.800    2.400 
#    3.600    0.000    0.000    0.000    0.000    0.000 
#    0.000    0.000    0.000    0.000    0.000    0.000 
#
# Total GULP energy -495888.099040 kJ/mol
# GULP energy per Si atom -12397.202476 kJ/mol
# Density = 2.255417 g / cm^3
# Si number density = 22.605618 Si / 1000 Ang^3
#
#
#
# Elastic Constant Matrix: (Units=GPa)
#
#
# Indices 1 2 3 4 5 6 
#
# 1 112.1813 53.3723 28.6323 0.0000 0.0000 0.0000
# 2 53.3723 148.8899 39.7275 0.0000 0.0000 0.0000
# 3 28.6323 39.7275 83.9156 0.0000 0.0000 0.0000
# 4 0.0000 0.0000 0.0000 15.8937 0.0000 0.0000
# 5 0.0000 0.0000 0.0000 0.0000 13.5935 0.0000
# 6 0.0000 0.0000 0.0000 0.0000 0.0000 -5.0573
#
#
#
# Elastic Compliance Matrix: (Units=1/GPa)
#
#
# Indices 1 2 3 4 5 6 
#
# 1 0.011084 -0.003393 -0.002176 0.000000 0.000000 0.000000
# 2 -0.003393 0.008726 -0.002973 0.000000 0.000000 0.000000
# 3 -0.002176 -0.002973 0.014067 0.000000 0.000000 0.000000
# 4 0.000000 0.000000 0.000000 0.062918 0.000000 0.000000
# 5 0.000000 0.000000 0.000000 0.000000 0.073564 0.000000
# 6 0.000000 0.000000 0.000000 0.000000 0.000000 -0.197735
#
#
# Mechanical properties :
#
#
# Convention : Reuss Voigt Hill
#
# Bulk Modulus (GPa) = 59.54915 65.38344 62.46629
# Shear Modulus (GPa) = -1064.82422 19.76964 -522.52729
#
# Velocity S-wave (km/s) = -21.72709 2.96048 -15.22009
# Velocity P-wave (km/s) = 24.55651 6.37748 16.76828
#
# Compressibility (1/GPa) = 0.01679285
#
# Stress axis : x y z
#
# Youngs Moduli (GPa) = 90.22414 114.60146 71.08951
#
# Poissons Ratio (x) = 0.38879 0.15466
# Poissons Ratio (y) = 0.30609 0.21138
# Poissons Ratio (z) = 0.19629 0.34076
#
# Static dielectric constant tensor:
#      x y z
#    x 3.964510 0.000000 0.000000 
#    y 0.000000 4.276790 0.000000 
#    z 0.000000 0.000000 4.250640 
# 
# 
# High freq. dielectric constant tensor:
#      x y z
#    x 1.888960 0.000000 0.000000 
#    y 0.000000 1.917750 0.000000 
#    z 0.000000 0.000000 1.890380 
# 
# From -- ./inp_files/39232.got.cif
#   From: 2010.06.25/outbox.cif.g09.slc.cpg/sg52_20_cif.got.tgz:39232.got - 2010.06.26 19:32:48.
