data_PCOD8217732
_publ_section_title
;
Structure prediction by ZEFSAII (Michael W. Deem and Ramdas Pophale) SiO2 
 PCOD8217732
Probable space group: P M N A
;
_chemical_formula_sum "Si O2"
_cell_formula_units_Z 64
_cell_length_a 8.819572
_cell_length_b 17.043736
_cell_length_c 26.621332
_cell_angle_alpha 90.000000
_cell_angle_beta 90.000000
_cell_angle_gamma 90.000000
_cell_volume 4001.677544
_symmetry_space_group_name_H-M "P M N A"
_symmetry_group_IT_number 53
_symmetry_cell_setting 'orthorhombic'
loop_
_space_group_symop_operation_xyz
x,y,z
1/2-x,-y,1/2+z
x,-y,-z
1/2-x,y,1/2-z
-x,-y,-z
1/2+x,y,1/2-z
-x,y,z
1/2+x,-y,1/2+z
loop_
_atom_site_type_symbol
_atom_site_label
_atom_site_fract_x
_atom_site_fract_y
_atom_site_fract_z
Si Si1 0.323512 0.716355 0.617734
Si Si2 0.324243 0.516410 0.393004
Si Si3 0.326045 0.669841 0.442935
Si Si4 0.173867 0.410645 0.196694
Si Si5 0.829618 0.984261 0.058785
Si Si6 0.822085 0.395246 0.460595
Si Si7 0.322905 0.170549 0.961740
Si Si8 0.322414 0.140299 0.076923
O O1 0.500000 0.710873 0.602468
O O2 0.296315 0.674686 0.671490
O O3 0.217812 0.674046 0.577435
O O4 0.267353 0.806390 0.617526
O O5 0.500000 0.491452 0.401342
O O6 0.306161 0.611139 0.394939
O O7 0.267137 0.480703 0.339912
O O8 0.223890 0.478830 0.437419
O O9 0.500000 0.695748 0.449540
O O10 0.274055 0.618137 0.489669
O O11 0.226067 0.747610 0.436626
O O12 0.250000 0.415746 0.250000
O O13 0.000000 0.424269 0.207457
O O14 0.758498 0.898950 0.068954
O O15 0.000000 0.986237 0.080130
O O16 0.730857 0.051077 0.086074
O O17 0.826567 0.000000 0.000000
O O18 0.000000 0.393115 0.473043
O O19 0.500000 0.158356 0.954944
O O20 0.279056 0.169200 0.020676
O O21 0.500000 0.145846 0.087073
#
# Coordination Sequence:
#
# PCOD8217732 Si02
#       8
#     8   8   8   8   8   8   8   8
#     4  10  19  31  47  66  90 120 154 187 223 274
#     4   9  20  35  47  63  86 116 151 185 224 275
#     4  11  20  30  45  61  86 122 156 187 223 267
#     4   9  19  35  52  69  89 114 146 187 233 277
#     4   9  17  28  42  59  83 120 160 188 218 262
#     4  11  20  29  42  63  89 117 150 189 227 263
#     4  10  19  29  41  61  90 120 155 195 228 257
#     4  10  18  28  43  64  90 118 152 193 228 258
#
# _framework density 15.993294000000001
#
# number of rings (size 3 to 8) (size 9 to 14) (size 15 to 20)
#    0.000    2.125    1.250    4.125    0.000    7.500 
#    0.000    0.000    0.000    0.000    0.000    0.000 
#    0.000    1.000    0.000    6.250    0.000    4.250 
#
# Total GULP energy -793430.916094 kJ/mol
# GULP energy per Si atom -12397.358064 kJ/mol
# Density = 1.595689 g / cm^3
# Si number density = 15.993294 Si / 1000 Ang^3
#
#
#
# Elastic Constant Matrix: (Units=GPa)
#
#
# Indices 1 2 3 4 5 6 
#
# 1 55.8886 29.6281 10.9516 0.0000 0.0000 0.0000
# 2 29.6281 120.1114 33.8941 0.0000 0.0000 0.0000
# 3 10.9516 33.8941 41.1545 0.0000 0.0000 0.0000
# 4 0.0000 0.0000 0.0000 12.3820 0.0000 0.0000
# 5 0.0000 0.0000 0.0000 0.0000 19.0657 0.0000
# 6 0.0000 0.0000 0.0000 0.0000 0.0000 29.0627
#
#
#
# Elastic Compliance Matrix: (Units=1/GPa)
#
#
# Indices 1 2 3 4 5 6 
#
# 1 0.020675 -0.004621 -0.001696 0.000000 0.000000 0.000000
# 2 -0.004621 0.011879 -0.008554 0.000000 0.000000 0.000000
# 3 -0.001696 -0.008554 0.031795 0.000000 0.000000 0.000000
# 4 0.000000 0.000000 0.000000 0.080762 0.000000 0.000000
# 5 0.000000 0.000000 0.000000 0.000000 0.052450 0.000000
# 6 0.000000 0.000000 0.000000 0.000000 0.000000 0.034408
#
#
# Mechanical properties :
#
#
# Convention : Reuss Voigt Hill
#
# Bulk Modulus (GPa) = 28.89573 40.67798 34.78685
# Shear Modulus (GPa) = 18.29843 21.61414 19.95628
#
# Velocity S-wave (km/s) = 3.38617 3.68020 3.53624
# Velocity P-wave (km/s) = 5.77883 6.59910 6.20254
#
# Compressibility (1/GPa) = 0.03460719
#
# Stress axis : x y z
#
# Youngs Moduli (GPa) = 48.36774 84.17954 31.45178
#
# Poissons Ratio (x) = 0.38903 0.05333
# Poissons Ratio (y) = 0.22353 0.26903
# Poissons Ratio (z) = 0.08202 0.72006
#
# Static dielectric constant tensor:
#      x y z
#    x 3.087820 0.000000 0.000000 
#    y 0.000000 3.216090 0.000000 
#    z 0.000000 0.000000 2.677260 
# 
# 
# High freq. dielectric constant tensor:
#      x y z
#    x 1.628600 0.000000 0.000000 
#    y 0.000000 1.623050 0.000000 
#    z 0.000000 0.000000 1.546600 
# 
# From -- ./inp_files/34423.got.cif
#   From: 2010.03.12/outbox.cif.g09.slc.cpg/sg53_18_cif.got.tgz:34423.got - 2010.04.16 14:36:59.
