data_PCOD8217092
_publ_section_title
;
Structure prediction by ZEFSAII (Michael W. Deem and Ramdas Pophale) SiO2 
 PCOD8217092
Probable space group: P N N A
;
_chemical_formula_sum "Si O2"
_cell_formula_units_Z 40
_cell_length_a 9.351971
_cell_length_b 7.725392
_cell_length_c 25.360699
_cell_angle_alpha 90.000000
_cell_angle_beta 90.000000
_cell_angle_gamma 90.000000
_cell_volume 1832.250701
_symmetry_space_group_name_H-M "P N N A"
_symmetry_group_IT_number 52
_symmetry_cell_setting 'orthorhombic'
loop_
_space_group_symop_operation_xyz
x,y,z
1/2-x,-y,z
x,1/2-y,1/2-z
1/2-x,1/2+y,1/2-z
-x,-y,-z
1/2+x,y,-z
-x,1/2+y,1/2+z
1/2+x,1/2-y,1/2+z
loop_
_atom_site_type_symbol
_atom_site_label
_atom_site_fract_x
_atom_site_fract_y
_atom_site_fract_z
Si Si1 0.294754 0.193904 0.449563
Si Si2 0.260284 0.707225 0.168095
Si Si3 0.250000 0.000000 0.877575
Si Si4 0.973257 0.250000 0.750000
Si Si5 0.049949 0.614730 0.710252
Si Si6 0.419297 0.651830 0.529649
O O1 0.250339 0.268060 0.392488
O O2 0.214157 0.301030 0.493840
O O3 0.464721 0.198570 0.459959
O O4 0.250000 0.000000 0.455401
O O5 0.250000 0.500000 0.173336
O O6 0.119509 0.769273 0.197320
O O7 0.394497 0.804642 0.194811
O O8 0.351740 0.117788 0.841460
O O9 0.144046 0.112199 0.913119
O O10 0.058500 0.430721 0.742388
O O11 0.122285 0.750000 0.750000
O O12 0.500000 0.500000 0.500000
#
# Coordination Sequence:
#
# PCOD8217092 Si02
#       6
#     8   8   4   4   8   8
#     4  11  25  42  73 108 148 187 245 308 371 437
#     4  11  21  42  71 107 142 193 242 306 365 432
#     4  12  28  46  76 106 146 202 240 302 390 440
#     4  12  22  44  74 108 144 192 252 298 372 434
#     4  12  26  46  72 106 152 191 248 310 364 449
#     4  12  23  48  72 105 143 192 247 302 367 447
#
# _framework density 21.831074000000001
#
# number of rings (size 3 to 8) (size 9 to 14) (size 15 to 20)
#    0.000    0.400    5.000    3.600    1.400    1.600 
#    0.000    0.000    0.000    0.000    0.000    0.000 
#    0.000    0.000    0.000    0.000    0.000    0.000 
#
# Total GULP energy -495701.053244 kJ/mol
# GULP energy per Si atom -12392.526331 kJ/mol
# Density = 2.178139 g / cm^3
# Si number density = 21.831074 Si / 1000 Ang^3
#
#
#
# Elastic Constant Matrix: (Units=GPa)
#
#
# Indices 1 2 3 4 5 6 
#
# 1 114.7462 52.0441 53.7791 0.0000 0.0000 0.0000
# 2 52.0441 118.4319 59.6219 0.0000 0.0000 0.0000
# 3 53.7791 59.6219 159.6957 0.0000 0.0000 0.0000
# 4 0.0000 0.0000 0.0000 36.3493 0.0000 0.0000
# 5 0.0000 0.0000 0.0000 0.0000 53.8722 0.0000
# 6 0.0000 0.0000 0.0000 0.0000 0.0000 33.8734
#
#
#
# Elastic Compliance Matrix: (Units=1/GPa)
#
#
# Indices 1 2 3 4 5 6 
#
# 1 0.011626 -0.003864 -0.002473 0.000000 0.000000 0.000000
# 2 -0.003864 0.011682 -0.003060 0.000000 0.000000 0.000000
# 3 -0.002473 -0.003060 0.008237 0.000000 0.000000 0.000000
# 4 0.000000 0.000000 0.000000 0.027511 0.000000 0.000000
# 5 0.000000 0.000000 0.000000 0.000000 0.018562 0.000000
# 6 0.000000 0.000000 0.000000 0.000000 0.000000 0.029522
#
#
# Mechanical properties :
#
#
# Convention : Reuss Voigt Hill
#
# Bulk Modulus (GPa) = 78.42145 80.41821 79.41983
# Shear Modulus (GPa) = 38.40660 39.98090 39.19375
#
# Velocity S-wave (km/s) = 4.19891 4.28410 4.24172
# Velocity P-wave (km/s) = 7.71412 7.83504 7.77482
#
# Compressibility (1/GPa) = 0.01275161
#
# Stress axis : x y z
#
# Youngs Moduli (GPa) = 86.01075 85.59834 121.40204
#
# Poissons Ratio (x) = 0.33079 0.30017
# Poissons Ratio (y) = 0.33238 0.37152
# Poissons Ratio (z) = 0.21267 0.26195
#
# Static dielectric constant tensor:
#      x y z
#    x 4.294410 0.000000 0.000000 
#    y 0.000000 4.281450 0.000000 
#    z 0.000000 0.000000 4.448320 
# 
# 
# High freq. dielectric constant tensor:
#      x y z
#    x 1.863120 0.000000 0.000000 
#    y 0.000000 1.858370 0.000000 
#    z 0.000000 0.000000 1.878210 
# 
# From -- ./inp_files/39286.got.cif
#   From: 2010.06.25/outbox.cif.g09.slc.cpg/sg52_20_cif.got.tgz:39286.got - 2010.06.26 19:32:48.
