data_PCOD8217390
_publ_section_title
;
Structure prediction by ZEFSAII (Michael W. Deem and Ramdas Pophale) SiO2 
 PCOD8217390
Probable space group: P N N A
;
_chemical_formula_sum "Si O2"
_cell_formula_units_Z 24
_cell_length_a 9.955625
_cell_length_b 4.926497
_cell_length_c 21.426536
_cell_angle_alpha 90.000000
_cell_angle_beta 90.000000
_cell_angle_gamma 90.000000
_cell_volume 1050.893527
_symmetry_space_group_name_H-M "P N N A"
_symmetry_group_IT_number 52
_symmetry_cell_setting 'orthorhombic'
loop_
_space_group_symop_operation_xyz
x,y,z
1/2-x,-y,z
x,1/2-y,1/2-z
1/2-x,1/2+y,1/2-z
-x,-y,-z
1/2+x,y,-z
-x,1/2+y,1/2+z
1/2+x,1/2-y,1/2+z
loop_
_atom_site_type_symbol
_atom_site_label
_atom_site_fract_x
_atom_site_fract_y
_atom_site_fract_z
Si Si1 0.821733 0.250000 0.750000
Si Si2 0.907047 0.545041 0.559640
Si Si3 0.750000 0.500000 0.204496
Si Si4 0.519741 0.951370 0.637959
O O1 0.750000 0.500000 0.712250
O O2 0.899176 0.055095 0.702224
O O3 0.750000 0.500000 0.543314
O O4 0.970819 0.349924 0.611241
O O5 0.000000 0.500000 0.500000
O O6 0.918468 0.848707 0.586450
O O7 0.721879 0.250000 0.250000
O O8 0.628587 0.545336 0.156670
#
# Coordination Sequence:
#
# PCOD8217390 Si02
#       4
#     4   8   4   8
#     4  12  24  42  72 104 142 184 226 294 370 428
#     4  12  28  49  74 104 140 190 245 296 354 418
#     4  12  26  46  72 110 144 188 230 282 362 436
#     4  12  26  46  73 104 146 182 239 294 354 432
#
# _framework density 22.837707999999999
#
# number of rings (size 3 to 8) (size 9 to 14) (size 15 to 20)
#    0.000    0.000    1.667    9.000    7.000    0.000 
#    0.000    0.000    0.000    0.000    0.000    0.000 
#    0.000    0.000    0.000    0.000    0.000    0.000 
#
# Total GULP energy -297520.772549 kJ/mol
# GULP energy per Si atom -12396.698856 kJ/mol
# Density = 2.278573 g / cm^3
# Si number density = 22.837708 Si / 1000 Ang^3
#
#
#
# Elastic Constant Matrix: (Units=GPa)
#
#
# Indices 1 2 3 4 5 6 
#
# 1 162.2227 27.9608 55.0143 0.0000 0.0000 0.0000
# 2 27.9608 114.9079 27.5704 0.0000 0.0000 0.0000
# 3 55.0143 27.5704 111.0086 0.0000 0.0000 0.0000
# 4 0.0000 0.0000 0.0000 44.6100 0.0000 0.0000
# 5 0.0000 0.0000 0.0000 0.0000 55.1510 0.0000
# 6 0.0000 0.0000 0.0000 0.0000 0.0000 34.0244
#
#
#
# Elastic Compliance Matrix: (Units=1/GPa)
#
#
# Indices 1 2 3 4 5 6 
#
# 1 0.007515 -0.000994 -0.003477 0.000000 0.000000 0.000000
# 2 -0.000994 0.009386 -0.001838 0.000000 0.000000 0.000000
# 3 -0.003477 -0.001838 0.011188 0.000000 0.000000 0.000000
# 4 0.000000 0.000000 0.000000 0.022416 0.000000 0.000000
# 5 0.000000 0.000000 0.000000 0.000000 0.018132 0.000000
# 6 0.000000 0.000000 0.000000 0.000000 0.000000 0.029391
#
#
# Mechanical properties :
#
#
# Convention : Reuss Voigt Hill
#
# Bulk Modulus (GPa) = 64.64570 67.69222 66.16896
# Shear Modulus (GPa) = 43.17629 45.26334 44.21982
#
# Velocity S-wave (km/s) = 4.35279 4.45675 4.40507
# Velocity P-wave (km/s) = 7.32327 7.49589 7.41008
#
# Compressibility (1/GPa) = 0.01546893
#
# Stress axis : x y z
#
# Youngs Moduli (GPa) = 133.06674 106.54583 89.37973
#
# Poissons Ratio (x) = 0.10594 0.31081
# Poissons Ratio (y) = 0.13231 0.16430
# Poissons Ratio (z) = 0.46273 0.19586
#
# Static dielectric constant tensor:
#      x y z
#    x 4.363210 0.000000 0.000000 
#    y 0.000000 3.626570 0.000000 
#    z 0.000000 0.000000 4.155250 
# 
# 
# High freq. dielectric constant tensor:
#      x y z
#    x 1.911220 0.000000 0.000000 
#    y 0.000000 1.923540 0.000000 
#    z 0.000000 0.000000 1.903970 
# 
# From -- ./inp_files/39057.got.cif
#   From: 2010.06.25/outbox.cif.g09.slc.cpg/sg52_20_cif.got.tgz:39057.got - 2010.06.26 19:32:48.
