data_PCOD8217918
_publ_section_title
;
Structure prediction by ZEFSAII (Michael W. Deem and Ramdas Pophale) SiO2 
 PCOD8217918
Probable space group: P M N A
;
_chemical_formula_sum "Si O2"
_cell_formula_units_Z 64
_cell_length_a 14.736089
_cell_length_b 24.346402
_cell_length_c 9.329371
_cell_angle_alpha 90.000000
_cell_angle_beta 90.000000
_cell_angle_gamma 90.000000
_cell_volume 3347.105400
_symmetry_space_group_name_H-M "P M N A"
_symmetry_group_IT_number 53
_symmetry_cell_setting 'orthorhombic'
loop_
_space_group_symop_operation_xyz
x,y,z
1/2-x,-y,1/2+z
x,-y,-z
1/2-x,y,1/2-z
-x,-y,-z
1/2+x,y,1/2-z
-x,y,z
1/2+x,-y,1/2+z
loop_
_atom_site_type_symbol
_atom_site_label
_atom_site_fract_x
_atom_site_fract_y
_atom_site_fract_z
Si Si1 0.106310 0.943210 0.429692
Si Si2 0.748919 0.125552 0.086593
Si Si3 0.248453 0.759115 0.471020
Si Si4 0.102152 0.215697 0.754547
Si Si5 0.603386 0.447134 0.914990
Si Si6 0.896481 0.446398 0.917626
Si Si7 0.749172 0.641092 0.080681
Si Si8 0.100427 0.905051 0.131169
O O1 0.157090 0.893106 0.508725
O O2 0.129183 0.947081 0.258602
O O3 0.000000 0.932358 0.453210
O O4 0.138582 0.000000 0.500000
O O5 0.750000 0.105356 0.250000
O O6 0.759563 0.192279 0.087650
O O7 0.831137 0.095643 0.001799
O O8 0.340735 0.756218 0.379563
O O9 0.155128 0.773814 0.391656
O O10 0.241908 0.695527 0.520885
O O11 0.098909 0.151446 0.782487
O O12 0.000000 0.240504 0.747326
O O13 0.500000 0.433878 0.956121
O O14 0.615759 0.460300 0.748482
O O15 0.661213 0.394351 0.958433
O O16 0.639433 0.500000 0.000000
O O17 0.838446 0.393207 0.960984
O O18 0.000000 0.433028 0.958785
O O19 0.860738 0.500000 0.000000
O O20 0.750000 0.657576 0.250000
O O21 0.000000 0.918907 0.070168
#
# Coordination Sequence:
#
# PCOD8217918 Si02
#       8
#     8   8   8   8   8   8   8   8
#     4  10  21  38  62  90 115 145 192 243 287 334
#     4  11  23  37  57  83 119 160 191 230 281 339
#     4  10  19  33  48  78 111 136 181 229 269 336
#     4   9  16  29  53  77  99 135 176 222 275 320
#     4   9  18  32  49  70  97 128 166 213 264 320
#     4   9  18  32  50  72  97 131 173 216 267 323
#     4  10  18  30  48  76 103 128 168 225 267 312
#     4   9  18  36  61  85 110 148 193 235 280 333
#
# _framework density 19.120998
#
# number of rings (size 3 to 8) (size 9 to 14) (size 15 to 20)
#    0.000    2.375    2.500    0.750    0.000    2.500 
#    0.000    1.250    0.000    2.625    0.000    0.000 
#    0.000    0.000    0.000    0.000    0.000    0.000 
#
# Total GULP energy -793168.979978 kJ/mol
# GULP energy per Si atom -12393.265312 kJ/mol
# Density = 1.907748 g / cm^3
# Si number density = 19.120998 Si / 1000 Ang^3
#
#
#
# Elastic Constant Matrix: (Units=GPa)
#
#
# Indices 1 2 3 4 5 6 
#
# 1 114.4571 34.1828 43.2326 0.0000 0.0000 0.0000
# 2 34.1828 101.0530 36.2355 0.0000 0.0000 0.0000
# 3 43.2326 36.2355 85.5199 0.0000 0.0000 0.0000
# 4 0.0000 0.0000 0.0000 21.5641 0.0000 0.0000
# 5 0.0000 0.0000 0.0000 0.0000 18.2010 0.0000
# 6 0.0000 0.0000 0.0000 0.0000 0.0000 18.4938
#
#
#
# Elastic Compliance Matrix: (Units=1/GPa)
#
#
# Indices 1 2 3 4 5 6 
#
# 1 0.011153 -0.002065 -0.004763 0.000000 0.000000 0.000000
# 2 -0.002065 0.012051 -0.004062 0.000000 0.000000 0.000000
# 3 -0.004763 -0.004062 0.015822 0.000000 0.000000 0.000000
# 4 0.000000 0.000000 0.000000 0.046373 0.000000 0.000000
# 5 0.000000 0.000000 0.000000 0.000000 0.054942 0.000000
# 6 0.000000 0.000000 0.000000 0.000000 0.000000 0.054072
#
#
# Mechanical properties :
#
#
# Convention : Reuss Voigt Hill
#
# Bulk Modulus (GPa) = 57.98572 58.70353 58.34462
# Shear Modulus (GPa) = 22.52838 24.14371 23.33605
#
# Velocity S-wave (km/s) = 3.43622 3.55728 3.49727
# Velocity P-wave (km/s) = 6.79227 6.90218 6.84744
#
# Compressibility (1/GPa) = 0.01724563
#
# Stress axis : x y z
#
# Youngs Moduli (GPa) = 89.66495 82.98178 63.20179
#
# Poissons Ratio (x) = 0.17132 0.30104
# Poissons Ratio (y) = 0.18512 0.25675
# Poissons Ratio (z) = 0.42709 0.33710
#
# Static dielectric constant tensor:
#      x y z
#    x 3.823890 0.000000 0.000000 
#    y 0.000000 3.617360 0.000000 
#    z 0.000000 0.000000 3.186620 
# 
# 
# High freq. dielectric constant tensor:
#      x y z
#    x 1.755690 0.000000 0.000000 
#    y 0.000000 1.741810 0.000000 
#    z 0.000000 0.000000 1.703500 
# 
# From -- ./inp_files/8918.got.cif
#   From: 2010.03.12/outbox.cif.g09.slc.cpg/sg53_5_cif.got.tgz:8918.got - 2010.04.16 14:36:59.
