data_PCOD8217101
_publ_section_title
;
Structure prediction by ZEFSAII (Michael W. Deem and Ramdas Pophale) SiO2 
 PCOD8217101
Probable space group: P N N A
;
_chemical_formula_sum "Si O2"
_cell_formula_units_Z 48
_cell_length_a 16.325399
_cell_length_b 15.485608
_cell_length_c 9.453624
_cell_angle_alpha 90.000000
_cell_angle_beta 90.000000
_cell_angle_gamma 90.000000
_cell_volume 2389.958671
_symmetry_space_group_name_H-M "P N N A"
_symmetry_group_IT_number 52
_symmetry_cell_setting 'orthorhombic'
loop_
_space_group_symop_operation_xyz
x,y,z
1/2-x,-y,z
x,1/2-y,1/2-z
1/2-x,1/2+y,1/2-z
-x,-y,-z
1/2+x,y,-z
-x,1/2+y,1/2+z
1/2+x,1/2-y,1/2+z
loop_
_atom_site_type_symbol
_atom_site_label
_atom_site_fract_x
_atom_site_fract_y
_atom_site_fract_z
Si Si1 0.105743 0.175245 0.548251
Si Si2 0.250000 0.000000 0.115900
Si Si3 0.049460 0.468261 0.744192
Si Si4 0.763121 0.750000 0.250000
Si Si5 0.008380 0.335011 0.502377
Si Si6 0.841342 0.390855 0.394046
Si Si7 0.099391 0.089049 0.256671
O O1 0.084502 0.088233 0.629848
O O2 0.183577 0.223965 0.613896
O O3 0.029333 0.241012 0.563948
O O4 0.123049 0.151284 0.386115
O O5 0.321291 0.965633 0.216505
O O6 0.217127 0.921827 0.020004
O O7 0.018292 0.410775 0.615027
O O8 0.123833 0.527016 0.689768
O O9 0.974229 0.525068 0.801339
O O10 0.709109 0.667194 0.285942
O O11 0.070216 0.352271 0.373377
O O12 0.914571 0.332450 0.454714
#
# Coordination Sequence:
#
# PCOD8217101 Si02
#       7
#     8   4   8   4   8   8   8
#     4  12  25  44  65  98 138 167 217 280 336 385
#     4  12  20  42  64  94 134 166 216 276 332 386
#     4  11  21  46  69  94 126 178 227 259 326 405
#     4  12  26  42  64 104 136 176 216 286 344 382
#     4  11  21  45  69  94 125 178 226 265 321 404
#     4  11  24  40  71  94 127 178 226 264 328 409
#     4  11  24  39  68  96 126 173 221 269 325 398
#
# _framework density 20.084029000000001
#
# number of rings (size 3 to 8) (size 9 to 14) (size 15 to 20)
#    0.000    0.667    5.000    4.000    4.667    1.333 
#    3.000    0.000    0.000    0.000    0.000    0.000 
#    0.000    0.000    0.000    0.000    0.000    0.000 
#
# Total GULP energy -595503.676465 kJ/mol
# GULP energy per Si atom -12406.326593 kJ/mol
# Density = 2.003832 g / cm^3
# Si number density = 20.084029 Si / 1000 Ang^3
#
#
#
# Elastic Constant Matrix: (Units=GPa)
#
#
# Indices 1 2 3 4 5 6 
#
# 1 72.7075 15.1025 8.9029 0.0000 0.0000 0.0000
# 2 15.1025 82.7764 9.6610 0.0000 0.0000 0.0000
# 3 8.9029 9.6610 71.7751 0.0000 0.0000 0.0000
# 4 0.0000 0.0000 0.0000 44.6889 0.0000 0.0000
# 5 0.0000 0.0000 0.0000 0.0000 19.0854 0.0000
# 6 0.0000 0.0000 0.0000 0.0000 0.0000 27.6816
#
#
#
# Elastic Compliance Matrix: (Units=1/GPa)
#
#
# Indices 1 2 3 4 5 6 
#
# 1 0.014445 -0.002465 -0.001460 0.000000 0.000000 0.000000
# 2 -0.002465 0.012694 -0.001403 0.000000 0.000000 0.000000
# 3 -0.001460 -0.001403 0.014302 0.000000 0.000000 0.000000
# 4 0.000000 0.000000 0.000000 0.022377 0.000000 0.000000
# 5 0.000000 0.000000 0.000000 0.000000 0.052396 0.000000
# 6 0.000000 0.000000 0.000000 0.000000 0.000000 0.036125
#
#
# Mechanical properties :
#
#
# Convention : Reuss Voigt Hill
#
# Bulk Modulus (GPa) = 32.48285 32.73241 32.60763
# Shear Modulus (GPa) = 28.85893 31.19735 30.02814
#
# Velocity S-wave (km/s) = 3.79477 3.94552 3.87088
# Velocity P-wave (km/s) = 5.95054 6.09010 6.02073
#
# Compressibility (1/GPa) = 0.03078548
#
# Stress axis : x y z
#
# Youngs Moduli (GPa) = 69.23046 78.77612 69.91873
#
# Poissons Ratio (x) = 0.19418 0.10207
# Poissons Ratio (y) = 0.17065 0.09809
# Poissons Ratio (z) = 0.10107 0.11051
#
# Static dielectric constant tensor:
#      x y z
#    x 3.713470 0.000000 0.000000 
#    y 0.000000 3.758530 0.000000 
#    z 0.000000 0.000000 3.652410 
# 
# 
# High freq. dielectric constant tensor:
#      x y z
#    x 1.788860 0.000000 0.000000 
#    y 0.000000 1.795210 0.000000 
#    z 0.000000 0.000000 1.784370 
# 
# From -- ./inp_files/12137.got.cif
#   From: 2010.06.25/outbox.cif.g09.slc.cpg/sg52_7_cif.got.tgz:12137.got - 2010.06.26 19:32:48.
