data_PCOD8217136
_publ_section_title
;
Structure prediction by ZEFSAII (Michael W. Deem and Ramdas Pophale) SiO2 
 PCOD8217136
Probable space group: P N N A
;
_chemical_formula_sum "Si O2"
_cell_formula_units_Z 64
_cell_length_a 13.714300
_cell_length_b 11.530322
_cell_length_c 19.792025
_cell_angle_alpha 90.000000
_cell_angle_beta 90.000000
_cell_angle_gamma 90.000000
_cell_volume 3129.718752
_symmetry_space_group_name_H-M "P N N A"
_symmetry_group_IT_number 52
_symmetry_cell_setting 'orthorhombic'
loop_
_space_group_symop_operation_xyz
x,y,z
1/2-x,-y,z
x,1/2-y,1/2-z
1/2-x,1/2+y,1/2-z
-x,-y,-z
1/2+x,y,-z
-x,1/2+y,1/2+z
1/2+x,1/2-y,1/2+z
loop_
_atom_site_type_symbol
_atom_site_label
_atom_site_fract_x
_atom_site_fract_y
_atom_site_fract_z
Si Si1 0.554804 0.609118 0.931930
Si Si2 0.068206 0.725216 0.675048
Si Si3 0.762126 0.197565 0.516745
Si Si4 0.952027 0.987619 0.106985
Si Si5 0.648249 0.553701 0.530391
Si Si6 0.453044 0.746772 0.825432
Si Si7 0.241608 0.362598 0.863531
Si Si8 0.945117 0.652582 0.936379
O O1 0.666126 0.596692 0.957351
O O2 0.541444 0.687727 0.866241
O O3 0.527336 0.477564 0.914156
O O4 0.486773 0.669145 0.988489
O O5 0.025836 0.750000 0.750000
O O6 0.074241 0.587998 0.660889
O O7 0.169992 0.793586 0.670714
O O8 0.995355 0.765593 0.617141
O O9 0.831755 0.309754 0.524354
O O10 0.730827 0.176281 0.440592
O O11 0.666888 0.194442 0.563580
O O12 0.923105 0.870893 0.145127
O O13 0.883525 0.000932 0.041535
O O14 0.065937 0.979484 0.085365
O O15 0.750000 0.500000 0.554584
O O16 0.494038 0.750000 0.750000
O O17 0.357003 0.668020 0.825095
O O18 0.250000 0.500000 0.857733
#
# Coordination Sequence:
#
# PCOD8217136 Si02
#       8
#     8   8   8   8   8   8   8   8
#     4  11  22  41  67  99 129 172 221 279 328 385
#     4  12  27  45  66  96 136 175 221 271 330 405
#     4  12  21  40  67 106 129 165 227 280 337 384
#     4  11  25  43  67  98 127 180 222 262 338 393
#     4  11  22  40  69  98 137 167 219 281 324 398
#     4  12  27  44  66  95 138 180 219 268 330 404
#     4  12  24  42  68 101 134 171 218 273 335 396
#     4  11  23  40  70  96 131 172 220 279 332 382
#
# _framework density 20.449121000000002
#
# number of rings (size 3 to 8) (size 9 to 14) (size 15 to 20)
#    0.000    0.500    5.000    3.750    5.250    0.000 
#    0.000    0.625    0.000    0.000    0.000    0.000 
#    0.000    0.000    0.000    0.000    0.000    0.000 
#
# Total GULP energy -793694.754527 kJ/mol
# GULP energy per Si atom -12401.480539 kJ/mol
# Density = 2.040258 g / cm^3
# Si number density = 20.449121 Si / 1000 Ang^3
#
#
#
# Elastic Constant Matrix: (Units=GPa)
#
#
# Indices 1 2 3 4 5 6 
#
# 1 88.9859 14.9649 -4.5422 0.0000 0.0000 0.0000
# 2 14.9649 101.5202 38.2521 0.0000 0.0000 0.0000
# 3 -4.5422 38.2521 66.4303 0.0000 0.0000 0.0000
# 4 0.0000 0.0000 0.0000 17.5293 0.0000 0.0000
# 5 0.0000 0.0000 0.0000 0.0000 16.1934 0.0000
# 6 0.0000 0.0000 0.0000 0.0000 0.0000 9.3732
#
#
#
# Elastic Compliance Matrix: (Units=1/GPa)
#
#
# Indices 1 2 3 4 5 6 
#
# 1 0.011794 -0.002608 0.002308 0.000000 0.000000 0.000000
# 2 -0.002608 0.013156 -0.007754 0.000000 0.000000 0.000000
# 3 0.002308 -0.007754 0.019676 0.000000 0.000000 0.000000
# 4 0.000000 0.000000 0.000000 0.057047 0.000000 0.000000
# 5 0.000000 0.000000 0.000000 0.000000 0.061754 0.000000
# 6 0.000000 0.000000 0.000000 0.000000 0.000000 0.106688
#
#
# Mechanical properties :
#
#
# Convention : Reuss Voigt Hill
#
# Bulk Modulus (GPa) = 35.06473 39.36512 37.21492
# Shear Modulus (GPa) = 16.90731 22.50327 19.70529
#
# Velocity S-wave (km/s) = 2.87853 3.32090 3.10760
# Velocity P-wave (km/s) = 5.31342 5.83066 5.57804
#
# Compressibility (1/GPa) = 0.02851869
#
# Stress axis : x y z
#
# Youngs Moduli (GPa) = 84.78734 76.00837 50.82278
#
# Poissons Ratio (x) = 0.19826 -0.11732
# Poissons Ratio (y) = 0.22115 0.39409
# Poissons Ratio (z) = -0.19572 0.58938
#
# Static dielectric constant tensor:
#      x y z
#    x 3.736420 0.000000 0.000000 
#    y 0.000000 3.948290 0.000000 
#    z 0.000000 0.000000 3.559290 
# 
# 
# High freq. dielectric constant tensor:
#      x y z
#    x 1.803840 0.000000 0.000000 
#    y 0.000000 1.821250 0.000000 
#    z 0.000000 0.000000 1.777810 
# 
# From -- ./inp_files/33306.got.cif
#   From: 2010.06.25/outbox.cif.g09.slc.cpg/sg52_17_cif.got.tgz:33306.got - 2010.06.26 19:32:48.
