data_PCOD8217944
_publ_section_title
;
Structure prediction by ZEFSAII (Michael W. Deem and Ramdas Pophale) SiO2 
 PCOD8217944
Probable space group: P M N A
;
_chemical_formula_sum "Si O2"
_cell_formula_units_Z 52
_cell_length_a 9.842399
_cell_length_b 13.899720
_cell_length_c 20.377227
_cell_angle_alpha 90.000000
_cell_angle_beta 90.000000
_cell_angle_gamma 90.000000
_cell_volume 2787.738944
_symmetry_space_group_name_H-M "P M N A"
_symmetry_group_IT_number 53
_symmetry_cell_setting 'orthorhombic'
loop_
_space_group_symop_operation_xyz
x,y,z
1/2-x,-y,1/2+z
x,-y,-z
1/2-x,y,1/2-z
-x,-y,-z
1/2+x,y,1/2-z
-x,y,z
1/2+x,-y,1/2+z
loop_
_atom_site_type_symbol
_atom_site_label
_atom_site_fract_x
_atom_site_fract_y
_atom_site_fract_z
Si Si1 0.656466 0.211994 0.047935
Si Si2 0.853646 0.318339 0.870077
Si Si3 0.347289 0.874451 0.449236
Si Si4 0.846847 0.835023 0.693707
Si Si5 0.250000 0.207517 0.750000
Si Si6 0.656342 0.597414 0.033931
Si Si7 0.849594 0.949711 0.344655
O O1 0.500000 0.178722 0.037341
O O2 0.692015 0.214486 0.124785
O O3 0.757235 0.133379 0.015271
O O4 0.680351 0.317169 0.017806
O O5 0.858453 0.230104 0.919412
O O6 0.831900 0.279350 0.796884
O O7 0.737840 0.389294 0.897644
O O8 0.000000 0.371388 0.871138
O O9 0.500000 0.914969 0.463420
O O10 0.268049 0.943419 0.398961
O O11 0.750000 0.792206 0.750000
O O12 0.000000 0.807812 0.713060
O O13 0.828635 0.949898 0.691759
O O14 0.153606 0.138310 0.707060
O O15 0.500000 0.589820 0.054926
O O16 0.707715 0.500000 0.000000
O O17 0.000000 0.945961 0.377474
#
# Coordination Sequence:
#
# PCOD8217944 Si02
#       7
#     8   8   8   8   4   8   8
#     4   9  18  34  54  74  99 130 168 211 256 305
#     4   9  18  30  48  76 105 133 165 206 254 302
#     4   9  18  31  48  73 102 132 169 211 255 298
#     4  10  21  35  51  72  98 136 177 212 249 295
#     4  10  18  30  50  74 104 138 176 206 244 294
#     4   9  18  34  57  80  99 128 167 209 258 313
#     4  10  19  31  48  70 100 138 176 210 247 291
#
# _framework density 18.653110000000002
#
# number of rings (size 3 to 8) (size 9 to 14) (size 15 to 20)
#    0.000    2.615    0.769    0.923    0.000    7.077 
#    0.000    3.077    1.692    0.000    0.000    0.000 
#    0.000    0.000    0.000    0.000    0.000    0.000 
#
# Total GULP energy -644495.216330 kJ/mol
# GULP energy per Si atom -12394.138776 kJ/mol
# Density = 1.861065 g / cm^3
# Si number density = 18.653110 Si / 1000 Ang^3
#
#
#
# Elastic Constant Matrix: (Units=GPa)
#
#
# Indices 1 2 3 4 5 6 
#
# 1 126.1089 22.0387 65.5981 0.0000 0.0000 0.0000
# 2 22.0387 40.1976 28.5141 0.0000 0.0000 0.0000
# 3 65.5981 28.5141 118.5320 0.0000 0.0000 0.0000
# 4 0.0000 0.0000 0.0000 23.1438 0.0000 0.0000
# 5 0.0000 0.0000 0.0000 0.0000 27.6853 0.0000
# 6 0.0000 0.0000 0.0000 0.0000 0.0000 13.6847
#
#
#
# Elastic Compliance Matrix: (Units=1/GPa)
#
#
# Indices 1 2 3 4 5 6 
#
# 1 0.011283 -0.002118 -0.005735 0.000000 0.000000 0.000000
# 2 -0.002118 0.030393 -0.006139 0.000000 0.000000 0.000000
# 3 -0.005735 -0.006139 0.013087 0.000000 0.000000 0.000000
# 4 0.000000 0.000000 0.000000 0.043208 0.000000 0.000000
# 5 0.000000 0.000000 0.000000 0.000000 0.036120 0.000000
# 6 0.000000 0.000000 0.000000 0.000000 0.000000 0.073074
#
#
# Mechanical properties :
#
#
# Convention : Reuss Voigt Hill
#
# Bulk Modulus (GPa) = 37.34231 57.46004 47.40117
# Shear Modulus (GPa) = 20.48543 24.14860 22.31701
#
# Velocity S-wave (km/s) = 3.31755 3.60198 3.46269
# Velocity P-wave (km/s) = 5.89387 6.94049 6.43848
#
# Compressibility (1/GPa) = 0.02677928
#
# Stress axis : x y z
#
# Youngs Moduli (GPa) = 88.63060 32.90204 76.41133
#
# Poissons Ratio (x) = 0.06969 0.43819
# Poissons Ratio (y) = 0.18772 0.46911
# Poissons Ratio (z) = 0.50826 0.20199
#
# Static dielectric constant tensor:
#      x y z
#    x 3.762830 0.000000 0.000000 
#    y 0.000000 3.105020 0.000000 
#    z 0.000000 0.000000 3.406210 
# 
# 
# High freq. dielectric constant tensor:
#      x y z
#    x 1.732870 0.000000 0.000000 
#    y 0.000000 1.685510 0.000000 
#    z 0.000000 0.000000 1.719400 
# 
# From -- ./inp_files/30674.got.cif
#   From: 2010.03.12/outbox.cif.g09.slc.cpg/sg53_16_cif.got.tgz:30674.got - 2010.04.16 14:36:59.
