data_PCOD8217867
_publ_section_title
;
Structure prediction by ZEFSAII (Michael W. Deem and Ramdas Pophale) SiO2 
 PCOD8217867
Probable space group: P M N A
;
_chemical_formula_sum "Si O2"
_cell_formula_units_Z 64
_cell_length_a 8.985306
_cell_length_b 19.054453
_cell_length_c 21.492972
_cell_angle_alpha 90.000000
_cell_angle_beta 90.000000
_cell_angle_gamma 90.000000
_cell_volume 3679.813689
_symmetry_space_group_name_H-M "P M N A"
_symmetry_group_IT_number 53
_symmetry_cell_setting 'orthorhombic'
loop_
_space_group_symop_operation_xyz
x,y,z
1/2-x,-y,1/2+z
x,-y,-z
1/2-x,y,1/2-z
-x,-y,-z
1/2+x,y,1/2-z
-x,y,z
1/2+x,-y,1/2+z
loop_
_atom_site_type_symbol
_atom_site_label
_atom_site_fract_x
_atom_site_fract_y
_atom_site_fract_z
Si Si1 0.176286 0.040584 0.439501
Si Si2 0.668539 0.188213 0.014798
Si Si3 0.832364 0.178948 0.626829
Si Si4 0.325800 0.701558 0.312050
Si Si5 0.174380 0.032545 0.685016
Si Si6 0.674847 0.595829 0.109973
Si Si7 0.174522 0.331535 0.006270
Si Si8 0.162746 0.531502 0.931506
O O1 0.218065 0.123240 0.441933
O O2 0.000000 0.029273 0.440446
O O3 0.243879 0.000000 0.500000
O O4 0.239281 0.011831 0.373579
O O5 0.500000 0.212076 0.029640
O O6 0.775061 0.254442 0.027419
O O7 0.678707 0.157404 0.945070
O O8 0.713546 0.241001 0.635783
O O9 0.790829 0.113708 0.670449
O O10 0.000000 0.205496 0.642150
O O11 0.250000 0.730525 0.250000
O O12 0.500000 0.692927 0.304222
O O13 0.253321 0.626599 0.328752
O O14 0.250000 0.010288 0.750000
O O15 0.000000 0.019023 0.692437
O O16 0.500000 0.603888 0.115096
O O17 0.716273 0.513300 0.106594
O O18 0.731599 0.642248 0.052442
O O19 0.205267 0.386056 0.063257
O O20 0.000000 0.331715 0.988399
O O21 0.000000 0.523126 0.899954
O O22 0.155293 0.500000 0.000000
#
# Coordination Sequence:
#
# PCOD8217867 Si02
#       8
#     8   8   8   8   8   8   8   8
#     4   9  16  31  53  75  98 132 174 216 260 310
#     4  10  18  29  51  76  99 130 172 214 256 306
#     4  10  19  32  50  73  99 132 171 213 254 305
#     4  12  24  36  49  67  97 136 175 213 252 299
#     4  10  20  34  53  75 102 134 174 216 262 313
#     4  11  20  31  48  70  96 127 166 207 247 292
#     4  10  19  31  47  70 101 132 161 197 248 303
#     4   8  16  30  46  66  94 127 159 192 237 291
#
# _framework density 17.392184
#
# number of rings (size 3 to 8) (size 9 to 14) (size 15 to 20)
#    0.000    2.000    2.500    3.750    0.000    4.250 
#    0.000    0.625    0.000    0.750    0.000    0.875 
#    0.000    4.000    0.000    0.000    0.000    0.000 
#
# Total GULP energy -793361.003081 kJ/mol
# GULP energy per Si atom -12396.265673 kJ/mol
# Density = 1.735260 g / cm^3
# Si number density = 17.392184 Si / 1000 Ang^3
#
#
#
# Elastic Constant Matrix: (Units=GPa)
#
#
# Indices 1 2 3 4 5 6 
#
# 1 101.1208 42.5337 30.7359 0.0000 0.0000 0.0000
# 2 42.5337 99.5038 44.1045 0.0000 0.0000 0.0000
# 3 30.7359 44.1045 73.2530 0.0000 0.0000 0.0000
# 4 0.0000 0.0000 0.0000 22.2988 0.0000 0.0000
# 5 0.0000 0.0000 0.0000 0.0000 18.8933 0.0000
# 6 0.0000 0.0000 0.0000 0.0000 0.0000 19.4006
#
#
#
# Elastic Compliance Matrix: (Units=1/GPa)
#
#
# Indices 1 2 3 4 5 6 
#
# 1 0.012452 -0.004101 -0.002755 0.000000 0.000000 0.000000
# 2 -0.004101 0.015059 -0.007346 0.000000 0.000000 0.000000
# 3 -0.002755 -0.007346 0.019230 0.000000 0.000000 0.000000
# 4 0.000000 0.000000 0.000000 0.044845 0.000000 0.000000
# 5 0.000000 0.000000 0.000000 0.000000 0.052929 0.000000
# 6 0.000000 0.000000 0.000000 0.000000 0.000000 0.051545
#
#
# Mechanical properties :
#
#
# Convention : Reuss Voigt Hill
#
# Bulk Modulus (GPa) = 54.53750 56.51399 55.52575
# Shear Modulus (GPa) = 21.68470 22.55210 22.11840
#
# Velocity S-wave (km/s) = 3.53485 3.60485 3.57002
# Velocity P-wave (km/s) = 6.93439 7.06336 6.99917
#
# Compressibility (1/GPa) = 0.01833601
#
# Stress axis : x y z
#
# Youngs Moduli (GPa) = 80.31008 66.40503 52.00139
#
# Poissons Ratio (x) = 0.27235 0.14327
# Poissons Ratio (y) = 0.32938 0.38200
# Poissons Ratio (z) = 0.22127 0.48781
#
# Static dielectric constant tensor:
#      x y z
#    x 3.080050 0.000000 0.000000 
#    y 0.000000 3.379720 0.000000 
#    z 0.000000 0.000000 3.102850 
# 
# 
# High freq. dielectric constant tensor:
#      x y z
#    x 1.660410 0.000000 0.000000 
#    y 0.000000 1.672910 0.000000 
#    z 0.000000 0.000000 1.634720 
# 
# From -- ./inp_files/31391.got.cif
#   From: 2010.03.12/outbox.cif.g09.slc.cpg/sg53_16_cif.got.tgz:31391.got - 2010.04.16 14:36:59.
