data_PCOD8217172
_publ_section_title
;
Structure prediction by ZEFSAII (Michael W. Deem and Ramdas Pophale) SiO2 
 PCOD8217172
Probable space group: P N N A
;
_chemical_formula_sum "Si O2"
_cell_formula_units_Z 40
_cell_length_a 9.263812
_cell_length_b 13.808616
_cell_length_c 14.031878
_cell_angle_alpha 90.000000
_cell_angle_beta 90.000000
_cell_angle_gamma 90.000000
_cell_volume 1794.963764
_symmetry_space_group_name_H-M "P N N A"
_symmetry_group_IT_number 52
_symmetry_cell_setting 'orthorhombic'
loop_
_space_group_symop_operation_xyz
x,y,z
1/2-x,-y,z
x,1/2-y,1/2-z
1/2-x,1/2+y,1/2-z
-x,-y,-z
1/2+x,y,-z
-x,1/2+y,1/2+z
1/2+x,1/2-y,1/2+z
loop_
_atom_site_type_symbol
_atom_site_label
_atom_site_fract_x
_atom_site_fract_y
_atom_site_fract_z
Si Si1 0.423160 0.760217 0.353534
Si Si2 0.535559 0.065324 0.213241
Si Si3 0.917440 0.982583 0.597017
Si Si4 0.792092 0.105192 0.919120
Si Si5 0.661837 0.879311 0.138307
O O1 0.352274 0.750000 0.250000
O O2 0.433555 0.870118 0.382241
O O3 0.326132 0.690915 0.419686
O O4 0.590485 0.725930 0.353317
O O5 0.429998 0.131292 0.147206
O O6 0.692620 0.115410 0.201417
O O7 0.481327 0.056247 0.322759
O O8 0.543865 0.954890 0.177703
O O9 0.750000 0.000000 0.582216
O O10 0.000000 0.000000 0.500000
O O11 0.750000 0.000000 0.876197
O O12 0.823666 0.090020 0.029296
#
# Coordination Sequence:
#
# PCOD8217172 Si02
#       5
#     8   8   8   8   8
#     4  12  25  45  72 103 144 198 251 305 375 453
#     4  11  22  45  72 106 146 188 235 314 388 438
#     4  12  30  53  74 101 153 212 260 313 374 459
#     4  12  21  41  71 108 146 178 240 317 392 444
#     4  11  23  39  74 108 139 183 238 314 374 449
#
# _framework density 22.284572000000001
#
# number of rings (size 3 to 8) (size 9 to 14) (size 15 to 20)
#    0.000    0.400    6.000    3.600    5.600    0.000 
#    0.000    1.000    0.000    0.000    0.000    0.000 
#    0.000    0.000    0.000    0.000    0.000    0.000 
#
# Total GULP energy -495804.296237 kJ/mol
# GULP energy per Si atom -12395.107406 kJ/mol
# Density = 2.223385 g / cm^3
# Si number density = 22.284572 Si / 1000 Ang^3
#
#
#
# Elastic Constant Matrix: (Units=GPa)
#
#
# Indices 1 2 3 4 5 6 
#
# 1 154.8279 51.7916 64.6349 0.0000 0.0000 0.0000
# 2 51.7916 106.9279 14.4184 0.0000 0.0000 0.0000
# 3 64.6349 14.4184 153.4292 0.0000 0.0000 0.0000
# 4 0.0000 0.0000 0.0000 20.7836 0.0000 0.0000
# 5 0.0000 0.0000 0.0000 0.0000 42.3479 0.0000
# 6 0.0000 0.0000 0.0000 0.0000 0.0000 36.6558
#
#
#
# Elastic Compliance Matrix: (Units=1/GPa)
#
#
# Indices 1 2 3 4 5 6 
#
# 1 0.009276 -0.004017 -0.003530 0.000000 0.000000 0.000000
# 2 -0.004017 0.011212 0.000639 0.000000 0.000000 0.000000
# 3 -0.003530 0.000639 0.007945 0.000000 0.000000 0.000000
# 4 0.000000 0.000000 0.000000 0.048115 0.000000 0.000000
# 5 0.000000 0.000000 0.000000 0.000000 0.023614 0.000000
# 6 0.000000 0.000000 0.000000 0.000000 0.000000 0.027281
#
#
# Mechanical properties :
#
#
# Convention : Reuss Voigt Hill
#
# Bulk Modulus (GPa) = 68.42092 75.20832 71.81462
# Shear Modulus (GPa) = 34.21573 38.91346 36.56459
#
# Velocity S-wave (km/s) = 3.92267 4.18330 4.05508
# Velocity P-wave (km/s) = 7.16145 7.56013 7.36349
#
# Compressibility (1/GPa) = 0.01461541
#
# Stress axis : x y z
#
# Youngs Moduli (GPa) = 107.80152 89.19274 125.86747
#
# Poissons Ratio (x) = 0.35829 0.44435
# Poissons Ratio (y) = 0.43304 -0.08038
# Poissons Ratio (z) = 0.38057 -0.05696
#
# Static dielectric constant tensor:
#      x y z
#    x 4.207180 0.000000 0.000000 
#    y 0.000000 4.578000 0.000000 
#    z 0.000000 0.000000 4.037990 
# 
# 
# High freq. dielectric constant tensor:
#      x y z
#    x 1.889380 0.000000 0.000000 
#    y 0.000000 1.866410 0.000000 
#    z 0.000000 0.000000 1.882170 
# 
# From -- ./inp_files/24387.got.cif
#   From: 2010.06.25/outbox.cif.g09.slc.cpg/sg52_13_cif.got.tgz:24387.got - 2010.06.26 19:32:48.
