data_PCOD8217361
_publ_section_title
;
Structure prediction by ZEFSAII (Michael W. Deem and Ramdas Pophale) SiO2 
 PCOD8217361
Probable space group: P N N A
;
_chemical_formula_sum "Si O2"
_cell_formula_units_Z 36
_cell_length_a 10.044644
_cell_length_b 23.550993
_cell_length_c 6.731214
_cell_angle_alpha 90.000000
_cell_angle_beta 90.000000
_cell_angle_gamma 90.000000
_cell_volume 1592.345007
_symmetry_space_group_name_H-M "P N N A"
_symmetry_group_IT_number 52
_symmetry_cell_setting 'orthorhombic'
loop_
_space_group_symop_operation_xyz
x,y,z
1/2-x,-y,z
x,1/2-y,1/2-z
1/2-x,1/2+y,1/2-z
-x,-y,-z
1/2+x,y,-z
-x,1/2+y,1/2+z
1/2+x,1/2-y,1/2+z
loop_
_atom_site_type_symbol
_atom_site_label
_atom_site_fract_x
_atom_site_fract_y
_atom_site_fract_z
Si Si1 0.353634 0.612953 0.115335
Si Si2 0.902900 0.815588 0.219301
Si Si3 0.563038 0.545777 0.357875
Si Si4 0.250000 0.500000 0.947463
Si Si5 0.323484 0.145559 0.053220
O O1 0.471923 0.594989 0.262378
O O2 0.252265 0.652990 0.237100
O O3 0.403915 0.647318 0.922428
O O4 0.270725 0.556186 0.073484
O O5 0.930983 0.750000 0.250000
O O6 0.023468 0.835410 0.077299
O O7 0.759183 0.820226 0.113367
O O8 0.500000 0.500000 0.500000
O O9 0.618977 0.507444 0.182742
O O10 0.676406 0.579698 0.480401
#
# Coordination Sequence:
#
# PCOD8217361 Si02
#       5
#     8   8   8   4   8
#     4  12  25  46  73 110 151 196 253 304 386 454
#     4  12  30  49  79 107 146 204 257 322 382 447
#     4  12  23  43  73 110 154 197 243 305 379 457
#     4  12  22  40  70 106 148 198 236 298 374 450
#     4  12  26  52  71 111 151 190 256 316 373 456
#
# _framework density 22.608166000000001
#
# number of rings (size 3 to 8) (size 9 to 14) (size 15 to 20)
#    0.000    0.000    4.444    6.000    3.111    0.000 
#    0.000    0.000    0.000    0.000    0.000    0.000 
#    0.000    0.000    0.000    0.000    0.000    0.000 
#
# Total GULP energy -446334.493796 kJ/mol
# GULP energy per Si atom -12398.180383 kJ/mol
# Density = 2.255671 g / cm^3
# Si number density = 22.608166 Si / 1000 Ang^3
#
#
#
# Elastic Constant Matrix: (Units=GPa)
#
#
# Indices 1 2 3 4 5 6 
#
# 1 90.0317 14.7164 44.2486 0.0000 0.0000 0.0000
# 2 14.7164 105.4570 43.2730 0.0000 0.0000 0.0000
# 3 44.2486 43.2730 121.2628 0.0000 0.0000 0.0000
# 4 0.0000 0.0000 0.0000 21.2044 0.0000 0.0000
# 5 0.0000 0.0000 0.0000 0.0000 31.8362 0.0000
# 6 0.0000 0.0000 0.0000 0.0000 0.0000 29.0845
#
#
#
# Elastic Compliance Matrix: (Units=1/GPa)
#
#
# Indices 1 2 3 4 5 6 
#
# 1 0.013537 0.000161 -0.004997 0.000000 0.000000 0.000000
# 2 0.000161 0.011111 -0.004024 0.000000 0.000000 0.000000
# 3 -0.004997 -0.004024 0.011506 0.000000 0.000000 0.000000
# 4 0.000000 0.000000 0.000000 0.047160 0.000000 0.000000
# 5 0.000000 0.000000 0.000000 0.000000 0.031411 0.000000
# 6 0.000000 0.000000 0.000000 0.000000 0.000000 0.034383
#
#
# Mechanical properties :
#
#
# Convention : Reuss Voigt Hill
#
# Bulk Modulus (GPa) = 54.24579 57.91418 56.07998
# Shear Modulus (GPa) = 28.90650 30.72594 29.81622
#
# Velocity S-wave (km/s) = 3.57961 3.69055 3.63550
# Velocity P-wave (km/s) = 6.41333 6.62060 6.51779
#
# Compressibility (1/GPa) = 0.01843461
#
# Stress axis : x y z
#
# Youngs Moduli (GPa) = 73.87267 89.99936 86.91130
#
# Poissons Ratio (x) = -0.01453 0.43431
# Poissons Ratio (y) = -0.01193 0.34973
# Poissons Ratio (z) = 0.36916 0.36216
#
# Static dielectric constant tensor:
#      x y z
#    x 4.157980 0.000000 0.000000 
#    y 0.000000 3.958630 0.000000 
#    z 0.000000 0.000000 4.662730 
# 
# 
# High freq. dielectric constant tensor:
#      x y z
#    x 1.900770 0.000000 0.000000 
#    y 0.000000 1.884850 0.000000 
#    z 0.000000 0.000000 1.910010 
# 
# From -- ./inp_files/1216.got.cif
#   From: 2010.06.25/outbox.cif.g09.slc.cpg/sg52_1_cif.got.tgz:1216.got - 2010.06.26 19:32:48.
