data_PCOD8217479
_publ_section_title
;
Structure prediction by ZEFSAII (Michael W. Deem and Ramdas Pophale) SiO2 
 PCOD8217479
Probable space group: P M N A
;
_chemical_formula_sum "Si O2"
_cell_formula_units_Z 64
_cell_length_a 17.752699
_cell_length_b 14.244475
_cell_length_c 16.304174
_cell_angle_alpha 90.000000
_cell_angle_beta 90.000000
_cell_angle_gamma 90.000000
_cell_volume 4122.964909
_symmetry_space_group_name_H-M "P M N A"
_symmetry_group_IT_number 53
_symmetry_cell_setting 'orthorhombic'
loop_
_space_group_symop_operation_xyz
x,y,z
1/2-x,-y,1/2+z
x,-y,-z
1/2-x,y,1/2-z
-x,-y,-z
1/2+x,y,1/2-z
-x,y,z
1/2+x,-y,1/2+z
loop_
_atom_site_type_symbol
_atom_site_label
_atom_site_fract_x
_atom_site_fract_y
_atom_site_fract_z
Si Si1 0.305396 0.644017 0.176100
Si Si2 0.581994 0.999039 0.096265
Si Si3 0.144046 0.191670 0.399324
Si Si4 0.082458 0.704802 0.756516
Si Si5 0.584837 0.489061 0.731049
Si Si6 0.089330 0.209293 0.583687
Si Si7 0.276229 0.697353 0.656808
Si Si8 0.698362 0.496928 0.593435
O O1 0.250000 0.679522 0.250000
O O2 0.367716 0.572524 0.206999
O O3 0.352142 0.726725 0.133319
O O4 0.255615 0.588707 0.109444
O O5 0.500000 0.021978 0.135920
O O6 0.641285 0.080019 0.121495
O O7 0.607581 0.894116 0.120677
O O8 0.571759 0.000000 0.000000
O O9 0.098906 0.244722 0.328847
O O10 0.106936 0.215222 0.486773
O O11 0.231013 0.225375 0.396136
O O12 0.088019 0.594764 0.736042
O O13 0.136749 0.730025 0.833833
O O14 0.000000 0.733589 0.787314
O O15 0.500000 0.450372 0.726664
O O16 0.620510 0.481486 0.641024
O O17 0.000000 0.234241 0.596391
O O18 0.250000 0.689899 0.750000
O O19 0.263604 0.595655 0.617443
O O20 0.675156 0.500000 0.500000
#
# Coordination Sequence:
#
# PCOD8217479 Si02
#       8
#     8   8   8   8   8   8   8   8
#     4  10  19  31  44  60  86 117 142 169 210 253
#     4   8  15  27  42  62  87 111 135 169 212 251
#     4  10  16  27  46  66  88 111 138 172 215 256
#     4   9  16  27  43  63  88 116 142 170 209 253
#     4   9  18  31  45  61  84 114 146 176 206 243
#     4  10  19  30  46  66  85 108 141 177 210 249
#     4   9  17  28  42  63  89 116 141 170 211 255
#     4  10  18  29  45  63  85 113 144 176 208 244
#
# _framework density 15.522809000000001
#
# number of rings (size 3 to 8) (size 9 to 14) (size 15 to 20)
#    0.000    2.625    0.000    5.625    0.000    0.250 
#    0.000    1.875    0.000    3.750    0.000    0.000 
#    0.000    4.500    0.000    0.000    0.000   36.250 
#
# Total GULP energy -792955.151335 kJ/mol
# GULP energy per Si atom -12389.924240 kJ/mol
# Density = 1.548748 g / cm^3
# Si number density = 15.522809 Si / 1000 Ang^3
#
#
#
# Elastic Constant Matrix: (Units=GPa)
#
#
# Indices 1 2 3 4 5 6 
#
# 1 102.3866 40.3388 17.2774 0.0000 0.0000 0.0000
# 2 40.3388 79.1573 25.2831 0.0000 0.0000 0.0000
# 3 17.2774 25.2831 52.3487 0.0000 0.0000 0.0000
# 4 0.0000 0.0000 0.0000 20.3605 0.0000 0.0000
# 5 0.0000 0.0000 0.0000 0.0000 13.8666 0.0000
# 6 0.0000 0.0000 0.0000 0.0000 0.0000 -56.0419
#
#
#
# Elastic Compliance Matrix: (Units=1/GPa)
#
#
# Indices 1 2 3 4 5 6 
#
# 1 0.012286 -0.005872 -0.001219 0.000000 0.000000 0.000000
# 2 -0.005872 0.017743 -0.006632 0.000000 0.000000 0.000000
# 3 -0.001219 -0.006632 0.022708 0.000000 0.000000 0.000000
# 4 0.000000 0.000000 0.000000 0.049115 0.000000 0.000000
# 5 0.000000 0.000000 0.000000 0.000000 0.072116 0.000000
# 6 0.000000 0.000000 0.000000 0.000000 0.000000 -0.017844
#
#
# Mechanical properties :
#
#
# Convention : Reuss Voigt Hill
#
# Bulk Modulus (GPa) = 39.53733 44.41013 41.97373
# Shear Modulus (GPa) = 26.04168 5.70324 15.87246
#
# Velocity S-wave (km/s) = 4.10034 1.91888 3.20116
# Velocity P-wave (km/s) = 6.92408 5.79492 6.38451
#
# Compressibility (1/GPa) = 0.02529255
#
# Stress axis : x y z
#
# Youngs Moduli (GPa) = 81.39383 56.35872 44.03729
#
# Poissons Ratio (x) = 0.33091 0.05368
# Poissons Ratio (y) = 0.47791 0.29205
# Poissons Ratio (z) = 0.09923 0.37376
#
# Static dielectric constant tensor:
#      x y z
#    x 3.633810 0.000000 0.000000 
#    y 0.000000 3.230690 0.000000 
#    z 0.000000 0.000000 2.780560 
# 
# 
# High freq. dielectric constant tensor:
#      x y z
#    x 1.601610 0.000000 0.000000 
#    y 0.000000 1.587590 0.000000 
#    z 0.000000 0.000000 1.571840 
# 
# From -- ./inp_files/23957.got.cif
#   From: 2010.03.12/outbox.cif.g09.slc.cpg/sg53_12_cif.got.tgz:23957.got - 2010.04.16 14:36:59.
