data_PCOD8217287
_publ_section_title
;
Structure prediction by ZEFSAII (Michael W. Deem and Ramdas Pophale) SiO2 
 PCOD8217287
Probable space group: P N N A
;
_chemical_formula_sum "Si O2"
_cell_formula_units_Z 32
_cell_length_a 19.812285
_cell_length_b 9.829530
_cell_length_c 6.587378
_cell_angle_alpha 90.000000
_cell_angle_beta 90.000000
_cell_angle_gamma 90.000000
_cell_volume 1282.861891
_symmetry_space_group_name_H-M "P N N A"
_symmetry_group_IT_number 52
_symmetry_cell_setting 'orthorhombic'
loop_
_space_group_symop_operation_xyz
x,y,z
1/2-x,-y,z
x,1/2-y,1/2-z
1/2-x,1/2+y,1/2-z
-x,-y,-z
1/2+x,y,-z
-x,1/2+y,1/2+z
1/2+x,1/2-y,1/2+z
loop_
_atom_site_type_symbol
_atom_site_label
_atom_site_fract_x
_atom_site_fract_y
_atom_site_fract_z
Si Si1 0.868805 0.104027 0.147744
Si Si2 0.955538 0.105302 0.781743
Si Si3 0.169430 0.250000 0.250000
Si Si4 0.590691 0.100969 0.449887
Si Si5 0.250000 0.500000 0.387922
O O1 0.875763 0.250000 0.250000
O O2 0.858553 0.993064 0.323644
O O3 0.939022 0.073303 0.019904
O O4 0.802290 0.091886 0.013093
O O5 0.915750 0.250000 0.750000
O O6 0.030847 0.137879 0.703824
O O7 0.929861 0.979617 0.652054
O O8 0.125567 0.238095 0.460069
O O9 0.211507 0.389548 0.251657
#
# Coordination Sequence:
#
# PCOD8217287 Si02
#       5
#     8   8   4   8   4
#     4  12  27  49  79 116 155 213 265 330 401 480
#     4  11  24  48  77 115 153 202 260 335 404 476
#     4  12  30  54  80 116 160 218 268 338 386 490
#     4  11  27  48  79 112 158 200 268 332 404 465
#     4  12  32  48  82 112 164 212 278 316 400 484
#
# _framework density 24.944230000000001
#
# number of rings (size 3 to 8) (size 9 to 14) (size 15 to 20)
#    0.000    0.500    5.000    0.750   12.250    4.000 
#    0.000    0.000    0.000    0.000    0.000    0.000 
#    0.000    0.000    0.000    0.000    0.000    0.000 
#
# Total GULP energy -396486.391707 kJ/mol
# GULP energy per Si atom -12390.199741 kJ/mol
# Density = 2.488746 g / cm^3
# Si number density = 24.944230 Si / 1000 Ang^3
#
#
#
# Elastic Constant Matrix: (Units=GPa)
#
#
# Indices 1 2 3 4 5 6 
#
# 1 123.4908 35.8349 56.4563 0.0000 0.0000 0.0000
# 2 35.8349 126.2436 56.1288 0.0000 0.0000 0.0000
# 3 56.4563 56.1288 136.6356 0.0000 0.0000 0.0000
# 4 0.0000 0.0000 0.0000 57.0674 0.0000 0.0000
# 5 0.0000 0.0000 0.0000 0.0000 30.8829 0.0000
# 6 0.0000 0.0000 0.0000 0.0000 0.0000 25.7004
#
#
#
# Elastic Compliance Matrix: (Units=1/GPa)
#
#
# Indices 1 2 3 4 5 6 
#
# 1 0.010140 -0.001242 -0.003680 0.000000 0.000000 0.000000
# 2 -0.001242 0.009843 -0.003530 0.000000 0.000000 0.000000
# 3 -0.003680 -0.003530 0.010289 0.000000 0.000000 0.000000
# 4 0.000000 0.000000 0.000000 0.017523 0.000000 0.000000
# 5 0.000000 0.000000 0.000000 0.000000 0.032380 0.000000
# 6 0.000000 0.000000 0.000000 0.000000 0.000000 0.038910
#
#
# Mechanical properties :
#
#
# Convention : Reuss Voigt Hill
#
# Bulk Modulus (GPa) = 74.80155 75.91225 75.35690
# Shear Modulus (GPa) = 35.60052 38.59346 37.09699
#
# Velocity S-wave (km/s) = 3.78193 3.93770 3.86060
# Velocity P-wave (km/s) = 7.00880 7.15352 7.08153
#
# Compressibility (1/GPa) = 0.01336871
#
# Stress axis : x y z
#
# Youngs Moduli (GPa) = 98.61460 101.59048 97.18864
#
# Poissons Ratio (x) = 0.12622 0.35761
# Poissons Ratio (y) = 0.12253 0.34310
# Poissons Ratio (z) = 0.36286 0.35864
#
# Static dielectric constant tensor:
#      x y z
#    x 4.451760 0.000000 0.000000 
#    y 0.000000 4.636130 0.000000 
#    z 0.000000 0.000000 4.628000 
# 
# 
# High freq. dielectric constant tensor:
#      x y z
#    x 1.974330 0.000000 0.000000 
#    y 0.000000 2.020210 0.000000 
#    z 0.000000 0.000000 2.002510 
# 
# From -- ./inp_files/3964.got.cif
#   From: 2010.06.25/outbox.cif.g09.slc.cpg/sg52_2_cif.got.tgz:3964.got - 2010.06.26 19:32:48.
