data_PCOD8217740
_publ_section_title
;
Structure prediction by ZEFSAII (Michael W. Deem and Ramdas Pophale) SiO2 
 PCOD8217740
Probable space group: P M N A
;
_chemical_formula_sum "Si O2"
_cell_formula_units_Z 64
_cell_length_a 9.562462
_cell_length_b 13.724482
_cell_length_c 31.290228
_cell_angle_alpha 90.000000
_cell_angle_beta 90.000000
_cell_angle_gamma 90.000000
_cell_volume 4106.524441
_symmetry_space_group_name_H-M "P M N A"
_symmetry_group_IT_number 53
_symmetry_cell_setting 'orthorhombic'
loop_
_space_group_symop_operation_xyz
x,y,z
1/2-x,-y,1/2+z
x,-y,-z
1/2-x,y,1/2-z
-x,-y,-z
1/2+x,y,1/2-z
-x,y,z
1/2+x,-y,1/2+z
loop_
_atom_site_type_symbol
_atom_site_label
_atom_site_fract_x
_atom_site_fract_y
_atom_site_fract_z
Si Si1 0.653530 0.716698 0.213547
Si Si2 0.161951 0.507877 0.616235
Si Si3 0.663852 0.574151 0.536763
Si Si4 0.342068 0.037340 0.048365
Si Si5 0.339224 0.720351 0.118444
Si Si6 0.154213 0.795869 0.973340
Si Si7 0.655879 0.515081 0.788172
Si Si8 0.156393 0.866916 0.068382
O O1 0.750000 0.763307 0.250000
O O2 0.500000 0.756928 0.223144
O O3 0.701099 0.750635 0.166706
O O4 0.654059 0.600654 0.215426
O O5 0.256589 0.560327 0.581292
O O6 0.183676 0.393277 0.611151
O O7 0.209398 0.542467 0.663984
O O8 0.000000 0.535285 0.608927
O O9 0.718084 0.500000 0.500000
O O10 0.500000 0.556916 0.544863
O O11 0.698636 0.683462 0.521457
O O12 0.500000 0.044029 0.066636
O O13 0.270015 0.143785 0.053196
O O14 0.250273 0.962721 0.076752
O O15 0.347122 0.000000 0.000000
O O16 0.500000 0.748860 0.108132
O O17 0.231543 0.774154 0.088292
O O18 0.000000 0.802363 0.951395
O O19 0.143270 0.847207 0.018645
O O20 0.750000 0.560282 0.750000
O O21 0.500000 0.556470 0.781600
O O22 0.000000 0.881319 0.087588
#
# Coordination Sequence:
#
# PCOD8217740 Si02
#       8
#     8   8   8   8   8   8   8   8
#     4   8  14  24  37  53  76 106 136 166 201 241
#     4   9  18  30  42  59  85 115 147 181 214 251
#     4  10  20  32  44  60  85 117 152 184 211 245
#     4   9  17  29  45  63  81 102 131 168 209 251
#     4   9  17  28  40  57  84 113 139 172 210 244
#     4   9  18  31  44  59  82 110 140 176 212 244
#     4   8  14  25  40  58  79 104 136 174 215 255
#     4  10  18  28  44  63  82 106 137 172 210 249
#
# _framework density 15.584956
#
# number of rings (size 3 to 8) (size 9 to 14) (size 15 to 20)
#    0.000    3.000    0.000    3.000    0.000    5.250 
#    0.000    2.500    0.000    0.000    0.000    0.000 
#    0.000    1.000    0.000    5.000    0.000    4.875 
#
# Total GULP energy -793152.565150 kJ/mol
# GULP energy per Si atom -12393.008830 kJ/mol
# Density = 1.554948 g / cm^3
# Si number density = 15.584956 Si / 1000 Ang^3
#
#
#
# Elastic Constant Matrix: (Units=GPa)
#
#
# Indices 1 2 3 4 5 6 
#
# 1 86.4748 36.0108 29.1043 0.0000 0.0000 0.0000
# 2 36.0108 63.5026 11.2623 0.0000 0.0000 0.0000
# 3 29.1043 11.2623 52.5939 0.0000 0.0000 0.0000
# 4 0.0000 0.0000 0.0000 6.9914 0.0000 0.0000
# 5 0.0000 0.0000 0.0000 0.0000 28.8782 0.0000
# 6 0.0000 0.0000 0.0000 0.0000 0.0000 20.7194
#
#
#
# Elastic Compliance Matrix: (Units=1/GPa)
#
#
# Indices 1 2 3 4 5 6 
#
# 1 0.017904 -0.008727 -0.008039 0.000000 0.000000 0.000000
# 2 -0.008727 0.020623 0.000413 0.000000 0.000000 0.000000
# 3 -0.008039 0.000413 0.023374 0.000000 0.000000 0.000000
# 4 0.000000 0.000000 0.000000 0.143034 0.000000 0.000000
# 5 0.000000 0.000000 0.000000 0.000000 0.034628 0.000000
# 6 0.000000 0.000000 0.000000 0.000000 0.000000 0.048264
#
#
# Mechanical properties :
#
#
# Convention : Reuss Voigt Hill
#
# Bulk Modulus (GPa) = 34.25228 39.48070 36.86649
# Shear Modulus (GPa) = 15.13942 19.73072 17.43507
#
# Velocity S-wave (km/s) = 3.12013 3.56196 3.34834
# Velocity P-wave (km/s) = 5.91657 6.50418 6.21732
#
# Compressibility (1/GPa) = 0.02919514
#
# Stress axis : x y z
#
# Youngs Moduli (GPa) = 55.85370 48.48941 42.78328
#
# Poissons Ratio (x) = 0.42318 0.34393
# Poissons Ratio (y) = 0.48745 -0.01768
# Poissons Ratio (z) = 0.44900 -0.02004
#
# Static dielectric constant tensor:
#      x y z
#    x 3.264640 0.000000 0.000000 
#    y 0.000000 2.702650 0.000000 
#    z 0.000000 0.000000 2.944410 
# 
# 
# High freq. dielectric constant tensor:
#      x y z
#    x 1.608680 0.000000 0.000000 
#    y 0.000000 1.560420 0.000000 
#    z 0.000000 0.000000 1.573000 
# 
# From -- ./inp_files/38506.got.cif
#   From: 2010.03.12/outbox.cif.g09.slc.cpg/sg53_20_cif.got.tgz:38506.got - 2010.04.16 14:36:59.
