data_PCOD8217476
_publ_section_title
;
Structure prediction by ZEFSAII (Michael W. Deem and Ramdas Pophale) SiO2 
 PCOD8217476
Probable space group: P M N A
;
_chemical_formula_sum "Si O2"
_cell_formula_units_Z 64
_cell_length_a 20.843989
_cell_length_b 9.429837
_cell_length_c 17.530455
_cell_angle_alpha 90.000000
_cell_angle_beta 90.000000
_cell_angle_gamma 90.000000
_cell_volume 3445.705923
_symmetry_space_group_name_H-M "P M N A"
_symmetry_group_IT_number 53
_symmetry_cell_setting 'orthorhombic'
loop_
_space_group_symop_operation_xyz
x,y,z
1/2-x,-y,1/2+z
x,-y,-z
1/2-x,y,1/2-z
-x,-y,-z
1/2+x,y,1/2-z
-x,y,z
1/2+x,-y,1/2+z
loop_
_atom_site_type_symbol
_atom_site_label
_atom_site_fract_x
_atom_site_fract_y
_atom_site_fract_z
Si Si1 0.929643 0.651052 0.707328
Si Si2 0.368556 0.219938 0.905574
Si Si3 0.299810 0.259008 0.679496
Si Si4 0.203862 0.736343 0.681874
Si Si5 0.927675 0.325280 0.740380
Si Si6 0.763691 0.986987 0.409675
Si Si7 0.267588 0.467411 0.913274
Si Si8 0.930194 0.358461 0.470650
O O1 0.867852 0.754367 0.720209
O O2 0.915732 0.494268 0.738655
O O3 0.936137 0.647824 0.617621
O O4 0.000000 0.705846 0.738904
O O5 0.422845 0.254357 0.843441
O O6 0.313867 0.336647 0.898449
O O7 0.336013 0.068123 0.895234
O O8 0.395624 0.222656 0.992220
O O9 0.250000 0.256570 0.750000
O O10 0.373615 0.252284 0.707302
O O11 0.294722 0.407858 0.632249
O O12 0.288673 0.118957 0.627348
O O13 0.250000 0.694825 0.750000
O O14 0.235108 0.865743 0.635733
O O15 0.200131 0.606797 0.622495
O O16 0.000000 0.293997 0.770597
O O17 0.747960 0.000000 0.500000
O O18 0.248263 0.500000 0.000000
O O19 0.891600 0.500000 0.500000
O O20 0.000000 0.365386 0.509307
#
# Coordination Sequence:
#
# PCOD8217476 Si02
#       8
#     8   8   8   8   8   8   8   8
#     4  10  19  32  50  80 116 148 183 225 275 335
#     4  11  19  32  54  79 117 144 191 227 273 336
#     4  11  20  39  60  84 115 150 195 251 280 334
#     4  12  22  35  55  80 112 149 186 226 286 339
#     4  11  20  33  59  88 112 149 196 241 284 336
#     4  11  24  38  57  80 113 150 190 239 294 340
#     4  11  20  32  57  86 115 148 190 236 284 332
#     4  10  16  25  45  75 109 144 176 211 254 315
#
# _framework density 18.573844000000001
#
# number of rings (size 3 to 8) (size 9 to 14) (size 15 to 20)
#    0.000    1.125    5.000    5.250    0.000    0.000 
#    0.000    1.250    0.000    4.125    0.000    1.750 
#    0.000    0.000    0.000    0.000    0.000    0.000 
#
# Total GULP energy -792847.891571 kJ/mol
# GULP energy per Si atom -12388.248306 kJ/mol
# Density = 1.853157 g / cm^3
# Si number density = 18.573844 Si / 1000 Ang^3
#
#
#
# Elastic Constant Matrix: (Units=GPa)
#
#
# Indices 1 2 3 4 5 6 
#
# 1 115.9476 20.0193 38.3119 0.0000 0.0000 0.0000
# 2 20.0193 62.1776 23.2417 0.0000 0.0000 0.0000
# 3 38.3119 23.2417 76.1967 0.0000 0.0000 0.0000
# 4 0.0000 0.0000 0.0000 25.0753 0.0000 0.0000
# 5 0.0000 0.0000 0.0000 0.0000 41.1439 0.0000
# 6 0.0000 0.0000 0.0000 0.0000 0.0000 17.6294
#
#
#
# Elastic Compliance Matrix: (Units=1/GPa)
#
#
# Indices 1 2 3 4 5 6 
#
# 1 0.010480 -0.001585 -0.004786 0.000000 0.000000 0.000000
# 2 -0.001585 0.018392 -0.004813 0.000000 0.000000 0.000000
# 3 -0.004786 -0.004813 0.016998 0.000000 0.000000 0.000000
# 4 0.000000 0.000000 0.000000 0.039880 0.000000 0.000000
# 5 0.000000 0.000000 0.000000 0.000000 0.024305 0.000000
# 6 0.000000 0.000000 0.000000 0.000000 0.000000 0.056723
#
#
# Mechanical properties :
#
#
# Convention : Reuss Voigt Hill
#
# Bulk Modulus (GPa) = 42.54877 46.38529 44.46703
# Shear Modulus (GPa) = 25.38324 28.28633 26.83479
#
# Velocity S-wave (km/s) = 3.70078 3.90668 3.80513
# Velocity P-wave (km/s) = 6.42018 6.73626 6.58012
#
# Compressibility (1/GPa) = 0.02350244
#
# Stress axis : x y z
#
# Youngs Moduli (GPa) = 95.42366 54.37010 58.82963
#
# Poissons Ratio (x) = 0.08619 0.28154
# Poissons Ratio (y) = 0.15127 0.28315
# Poissons Ratio (z) = 0.45666 0.26169
#
# Static dielectric constant tensor:
#      x y z
#    x 4.059560 0.000000 0.000000 
#    y 0.000000 3.421730 0.000000 
#    z 0.000000 0.000000 3.409320 
# 
# 
# High freq. dielectric constant tensor:
#      x y z
#    x 1.714900 0.000000 0.000000 
#    y 0.000000 1.704850 0.000000 
#    z 0.000000 0.000000 1.705320 
# 
# From -- ./inp_files/29393.got.cif
#   From: 2010.03.12/outbox.cif.g09.slc.cpg/sg53_15_cif.got.tgz:29393.got - 2010.04.16 14:36:59.
