data_PCOD8217165
_publ_section_title
;
Structure prediction by ZEFSAII (Michael W. Deem and Ramdas Pophale) SiO2 
 PCOD8217165
Probable space group: P N N A
;
_chemical_formula_sum "Si O2"
_cell_formula_units_Z 56
_cell_length_a 14.748047
_cell_length_b 15.071635
_cell_length_c 11.722407
_cell_angle_alpha 90.000000
_cell_angle_beta 90.000000
_cell_angle_gamma 90.000000
_cell_volume 2605.623587
_symmetry_space_group_name_H-M "P N N A"
_symmetry_group_IT_number 52
_symmetry_cell_setting 'orthorhombic'
loop_
_space_group_symop_operation_xyz
x,y,z
1/2-x,-y,z
x,1/2-y,1/2-z
1/2-x,1/2+y,1/2-z
-x,-y,-z
1/2+x,y,-z
-x,1/2+y,1/2+z
1/2+x,1/2-y,1/2+z
loop_
_atom_site_type_symbol
_atom_site_label
_atom_site_fract_x
_atom_site_fract_y
_atom_site_fract_z
Si Si1 0.218231 0.092238 0.522722
Si Si2 0.438786 0.259212 0.016017
Si Si3 0.753859 0.736826 0.614469
Si Si4 0.143603 0.835269 0.696480
Si Si5 0.089125 0.115499 0.013132
Si Si6 0.020998 0.431147 0.901431
Si Si7 0.454296 0.481874 0.669621
O O1 0.212670 0.168067 0.429123
O O2 0.292021 0.106518 0.619965
O O3 0.125466 0.092868 0.590230
O O4 0.250000 0.000000 0.463275
O O5 0.345462 0.215653 0.062632
O O6 0.457926 0.345034 0.093349
O O7 0.434659 0.292453 0.884341
O O8 0.519933 0.190613 0.029185
O O9 0.753932 0.750000 0.750000
O O10 0.820364 0.659101 0.567474
O O11 0.195580 0.750000 0.750000
O O12 0.105684 0.896480 0.797491
O O13 0.042960 0.051662 0.104650
O O14 0.107205 0.051794 0.903097
O O15 0.002078 0.473702 0.780007
O O16 0.000000 0.500000 0.000000
#
# Coordination Sequence:
#
# PCOD8217165 Si02
#       7
#     8   8   8   8   8   8   8
#     4  11  23  45  68 110 134 178 251 293 356 432
#     4  11  24  45  71 104 140 187 247 291 360 431
#     4  11  27  47  73 103 145 195 239 294 367 443
#     4  11  22  43  73  96 141 185 232 301 351 429
#     4  11  26  48  72 105 145 195 236 294 378 435
#     4  12  23  41  74 102 140 187 233 308 355 420
#     4  11  25  44  71 107 142 187 246 299 360 435
#
# _framework density 21.491976000000001
#
# number of rings (size 3 to 8) (size 9 to 14) (size 15 to 20)
#    0.000    0.857    5.714    0.857    6.000    2.286 
#    2.571    2.143    0.000    0.000    0.000    0.000 
#    0.000    0.000    0.000    0.000    0.000    0.000 
#
# Total GULP energy -694289.251817 kJ/mol
# GULP energy per Si atom -12398.022354 kJ/mol
# Density = 2.144306 g / cm^3
# Si number density = 21.491976 Si / 1000 Ang^3
#
#
#
# Elastic Constant Matrix: (Units=GPa)
#
#
# Indices 1 2 3 4 5 6 
#
# 1 85.7517 39.6279 25.0801 0.0000 0.0000 0.0000
# 2 39.6279 117.0473 52.2460 0.0000 0.0000 0.0000
# 3 25.0801 52.2460 130.6632 0.0000 0.0000 0.0000
# 4 0.0000 0.0000 0.0000 42.8177 0.0000 0.0000
# 5 0.0000 0.0000 0.0000 0.0000 19.1218 0.0000
# 6 0.0000 0.0000 0.0000 0.0000 0.0000 38.2958
#
#
#
# Elastic Compliance Matrix: (Units=1/GPa)
#
#
# Indices 1 2 3 4 5 6 
#
# 1 0.013923 -0.004286 -0.000959 0.000000 0.000000 0.000000
# 2 -0.004286 0.011719 -0.003863 0.000000 0.000000 0.000000
# 3 -0.000959 -0.003863 0.009382 0.000000 0.000000 0.000000
# 4 0.000000 0.000000 0.000000 0.023355 0.000000 0.000000
# 5 0.000000 0.000000 0.000000 0.000000 0.052296 0.000000
# 6 0.000000 0.000000 0.000000 0.000000 0.000000 0.026112
#
#
# Mechanical properties :
#
#
# Convention : Reuss Voigt Hill
#
# Bulk Modulus (GPa) = 59.49486 63.04113 61.26799
# Shear Modulus (GPa) = 31.13224 34.48094 32.80659
#
# Velocity S-wave (km/s) = 3.81011 4.00980 3.91123
# Velocity P-wave (km/s) = 6.86283 7.12980 6.99759
#
# Compressibility (1/GPa) = 0.01680818
#
# Stress axis : x y z
#
# Youngs Moduli (GPa) = 71.82612 85.33176 106.58705
#
# Poissons Ratio (x) = 0.36571 0.10218
# Poissons Ratio (y) = 0.30783 0.41177
# Poissons Ratio (z) = 0.06886 0.32966
#
# Static dielectric constant tensor:
#      x y z
#    x 3.609880 0.000000 0.000000 
#    y 0.000000 4.205950 0.000000 
#    z 0.000000 0.000000 3.953840 
# 
# 
# High freq. dielectric constant tensor:
#      x y z
#    x 1.832300 0.000000 0.000000 
#    y 0.000000 1.865960 0.000000 
#    z 0.000000 0.000000 1.847520 
# 
# From -- ./inp_files/19609.got.cif
#   From: 2010.06.25/outbox.cif.g09.slc.cpg/sg52_10_cif.got.tgz:19609.got - 2010.06.26 19:32:48.
