data_PCOD8217957
_publ_section_title
;
Structure prediction by ZEFSAII (Michael W. Deem and Ramdas Pophale) SiO2 
 PCOD8217957
Probable space group: P M N A
;
_chemical_formula_sum "Si O2"
_cell_formula_units_Z 40
_cell_length_a 8.641127
_cell_length_b 25.854265
_cell_length_c 9.759319
_cell_angle_alpha 90.000000
_cell_angle_beta 90.000000
_cell_angle_gamma 90.000000
_cell_volume 2180.329334
_symmetry_space_group_name_H-M "P M N A"
_symmetry_group_IT_number 53
_symmetry_cell_setting 'orthorhombic'
loop_
_space_group_symop_operation_xyz
x,y,z
1/2-x,-y,1/2+z
x,-y,-z
1/2-x,y,1/2-z
-x,-y,-z
1/2+x,y,1/2-z
-x,y,z
1/2+x,-y,1/2+z
loop_
_atom_site_type_symbol
_atom_site_label
_atom_site_fract_x
_atom_site_fract_y
_atom_site_fract_z
Si Si1 0.817271 0.755762 0.599599
Si Si2 0.317508 0.546337 0.900421
Si Si3 0.317061 0.955455 0.397075
Si Si4 0.817361 0.153326 0.602774
Si Si5 0.316496 0.348818 0.401942
O O1 0.750000 0.765661 0.750000
O O2 0.766752 0.803402 0.505331
O O3 0.747369 0.703748 0.528732
O O4 0.000000 0.749689 0.610531
O O5 0.250000 0.535481 0.750000
O O6 0.500000 0.552586 0.887131
O O7 0.247324 0.598464 0.970116
O O8 0.269226 0.500000 0.000000
O O9 0.250000 0.970162 0.250000
O O10 0.500000 0.950917 0.387117
O O11 0.250180 0.901029 0.449989
O O12 0.263131 0.000000 0.500000
O O13 0.750000 0.168636 0.750000
O O14 0.000000 0.148454 0.615776
O O15 0.250000 0.348563 0.250000
O O16 0.500000 0.348836 0.403497
#
# Coordination Sequence:
#
# PCOD8217957 Si02
#       5
#     8   8   8   8   8
#     4  10  20  34  53  78 104 132 170 212 253 299
#     4  10  20  34  53  76 103 135 170 210 255 303
#     4  10  21  36  55  78 104 136 172 210 253 302
#     4  10  21  36  55  77 104 138 171 208 255 305
#     4  10  18  30  51  75 101 134 169 208 254 301
#
# _framework density 18.345852000000001
#
# number of rings (size 3 to 8) (size 9 to 14) (size 15 to 20)
#    0.000    2.000    0.000    7.800    0.000    7.200 
#    0.000    5.000    0.000    0.000    0.000    0.000 
#    0.000    0.000    0.000    0.000    0.000    0.000 
#
# Total GULP energy -495949.532622 kJ/mol
# GULP energy per Si atom -12398.738316 kJ/mol
# Density = 1.830410 g / cm^3
# Si number density = 18.345852 Si / 1000 Ang^3
#
#
#
# Elastic Constant Matrix: (Units=GPa)
#
#
# Indices 1 2 3 4 5 6 
#
# 1 111.7618 78.6360 43.1273 0.0000 0.0000 0.0000
# 2 78.6360 206.5590 95.2355 0.0000 0.0000 0.0000
# 3 43.1273 95.2355 79.8107 0.0000 0.0000 0.0000
# 4 0.0000 0.0000 0.0000 34.3632 0.0000 0.0000
# 5 0.0000 0.0000 0.0000 0.0000 23.3690 0.0000
# 6 0.0000 0.0000 0.0000 0.0000 0.0000 45.0590
#
#
#
# Elastic Compliance Matrix: (Units=1/GPa)
#
#
# Indices 1 2 3 4 5 6 
#
# 1 0.012421 -0.003632 -0.002377 0.000000 0.000000 0.000000
# 2 -0.003632 0.011825 -0.012147 0.000000 0.000000 0.000000
# 3 -0.002377 -0.012147 0.028309 0.000000 0.000000 0.000000
# 4 0.000000 0.000000 0.000000 0.029101 0.000000 0.000000
# 5 0.000000 0.000000 0.000000 0.000000 0.042792 0.000000
# 6 0.000000 0.000000 0.000000 0.000000 0.000000 0.022193
#
#
# Mechanical properties :
#
#
# Convention : Reuss Voigt Hill
#
# Bulk Modulus (GPa) = 61.57379 92.45880 77.01629
# Shear Modulus (GPa) = 26.54394 32.63376 29.58885
#
# Velocity S-wave (km/s) = 3.80789 4.22217 4.02037
# Velocity P-wave (km/s) = 7.27798 8.61835 7.97637
#
# Compressibility (1/GPa) = 0.01624068
#
# Stress axis : x y z
#
# Youngs Moduli (GPa) = 80.51024 84.57010 35.32461
#
# Poissons Ratio (x) = 0.30719 0.08398
# Poissons Ratio (y) = 0.29245 0.42909
# Poissons Ratio (z) = 0.19140 1.02727
#
# Static dielectric constant tensor:
#      x y z
#    x 3.501090 0.000000 0.000000 
#    y 0.000000 4.152160 0.000000 
#    z 0.000000 0.000000 3.165270 
# 
# 
# High freq. dielectric constant tensor:
#      x y z
#    x 1.732330 0.000000 0.000000 
#    y 0.000000 1.733620 0.000000 
#    z 0.000000 0.000000 1.678680 
# 
# From -- ./inp_files/13995.got.cif
#   From: 2010.03.12/outbox.cif.g09.slc.cpg/sg53_7_cif.got.tgz:13995.got - 2010.04.16 14:36:59.
