data_PCOD8217305
_publ_section_title
;
Structure prediction by ZEFSAII (Michael W. Deem and Ramdas Pophale) SiO2 
 PCOD8217305
Probable space group: P N N A
;
_chemical_formula_sum "Si O2"
_cell_formula_units_Z 48
_cell_length_a 23.729573
_cell_length_b 8.745231
_cell_length_c 10.218609
_cell_angle_alpha 90.000000
_cell_angle_beta 90.000000
_cell_angle_gamma 90.000000
_cell_volume 2120.571844
_symmetry_space_group_name_H-M "P N N A"
_symmetry_group_IT_number 52
_symmetry_cell_setting 'orthorhombic'
loop_
_space_group_symop_operation_xyz
x,y,z
1/2-x,-y,z
x,1/2-y,1/2-z
1/2-x,1/2+y,1/2-z
-x,-y,-z
1/2+x,y,-z
-x,1/2+y,1/2+z
1/2+x,1/2-y,1/2+z
loop_
_atom_site_type_symbol
_atom_site_label
_atom_site_fract_x
_atom_site_fract_y
_atom_site_fract_z
Si Si1 0.088848 0.040119 0.921401
Si Si2 0.320450 0.727623 0.957429
Si Si3 0.490765 0.750000 0.750000
Si Si4 0.863196 0.058785 0.330328
Si Si5 0.174771 0.750000 0.250000
Si Si6 0.750000 0.000000 0.644056
Si Si7 0.420682 0.257220 0.047620
Si Si8 0.235856 0.750000 0.750000
O O1 0.132818 0.147281 0.004493
O O2 0.045504 0.128909 0.829324
O O3 0.121179 0.926226 0.821853
O O4 0.058821 0.917838 0.017027
O O5 0.359080 0.617231 0.869176
O O6 0.276238 0.818484 0.864365
O O7 0.289253 0.621868 0.064968
O O8 0.531926 0.668123 0.857515
O O9 0.910664 0.137783 0.421006
O O10 0.800543 0.129760 0.334105
O O11 0.211598 0.903139 0.258235
O O12 0.139142 0.757911 0.118222
#
# Coordination Sequence:
#
# PCOD8217305 Si02
#       8
#     8   8   4   8   4   4   8   4
#     4  12  24  44  67 102 127 168 223 283 334 396
#     4  12  23  38  65  96 139 167 218 267 319 388
#     4  11  25  46  70  90 128 172 231 283 338 392
#     4  12  21  40  64  98 138 168 215 268 332 385
#     4  11  26  46  63  94 139 180 228 253 320 402
#     4  12  26  44  62  98 138 192 214 260 316 410
#     4  11  25  45  69  92 132 176 219 281 332 391
#     4  12  19  34  63 100 133 176 201 260 326 382
#
# _framework density 22.635404000000001
#
# number of rings (size 3 to 8) (size 9 to 14) (size 15 to 20)
#    0.000    0.333    8.333    0.500    2.333    0.667 
#    0.000    0.000    0.000    0.000    0.000    0.000 
#    0.000    0.000    0.000    0.000    0.000    0.000 
#
# Total GULP energy -594646.942171 kJ/mol
# GULP energy per Si atom -12388.477962 kJ/mol
# Density = 2.258388 g / cm^3
# Si number density = 22.635404 Si / 1000 Ang^3
#
#
#
# Elastic Constant Matrix: (Units=GPa)
#
#
# Indices 1 2 3 4 5 6 
#
# 1 93.4408 42.5248 19.2755 0.0000 0.0000 0.0000
# 2 42.5248 80.1130 30.5187 0.0000 0.0000 0.0000
# 3 19.2755 30.5187 40.2477 0.0000 0.0000 0.0000
# 4 0.0000 0.0000 0.0000 40.2341 0.0000 0.0000
# 5 0.0000 0.0000 0.0000 0.0000 13.5750 0.0000
# 6 0.0000 0.0000 0.0000 0.0000 0.0000 20.1245
#
#
#
# Elastic Compliance Matrix: (Units=1/GPa)
#
#
# Indices 1 2 3 4 5 6 
#
# 1 0.014177 -0.006945 -0.001524 0.000000 0.000000 0.000000
# 2 -0.006945 0.020955 -0.012563 0.000000 0.000000 0.000000
# 3 -0.001524 -0.012563 0.035102 0.000000 0.000000 0.000000
# 4 0.000000 0.000000 0.000000 0.024855 0.000000 0.000000
# 5 0.000000 0.000000 0.000000 0.000000 0.073665 0.000000
# 6 0.000000 0.000000 0.000000 0.000000 0.000000 0.049691
#
#
# Mechanical properties :
#
#
# Convention : Reuss Voigt Hill
#
# Bulk Modulus (GPa) = 35.49831 44.27105 39.88468
# Shear Modulus (GPa) = 18.52556 22.88553 20.70554
#
# Velocity S-wave (km/s) = 2.86393 3.18315 3.02775
# Velocity P-wave (km/s) = 5.16264 5.75419 5.46642
#
# Compressibility (1/GPa) = 0.02817036
#
# Stress axis : x y z
#
# Youngs Moduli (GPa) = 70.53764 47.72198 28.48826
#
# Poissons Ratio (x) = 0.33142 0.04340
# Poissons Ratio (y) = 0.48987 0.35791
# Poissons Ratio (z) = 0.10747 0.59955
#
# Static dielectric constant tensor:
#      x y z
#    x 4.214480 0.000000 0.000000 
#    y 0.000000 4.043660 0.000000 
#    z 0.000000 0.000000 4.022140 
# 
# 
# High freq. dielectric constant tensor:
#      x y z
#    x 1.898650 0.000000 0.000000 
#    y 0.000000 1.888110 0.000000 
#    z 0.000000 0.000000 1.882570 
# 
# From -- ./inp_files/22388.got.cif
#   From: 2010.06.25/outbox.cif.g09.slc.cpg/sg52_12_cif.got.tgz:22388.got - 2010.06.26 19:32:48.
