data_PCOD8217022
_publ_section_title
;
Structure prediction by ZEFSAII (Michael W. Deem and Ramdas Pophale) SiO2 
 PCOD8217022
Probable space group: P N N A
;
_chemical_formula_sum "Si O2"
_cell_formula_units_Z 64
_cell_length_a 9.657727
_cell_length_b 20.464318
_cell_length_c 17.402894
_cell_angle_alpha 90.000000
_cell_angle_beta 90.000000
_cell_angle_gamma 90.000000
_cell_volume 3439.487026
_symmetry_space_group_name_H-M "P N N A"
_symmetry_group_IT_number 52
_symmetry_cell_setting 'orthorhombic'
loop_
_space_group_symop_operation_xyz
x,y,z
1/2-x,-y,z
x,1/2-y,1/2-z
1/2-x,1/2+y,1/2-z
-x,-y,-z
1/2+x,y,-z
-x,1/2+y,1/2+z
1/2+x,1/2-y,1/2+z
loop_
_atom_site_type_symbol
_atom_site_label
_atom_site_fract_x
_atom_site_fract_y
_atom_site_fract_z
Si Si1 0.626477 0.040609 0.973819
Si Si2 0.036186 0.139922 0.915083
Si Si3 0.384107 0.930444 0.200622
Si Si4 0.962009 0.790076 0.824947
Si Si5 0.010609 0.305051 0.816655
Si Si6 0.072519 0.928990 0.228153
Si Si7 0.748818 0.248911 0.102020
Si Si8 0.198413 0.739151 0.427864
O O1 0.645051 0.044119 0.883964
O O2 0.750000 0.000000 0.011502
O O3 0.611932 0.112692 0.009248
O O4 0.500000 0.000000 0.000000
O O5 0.148267 0.188108 0.878440
O O6 0.994058 0.083697 0.855495
O O7 0.894812 0.175044 0.940591
O O8 0.481033 0.866288 0.199867
O O9 0.234998 0.911642 0.234616
O O10 0.450737 0.993140 0.246164
O O11 0.921713 0.750000 0.750000
O O12 0.838730 0.781394 0.885351
O O13 0.102569 0.762702 0.860788
O O14 0.993324 0.250000 0.750000
O O15 0.997878 0.379371 0.787568
O O16 0.890275 0.292104 0.879947
O O17 0.164498 0.306295 0.854614
O O18 0.762053 0.266651 0.012008
#
# Coordination Sequence:
#
# PCOD8217022 Si02
#       8
#     8   8   8   8   8   8   8   8
#     4  12  23  35  52  84 127 170 197 237 282 354
#     4  11  22  34  56  79 120 167 200 227 292 357
#     4  11  21  37  56  88 117 153 212 246 284 358
#     4  12  24  38  60  88 120 154 196 260 304 351
#     4  11  20  39  63  82 116 164 207 244 302 360
#     4  11  20  37  58  83 112 163 204 246 281 360
#     4  11  24  36  58  87 122 152 200 252 306 361
#     4  11  21  39  60  86 115 162 204 251 299 360
#
# _framework density 18.607426
#
# number of rings (size 3 to 8) (size 9 to 14) (size 15 to 20)
#    0.000    0.750    6.250    4.500    3.500    0.000 
#    0.000    0.000    0.000    0.000    0.000   15.750 
#    0.000    0.000    0.000    0.000    0.000    0.000 
#
# Total GULP energy -793280.584010 kJ/mol
# GULP energy per Si atom -12395.009125 kJ/mol
# Density = 1.856507 g / cm^3
# Si number density = 18.607426 Si / 1000 Ang^3
#
#
#
# Elastic Constant Matrix: (Units=GPa)
#
#
# Indices 1 2 3 4 5 6 
#
# 1 123.4101 46.6334 38.4575 0.0000 0.0000 0.0000
# 2 46.6334 108.6549 54.1083 0.0000 0.0000 0.0000
# 3 38.4575 54.1083 88.8350 0.0000 0.0000 0.0000
# 4 0.0000 0.0000 0.0000 29.6865 0.0000 0.0000
# 5 0.0000 0.0000 0.0000 0.0000 23.2766 0.0000
# 6 0.0000 0.0000 0.0000 0.0000 0.0000 26.2938
#
#
#
# Elastic Compliance Matrix: (Units=1/GPa)
#
#
# Indices 1 2 3 4 5 6 
#
# 1 0.010036 -0.003077 -0.002470 0.000000 0.000000 0.000000
# 2 -0.003077 0.014154 -0.007289 0.000000 0.000000 0.000000
# 3 -0.002470 -0.007289 0.016766 0.000000 0.000000 0.000000
# 4 0.000000 0.000000 0.000000 0.033685 0.000000 0.000000
# 5 0.000000 0.000000 0.000000 0.000000 0.042962 0.000000
# 6 0.000000 0.000000 0.000000 0.000000 0.000000 0.038032
#
#
# Mechanical properties :
#
#
# Convention : Reuss Voigt Hill
#
# Bulk Modulus (GPa) = 65.43284 66.58869 66.01077
# Shear Modulus (GPa) = 26.82399 27.96478 27.39439
#
# Velocity S-wave (km/s) = 3.80093 3.88091 3.84113
# Velocity P-wave (km/s) = 7.38268 7.47969 7.43134
#
# Compressibility (1/GPa) = 0.01528285
#
# Stress axis : x y z
#
# Youngs Moduli (GPa) = 99.64536 70.65262 59.64527
#
# Poissons Ratio (x) = 0.21740 0.14735
# Poissons Ratio (y) = 0.30661 0.43474
# Poissons Ratio (z) = 0.24616 0.51497
#
# Static dielectric constant tensor:
#      x y z
#    x 3.481830 0.000000 0.000000 
#    y 0.000000 3.491570 0.000000 
#    z 0.000000 0.000000 3.128700 
# 
# 
# High freq. dielectric constant tensor:
#      x y z
#    x 1.732870 0.000000 0.000000 
#    y 0.000000 1.707200 0.000000 
#    z 0.000000 0.000000 1.705170 
# 
# From -- ./inp_files/31600.got.cif
#   From: 2010.06.25/outbox.cif.g09.slc.cpg/sg52_16_cif.got.tgz:31600.got - 2010.06.26 19:32:48.
