data_PCOD8217794
_publ_section_title
;
Structure prediction by ZEFSAII (Michael W. Deem and Ramdas Pophale) SiO2 
 PCOD8217794
Probable space group: P M N A
;
_chemical_formula_sum "Si O2"
_cell_formula_units_Z 56
_cell_length_a 9.086446
_cell_length_b 17.918027
_cell_length_c 20.625747
_cell_angle_alpha 90.000000
_cell_angle_beta 90.000000
_cell_angle_gamma 90.000000
_cell_volume 3358.102306
_symmetry_space_group_name_H-M "P M N A"
_symmetry_group_IT_number 53
_symmetry_cell_setting 'orthorhombic'
loop_
_space_group_symop_operation_xyz
x,y,z
1/2-x,-y,1/2+z
x,-y,-z
1/2-x,y,1/2-z
-x,-y,-z
1/2+x,y,1/2-z
-x,y,z
1/2+x,-y,1/2+z
loop_
_atom_site_type_symbol
_atom_site_label
_atom_site_fract_x
_atom_site_fract_y
_atom_site_fract_z
Si Si1 0.174042 0.951861 0.596434
Si Si2 0.833440 0.568979 0.913710
Si Si3 0.673619 0.105544 0.957887
Si Si4 0.335275 0.267197 0.950114
Si Si5 0.675687 0.836854 0.681569
Si Si6 0.333516 0.710535 0.896730
Si Si7 0.835677 0.592838 0.066443
O O1 0.231287 0.915344 0.529467
O O2 0.266108 0.916312 0.654977
O O3 0.000000 0.938236 0.607257
O O4 0.211287 0.040465 0.593626
O O5 0.727743 0.628264 0.877993
O O6 0.773397 0.484312 0.902180
O O7 0.000000 0.576976 0.887029
O O8 0.833516 0.585523 0.989584
O O9 0.500000 0.113664 0.965444
O O10 0.738065 0.185823 0.934938
O O11 0.500000 0.269302 0.923288
O O12 0.253758 0.333821 0.912140
O O13 0.331403 0.278894 0.026747
O O14 0.750000 0.820980 0.750000
O O15 0.500000 0.837949 0.687486
O O16 0.726765 0.771770 0.633589
O O17 0.500000 0.718568 0.869854
O O18 0.000000 0.604673 0.091882
#
# Coordination Sequence:
#
# PCOD8217794 Si02
#       7
#     8   8   8   8   8   8   8
#     4   9  16  31  50  66  87 117 152 185 226 274
#     4   8  14  25  38  54  81 115 149 179 213 255
#     4   8  14  26  47  68  90 120 149 182 224 276
#     4   9  15  24  40  63  89 117 150 182 215 263
#     4  12  24  36  49  65  88 117 152 193 233 273
#     4  10  18  29  45  63  85 113 150 187 223 266
#     4   8  14  23  35  54  83 118 148 177 213 251
#
# _framework density 16.676086000000002
#
# number of rings (size 3 to 8) (size 9 to 14) (size 15 to 20)
#    0.000    2.857    1.429    3.429    0.000    1.143 
#    0.000    5.000    0.000    0.000    0.000    0.000 
#    0.000    1.143    0.000    8.857    0.000    5.857 
#
# Total GULP energy -693874.228788 kJ/mol
# GULP energy per Si atom -12390.611228 kJ/mol
# Density = 1.663813 g / cm^3
# Si number density = 16.676086 Si / 1000 Ang^3
#
#
#
# Elastic Constant Matrix: (Units=GPa)
#
#
# Indices 1 2 3 4 5 6 
#
# 1 83.0547 50.0478 13.2879 0.0000 0.0000 0.0000
# 2 50.0478 159.3249 6.2667 0.0000 0.0000 0.0000
# 3 13.2879 6.2667 14.7412 0.0000 0.0000 0.0000
# 4 0.0000 0.0000 0.0000 7.0357 0.0000 0.0000
# 5 0.0000 0.0000 0.0000 0.0000 12.8123 0.0000
# 6 0.0000 0.0000 0.0000 0.0000 0.0000 28.5151
#
#
#
# Elastic Compliance Matrix: (Units=1/GPa)
#
#
# Indices 1 2 3 4 5 6 
#
# 1 0.017096 -0.004845 -0.013351 0.000000 0.000000 0.000000
# 2 -0.004845 0.007756 0.001070 0.000000 0.000000 0.000000
# 3 -0.013351 0.001070 0.079417 0.000000 0.000000 0.000000
# 4 0.000000 0.000000 0.000000 0.142132 0.000000 0.000000
# 5 0.000000 0.000000 0.000000 0.000000 0.078050 0.000000
# 6 0.000000 0.000000 0.000000 0.000000 0.000000 0.035069
#
#
# Mechanical properties :
#
#
# Convention : Reuss Voigt Hill
#
# Bulk Modulus (GPa) = 14.28217 44.03620 29.15919
# Shear Modulus (GPa) = 11.98724 22.17384 17.08054
#
# Velocity S-wave (km/s) = 2.68401 3.65043 3.20387
# Velocity P-wave (km/s) = 4.26477 6.65069 5.58659
#
# Compressibility (1/GPa) = 0.07001736
#
# Stress axis : x y z
#
# Youngs Moduli (GPa) = 58.49376 128.92652 12.59183
#
# Poissons Ratio (x) = 0.62466 0.16811
# Poissons Ratio (y) = 0.28341 -0.01347
# Poissons Ratio (z) = 0.78093 -0.13797
#
# Static dielectric constant tensor:
#      x y z
#    x 3.130750 0.000000 0.000000 
#    y 0.000000 3.762890 0.000000 
#    z 0.000000 0.000000 2.550760 
# 
# 
# High freq. dielectric constant tensor:
#      x y z
#    x 1.628480 0.000000 0.000000 
#    y 0.000000 1.665970 0.000000 
#    z 0.000000 0.000000 1.565480 
# 
# From -- ./inp_files/31004.got.cif
#   From: 2010.03.12/outbox.cif.g09.slc.cpg/sg53_16_cif.got.tgz:31004.got - 2010.04.16 14:36:59.
