data_PCOD8217056
_publ_section_title
;
Structure prediction by ZEFSAII (Michael W. Deem and Ramdas Pophale) SiO2 
 PCOD8217056
Probable space group: P N N A
;
_chemical_formula_sum "Si O2"
_cell_formula_units_Z 48
_cell_length_a 8.937629
_cell_length_b 23.682223
_cell_length_c 10.866532
_cell_angle_alpha 90.000000
_cell_angle_beta 90.000000
_cell_angle_gamma 90.000000
_cell_volume 2300.041927
_symmetry_space_group_name_H-M "P N N A"
_symmetry_group_IT_number 52
_symmetry_cell_setting 'orthorhombic'
loop_
_space_group_symop_operation_xyz
x,y,z
1/2-x,-y,z
x,1/2-y,1/2-z
1/2-x,1/2+y,1/2-z
-x,-y,-z
1/2+x,y,-z
-x,1/2+y,1/2+z
1/2+x,1/2-y,1/2+z
loop_
_atom_site_type_symbol
_atom_site_label
_atom_site_fract_x
_atom_site_fract_y
_atom_site_fract_z
Si Si1 0.673115 0.949154 0.848207
Si Si2 0.529635 0.306931 0.672886
Si Si3 0.201945 0.937044 0.565688
Si Si4 0.737998 0.850352 0.011731
Si Si5 0.882963 0.906106 0.646897
Si Si6 0.157275 0.054829 0.818013
O O1 0.795592 0.946276 0.740144
O O2 0.511286 0.966859 0.797929
O O3 0.750000 0.000000 0.929923
O O4 0.646600 0.890320 0.918441
O O5 0.524359 0.250000 0.750000
O O6 0.659782 0.307244 0.568232
O O7 0.372301 0.316452 0.602268
O O8 0.559798 0.352429 0.778114
O O9 0.262673 0.893021 0.462165
O O10 0.278078 0.919284 0.693157
O O11 0.023608 0.935396 0.580692
O O12 0.250000 0.000000 0.526096
O O13 0.841696 0.894290 0.084801
O O14 0.250000 0.000000 0.859596
#
# Coordination Sequence:
#
# PCOD8217056 Si02
#       6
#     8   8   8   8   8   8
#     4  11  22  36  63  99 140 175 217 258 326 406
#     4  11  26  48  70  95 126 168 228 287 342 384
#     4  11  21  36  61  95 142 179 218 258 320 398
#     4  11  23  44  68  95 132 169 216 279 328 399
#     4  11  23  40  62  95 134 180 222 273 322 388
#     4  11  22  36  63 101 140 184 213 257 330 398
#
# _framework density 20.869185999999999
#
# number of rings (size 3 to 8) (size 9 to 14) (size 15 to 20)
#    0.000    1.000    3.333    4.500    2.333    2.667 
#    0.000    0.833    0.000    0.000    0.000    0.000 
#    0.000    0.000    0.000    0.000    0.000    0.000 
#
# Total GULP energy -594783.556109 kJ/mol
# GULP energy per Si atom -12391.324086 kJ/mol
# Density = 2.082169 g / cm^3
# Si number density = 20.869186 Si / 1000 Ang^3
#
#
#
# Elastic Constant Matrix: (Units=GPa)
#
#
# Indices 1 2 3 4 5 6 
#
# 1 166.4249 64.5414 58.5584 0.0000 0.0000 0.0000
# 2 64.5414 101.4880 47.5606 0.0000 0.0000 0.0000
# 3 58.5584 47.5606 123.4720 0.0000 0.0000 0.0000
# 4 0.0000 0.0000 0.0000 34.2690 0.0000 0.0000
# 5 0.0000 0.0000 0.0000 0.0000 24.4521 0.0000
# 6 0.0000 0.0000 0.0000 0.0000 0.0000 22.4162
#
#
#
# Elastic Compliance Matrix: (Units=1/GPa)
#
#
# Indices 1 2 3 4 5 6 
#
# 1 0.008514 -0.004298 -0.002382 0.000000 0.000000 0.000000
# 2 -0.004298 0.014194 -0.003429 0.000000 0.000000 0.000000
# 3 -0.002382 -0.003429 0.010550 0.000000 0.000000 0.000000
# 4 0.000000 0.000000 0.000000 0.029181 0.000000 0.000000
# 5 0.000000 0.000000 0.000000 0.000000 0.040896 0.000000
# 6 0.000000 0.000000 0.000000 0.000000 0.000000 0.044611
#
#
# Mechanical properties :
#
#
# Convention : Reuss Voigt Hill
#
# Bulk Modulus (GPa) = 76.69443 81.41175 79.05309
# Shear Modulus (GPa) = 28.98398 30.94241 29.96320
#
# Velocity S-wave (km/s) = 3.73076 3.85474 3.79326
# Velocity P-wave (km/s) = 7.44231 7.67510 7.55960
#
# Compressibility (1/GPa) = 0.01303876
#
# Stress axis : x y z
#
# Youngs Moduli (GPa) = 117.45768 70.45456 94.79032
#
# Poissons Ratio (x) = 0.30281 0.22581
# Poissons Ratio (y) = 0.50482 0.32503
# Poissons Ratio (z) = 0.27981 0.24158
#
# Static dielectric constant tensor:
#      x y z
#    x 3.826460 0.000000 0.000000 
#    y 0.000000 3.339360 0.000000 
#    z 0.000000 0.000000 4.008170 
# 
# 
# High freq. dielectric constant tensor:
#      x y z
#    x 1.834290 0.000000 0.000000 
#    y 0.000000 1.773740 0.000000 
#    z 0.000000 0.000000 1.836210 
# 
# From -- ./inp_files/16922.got.cif
#   From: 2010.06.25/outbox.cif.g09.slc.cpg/sg52_9_cif.got.tgz:16922.got - 2010.06.26 19:32:48.
