data_PCOD8217729
_publ_section_title
;
Structure prediction by ZEFSAII (Michael W. Deem and Ramdas Pophale) SiO2 
 PCOD8217729
Probable space group: P M N A
;
_chemical_formula_sum "Si O2"
_cell_formula_units_Z 64
_cell_length_a 13.718786
_cell_length_b 13.699842
_cell_length_c 20.879194
_cell_angle_alpha 90.000000
_cell_angle_beta 90.000000
_cell_angle_gamma 90.000000
_cell_volume 3924.144305
_symmetry_space_group_name_H-M "P M N A"
_symmetry_group_IT_number 53
_symmetry_cell_setting 'orthorhombic'
loop_
_space_group_symop_operation_xyz
x,y,z
1/2-x,-y,1/2+z
x,-y,-z
1/2-x,y,1/2-z
-x,-y,-z
1/2+x,y,1/2-z
-x,y,z
1/2+x,-y,1/2+z
loop_
_atom_site_type_symbol
_atom_site_label
_atom_site_fract_x
_atom_site_fract_y
_atom_site_fract_z
Si Si1 0.308550 0.401177 0.150748
Si Si2 0.190822 0.175396 0.654832
Si Si3 0.798002 0.615014 0.400213
Si Si4 0.615569 0.305903 0.025036
Si Si5 0.385064 0.900357 0.028182
Si Si6 0.390121 0.592381 0.712477
Si Si7 0.604599 0.387230 0.660892
Si Si8 0.108448 0.819886 0.209892
O O1 0.332364 0.513665 0.131969
O O2 0.346982 0.331245 0.095274
O O3 0.194149 0.373270 0.162592
O O4 0.367534 0.375111 0.215159
O O5 0.167263 0.289157 0.638995
O O6 0.151386 0.105259 0.600424
O O7 0.305732 0.147328 0.661549
O O8 0.132736 0.146303 0.718566
O O9 0.835140 0.621542 0.473141
O O10 0.680400 0.614518 0.397851
O O11 0.500000 0.319067 0.019692
O O12 0.648932 0.194586 0.011782
O O13 0.500000 0.906121 0.027862
O O14 0.339677 0.000000 0.000000
O O15 0.500000 0.628676 0.693248
O O16 0.382064 0.475742 0.710094
O O17 0.500000 0.390882 0.625919
O O18 0.612588 0.296854 0.708870
O O19 0.000000 0.858714 0.189893
#
# Coordination Sequence:
#
# PCOD8217729 Si02
#       8
#     8   8   8   8   8   8   8   8
#     4  10  18  28  43  63  89 118 147 179 211 246
#     4   9  16  26  42  65  91 117 143 172 210 254
#     4   9  17  27  39  62  94 120 143 172 207 249
#     4  10  20  31  44  64  87 111 140 174 214 258
#     4   9  18  33  51  67  83 106 139 178 217 260
#     4   9  17  28  42  59  83 119 157 184 205 236
#     4   8  14  25  40  59  85 120 155 177 199 240
#     4   9  15  23  39  64  93 118 140 172 212 254
#
# _framework density 16.309287999999999
#
# number of rings (size 3 to 8) (size 9 to 14) (size 15 to 20)
#    0.000    2.875    0.000    1.875    0.000    5.000 
#    0.000    0.625    0.000    7.125    0.000    1.750 
#    0.000    0.000    0.000    0.000    0.000    0.000 
#
# Total GULP energy -792926.003896 kJ/mol
# GULP energy per Si atom -12389.468811 kJ/mol
# Density = 1.627217 g / cm^3
# Si number density = 16.309288 Si / 1000 Ang^3
#
#
#
# Elastic Constant Matrix: (Units=GPa)
#
#
# Indices 1 2 3 4 5 6 
#
# 1 34.4869 8.0205 0.4557 0.0000 0.0000 0.0000
# 2 8.0205 46.1389 24.5576 0.0000 0.0000 0.0000
# 3 0.4557 24.5576 69.7337 0.0000 0.0000 0.0000
# 4 0.0000 0.0000 0.0000 18.6437 0.0000 0.0000
# 5 0.0000 0.0000 0.0000 0.0000 24.5171 0.0000
# 6 0.0000 0.0000 0.0000 0.0000 0.0000 11.9882
#
#
#
# Elastic Compliance Matrix: (Units=1/GPa)
#
#
# Indices 1 2 3 4 5 6 
#
# 1 0.030454 -0.006385 0.002049 0.000000 0.000000 0.000000
# 2 -0.006385 0.028012 -0.009823 0.000000 0.000000 0.000000
# 3 0.002049 -0.009823 0.017786 0.000000 0.000000 0.000000
# 4 0.000000 0.000000 0.000000 0.053637 0.000000 0.000000
# 5 0.000000 0.000000 0.000000 0.000000 0.040788 0.000000
# 6 0.000000 0.000000 0.000000 0.000000 0.000000 0.083415
#
#
# Mechanical properties :
#
#
# Convention : Reuss Voigt Hill
#
# Bulk Modulus (GPa) = 20.86126 24.04743 22.45434
# Shear Modulus (GPa) = 16.75667 18.85150 17.80409
#
# Velocity S-wave (km/s) = 3.20883 3.40350 3.30760
# Velocity P-wave (km/s) = 5.15244 5.49743 5.32773
#
# Compressibility (1/GPa) = 0.04793575
#
# Stress axis : x y z
#
# Youngs Moduli (GPa) = 32.83601 35.69912 56.22344
#
# Poissons Ratio (x) = 0.22793 -0.11523
# Poissons Ratio (y) = 0.20965 0.55228
# Poissons Ratio (z) = -0.06730 0.35067
#
# Static dielectric constant tensor:
#      x y z
#    x 3.356230 0.000000 0.000000 
#    y 0.000000 2.841930 0.000000 
#    z 0.000000 0.000000 2.916490 
# 
# 
# High freq. dielectric constant tensor:
#      x y z
#    x 1.636370 0.000000 0.000000 
#    y 0.000000 1.581920 0.000000 
#    z 0.000000 0.000000 1.614510 
# 
# From -- ./inp_files/28621.got.cif
#   From: 2010.03.12/outbox.cif.g09.slc.cpg/sg53_15_cif.got.tgz:28621.got - 2010.04.16 14:36:59.
