data_PCOD8217888
_publ_section_title
;
Structure prediction by ZEFSAII (Michael W. Deem and Ramdas Pophale) SiO2 
 PCOD8217888
Probable space group: P M N A
;
_chemical_formula_sum "Si O2"
_cell_formula_units_Z 56
_cell_length_a 9.144863
_cell_length_b 17.666809
_cell_length_c 21.722728
_cell_angle_alpha 90.000000
_cell_angle_beta 90.000000
_cell_angle_gamma 90.000000
_cell_volume 3509.535839
_symmetry_space_group_name_H-M "P M N A"
_symmetry_group_IT_number 53
_symmetry_cell_setting 'orthorhombic'
loop_
_space_group_symop_operation_xyz
x,y,z
1/2-x,-y,1/2+z
x,-y,-z
1/2-x,y,1/2-z
-x,-y,-z
1/2+x,y,1/2-z
-x,y,z
1/2+x,-y,1/2+z
loop_
_atom_site_type_symbol
_atom_site_label
_atom_site_fract_x
_atom_site_fract_y
_atom_site_fract_z
Si Si1 0.832755 0.339302 0.960412
Si Si2 0.170291 0.743880 0.685674
Si Si3 0.329457 0.376516 0.398509
Si Si4 0.662061 0.017235 0.572144
Si Si5 0.665021 0.479497 0.928675
Si Si6 0.328957 0.828023 0.471184
Si Si7 0.332168 0.124738 0.092153
O O1 0.731791 0.395492 0.920769
O O2 0.794569 0.253272 0.940570
O O3 0.000000 0.360346 0.945866
O O4 0.802941 0.345892 0.033027
O O5 0.250000 0.752018 0.750000
O O6 0.243998 0.676774 0.647915
O O7 0.190766 0.823844 0.651776
O O8 0.000000 0.724415 0.694752
O O9 0.500000 0.378691 0.381291
O O10 0.263056 0.460742 0.391284
O O11 0.500000 0.007415 0.600215
O O12 0.714865 0.105207 0.577219
O O13 0.661657 0.000000 0.500000
O O14 0.767812 0.958820 0.607013
O O15 0.500000 0.480215 0.902884
O O16 0.668785 0.500000 0.000000
O O17 0.500000 0.834886 0.487852
O O18 0.244863 0.834894 0.535145
O O19 0.500000 0.114630 0.074564
#
# Coordination Sequence:
#
# PCOD8217888 Si02
#       7
#     8   8   8   8   8   8   8
#     4   9  16  26  42  63  87 116 149 178 210 257
#     4  11  23  35  47  64  85 113 151 191 227 263
#     4  10  18  30  47  62  82 114 148 183 222 260
#     4   8  15  26  41  59  82 113 146 174 208 257
#     4   9  17  27  40  60  87 115 144 178 215 258
#     4   9  16  27  42  62  87 117 148 176 209 257
#     4  10  19  29  42  60  84 111 143 183 223 258
#
# _framework density 15.956526999999999
#
# number of rings (size 3 to 8) (size 9 to 14) (size 15 to 20)
#    0.000    2.571    1.429    2.571    0.000    7.143 
#    0.000    0.000    0.000    0.000    0.000    0.000 
#    0.000    1.143    0.000    7.429    0.000    6.286 
#
# Total GULP energy -694191.801680 kJ/mol
# GULP energy per Si atom -12396.282173 kJ/mol
# Density = 1.592021 g / cm^3
# Si number density = 15.956527 Si / 1000 Ang^3
#
#
#
# Elastic Constant Matrix: (Units=GPa)
#
#
# Indices 1 2 3 4 5 6 
#
# 1 112.5176 70.7046 35.2566 0.0000 0.0000 0.0000
# 2 70.7046 152.0370 30.7176 0.0000 0.0000 0.0000
# 3 35.2566 30.7176 32.5693 0.0000 0.0000 0.0000
# 4 0.0000 0.0000 0.0000 11.0825 0.0000 0.0000
# 5 0.0000 0.0000 0.0000 0.0000 17.8416 0.0000
# 6 0.0000 0.0000 0.0000 0.0000 0.0000 27.7512
#
#
#
# Elastic Compliance Matrix: (Units=1/GPa)
#
#
# Indices 1 2 3 4 5 6 
#
# 1 0.015885 -0.004834 -0.012636 0.000000 0.000000 0.000000
# 2 -0.004834 0.009597 -0.003818 0.000000 0.000000 0.000000
# 3 -0.012636 -0.003818 0.047983 0.000000 0.000000 0.000000
# 4 0.000000 0.000000 0.000000 0.090233 0.000000 0.000000
# 5 0.000000 0.000000 0.000000 0.000000 0.056049 0.000000
# 6 0.000000 0.000000 0.000000 0.000000 0.000000 0.036034
#
#
# Mechanical properties :
#
#
# Convention : Reuss Voigt Hill
#
# Bulk Modulus (GPa) = 32.37477 63.38685 47.88081
# Shear Modulus (GPa) = 16.19939 22.03139 19.11539
#
# Velocity S-wave (km/s) = 3.18971 3.71983 3.46492
# Velocity P-wave (km/s) = 5.82229 7.63285 6.78821
#
# Compressibility (1/GPa) = 0.03088825
#
# Stress axis : x y z
#
# Youngs Moduli (GPa) = 62.95408 104.20037 20.84052
#
# Poissons Ratio (x) = 0.50372 0.26334
# Poissons Ratio (y) = 0.30433 0.07957
# Poissons Ratio (z) = 0.79548 0.39786
#
# Static dielectric constant tensor:
#      x y z
#    x 3.181410 0.000000 0.000000 
#    y 0.000000 3.514160 0.000000 
#    z 0.000000 0.000000 2.508250 
# 
# 
# High freq. dielectric constant tensor:
#      x y z
#    x 1.625320 0.000000 0.000000 
#    y 0.000000 1.632610 0.000000 
#    z 0.000000 0.000000 1.536150 
# 
# From -- ./inp_files/31065.got.cif
#   From: 2010.03.12/outbox.cif.g09.slc.cpg/sg53_16_cif.got.tgz:31065.got - 2010.04.16 14:36:59.
