data_PCOD8217919
_publ_section_title
;
Structure prediction by ZEFSAII (Michael W. Deem and Ramdas Pophale) SiO2 
 PCOD8217919
Probable space group: P M N A
;
_chemical_formula_sum "Si O2"
_cell_formula_units_Z 64
_cell_length_a 19.067311
_cell_length_b 20.919607
_cell_length_c 8.903512
_cell_angle_alpha 90.000000
_cell_angle_beta 90.000000
_cell_angle_gamma 90.000000
_cell_volume 3551.438678
_symmetry_space_group_name_H-M "P M N A"
_symmetry_group_IT_number 53
_symmetry_cell_setting 'orthorhombic'
loop_
_space_group_symop_operation_xyz
x,y,z
1/2-x,-y,1/2+z
x,-y,-z
1/2-x,y,1/2-z
-x,-y,-z
1/2+x,y,1/2-z
-x,y,z
1/2+x,-y,1/2+z
loop_
_atom_site_type_symbol
_atom_site_label
_atom_site_fract_x
_atom_site_fract_y
_atom_site_fract_z
Si Si1 0.583518 0.374099 0.669045
Si Si2 0.174190 0.873001 0.321376
Si Si3 0.172779 1.000000 0.180260
Si Si4 0.916316 0.500000 0.330946
Si Si5 0.920285 0.753384 0.324386
Si Si6 0.325810 0.873001 0.821376
Si Si7 0.079715 0.246616 0.324386
Si Si8 0.916482 0.374099 0.169045
O O1 0.500000 0.375061 0.677282
O O2 0.613940 0.436661 0.751346
O O3 0.611605 0.309467 0.745834
O O4 0.611361 0.375545 0.500000
O O5 0.250000 0.860385 0.250000
O O6 0.137339 0.935532 0.245813
O O7 0.125533 0.813885 0.276961
O O8 0.180885 0.882558 0.500000
O O9 0.250000 1.000000 0.250000
O O10 0.137339 0.064468 0.245813
O O11 0.172979 0.000000 0.000000
O O12 0.888599 0.500000 0.500000
O O13 0.886060 0.436661 0.251347
O O14 0.000000 0.500000 0.324041
O O15 0.916903 0.740474 0.500000
O O16 0.000000 0.766452 0.272017
O O17 0.250000 0.860385 0.750000
O O18 0.374467 0.813886 0.776961
O O19 0.111605 0.309467 0.245834
O O20 0.000000 0.233548 0.272017
O O21 0.000000 0.375060 0.177283
#
# Coordination Sequence:
#
# PCOD8217919 Si02
#       8
#     8   8   8   8   8   8   8   8
#     4   9  16  25  39  61  89 119 151 190 233 272
#     4  10  19  32  51  72  94 120 153 192 230 272
#     4  10  18  30  49  70  93 119 151 191 231 272
#     4   9  15  23  37  57  84 119 156 191 226 269
#     4   9  18  32  48  67  93 125 157 188 227 275
#     4  10  19  32  51  72  94 120 153 192 230 272
#     4   9  18  32  48  67  93 125 157 188 227 275
#     4   9  16  25  39  61  89 119 151 190 233 272
#
# _framework density 18.020866000000002
#
# number of rings (size 3 to 8) (size 9 to 14) (size 15 to 20)
#    0.000    2.625    0.000    4.500    0.000    6.500 
#    0.000    0.625    0.000    3.750    0.000    0.875 
#    0.000    0.000    0.000    0.000    0.000    0.000 
#
# Total GULP energy -793378.708589 kJ/mol
# GULP energy per Si atom -12396.542322 kJ/mol
# Density = 1.797985 g / cm^3
# Si number density = 18.020866 Si / 1000 Ang^3
#
#
#
# Elastic Constant Matrix: (Units=GPa)
#
#
# Indices 1 2 3 4 5 6 
#
# 1 33.6034 47.2084 26.4932 0.0000 0.0000 0.0000
# 2 47.2084 218.1036 96.6582 0.0000 0.0000 0.0000
# 3 26.4932 96.6582 120.7587 0.0000 0.0000 0.0000
# 4 0.0000 0.0000 0.0000 38.2096 0.0000 0.0000
# 5 0.0000 0.0000 0.0000 0.0000 15.1239 0.0000
# 6 0.0000 0.0000 0.0000 0.0000 0.0000 -0.6208
#
#
#
# Elastic Compliance Matrix: (Units=1/GPa)
#
#
# Indices 1 2 3 4 5 6 
#
# 1 0.043503 -0.008038 -0.003111 0.000000 0.000000 0.000000
# 2 -0.008038 0.008591 -0.005113 0.000000 0.000000 0.000000
# 3 -0.003111 -0.005113 0.013056 0.000000 0.000000 0.000000
# 4 0.000000 0.000000 0.000000 0.026171 0.000000 0.000000
# 5 0.000000 0.000000 0.000000 0.000000 0.066120 0.000000
# 6 0.000000 0.000000 0.000000 0.000000 0.000000 -1.610896
#
#
# Mechanical properties :
#
#
# Convention : Reuss Voigt Hill
#
# Bulk Modulus (GPa) = 30.64892 79.24280 54.94586
# Shear Modulus (GPa) = -3.54596 24.01628 10.23516
#
# Velocity S-wave (km/s) = -1.40427 3.65457 2.38578
# Velocity P-wave (km/s) = 3.79672 7.86613 6.17621
#
# Compressibility (1/GPa) = 0.03262757
#
# Stress axis : x y z
#
# Youngs Moduli (GPa) = 22.98677 116.40673 76.59470
#
# Poissons Ratio (x) = 0.93565 0.23825
# Poissons Ratio (y) = 0.18476 0.39161
# Poissons Ratio (z) = 0.07150 0.59515
#
# Static dielectric constant tensor:
#      x y z
#    x 2.771580 0.000000 0.000000 
#    y 0.000000 3.897280 0.000000 
#    z 0.000000 0.000000 3.437140 
# 
# 
# High freq. dielectric constant tensor:
#      x y z
#    x 1.625650 0.000000 0.000000 
#    y 0.000000 1.723600 0.000000 
#    z 0.000000 0.000000 1.711150 
# 
# From -- ./inp_files/10224.got.cif
#   From: 2010.03.12/outbox.cif.g09.slc.cpg/sg53_6_cif.got.tgz:10224.got - 2010.04.16 14:36:59.
