data_PCOD8217532
_publ_section_title
;
Structure prediction by ZEFSAII (Michael W. Deem and Ramdas Pophale) SiO2 
 PCOD8217532
Probable space group: P M N A
;
_chemical_formula_sum "Si O2"
_cell_formula_units_Z 52
_cell_length_a 28.499013
_cell_length_b 9.377063
_cell_length_c 10.608712
_cell_angle_alpha 90.000000
_cell_angle_beta 90.000000
_cell_angle_gamma 90.000000
_cell_volume 2835.040797
_symmetry_space_group_name_H-M "P M N A"
_symmetry_group_IT_number 53
_symmetry_cell_setting 'orthorhombic'
loop_
_space_group_symop_operation_xyz
x,y,z
1/2-x,-y,1/2+z
x,-y,-z
1/2-x,y,1/2-z
-x,-y,-z
1/2+x,y,1/2-z
-x,y,z
1/2+x,-y,1/2+z
loop_
_atom_site_type_symbol
_atom_site_label
_atom_site_fract_x
_atom_site_fract_y
_atom_site_fract_z
Si Si1 0.948429 0.273987 0.797499
Si Si2 0.401183 0.665046 0.540268
Si Si3 0.551826 0.400352 0.216389
Si Si4 0.693134 0.651922 0.442390
Si Si5 0.889101 0.500000 0.500000
Si Si6 0.267229 0.110836 0.886844
Si Si7 0.853309 0.278873 0.684711
O O1 0.951468 0.440233 0.767366
O O2 0.905149 0.211951 0.714602
O O3 0.000000 0.204127 0.769362
O O4 0.936157 0.252563 0.945040
O O5 0.398459 0.500000 0.500000
O O6 0.419969 0.692490 0.680705
O O7 0.347381 0.722545 0.531446
O O8 0.500000 0.335057 0.198238
O O9 0.578164 0.396020 0.083399
O O10 0.709349 0.500000 0.500000
O O11 0.738479 0.750518 0.430707
O O12 0.668997 0.640002 0.304837
O O13 0.855548 0.402052 0.581835
O O14 0.250000 0.051394 0.750000
O O15 0.321571 0.151586 0.868533
O O16 0.261983 0.000000 0.000000
#
# Coordination Sequence:
#
# PCOD8217532 Si02
#       7
#     8   8   8   8   4   8   8
#     4   8  13  23  42  67  93 135 172 202 251 307
#     4   8  13  23  40  67  98 127 167 211 254 302
#     4   9  15  22  35  61 105 141 164 199 248 305
#     4   9  17  33  56  78 104 133 169 221 272 310
#     4  10  17  26  40  68 102 138 174 198 255 316
#     4  10  22  42  57  78 106 140 179 224 271 326
#     4   9  19  32  49  72 112 135 170 219 259 308
#
# _framework density 18.341887
#
# number of rings (size 3 to 8) (size 9 to 14) (size 15 to 20)
#    0.000    3.077    0.000    3.462    1.077    2.462 
#    5.538    0.000    0.000    0.462    0.000    0.000 
#    0.000    8.000    0.000    0.000    0.000    0.000 
#
# Total GULP energy -644256.181336 kJ/mol
# GULP energy per Si atom -12389.541949 kJ/mol
# Density = 1.830014 g / cm^3
# Si number density = 18.341887 Si / 1000 Ang^3
#
#
#
# Elastic Constant Matrix: (Units=GPa)
#
#
# Indices 1 2 3 4 5 6 
#
# 1 143.3197 33.3353 55.3684 0.0000 0.0000 0.0000
# 2 33.3353 35.6315 40.4462 0.0000 0.0000 0.0000
# 3 55.3684 40.4462 127.1292 0.0000 0.0000 0.0000
# 4 0.0000 0.0000 0.0000 18.6636 0.0000 0.0000
# 5 0.0000 0.0000 0.0000 0.0000 19.0170 0.0000
# 6 0.0000 0.0000 0.0000 0.0000 0.0000 7.8534
#
#
#
# Elastic Compliance Matrix: (Units=1/GPa)
#
#
# Indices 1 2 3 4 5 6 
#
# 1 0.009229 -0.006374 -0.001992 0.000000 0.000000 0.000000
# 2 -0.006374 0.048331 -0.012601 0.000000 0.000000 0.000000
# 3 -0.001992 -0.012601 0.012742 0.000000 0.000000 0.000000
# 4 0.000000 0.000000 0.000000 0.053580 0.000000 0.000000
# 5 0.000000 0.000000 0.000000 0.000000 0.052584 0.000000
# 6 0.000000 0.000000 0.000000 0.000000 0.000000 0.127333
#
#
# Mechanical properties :
#
#
# Convention : Reuss Voigt Hill
#
# Bulk Modulus (GPa) = 35.24762 62.70890 48.97826
# Shear Modulus (GPa) = 14.07698 20.90218 17.48958
#
# Velocity S-wave (km/s) = 2.77334 3.37944 3.09128
# Velocity P-wave (km/s) = 5.43268 7.03496 6.28508
#
# Compressibility (1/GPa) = 0.02837071
#
# Stress axis : x y z
#
# Youngs Moduli (GPa) = 108.34951 20.69057 78.47771
#
# Poissons Ratio (x) = 0.13187 0.15632
# Poissons Ratio (y) = 0.69057 0.98887
# Poissons Ratio (z) = 0.21582 0.26072
#
# Static dielectric constant tensor:
#      x y z
#    x 3.892560 0.000000 0.000000 
#    y 0.000000 2.651900 0.000000 
#    z 0.000000 0.000000 3.576630 
# 
# 
# High freq. dielectric constant tensor:
#      x y z
#    x 1.731020 0.000000 0.000000 
#    y 0.000000 1.624120 0.000000 
#    z 0.000000 0.000000 1.719030 
# 
# From -- ./inp_files/18737.got.cif
#   From: 2010.03.12/outbox.cif.g09.slc.cpg/sg53_10_cif.got.tgz:18737.got - 2010.04.16 14:36:59.
