data_PCOD8217151
_publ_section_title
;
Structure prediction by ZEFSAII (Michael W. Deem and Ramdas Pophale) SiO2 
 PCOD8217151
Probable space group: P N N A
;
_chemical_formula_sum "Si O2"
_cell_formula_units_Z 56
_cell_length_a 12.969983
_cell_length_b 14.532789
_cell_length_c 13.674535
_cell_angle_alpha 90.000000
_cell_angle_beta 90.000000
_cell_angle_gamma 90.000000
_cell_volume 2577.513461
_symmetry_space_group_name_H-M "P N N A"
_symmetry_group_IT_number 52
_symmetry_cell_setting 'orthorhombic'
loop_
_space_group_symop_operation_xyz
x,y,z
1/2-x,-y,z
x,1/2-y,1/2-z
1/2-x,1/2+y,1/2-z
-x,-y,-z
1/2+x,y,-z
-x,1/2+y,1/2+z
1/2+x,1/2-y,1/2+z
loop_
_atom_site_type_symbol
_atom_site_label
_atom_site_fract_x
_atom_site_fract_y
_atom_site_fract_z
Si Si1 0.843133 0.058504 0.532445
Si Si2 0.285171 0.735319 0.990213
Si Si3 0.953094 0.709152 0.355697
Si Si4 0.630916 0.487373 0.339492
Si Si5 0.049914 0.223458 0.358728
Si Si6 0.021112 0.981389 0.639403
Si Si7 0.098994 0.651916 0.527373
O O1 0.802611 0.157650 0.499929
O O2 0.884591 0.005737 0.435981
O O3 0.750000 0.000000 0.577763
O O4 0.934838 0.060633 0.614399
O O5 0.375030 0.717431 0.907947
O O6 0.220970 0.828134 0.971128
O O7 0.344054 0.751846 0.090494
O O8 0.987325 0.750000 0.250000
O O9 0.882292 0.620187 0.351535
O O10 0.051290 0.676822 0.420630
O O11 0.750000 0.500000 0.313036
O O12 0.558698 0.516766 0.249553
O O13 0.592634 0.545512 0.435243
O O14 0.072107 0.250000 0.250000
O O15 0.030940 0.116824 0.380509
O O16 0.953426 0.283229 0.392875
#
# Coordination Sequence:
#
# PCOD8217151 Si02
#       7
#     8   8   8   8   8   8   8
#     4  11  23  39  63  97 142 176 223 292 358 405
#     4  11  24  42  67  96 134 179 230 280 354 415
#     4  11  28  44  71 103 133 180 241 293 348 423
#     4  12  25  45  70 100 136 183 238 283 356 429
#     4  11  22  42  65  96 132 179 227 273 346 418
#     4  11  24  37  66 100 136 178 228 295 349 417
#     4  11  24  46  70  95 139 182 221 293 345 417
#
# _framework density 21.726365999999999
#
# number of rings (size 3 to 8) (size 9 to 14) (size 15 to 20)
#    0.000    0.857    5.714    0.857    6.000    1.143 
#    0.000    0.000    0.000    0.000    0.000    0.000 
#    0.000    0.000    0.000    0.000    0.000    0.000 
#
# Total GULP energy -694082.640292 kJ/mol
# GULP energy per Si atom -12394.332862 kJ/mol
# Density = 2.167692 g / cm^3
# Si number density = 21.726366 Si / 1000 Ang^3
#
#
#
# Elastic Constant Matrix: (Units=GPa)
#
#
# Indices 1 2 3 4 5 6 
#
# 1 117.3948 15.8287 54.5340 0.0000 0.0000 0.0000
# 2 15.8287 68.7090 25.8574 0.0000 0.0000 0.0000
# 3 54.5340 25.8574 148.6853 0.0000 0.0000 0.0000
# 4 0.0000 0.0000 0.0000 31.7683 0.0000 0.0000
# 5 0.0000 0.0000 0.0000 0.0000 30.3322 0.0000
# 6 0.0000 0.0000 0.0000 0.0000 0.0000 3.4132
#
#
#
# Elastic Compliance Matrix: (Units=1/GPa)
#
#
# Indices 1 2 3 4 5 6 
#
# 1 0.010334 -0.001021 -0.003613 0.000000 0.000000 0.000000
# 2 -0.001021 0.015674 -0.002351 0.000000 0.000000 0.000000
# 3 -0.003613 -0.002351 0.008460 0.000000 0.000000 0.000000
# 4 0.000000 0.000000 0.000000 0.031478 0.000000 0.000000
# 5 0.000000 0.000000 0.000000 0.000000 0.032968 0.000000
# 6 0.000000 0.000000 0.000000 0.000000 0.000000 0.292977
#
#
# Mechanical properties :
#
#
# Convention : Reuss Voigt Hill
#
# Bulk Modulus (GPa) = 48.78611 58.58102 53.68357
# Shear Modulus (GPa) = 12.11551 29.00733 20.56142
#
# Velocity S-wave (km/s) = 2.36400 3.65790 3.07967
# Velocity P-wave (km/s) = 5.47311 6.69790 6.11624
#
# Compressibility (1/GPa) = 0.02049764
#
# Stress axis : x y z
#
# Youngs Moduli (GPa) = 96.76617 63.79883 118.20901
#
# Poissons Ratio (x) = 0.06515 0.42706
# Poissons Ratio (y) = 0.09881 0.27795
# Poissons Ratio (z) = 0.34959 0.15001
#
# Static dielectric constant tensor:
#      x y z
#    x 3.952700 0.000000 0.000000 
#    y 0.000000 3.999550 0.000000 
#    z 0.000000 0.000000 3.900780 
# 
# 
# High freq. dielectric constant tensor:
#      x y z
#    x 1.866410 0.000000 0.000000 
#    y 0.000000 1.855670 0.000000 
#    z 0.000000 0.000000 1.843420 
# 
# From -- ./inp_files/26139.got.cif
#   From: 2010.06.25/outbox.cif.g09.slc.cpg/sg52_14_cif.got.tgz:26139.got - 2010.06.26 19:32:48.
