data_PCOD8217206
_publ_section_title
;
Structure prediction by ZEFSAII (Michael W. Deem and Ramdas Pophale) SiO2 
 PCOD8217206
Probable space group: P N N A
;
_chemical_formula_sum "Si O2"
_cell_formula_units_Z 56
_cell_length_a 10.484824
_cell_length_b 16.229322
_cell_length_c 14.778361
_cell_angle_alpha 90.000000
_cell_angle_beta 90.000000
_cell_angle_gamma 90.000000
_cell_volume 2514.709329
_symmetry_space_group_name_H-M "P N N A"
_symmetry_group_IT_number 52
_symmetry_cell_setting 'orthorhombic'
loop_
_space_group_symop_operation_xyz
x,y,z
1/2-x,-y,z
x,1/2-y,1/2-z
1/2-x,1/2+y,1/2-z
-x,-y,-z
1/2+x,y,-z
-x,1/2+y,1/2+z
1/2+x,1/2-y,1/2+z
loop_
_atom_site_type_symbol
_atom_site_label
_atom_site_fract_x
_atom_site_fract_y
_atom_site_fract_z
Si Si1 0.121957 0.836926 0.770591
Si Si2 0.395615 0.834116 0.704970
Si Si3 0.117057 0.029143 0.439203
Si Si4 0.835675 0.199346 0.028709
Si Si5 0.470436 0.003829 0.248004
Si Si6 0.582071 0.299729 0.003411
Si Si7 0.380814 0.465343 0.445278
O O1 0.046676 0.750000 0.750000
O O2 0.242612 0.832711 0.703409
O O3 0.171008 0.844191 0.873625
O O4 0.043683 0.917485 0.746176
O O5 0.450285 0.750000 0.750000
O O6 0.442318 0.838180 0.602103
O O7 0.438855 0.916061 0.757907
O O8 0.113125 0.990757 0.338590
O O9 0.118802 0.128076 0.434115
O O10 0.250000 0.000000 0.484329
O O11 0.000000 0.000000 0.500000
O O12 0.696205 0.233547 0.003596
O O13 0.875911 0.133270 0.952642
O O14 0.947676 0.265949 0.031711
O O15 0.384666 0.005635 0.158652
O O16 0.250000 0.500000 0.488318
O O17 0.500000 0.500000 0.500000
#
# Coordination Sequence:
#
# PCOD8217206 Si02
#       7
#     8   8   8   8   8   8   8
#     4  11  23  42  72 108 147 189 252 308 367 439
#     4  11  23  42  72 108 147 189 252 308 367 439
#     4  12  27  47  74 106 149 195 245 303 373 443
#     4  12  25  46  75 109 147 194 246 309 374 442
#     4  12  26  46  72 106 153 190 253 302 385 430
#     4  12  25  46  75 109 147 194 246 309 374 442
#     4  12  27  47  74 106 149 195 245 303 373 443
#
# _framework density 22.268975000000001
#
# number of rings (size 3 to 8) (size 9 to 14) (size 15 to 20)
#    0.000    0.286    5.714    4.286    4.000    0.000 
#    0.000    0.000    0.000    0.000    0.000    0.000 
#    0.000    0.000    0.000    0.000    0.000    0.000 
#
# Total GULP energy -694562.900156 kJ/mol
# GULP energy per Si atom -12402.908931 kJ/mol
# Density = 2.221829 g / cm^3
# Si number density = 22.268975 Si / 1000 Ang^3
#
#
#
# Elastic Constant Matrix: (Units=GPa)
#
#
# Indices 1 2 3 4 5 6 
#
# 1 120.7991 30.2636 22.0899 0.0000 0.0000 0.0000
# 2 30.2636 149.3016 10.8195 0.0000 0.0000 0.0000
# 3 22.0899 10.8195 104.6149 0.0000 0.0000 0.0000
# 4 0.0000 0.0000 0.0000 39.2892 0.0000 0.0000
# 5 0.0000 0.0000 0.0000 0.0000 28.8751 0.0000
# 6 0.0000 0.0000 0.0000 0.0000 0.0000 33.8376
#
#
#
# Elastic Compliance Matrix: (Units=1/GPa)
#
#
# Indices 1 2 3 4 5 6 
#
# 1 0.009021 -0.001703 -0.001729 0.000000 0.000000 0.000000
# 2 -0.001703 0.007070 -0.000372 0.000000 0.000000 0.000000
# 3 -0.001729 -0.000372 0.009962 0.000000 0.000000 0.000000
# 4 0.000000 0.000000 0.000000 0.025452 0.000000 0.000000
# 5 0.000000 0.000000 0.000000 0.000000 0.034632 0.000000
# 6 0.000000 0.000000 0.000000 0.000000 0.000000 0.029553
#
#
# Mechanical properties :
#
#
# Convention : Reuss Voigt Hill
#
# Bulk Modulus (GPa) = 54.21124 55.67352 54.94238
# Shear Modulus (GPa) = 38.62603 41.16987 39.89795
#
# Velocity S-wave (km/s) = 4.16928 4.30438 4.23737
# Velocity P-wave (km/s) = 6.89738 7.05396 6.97611
#
# Compressibility (1/GPa) = 0.01844636
#
# Stress axis : x y z
#
# Youngs Moduli (GPa) = 110.85183 141.44199 100.37833
#
# Poissons Ratio (x) = 0.24092 0.17352
# Poissons Ratio (y) = 0.18881 0.03729
# Poissons Ratio (z) = 0.19163 0.05255
#
# Static dielectric constant tensor:
#      x y z
#    x 3.853880 0.000000 0.000000 
#    y 0.000000 3.623430 0.000000 
#    z 0.000000 0.000000 4.042310 
# 
# 
# High freq. dielectric constant tensor:
#      x y z
#    x 1.868070 0.000000 0.000000 
#    y 0.000000 1.894320 0.000000 
#    z 0.000000 0.000000 1.879280 
# 
# From -- ./inp_files/26145.got.cif
#   From: 2010.06.25/outbox.cif.g09.slc.cpg/sg52_14_cif.got.tgz:26145.got - 2010.06.26 19:32:48.
