data_PCOD8217526
_publ_section_title
;
Structure prediction by ZEFSAII (Michael W. Deem and Ramdas Pophale) SiO2 
 PCOD8217526
Probable space group: P M N A
;
_chemical_formula_sum "Si O2"
_cell_formula_units_Z 32
_cell_length_a 8.862472
_cell_length_b 11.603136
_cell_length_c 17.848048
_cell_angle_alpha 90.000000
_cell_angle_beta 90.000000
_cell_angle_gamma 90.000000
_cell_volume 1835.358823
_symmetry_space_group_name_H-M "P M N A"
_symmetry_group_IT_number 53
_symmetry_cell_setting 'orthorhombic'
loop_
_space_group_symop_operation_xyz
x,y,z
1/2-x,-y,1/2+z
x,-y,-z
1/2-x,y,1/2-z
-x,-y,-z
1/2+x,y,1/2-z
-x,y,z
1/2+x,-y,1/2+z
loop_
_atom_site_type_symbol
_atom_site_label
_atom_site_fract_x
_atom_site_fract_y
_atom_site_fract_z
Si Si1 0.324453 0.453909 0.598910
Si Si2 0.327271 0.772521 0.325226
Si Si3 0.822036 0.869704 0.017479
Si Si4 0.821384 0.659818 0.545565
O O1 0.500000 0.465682 0.577658
O O2 0.304222 0.366522 0.668544
O O3 0.233202 0.396983 0.531175
O O4 0.251597 0.581150 0.612767
O O5 0.250000 0.818516 0.250000
O O6 0.500000 0.805942 0.317273
O O7 0.262900 0.837117 0.399079
O O8 0.000000 0.847236 0.011562
O O9 0.740622 0.790683 0.954462
O O10 0.776997 0.000000 0.000000
O O11 0.000000 0.659746 0.553663
#
# Coordination Sequence:
#
# PCOD8217526 Si02
#       4
#     8   8   8   8
#     4   9  16  28  44  63  89 121 152 177 218 280
#     4   9  18  30  47  70  93 120 152 193 241 286
#     4   9  18  33  50  67  91 127 168 199 229 281
#     4  10  17  25  42  69  94 114 143 189 237 267
#
# _framework density 17.435282000000001
#
# number of rings (size 3 to 8) (size 9 to 14) (size 15 to 20)
#    0.000    2.750    0.000    6.000    0.000    5.500 
#    0.000    0.000    0.000    1.500    0.000    3.500 
#    0.000    0.000    0.000    0.000    0.000    0.000 
#
# Total GULP energy -396428.716409 kJ/mol
# GULP energy per Si atom -12388.397388 kJ/mol
# Density = 1.739560 g / cm^3
# Si number density = 17.435282 Si / 1000 Ang^3
#
#
#
# Elastic Constant Matrix: (Units=GPa)
#
#
# Indices 1 2 3 4 5 6 
#
# 1 67.8957 46.4644 22.3933 0.0000 0.0000 0.0000
# 2 46.4644 135.0663 35.6051 0.0000 0.0000 0.0000
# 3 22.3933 35.6051 54.0886 0.0000 0.0000 0.0000
# 4 0.0000 0.0000 0.0000 16.4023 0.0000 0.0000
# 5 0.0000 0.0000 0.0000 0.0000 20.3036 0.0000
# 6 0.0000 0.0000 0.0000 0.0000 0.0000 19.7259
#
#
#
# Elastic Compliance Matrix: (Units=1/GPa)
#
#
# Indices 1 2 3 4 5 6 
#
# 1 0.020158 -0.005729 -0.004575 0.000000 0.000000 0.000000
# 2 -0.005729 0.010586 -0.004597 0.000000 0.000000 0.000000
# 3 -0.004575 -0.004597 0.023408 0.000000 0.000000 0.000000
# 4 0.000000 0.000000 0.000000 0.060967 0.000000 0.000000
# 5 0.000000 0.000000 0.000000 0.000000 0.049252 0.000000
# 6 0.000000 0.000000 0.000000 0.000000 0.000000 0.050695
#
#
# Mechanical properties :
#
#
# Convention : Reuss Voigt Hill
#
# Bulk Modulus (GPa) = 41.06453 51.77513 46.41983
# Shear Modulus (GPa) = 19.76412 21.45887 20.61149
#
# Velocity S-wave (km/s) = 3.37051 3.51204 3.44200
# Velocity P-wave (km/s) = 6.22501 6.79750 6.51754
#
# Compressibility (1/GPa) = 0.02435192
#
# Stress axis : x y z
#
# Youngs Moduli (GPa) = 49.60914 94.46183 42.72015
#
# Poissons Ratio (x) = 0.54113 0.19542
# Poissons Ratio (y) = 0.28419 0.19638
# Poissons Ratio (z) = 0.22694 0.43424
#
# Static dielectric constant tensor:
#      x y z
#    x 3.169380 0.000000 0.000000 
#    y 0.000000 3.830430 0.000000 
#    z 0.000000 0.000000 3.024020 
# 
# 
# High freq. dielectric constant tensor:
#      x y z
#    x 1.675040 0.000000 0.000000 
#    y 0.000000 1.673750 0.000000 
#    z 0.000000 0.000000 1.621700 
# 
# From -- ./inp_files/19610.got.cif
#   From: 2010.03.12/outbox.cif.g09.slc.cpg/sg53_10_cif.got.tgz:19610.got - 2010.04.16 14:36:59.
