data_PCOD8217657
_publ_section_title
;
Structure prediction by ZEFSAII (Michael W. Deem and Ramdas Pophale) SiO2 
 PCOD8217657
Probable space group: P M N A
;
_chemical_formula_sum "Si O2"
_cell_formula_units_Z 56
_cell_length_a 18.435665
_cell_length_b 8.688192
_cell_length_c 18.129560
_cell_angle_alpha 90.000000
_cell_angle_beta 90.000000
_cell_angle_gamma 90.000000
_cell_volume 2903.858711
_symmetry_space_group_name_H-M "P M N A"
_symmetry_group_IT_number 53
_symmetry_cell_setting 'orthorhombic'
loop_
_space_group_symop_operation_xyz
x,y,z
1/2-x,-y,1/2+z
x,-y,-z
1/2-x,y,1/2-z
-x,-y,-z
1/2+x,y,1/2-z
-x,y,z
1/2+x,-y,1/2+z
loop_
_atom_site_type_symbol
_atom_site_label
_atom_site_fract_x
_atom_site_fract_y
_atom_site_fract_z
Si Si1 0.418256 0.135259 0.325344
Si Si2 0.171512 0.829741 0.971941
Si Si3 0.582953 0.205436 0.731556
Si Si4 0.820627 0.323617 0.888521
Si Si5 0.318331 0.768660 0.800231
Si Si6 0.205131 0.109619 0.675655
Si Si7 0.219783 0.589181 0.569809
O O1 0.500000 0.191435 0.334306
O O2 0.377163 0.179683 0.399442
O O3 0.387348 0.220212 0.253028
O O4 0.412549 0.952866 0.314056
O O5 0.249193 0.752110 0.956996
O O6 0.134904 0.731148 0.038802
O O7 0.184539 0.000000 0.000000
O O8 0.500000 0.255294 0.747200
O O9 0.624745 0.330415 0.680924
O O10 0.625722 0.186832 0.809441
O O11 0.751771 0.204550 0.883222
O O12 0.787925 0.492391 0.899218
O O13 0.250000 0.723237 0.750000
O O14 0.333029 0.633818 0.861505
O O15 0.303334 0.929429 0.844179
O O16 0.250000 0.119588 0.750000
O O17 0.181866 0.500000 0.500000
#
# Coordination Sequence:
#
# PCOD8217657 Si02
#       7
#     8   8   8   8   8   8   8
#     4  10  20  33  54  85 110 141 193 237 281 336
#     4  11  19  33  53  77 109 146 185 229 275 337
#     4   9  17  31  51  78 110 145 184 231 282 335
#     4  10  19  32  50  74 112 146 182 226 280 334
#     4  10  17  33  58  76 105 144 189 245 280 326
#     4   8  16  30  51  78 101 139 188 240 275 324
#     4  10  22  34  52  83 111 144 192 237 288 338
#
# _framework density 19.284683999999999
#
# number of rings (size 3 to 8) (size 9 to 14) (size 15 to 20)
#    0.000    2.286    2.857    1.714    0.000    2.571 
#    0.000    0.714    0.000    3.000    0.000    3.000 
#    0.000   19.429    0.000    0.000    0.000    0.000 
#
# Total GULP energy -693842.281747 kJ/mol
# GULP energy per Si atom -12390.040745 kJ/mol
# Density = 1.924079 g / cm^3
# Si number density = 19.284684 Si / 1000 Ang^3
#
#
#
# Elastic Constant Matrix: (Units=GPa)
#
#
# Indices 1 2 3 4 5 6 
#
# 1 66.8188 16.5711 34.4964 0.0000 0.0000 0.0000
# 2 16.5711 65.1182 42.3467 0.0000 0.0000 0.0000
# 3 34.4964 42.3467 96.9424 0.0000 0.0000 0.0000
# 4 0.0000 0.0000 0.0000 29.5115 0.0000 0.0000
# 5 0.0000 0.0000 0.0000 0.0000 18.5384 0.0000
# 6 0.0000 0.0000 0.0000 0.0000 0.0000 8.5709
#
#
#
# Elastic Compliance Matrix: (Units=1/GPa)
#
#
# Indices 1 2 3 4 5 6 
#
# 1 0.018350 -0.000591 -0.006272 0.000000 0.000000 0.000000
# 2 -0.000591 0.021469 -0.009168 0.000000 0.000000 0.000000
# 3 -0.006272 -0.009168 0.016552 0.000000 0.000000 0.000000
# 4 0.000000 0.000000 0.000000 0.033885 0.000000 0.000000
# 5 0.000000 0.000000 0.000000 0.000000 0.053942 0.000000
# 6 0.000000 0.000000 0.000000 0.000000 0.000000 0.116674
#
#
# Mechanical properties :
#
#
# Convention : Reuss Voigt Hill
#
# Bulk Modulus (GPa) = 41.13558 46.18976 43.66267
# Shear Modulus (GPa) = 16.60930 20.35519 18.48225
#
# Velocity S-wave (km/s) = 2.93792 3.25239 3.09915
# Velocity P-wave (km/s) = 5.73459 6.17313 5.95790
#
# Compressibility (1/GPa) = 0.02430985
#
# Stress axis : x y z
#
# Youngs Moduli (GPa) = 54.49500 46.57885 60.41649
#
# Poissons Ratio (x) = 0.02754 0.37891
# Poissons Ratio (y) = 0.03222 0.55388
# Poissons Ratio (z) = 0.34177 0.42702
#
# Static dielectric constant tensor:
#      x y z
#    x 3.510680 0.000000 0.000000 
#    y 0.000000 3.522160 0.000000 
#    z 0.000000 0.000000 3.807800 
# 
# 
# High freq. dielectric constant tensor:
#      x y z
#    x 1.701000 0.000000 0.000000 
#    y 0.000000 1.746400 0.000000 
#    z 0.000000 0.000000 1.752410 
# 
# From -- ./inp_files/29352.got.cif
#   From: 2010.03.12/outbox.cif.g09.slc.cpg/sg53_15_cif.got.tgz:29352.got - 2010.04.16 14:36:59.
