data_PCOD8217320
_publ_section_title
;
Structure prediction by ZEFSAII (Michael W. Deem and Ramdas Pophale) SiO2 
 PCOD8217320
Probable space group: P N N A
;
_chemical_formula_sum "Si O2"
_cell_formula_units_Z 32
_cell_length_a 16.028616
_cell_length_b 13.827567
_cell_length_c 6.148293
_cell_angle_alpha 90.000000
_cell_angle_beta 90.000000
_cell_angle_gamma 90.000000
_cell_volume 1362.687750
_symmetry_space_group_name_H-M "P N N A"
_symmetry_group_IT_number 52
_symmetry_cell_setting 'orthorhombic'
loop_
_space_group_symop_operation_xyz
x,y,z
1/2-x,-y,z
x,1/2-y,1/2-z
1/2-x,1/2+y,1/2-z
-x,-y,-z
1/2+x,y,-z
-x,1/2+y,1/2+z
1/2+x,1/2-y,1/2+z
loop_
_atom_site_type_symbol
_atom_site_label
_atom_site_fract_x
_atom_site_fract_y
_atom_site_fract_z
Si Si1 0.808957 0.250000 0.750000
Si Si2 0.467642 0.570808 0.188926
Si Si3 0.390146 0.085678 0.012150
Si Si4 0.166962 0.176160 0.557493
Si Si5 0.250000 0.500000 0.741414
O O1 0.875939 0.169170 0.813909
O O2 0.749717 0.216658 0.554684
O O3 0.413372 0.512469 0.364482
O O4 0.544492 0.615625 0.324535
O O5 0.500000 0.500000 0.000000
O O6 0.413178 0.661502 0.099492
O O7 0.300256 0.074707 0.904178
O O8 0.141247 0.250000 0.750000
O O9 0.185152 0.065224 0.624397
#
# Coordination Sequence:
#
# PCOD8217320 Si02
#       5
#     4   8   8   8   4
#     4  12  26  48  72 114 144 190 258 314 354 462
#     4  11  25  50  71 105 149 200 238 309 386 450
#     4  11  25  46  76 107 147 199 248 308 382 444
#     4  12  26  46  76 112 147 197 250 310 376 452
#     4  12  22  50  76 100 150 192 250 304 374 444
#
# _framework density 23.483000000000001
#
# number of rings (size 3 to 8) (size 9 to 14) (size 15 to 20)
#    0.000    0.500    5.000    3.000    0.000    0.000 
#    6.750    0.000    0.000    0.000    0.000    0.000 
#    0.000    0.000    0.000    0.000    0.000    0.000 
#
# Total GULP energy -396860.910343 kJ/mol
# GULP energy per Si atom -12401.903448 kJ/mol
# Density = 2.342955 g / cm^3
# Si number density = 23.483000 Si / 1000 Ang^3
#
#
#
# Elastic Constant Matrix: (Units=GPa)
#
#
# Indices 1 2 3 4 5 6 
#
# 1 134.7213 43.5058 54.5710 0.0000 0.0000 0.0000
# 2 43.5058 99.6946 36.8220 0.0000 0.0000 0.0000
# 3 54.5710 36.8220 113.6493 0.0000 0.0000 0.0000
# 4 0.0000 0.0000 0.0000 46.0487 0.0000 0.0000
# 5 0.0000 0.0000 0.0000 0.0000 42.3387 0.0000
# 6 0.0000 0.0000 0.0000 0.0000 0.0000 33.3264
#
#
#
# Elastic Compliance Matrix: (Units=1/GPa)
#
#
# Indices 1 2 3 4 5 6 
#
# 1 0.009909 -0.002916 -0.003813 0.000000 0.000000 0.000000
# 2 -0.002916 0.012252 -0.002570 0.000000 0.000000 0.000000
# 3 -0.003813 -0.002570 0.011463 0.000000 0.000000 0.000000
# 4 0.000000 0.000000 0.000000 0.021716 0.000000 0.000000
# 5 0.000000 0.000000 0.000000 0.000000 0.023619 0.000000
# 6 0.000000 0.000000 0.000000 0.000000 0.000000 0.030006
#
#
# Mechanical properties :
#
#
# Convention : Reuss Voigt Hill
#
# Bulk Modulus (GPa) = 66.54965 68.65143 67.60054
# Shear Modulus (GPa) = 37.71561 38.55385 38.13473
#
# Velocity S-wave (km/s) = 4.01194 4.05628 4.03417
# Velocity P-wave (km/s) = 7.06130 7.15792 7.10978
#
# Compressibility (1/GPa) = 0.01502638
#
# Stress axis : x y z
#
# Youngs Moduli (GPa) = 100.91885 81.61861 87.24057
#
# Poissons Ratio (x) = 0.23798 0.33267
# Poissons Ratio (y) = 0.29425 0.22417
# Poissons Ratio (z) = 0.38483 0.20973
#
# Static dielectric constant tensor:
#      x y z
#    x 4.204200 0.000000 0.000000 
#    y 0.000000 4.224990 0.000000 
#    z 0.000000 0.000000 4.422650 
# 
# 
# High freq. dielectric constant tensor:
#      x y z
#    x 1.941500 0.000000 0.000000 
#    y 0.000000 1.924140 0.000000 
#    z 0.000000 0.000000 1.940960 
# 
# From -- ./inp_files/2049.got.cif
#   From: 2010.06.25/outbox.cif.g09.slc.cpg/sg52_2_cif.got.tgz:2049.got - 2010.06.26 19:32:48.
