data_PCOD8217528
_publ_section_title
;
Structure prediction by ZEFSAII (Michael W. Deem and Ramdas Pophale) SiO2 
 PCOD8217528
Probable space group: P M N A
;
_chemical_formula_sum "Si O2"
_cell_formula_units_Z 64
_cell_length_a 9.133111
_cell_length_b 20.048946
_cell_length_c 21.840107
_cell_angle_alpha 90.000000
_cell_angle_beta 90.000000
_cell_angle_gamma 90.000000
_cell_volume 3999.125596
_symmetry_space_group_name_H-M "P M N A"
_symmetry_group_IT_number 53
_symmetry_cell_setting 'orthorhombic'
loop_
_space_group_symop_operation_xyz
x,y,z
1/2-x,-y,1/2+z
x,-y,-z
1/2-x,y,1/2-z
-x,-y,-z
1/2+x,y,1/2-z
-x,y,z
1/2+x,-y,1/2+z
loop_
_atom_site_type_symbol
_atom_site_label
_atom_site_fract_x
_atom_site_fract_y
_atom_site_fract_z
Si Si1 0.334416 0.512226 0.427816
Si Si2 0.172651 0.871128 0.814674
Si Si3 0.168540 0.099230 0.538586
Si Si4 0.830851 0.255906 0.106204
Si Si5 0.334866 0.384574 0.090206
Si Si6 0.170455 0.769774 0.034488
Si Si7 0.831138 0.959395 0.591981
Si Si8 0.334220 0.359835 0.946109
O O1 0.333516 0.500000 0.500000
O O2 0.500000 0.517787 0.403364
O O3 0.254880 0.451213 0.393272
O O4 0.248997 0.580207 0.411634
O O5 0.250000 0.871650 0.750000
O O6 0.216414 0.802750 0.848381
O O7 0.228829 0.933791 0.853713
O O8 0.000000 0.877936 0.806278
O O9 0.267943 0.160717 0.560486
O O10 0.215589 0.076243 0.470885
O O11 0.000000 0.121958 0.538360
O O12 0.193114 0.038707 0.585795
O O13 0.737820 0.321248 0.123690
O O14 0.000000 0.275095 0.113125
O O15 0.796480 0.231995 0.037687
O O16 0.500000 0.392786 0.114312
O O17 0.331762 0.373290 0.018010
O O18 0.251692 0.709109 0.068598
O O19 0.000000 0.764115 0.049378
O O20 0.000000 0.943584 0.607137
O O21 0.500000 0.355856 0.921543
#
# Coordination Sequence:
#
# PCOD8217528 Si02
#       8
#     8   8   8   8   8   8   8   8
#     4   9  15  23  34  49  72 103 136 171 208 244
#     4  11  22  35  49  66  87 115 148 186 228 271
#     4   9  17  29  46  66  88 113 142 179 223 267
#     4   9  18  30  41  57  81 107 140 179 218 260
#     4   9  16  24  37  54  72 100 137 175 210 246
#     4  10  17  26  40  60  84 111 143 179 218 260
#     4   9  18  32  48  66  87 112 143 180 222 270
#     4   9  16  24  34  51  76 106 140 174 208 249
#
# _framework density 16.003498
#
# number of rings (size 3 to 8) (size 9 to 14) (size 15 to 20)
#    0.000    2.625    1.250    2.625    0.000    6.500 
#    0.000    1.250    0.000    0.000    0.000    0.000 
#    0.000    0.000    0.000    1.125    0.000   17.375 
#
# Total GULP energy -793600.106981 kJ/mol
# GULP energy per Si atom -12400.001672 kJ/mol
# Density = 1.596707 g / cm^3
# Si number density = 16.003498 Si / 1000 Ang^3
#
#
#
# Elastic Constant Matrix: (Units=GPa)
#
#
# Indices 1 2 3 4 5 6 
#
# 1 119.4540 78.1382 25.1649 0.0000 0.0000 0.0000
# 2 78.1382 138.9662 26.3017 0.0000 0.0000 0.0000
# 3 25.1649 26.3017 35.4040 0.0000 0.0000 0.0000
# 4 0.0000 0.0000 0.0000 10.0010 0.0000 0.0000
# 5 0.0000 0.0000 0.0000 0.0000 11.9001 0.0000
# 6 0.0000 0.0000 0.0000 0.0000 0.0000 37.1060
#
#
#
# Elastic Compliance Matrix: (Units=1/GPa)
#
#
# Indices 1 2 3 4 5 6 
#
# 1 0.013893 -0.006915 -0.004738 0.000000 0.000000 0.000000
# 2 -0.006915 0.011815 -0.003862 0.000000 0.000000 0.000000
# 3 -0.004738 -0.003862 0.034482 0.000000 0.000000 0.000000
# 4 0.000000 0.000000 0.000000 0.099990 0.000000 0.000000
# 5 0.000000 0.000000 0.000000 0.000000 0.084033 0.000000
# 6 0.000000 0.000000 0.000000 0.000000 0.000000 0.026950
#
#
# Mechanical properties :
#
#
# Convention : Reuss Voigt Hill
#
# Bulk Modulus (GPa) = 34.29350 61.44819 47.87084
# Shear Modulus (GPa) = 16.03010 22.74939 19.38974
#
# Velocity S-wave (km/s) = 3.16834 3.77440 3.48457
# Velocity P-wave (km/s) = 5.90422 7.58122 6.79465
#
# Compressibility (1/GPa) = 0.02916004
#
# Stress axis : x y z
#
# Youngs Moduli (GPa) = 71.97988 84.63690 29.00039
#
# Poissons Ratio (x) = 0.58526 0.13740
# Poissons Ratio (y) = 0.49774 0.11201
# Poissons Ratio (z) = 0.34102 0.32690
#
# Static dielectric constant tensor:
#      x y z
#    x 3.144440 0.000000 0.000000 
#    y 0.000000 3.181110 0.000000 
#    z 0.000000 0.000000 2.415130 
# 
# 
# High freq. dielectric constant tensor:
#      x y z
#    x 1.629630 0.000000 0.000000 
#    y 0.000000 1.629220 0.000000 
#    z 0.000000 0.000000 1.531760 
# 
# From -- ./inp_files/34568.got.cif
#   From: 2010.03.12/outbox.cif.g09.slc.cpg/sg53_18_cif.got.tgz:34568.got - 2010.04.16 14:36:59.
