data_PCOD8217246
_publ_section_title
;
Structure prediction by ZEFSAII (Michael W. Deem and Ramdas Pophale) SiO2 
 PCOD8217246
Probable space group: P N N A
;
_chemical_formula_sum "Si O2"
_cell_formula_units_Z 40
_cell_length_a 9.268616
_cell_length_b 8.435842
_cell_length_c 22.214750
_cell_angle_alpha 90.000000
_cell_angle_beta 90.000000
_cell_angle_gamma 90.000000
_cell_volume 1736.939761
_symmetry_space_group_name_H-M "P N N A"
_symmetry_group_IT_number 52
_symmetry_cell_setting 'orthorhombic'
loop_
_space_group_symop_operation_xyz
x,y,z
1/2-x,-y,z
x,1/2-y,1/2-z
1/2-x,1/2+y,1/2-z
-x,-y,-z
1/2+x,y,-z
-x,1/2+y,1/2+z
1/2+x,1/2-y,1/2+z
loop_
_atom_site_type_symbol
_atom_site_label
_atom_site_fract_x
_atom_site_fract_y
_atom_site_fract_z
Si Si1 0.066590 0.700446 0.927664
Si Si2 0.358446 0.363229 0.697067
Si Si3 0.255005 0.814863 0.031670
Si Si4 0.400975 0.065396 0.259741
Si Si5 0.602502 0.577856 0.899316
O O1 0.098839 0.758415 0.860128
O O2 0.919737 0.779592 0.951606
O O3 0.036272 0.509304 0.929062
O O4 0.205168 0.736325 0.968569
O O5 0.250000 0.500000 0.676323
O O6 0.292948 0.250000 0.750000
O O7 0.493896 0.453611 0.723582
O O8 0.131309 0.760626 0.081296
O O9 0.250000 0.000000 0.024594
O O10 0.425589 0.250000 0.250000
O O11 0.417824 0.041165 0.330052
O O12 0.250000 0.000000 0.236074
O O13 0.750000 0.500000 0.924381
#
# Coordination Sequence:
#
# PCOD8217246 Si02
#       5
#     8   8   8   8   8
#     4  11  24  47  69  98 144 186 239 300 360 437
#     4  12  26  48  70 103 145 189 238 299 365 437
#     4  11  24  42  68 105 137 187 239 297 364 425
#     4  11  24  41  72 108 140 186 236 293 362 433
#     4   9  21  41  67  99 139 183 233 290 355 427
#
# _framework density 23.029008000000001
#
# number of rings (size 3 to 8) (size 9 to 14) (size 15 to 20)
#    0.000    1.200    2.000    3.000    8.400    0.000 
#    3.600    1.000    0.000    0.000    0.000    0.000 
#    0.000    0.000    0.000    0.000    0.000    0.000 
#
# Total GULP energy -495610.738550 kJ/mol
# GULP energy per Si atom -12390.268464 kJ/mol
# Density = 2.297659 g / cm^3
# Si number density = 23.029008 Si / 1000 Ang^3
#
#
#
# Elastic Constant Matrix: (Units=GPa)
#
#
# Indices 1 2 3 4 5 6 
#
# 1 67.6494 25.2895 49.3785 0.0000 0.0000 0.0000
# 2 25.2895 68.1200 2.9145 0.0000 0.0000 0.0000
# 3 49.3785 2.9145 114.5203 0.0000 0.0000 0.0000
# 4 0.0000 0.0000 0.0000 35.8631 0.0000 0.0000
# 5 0.0000 0.0000 0.0000 0.0000 67.0264 0.0000
# 6 0.0000 0.0000 0.0000 0.0000 0.0000 42.7359
#
#
#
# Elastic Compliance Matrix: (Units=1/GPa)
#
#
# Indices 1 2 3 4 5 6 
#
# 1 0.026406 -0.009326 -0.011148 0.000000 0.000000 0.000000
# 2 -0.009326 0.017990 0.003563 0.000000 0.000000 0.000000
# 3 -0.011148 0.003563 0.013448 0.000000 0.000000 0.000000
# 4 0.000000 0.000000 0.000000 0.027884 0.000000 0.000000
# 5 0.000000 0.000000 0.000000 0.000000 0.014919 0.000000
# 6 0.000000 0.000000 0.000000 0.000000 0.000000 0.023400
#
#
# Mechanical properties :
#
#
# Convention : Reuss Voigt Hill
#
# Bulk Modulus (GPa) = 41.62867 45.05053 43.33960
# Shear Modulus (GPa) = 30.14297 40.63890 35.39093
#
# Velocity S-wave (km/s) = 3.62182 4.20537 3.92445
# Velocity P-wave (km/s) = 5.96707 6.57154 6.27659
#
# Compressibility (1/GPa) = 0.02402191
#
# Stress axis : x y z
#
# Youngs Moduli (GPa) = 37.87043 55.58683 74.35910
#
# Poissons Ratio (x) = 0.51841 0.82897
# Poissons Ratio (y) = 0.35319 -0.26497
# Poissons Ratio (z) = 0.42219 -0.19808
#
# Static dielectric constant tensor:
#      x y z
#    x 4.128080 0.000000 0.000000 
#    y 0.000000 4.476450 0.000000 
#    z 0.000000 0.000000 4.035430 
# 
# 
# High freq. dielectric constant tensor:
#      x y z
#    x 1.906200 0.000000 0.000000 
#    y 0.000000 1.922350 0.000000 
#    z 0.000000 0.000000 1.917440 
# 
# From -- ./inp_files/39192.got.cif
#   From: 2010.06.25/outbox.cif.g09.slc.cpg/sg52_20_cif.got.tgz:39192.got - 2010.06.26 19:32:48.
