data_PCOD8217700
_publ_section_title
;
Structure prediction by ZEFSAII (Michael W. Deem and Ramdas Pophale) SiO2 
 PCOD8217700
Probable space group: P M N A
;
_chemical_formula_sum "Si O2"
_cell_formula_units_Z 64
_cell_length_a 14.351489
_cell_length_b 9.466722
_cell_length_c 29.975649
_cell_angle_alpha 90.000000
_cell_angle_beta 90.000000
_cell_angle_gamma 90.000000
_cell_volume 4072.538335
_symmetry_space_group_name_H-M "P M N A"
_symmetry_group_IT_number 53
_symmetry_cell_setting 'orthorhombic'
loop_
_space_group_symop_operation_xyz
x,y,z
1/2-x,-y,1/2+z
x,-y,-z
1/2-x,y,1/2-z
-x,-y,-z
1/2+x,y,1/2-z
-x,y,z
1/2+x,-y,1/2+z
loop_
_atom_site_type_symbol
_atom_site_label
_atom_site_fract_x
_atom_site_fract_y
_atom_site_fract_z
Si Si1 0.396048 0.789017 0.702810
Si Si2 0.891328 0.662219 0.575113
Si Si3 0.103385 0.278424 0.687082
Si Si4 0.889015 0.342767 0.590383
Si Si5 0.151650 0.446304 0.268532
Si Si6 0.891411 0.845603 0.489005
Si Si7 0.110142 0.015973 0.282644
Si Si8 0.207038 0.230744 0.341464
O O1 0.500000 0.818241 0.683281
O O2 0.402356 0.645361 0.731746
O O3 0.360105 0.915265 0.735292
O O4 0.320126 0.775008 0.663382
O O5 0.859190 0.499054 0.574124
O O6 0.873460 0.731438 0.527385
O O7 0.823371 0.748385 0.607864
O O8 0.000000 0.677169 0.589572
O O9 0.154307 0.311698 0.639750
O O10 0.096609 0.412634 0.719504
O O11 0.000000 0.232127 0.673682
O O12 0.144958 0.146585 0.714897
O O13 0.849244 0.224075 0.556213
O O14 0.000000 0.338677 0.591021
O O15 0.250000 0.496040 0.250000
O O16 0.163773 0.358728 0.313592
O O17 0.000000 0.870418 0.481263
O O18 0.845946 0.000000 0.500000
O O19 0.162033 0.086986 0.324089
O O20 0.000000 0.038069 0.287973
#
# Coordination Sequence:
#
# PCOD8217700 Si02
#       8
#     8   8   8   8   8   8   8   8
#     4   9  18  32  46  59  83 116 151 189 225 258
#     4  10  18  28  45  64  89 120 145 174 211 256
#     4  10  18  27  42  63  88 117 148 178 209 254
#     4   9  17  28  41  61  88 117 146 172 204 249
#     4   9  17  28  43  62  84 112 145 184 218 259
#     4   9  18  29  42  61  88 120 147 170 203 251
#     4   9  18  28  41  61  88 118 147 179 217 255
#     4  10  18  29  44  64  84 113 154 184 216 257
#
# _framework density 15.715014
#
# number of rings (size 3 to 8) (size 9 to 14) (size 15 to 20)
#    0.000    2.625    1.250    2.250    1.750    3.500 
#    0.000    0.000    0.000    0.000    0.000    0.000 
#    0.000    2.500    0.000    0.000    0.000    0.125 
#
# Total GULP energy -793111.053482 kJ/mol
# GULP energy per Si atom -12392.360211 kJ/mol
# Density = 1.567925 g / cm^3
# Si number density = 15.715014 Si / 1000 Ang^3
#
#
#
# Elastic Constant Matrix: (Units=GPa)
#
#
# Indices 1 2 3 4 5 6 
#
# 1 36.0376 9.1784 13.9696 0.0000 0.0000 0.0000
# 2 9.1784 112.7633 28.5917 0.0000 0.0000 0.0000
# 3 13.9696 28.5917 57.9218 0.0000 0.0000 0.0000
# 4 0.0000 0.0000 0.0000 16.7214 0.0000 0.0000
# 5 0.0000 0.0000 0.0000 0.0000 14.0350 0.0000
# 6 0.0000 0.0000 0.0000 0.0000 0.0000 9.9241
#
#
#
# Elastic Compliance Matrix: (Units=1/GPa)
#
#
# Indices 1 2 3 4 5 6 
#
# 1 0.030660 -0.000709 -0.007044 0.000000 0.000000 0.000000
# 2 -0.000709 0.010153 -0.004841 0.000000 0.000000 0.000000
# 3 -0.007044 -0.004841 0.021353 0.000000 0.000000 0.000000
# 4 0.000000 0.000000 0.000000 0.059804 0.000000 0.000000
# 5 0.000000 0.000000 0.000000 0.000000 0.071250 0.000000
# 6 0.000000 0.000000 0.000000 0.000000 0.000000 0.100765
#
#
# Mechanical properties :
#
#
# Convention : Reuss Voigt Hill
#
# Bulk Modulus (GPa) = 27.04366 34.46691 30.75529
# Shear Modulus (GPa) = 15.08292 18.46829 16.77560
#
# Velocity S-wave (km/s) = 3.10139 3.43184 3.27079
# Velocity P-wave (km/s) = 5.48370 6.13868 5.82041
#
# Compressibility (1/GPa) = 0.03697724
#
# Stress axis : x y z
#
# Youngs Moduli (GPa) = 32.61560 98.49023 46.83134
#
# Poissons Ratio (x) = 0.06987 0.32990
# Poissons Ratio (y) = 0.02314 0.22670
# Poissons Ratio (z) = 0.22976 0.47677
#
# Static dielectric constant tensor:
#      x y z
#    x 2.090220 0.000000 0.000000 
#    y 0.000000 3.187990 0.000000 
#    z 0.000000 0.000000 2.887310 
# 
# 
# High freq. dielectric constant tensor:
#      x y z
#    x 1.551460 0.000000 0.000000 
#    y 0.000000 1.617840 0.000000 
#    z 0.000000 0.000000 1.582670 
# 
# From -- ./inp_files/37190.got.cif
#   From: 2010.03.12/outbox.cif.g09.slc.cpg/sg53_19_cif.got.tgz:37190.got - 2010.04.16 14:36:59.
