data_PCOD8217883
_publ_section_title
;
Structure prediction by ZEFSAII (Michael W. Deem and Ramdas Pophale) SiO2 
 PCOD8217883
Probable space group: P M N A
;
_chemical_formula_sum "Si O2"
_cell_formula_units_Z 64
_cell_length_a 9.014301
_cell_length_b 15.489992
_cell_length_c 28.840886
_cell_angle_alpha 90.000000
_cell_angle_beta 90.000000
_cell_angle_gamma 90.000000
_cell_volume 4027.094742
_symmetry_space_group_name_H-M "P M N A"
_symmetry_group_IT_number 53
_symmetry_cell_setting 'orthorhombic'
loop_
_space_group_symop_operation_xyz
x,y,z
1/2-x,-y,1/2+z
x,-y,-z
1/2-x,y,1/2-z
-x,-y,-z
1/2+x,y,1/2-z
-x,y,z
1/2+x,-y,1/2+z
loop_
_atom_site_type_symbol
_atom_site_label
_atom_site_fract_x
_atom_site_fract_y
_atom_site_fract_z
Si Si1 0.175351 0.324639 0.606198
Si Si2 0.175998 0.817067 0.546609
Si Si3 0.825581 0.402769 0.296039
Si Si4 0.675476 0.174916 0.552273
Si Si5 0.326655 0.600360 0.203968
Si Si6 0.823450 0.506501 0.447990
Si Si7 0.663331 0.994859 0.054869
Si Si8 0.323715 0.342221 0.106588
O O1 0.264409 0.240783 0.590490
O O2 0.218006 0.342735 0.659575
O O3 0.230582 0.404853 0.575139
O O4 0.000000 0.309521 0.600175
O O5 0.255121 0.802777 0.497500
O O6 0.234537 0.744634 0.582158
O O7 0.000000 0.810452 0.537425
O O8 0.216669 0.909321 0.570343
O O9 0.750000 0.364665 0.250000
O O10 0.776026 0.501677 0.304765
O O11 0.771488 0.345911 0.339902
O O12 0.000000 0.396350 0.289408
O O13 0.500000 0.180250 0.548822
O O14 0.721325 0.078979 0.569729
O O15 0.250000 0.638686 0.250000
O O16 0.500000 0.604116 0.212502
O O17 0.761187 0.500000 0.500000
O O18 0.758009 0.425322 0.419910
O O19 0.000000 0.503355 0.447279
O O20 0.500000 0.973323 0.075580
O O21 0.651031 0.000000 0.000000
O O22 0.500000 0.345740 0.104332
#
# Coordination Sequence:
#
# PCOD8217883 Si02
#       8
#     8   8   8   8   8   8   8   8
#     4  10  18  30  46  65  88 119 157 189 218 258
#     4   9  17  30  49  69  89 117 152 190 225 260
#     4   9  16  28  45  66  90 115 148 186 223 263
#     4  11  21  30  43  65  93 123 151 184 227 271
#     4   9  17  29  46  66  88 115 149 189 228 265
#     4   9  15  23  40  64  87 114 150 186 213 243
#     4   8  15  29  47  66  87 113 149 189 226 265
#     4   9  15  26  45  69  90 113 151 190 218 255
#
# _framework density 15.89235
#
# number of rings (size 3 to 8) (size 9 to 14) (size 15 to 20)
#    0.000    2.750    1.250    2.625    0.000    4.750 
#    0.000    0.625    0.000    3.375    0.000    0.875 
#    0.000    2.000    0.000    0.000    0.000    0.000 
#
# Total GULP energy -793332.433531 kJ/mol
# GULP energy per Si atom -12395.819274 kJ/mol
# Density = 1.585618 g / cm^3
# Si number density = 15.892350 Si / 1000 Ang^3
#
#
#
# Elastic Constant Matrix: (Units=GPa)
#
#
# Indices 1 2 3 4 5 6 
#
# 1 43.9085 33.1864 34.7728 0.0000 0.0000 0.0000
# 2 33.1864 112.3731 58.2863 0.0000 0.0000 0.0000
# 3 34.7728 58.2863 116.2430 0.0000 0.0000 0.0000
# 4 0.0000 0.0000 0.0000 13.1654 0.0000 0.0000
# 5 0.0000 0.0000 0.0000 0.0000 20.5237 0.0000
# 6 0.0000 0.0000 0.0000 0.0000 0.0000 10.0188
#
#
#
# Elastic Compliance Matrix: (Units=1/GPa)
#
#
# Indices 1 2 3 4 5 6 
#
# 1 0.032762 -0.006206 -0.006689 0.000000 0.000000 0.000000
# 2 -0.006206 0.013203 -0.004763 0.000000 0.000000 0.000000
# 3 -0.006689 -0.004763 0.012992 0.000000 0.000000 0.000000
# 4 0.000000 0.000000 0.000000 0.075956 0.000000 0.000000
# 5 0.000000 0.000000 0.000000 0.000000 0.048724 0.000000
# 6 0.000000 0.000000 0.000000 0.000000 0.000000 0.099812
#
#
# Mechanical properties :
#
#
# Convention : Reuss Voigt Hill
#
# Bulk Modulus (GPa) = 42.30069 58.33507 50.31788
# Shear Modulus (GPa) = 15.30711 18.49354 16.90032
#
# Velocity S-wave (km/s) = 3.10687 3.41497 3.26456
# Velocity P-wave (km/s) = 6.28848 7.23432 6.77792
#
# Compressibility (1/GPa) = 0.02364027
#
# Stress axis : x y z
#
# Youngs Moduli (GPa) = 30.52297 75.74323 76.97078
#
# Poissons Ratio (x) = 0.47008 0.51482
# Poissons Ratio (y) = 0.18943 0.36665
# Poissons Ratio (z) = 0.20415 0.36080
#
# Static dielectric constant tensor:
#      x y z
#    x 2.727100 0.000000 0.000000 
#    y 0.000000 3.283330 0.000000 
#    z 0.000000 0.000000 3.013580 
# 
# 
# High freq. dielectric constant tensor:
#      x y z
#    x 1.580680 0.000000 0.000000 
#    y 0.000000 1.603320 0.000000 
#    z 0.000000 0.000000 1.593970 
# 
# From -- ./inp_files/38502.got.cif
#   From: 2010.03.12/outbox.cif.g09.slc.cpg/sg53_20_cif.got.tgz:38502.got - 2010.04.16 14:36:59.
