data_PCOD8217893
_publ_section_title
;
Structure prediction by ZEFSAII (Michael W. Deem and Ramdas Pophale) SiO2 
 PCOD8217893
Probable space group: P M N A
;
_chemical_formula_sum "Si O2"
_cell_formula_units_Z 48
_cell_length_a 7.975395
_cell_length_b 15.284026
_cell_length_c 20.973211
_cell_angle_alpha 90.000000
_cell_angle_beta 90.000000
_cell_angle_gamma 90.000000
_cell_volume 2556.553560
_symmetry_space_group_name_H-M "P M N A"
_symmetry_group_IT_number 53
_symmetry_cell_setting 'orthorhombic'
loop_
_space_group_symop_operation_xyz
x,y,z
1/2-x,-y,1/2+z
x,-y,-z
1/2-x,y,1/2-z
-x,-y,-z
1/2+x,y,1/2-z
-x,y,z
1/2+x,-y,1/2+z
loop_
_atom_site_type_symbol
_atom_site_label
_atom_site_fract_x
_atom_site_fract_y
_atom_site_fract_z
Si Si1 0.184186 0.770546 0.537906
Si Si2 0.181916 0.166332 0.601880
Si Si3 0.800696 0.578614 0.953622
Si Si4 0.500000 0.872265 0.557540
Si Si5 0.197107 0.485697 0.182067
Si Si6 0.000000 0.066701 0.911541
Si Si7 0.697413 0.317737 0.682385
O O1 0.176194 0.825739 0.473644
O O2 0.222452 0.669243 0.522718
O O3 0.335682 0.815316 0.577974
O O4 0.000000 0.778344 0.571661
O O5 0.331768 0.101550 0.623575
O O6 0.212077 0.263142 0.628110
O O7 0.000000 0.130538 0.625616
O O8 0.736717 0.565059 0.880489
O O9 0.000000 0.585283 0.957147
O O10 0.738949 0.500000 0.000000
O O11 0.500000 0.895767 0.482966
O O12 0.500000 0.962558 0.596033
O O13 0.250000 0.441649 0.250000
O O14 0.269807 0.583918 0.178653
O O15 0.000000 0.489381 0.178955
O O16 0.750000 0.276294 0.750000
O O17 0.500000 0.314176 0.670958
#
# Coordination Sequence:
#
# PCOD8217893 Si02
#       7
#     8   8   8   4   8   4   8
#     4  10  20  32  50  75 103 136 170 211 254 306
#     4  10  19  31  48  74 104 131 169 203 250 310
#     4  10  19  32  51  74 103 139 180 218 264 308
#     4   9  18  34  51  72 102 130 163 206 254 310
#     4   9  19  32  48  70 101 140 177 216 256 300
#     4   9  18  32  52  72  98 134 160 200 258 307
#     4  10  18  30  47  69 101 137 172 207 250 301
#
# _framework density 18.775276999999999
#
# number of rings (size 3 to 8) (size 9 to 14) (size 15 to 20)
#    0.000    2.333    1.667    1.500    0.000    3.667 
#    0.000    3.333    0.000    0.000    0.000    1.167 
#    0.000    0.000    0.000    0.000    0.000    0.000 
#
# Total GULP energy -594848.244069 kJ/mol
# GULP energy per Si atom -12392.671751 kJ/mol
# Density = 1.873254 g / cm^3
# Si number density = 18.775277 Si / 1000 Ang^3
#
#
#
# Elastic Constant Matrix: (Units=GPa)
#
#
# Indices 1 2 3 4 5 6 
#
# 1 133.6837 51.5192 13.6478 0.0000 0.0000 0.0000
# 2 51.5192 91.3093 2.2139 0.0000 0.0000 0.0000
# 3 13.6478 2.2139 48.5694 0.0000 0.0000 0.0000
# 4 0.0000 0.0000 0.0000 16.6548 0.0000 0.0000
# 5 0.0000 0.0000 0.0000 0.0000 18.9773 0.0000
# 6 0.0000 0.0000 0.0000 0.0000 0.0000 17.0196
#
#
#
# Elastic Compliance Matrix: (Units=1/GPa)
#
#
# Indices 1 2 3 4 5 6 
#
# 1 0.009857 -0.005501 -0.002519 0.000000 0.000000 0.000000
# 2 -0.005501 0.014033 0.000906 0.000000 0.000000 0.000000
# 3 -0.002519 0.000906 0.021256 0.000000 0.000000 0.000000
# 4 0.000000 0.000000 0.000000 0.060043 0.000000 0.000000
# 5 0.000000 0.000000 0.000000 0.000000 0.052694 0.000000
# 6 0.000000 0.000000 0.000000 0.000000 0.000000 0.058756
#
#
# Mechanical properties :
#
#
# Convention : Reuss Voigt Hill
#
# Bulk Modulus (GPa) = 32.34282 45.36938 38.85610
# Shear Modulus (GPa) = 20.73197 24.27579 22.50388
#
# Velocity S-wave (km/s) = 3.32658 3.59968 3.46582
# Velocity P-wave (km/s) = 5.65849 6.44157 6.06269
#
# Compressibility (1/GPa) = 0.03091876
#
# Stress axis : x y z
#
# Youngs Moduli (GPa) = 101.44659 71.25813 47.04632
#
# Poissons Ratio (x) = 0.39197 0.11852
# Poissons Ratio (y) = 0.55803 -0.04262
# Poissons Ratio (z) = 0.25556 -0.06456
#
# Static dielectric constant tensor:
#      x y z
#    x 3.931220 0.000000 0.000000 
#    y 0.000000 3.310230 0.000000 
#    z 0.000000 0.000000 3.446550 
# 
# 
# High freq. dielectric constant tensor:
#      x y z
#    x 1.743740 0.000000 0.000000 
#    y 0.000000 1.703150 0.000000 
#    z 0.000000 0.000000 1.685510 
# 
# From -- ./inp_files/30569.got.cif
#   From: 2010.03.12/outbox.cif.g09.slc.cpg/sg53_16_cif.got.tgz:30569.got - 2010.04.16 14:36:59.
