data_PCOD8217713
_publ_section_title
;
Structure prediction by ZEFSAII (Michael W. Deem and Ramdas Pophale) SiO2 
 PCOD8217713
Probable space group: P M N A
;
_chemical_formula_sum "Si O2"
_cell_formula_units_Z 64
_cell_length_a 14.304227
_cell_length_b 15.377322
_cell_length_c 13.493324
_cell_angle_alpha 90.000000
_cell_angle_beta 90.000000
_cell_angle_gamma 90.000000
_cell_volume 2968.001054
_symmetry_space_group_name_H-M "P M N A"
_symmetry_group_IT_number 53
_symmetry_cell_setting 'orthorhombic'
loop_
_space_group_symop_operation_xyz
x,y,z
1/2-x,-y,1/2+z
x,-y,-z
1/2-x,y,1/2-z
-x,-y,-z
1/2+x,y,1/2-z
-x,y,z
1/2+x,-y,1/2+z
loop_
_atom_site_type_symbol
_atom_site_label
_atom_site_fract_x
_atom_site_fract_y
_atom_site_fract_z
Si Si1 0.389939 0.374587 0.423602
Si Si2 0.394803 0.777951 0.023693
Si Si3 0.900601 0.037935 0.609112
Si Si4 0.109504 0.155487 0.865476
Si Si5 0.109620 0.699045 0.282128
Si Si6 0.610774 0.558384 0.362560
Si Si7 0.205352 0.798107 0.930608
Si Si8 0.206076 0.015565 0.117849
O O1 0.500000 0.360096 0.411153
O O2 0.361546 0.389803 0.537906
O O3 0.352768 0.458630 0.362198
O O4 0.338542 0.288246 0.382250
O O5 0.500000 0.766307 0.978394
O O6 0.392108 0.858932 0.098663
O O7 0.367994 0.699577 0.100144
O O8 0.318512 0.786173 0.936713
O O9 0.000000 0.016256 0.664256
O O10 0.905548 0.000000 0.500000
O O11 0.809681 0.999987 0.666579
O O12 0.145816 0.215042 0.775441
O O13 0.000000 0.164576 0.887772
O O14 0.131906 0.054048 0.838977
O O15 0.165724 0.187561 0.960280
O O16 0.152369 0.611874 0.231196
O O17 0.000000 0.696273 0.264783
O O18 0.500000 0.551536 0.360057
O O19 0.179460 0.883087 0.863796
O O20 0.215539 0.000000 0.000000
#
# Coordination Sequence:
#
# PCOD8217713 Si02
#       8
#     8   8   8   8   8   8   8   8
#     4   9  16  26  43  64  88 118 149 188 234 282
#     4  10  19  29  43  64  93 128 160 197 239 278
#     4   9  14  26  42  55  81 125 166 201 231 259
#     4  10  18  28  39  57  91 130 157 185 229 281
#     4   9  17  29  44  63  92 126 157 189 235 293
#     4   8  14  27  43  60  86 117 146 186 236 285
#     4  11  18  27  41  64  93 120 158 193 224 277
#     4   9  17  27  36  58  87 124 160 187 224 269
#
# _framework density 21.563334000000001
#
# number of rings (size 3 to 8) (size 9 to 14) (size 15 to 20)
#    0.000    2.625    5.000    1.125    0.000    3.250 
#    0.000    0.000    0.000    0.000    0.000    1.750 
#    0.000   10.000    0.000   24.875    0.000    0.000 
#
# Total GULP energy -792847.521410 kJ/mol
# GULP energy per Si atom -12388.242522 kJ/mol
# Density = 2.151426 g / cm^3
# Si number density = 21.563334 Si / 1000 Ang^3
#
#
#
# Elastic Constant Matrix: (Units=GPa)
#
#
# Indices 1 2 3 4 5 6 
#
# 1 86.3172 27.9268 -5.9454 0.0000 0.0000 0.0000
# 2 27.9268 157.1067 12.4387 0.0000 0.0000 0.0000
# 3 -5.9454 12.4387 9.3625 0.0000 0.0000 0.0000
# 4 0.0000 0.0000 0.0000 18.5311 0.0000 0.0000
# 5 0.0000 0.0000 0.0000 0.0000 11.2698 0.0000
# 6 0.0000 0.0000 0.0000 0.0000 0.0000 22.5046
#
#
#
# Elastic Compliance Matrix: (Units=1/GPa)
#
#
# Indices 1 2 3 4 5 6 
#
# 1 0.013622 -0.003471 0.013262 0.000000 0.000000 0.000000
# 2 -0.003471 0.007998 -0.012830 0.000000 0.000000 0.000000
# 3 0.013262 -0.012830 0.132277 0.000000 0.000000 0.000000
# 4 0.000000 0.000000 0.000000 0.053963 0.000000 0.000000
# 5 0.000000 0.000000 0.000000 0.000000 0.088733 0.000000
# 6 0.000000 0.000000 0.000000 0.000000 0.000000 0.044435
#
#
# Mechanical properties :
#
#
# Convention : Reuss Voigt Hill
#
# Bulk Modulus (GPa) = 6.76509 35.73628 21.25068
# Shear Modulus (GPa) = 12.61417 25.01886 18.81652
#
# Velocity S-wave (km/s) = 2.42127 3.40994 2.95721
# Velocity P-wave (km/s) = 3.31071 5.66677 4.64075
#
# Compressibility (1/GPa) = 0.14781779
#
# Stress axis : x y z
#
# Youngs Moduli (GPa) = 73.41185 125.03166 7.55989
#
# Poissons Ratio (x) = 0.43403 -0.10026
# Poissons Ratio (y) = 0.25484 0.09700
# Poissons Ratio (z) = -0.97360 1.60419
#
# Static dielectric constant tensor:
#      x y z
#    x 4.007800 0.000000 0.000000 
#    y 0.000000 3.338970 0.000000 
#    z 0.000000 0.000000 3.425670 
# 
# 
# High freq. dielectric constant tensor:
#      x y z
#    x 1.839720 0.000000 0.000000 
#    y 0.000000 1.842340 0.000000 
#    z 0.000000 0.000000 1.793050 
# 
# From -- ./inp_files/28643.got.cif
#   From: 2010.03.12/outbox.cif.g09.slc.cpg/sg53_15_cif.got.tgz:28643.got - 2010.04.16 14:36:59.
