data_PCOD8217277
_publ_section_title
;
Structure prediction by ZEFSAII (Michael W. Deem and Ramdas Pophale) SiO2 
 PCOD8217277
Probable space group: P N N A
;
_chemical_formula_sum "Si O2"
_cell_formula_units_Z 28
_cell_length_a 14.222307
_cell_length_b 9.311153
_cell_length_c 9.770193
_cell_angle_alpha 90.000000
_cell_angle_beta 90.000000
_cell_angle_gamma 90.000000
_cell_volume 1293.828326
_symmetry_space_group_name_H-M "P N N A"
_symmetry_group_IT_number 52
_symmetry_cell_setting 'orthorhombic'
loop_
_space_group_symop_operation_xyz
x,y,z
1/2-x,-y,z
x,1/2-y,1/2-z
1/2-x,1/2+y,1/2-z
-x,-y,-z
1/2+x,y,-z
-x,1/2+y,1/2+z
1/2+x,1/2-y,1/2+z
loop_
_atom_site_type_symbol
_atom_site_label
_atom_site_fract_x
_atom_site_fract_y
_atom_site_fract_z
Si Si1 0.664518 0.112876 0.342152
Si Si2 0.899483 0.790834 0.904042
Si Si3 0.411591 0.388348 0.660161
Si Si4 0.750000 0.000000 0.980978
O O1 0.694922 0.250000 0.250000
O O2 0.622513 0.163477 0.488749
O O3 0.750000 0.000000 0.365331
O O4 0.581942 0.029575 0.258610
O O5 0.921461 0.750000 0.750000
O O6 0.997279 0.872965 0.941028
O O7 0.811496 0.895798 0.888807
O O8 0.394252 0.250000 0.750000
O O9 0.317484 0.401955 0.571801
#
# Coordination Sequence:
#
# PCOD8217277 Si02
#       4
#     8   8   8   4
#     4  12  23  43  75  99 132 184 233 273 328 410
#     4  11  27  44  65 104 142 173 224 286 345 398
#     4  11  24  45  72 102 131 179 235 276 332 411
#     4  12  22  44  68  98 136 182 220 282 332 412
#
# _framework density 21.641202
#
# number of rings (size 3 to 8) (size 9 to 14) (size 15 to 20)
#    0.000    0.571    4.286    3.429    2.000    4.571 
#    5.143    0.000    0.000    0.000    0.000    0.000 
#    0.000    0.000    0.000    0.000    0.000    0.000 
#
# Total GULP energy -346872.342104 kJ/mol
# GULP energy per Si atom -12388.297932 kJ/mol
# Density = 2.159195 g / cm^3
# Si number density = 21.641202 Si / 1000 Ang^3
#
#
#
# Elastic Constant Matrix: (Units=GPa)
#
#
# Indices 1 2 3 4 5 6 
#
# 1 170.7852 58.5358 41.7664 0.0000 0.0000 0.0000
# 2 58.5358 138.1447 38.9698 0.0000 0.0000 0.0000
# 3 41.7664 38.9698 93.5132 0.0000 0.0000 0.0000
# 4 0.0000 0.0000 0.0000 14.5882 0.0000 0.0000
# 5 0.0000 0.0000 0.0000 0.0000 -108.3099 0.0000
# 6 0.0000 0.0000 0.0000 0.0000 0.0000 25.8451
#
#
#
# Elastic Compliance Matrix: (Units=1/GPa)
#
#
# Indices 1 2 3 4 5 6 
#
# 1 0.007233 -0.002440 -0.002214 0.000000 0.000000 0.000000
# 2 -0.002440 0.009027 -0.002672 0.000000 0.000000 0.000000
# 3 -0.002214 -0.002672 0.012796 0.000000 0.000000 0.000000
# 4 0.000000 0.000000 0.000000 0.068549 0.000000 0.000000
# 5 0.000000 0.000000 0.000000 0.000000 -0.009233 0.000000
# 6 0.000000 0.000000 0.000000 0.000000 0.000000 0.038692
#
#
# Mechanical properties :
#
#
# Convention : Reuss Voigt Hill
#
# Bulk Modulus (GPa) = 69.42497 75.66522 72.54509
# Shear Modulus (GPa) = 34.12600 3.96939 19.04770
#
# Velocity S-wave (km/s) = 3.97533 1.35579 2.96997
# Velocity P-wave (km/s) = 7.29525 6.12293 6.73465
#
# Compressibility (1/GPa) = 0.01440404
#
# Stress axis : x y z
#
# Youngs Moduli (GPa) = 138.25336 110.78463 78.15129
#
# Poissons Ratio (x) = 0.27036 0.17299
# Poissons Ratio (y) = 0.33740 0.20879
# Poissons Ratio (z) = 0.30603 0.29598
#
# Static dielectric constant tensor:
#      x y z
#    x 4.256370 0.000000 0.000000 
#    y 0.000000 4.160930 0.000000 
#    z 0.000000 0.000000 3.837090 
# 
# 
# High freq. dielectric constant tensor:
#      x y z
#    x 1.866090 0.000000 0.000000 
#    y 0.000000 1.863510 0.000000 
#    z 0.000000 0.000000 1.837480 
# 
# From -- ./inp_files/18777.got.cif
#   From: 2010.06.25/outbox.cif.g09.slc.cpg/sg52_10_cif.got.tgz:18777.got - 2010.06.26 19:32:48.
