data_PCOD8217731
_publ_section_title
;
Structure prediction by ZEFSAII (Michael W. Deem and Ramdas Pophale) SiO2 
 PCOD8217731
Probable space group: P M N A
;
_chemical_formula_sum "Si O2"
_cell_formula_units_Z 56
_cell_length_a 9.283856
_cell_length_b 14.863713
_cell_length_c 22.201787
_cell_angle_alpha 90.000000
_cell_angle_beta 90.000000
_cell_angle_gamma 90.000000
_cell_volume 3063.681672
_symmetry_space_group_name_H-M "P M N A"
_symmetry_group_IT_number 53
_symmetry_cell_setting 'orthorhombic'
loop_
_space_group_symop_operation_xyz
x,y,z
1/2-x,-y,1/2+z
x,-y,-z
1/2-x,y,1/2-z
-x,-y,-z
1/2+x,y,1/2-z
-x,y,z
1/2+x,-y,1/2+z
loop_
_atom_site_type_symbol
_atom_site_label
_atom_site_fract_x
_atom_site_fract_y
_atom_site_fract_z
Si Si1 0.839612 0.778923 0.890334
Si Si2 0.828635 0.100111 0.005030
Si Si3 0.840811 0.507938 0.607799
Si Si4 0.840726 0.387879 0.020732
Si Si5 0.172515 0.742561 0.081720
Si Si6 0.827518 0.339919 0.685970
Si Si7 0.659400 0.324252 0.194047
O O1 0.774940 0.858796 0.931538
O O2 0.846896 0.689016 0.929412
O O3 0.735729 0.764618 0.833264
O O4 0.000000 0.802849 0.867044
O O5 0.000000 0.097925 0.006113
O O6 0.780572 0.163624 0.949598
O O7 0.762715 0.000000 0.000000
O O8 0.743640 0.524605 0.547996
O O9 0.781086 0.432467 0.653211
O O10 0.848210 0.600045 0.643979
O O11 0.000000 0.480377 0.585299
O O12 0.000000 0.422410 0.006492
O O13 0.774880 0.342544 0.959863
O O14 0.259843 0.739062 0.144464
O O15 0.000000 0.738630 0.091554
O O16 0.750000 0.336405 0.750000
O O17 0.000000 0.329610 0.693394
O O18 0.750000 0.361556 0.250000
O O19 0.500000 0.297568 0.215966
#
# Coordination Sequence:
#
# PCOD8217731 Si02
#       7
#     8   8   8   8   8   8   8
#     4   8  14  26  44  68  96 122 150 184 225 275
#     4   8  14  28  54  82 101 119 147 186 234 289
#     4   9  19  32  46  67  94 126 166 209 246 280
#     4   8  15  28  47  70  97 128 158 193 238 286
#     4   9  18  33  52  76 103 129 160 197 242 295
#     4  11  23  37  51  68  94 131 173 212 247 283
#     4  10  18  28  43  63  90 125 162 197 234 274
#
# _framework density 18.278661
#
# number of rings (size 3 to 8) (size 9 to 14) (size 15 to 20)
#    0.000    3.000    0.000    3.000    0.000    2.857 
#    0.000    5.000    0.000    2.571    0.000    0.000 
#    0.000    0.000    0.000    0.000    0.000    0.000 
#
# Total GULP energy -694023.859637 kJ/mol
# GULP energy per Si atom -12393.283208 kJ/mol
# Density = 1.823706 g / cm^3
# Si number density = 18.278661 Si / 1000 Ang^3
#
#
#
# Elastic Constant Matrix: (Units=GPa)
#
#
# Indices 1 2 3 4 5 6 
#
# 1 85.5423 15.9336 53.0085 0.0000 0.0000 0.0000
# 2 15.9336 86.4428 29.3034 0.0000 0.0000 0.0000
# 3 53.0085 29.3034 102.7504 0.0000 0.0000 0.0000
# 4 0.0000 0.0000 0.0000 17.4817 0.0000 0.0000
# 5 0.0000 0.0000 0.0000 0.0000 30.9394 0.0000
# 6 0.0000 0.0000 0.0000 0.0000 0.0000 11.9219
#
#
#
# Elastic Compliance Matrix: (Units=1/GPa)
#
#
# Indices 1 2 3 4 5 6 
#
# 1 0.017186 -0.000180 -0.008815 0.000000 0.000000 0.000000
# 2 -0.000180 0.012808 -0.003560 0.000000 0.000000 0.000000
# 3 -0.008815 -0.003560 0.015295 0.000000 0.000000 0.000000
# 4 0.000000 0.000000 0.000000 0.057203 0.000000 0.000000
# 5 0.000000 0.000000 0.000000 0.000000 0.032321 0.000000
# 6 0.000000 0.000000 0.000000 0.000000 0.000000 0.083879
#
#
# Mechanical properties :
#
#
# Convention : Reuss Voigt Hill
#
# Bulk Modulus (GPa) = 49.55375 52.35850 50.95613
# Shear Modulus (GPa) = 19.95778 23.83459 21.89618
#
# Velocity S-wave (km/s) = 3.30792 3.61495 3.46484
# Velocity P-wave (km/s) = 6.46210 6.79195 6.62908
#
# Compressibility (1/GPa) = 0.02018011
#
# Stress axis : x y z
#
# Youngs Moduli (GPa) = 58.18693 78.07438 65.37986
#
# Poissons Ratio (x) = 0.01402 0.57632
# Poissons Ratio (y) = 0.01045 0.23276
# Poissons Ratio (z) = 0.51291 0.27795
#
# Static dielectric constant tensor:
#      x y z
#    x 3.492810 0.000000 0.000000 
#    y 0.000000 3.375600 0.000000 
#    z 0.000000 0.000000 3.367790 
# 
# 
# High freq. dielectric constant tensor:
#      x y z
#    x 1.693430 0.000000 0.000000 
#    y 0.000000 1.680590 0.000000 
#    z 0.000000 0.000000 1.709090 
# 
# From -- ./inp_files/31008.got.cif
#   From: 2010.03.12/outbox.cif.g09.slc.cpg/sg53_16_cif.got.tgz:31008.got - 2010.04.16 14:36:59.
