data_PCOD8217665
_publ_section_title
;
Structure prediction by ZEFSAII (Michael W. Deem and Ramdas Pophale) SiO2 
 PCOD8217665
Probable space group: P M N A
;
_chemical_formula_sum "Si O2"
_cell_formula_units_Z 36
_cell_length_a 9.323592
_cell_length_b 10.803121
_cell_length_c 18.611600
_cell_angle_alpha 90.000000
_cell_angle_beta 90.000000
_cell_angle_gamma 90.000000
_cell_volume 1874.632798
_symmetry_space_group_name_H-M "P M N A"
_symmetry_group_IT_number 53
_symmetry_cell_setting 'orthorhombic'
loop_
_space_group_symop_operation_xyz
x,y,z
1/2-x,-y,1/2+z
x,-y,-z
1/2-x,y,1/2-z
-x,-y,-z
1/2+x,y,1/2-z
-x,y,z
1/2+x,-y,1/2+z
loop_
_atom_site_type_symbol
_atom_site_label
_atom_site_fract_x
_atom_site_fract_y
_atom_site_fract_z
Si Si1 0.000000 0.873335 0.326309
Si Si2 0.750000 0.271585 0.750000
Si Si3 0.500000 0.158687 0.204784
Si Si4 0.500000 0.698612 0.651456
Si Si5 0.000000 0.760301 0.473704
Si Si6 0.303300 0.712250 0.902861
Si Si7 0.500000 0.569939 0.279132
Si Si8 0.000000 0.511497 0.386156
O O1 0.853051 0.811134 0.299293
O O2 0.000000 0.865889 0.413054
O O3 0.000000 0.012046 0.299054
O O4 0.853796 0.356751 0.800806
O O5 0.500000 0.196413 0.288005
O O6 0.358838 0.213100 0.166719
O O7 0.367121 0.713814 0.598051
O O8 0.500000 0.565210 0.688431
O O9 0.859548 0.776412 0.524048
O O10 0.000000 0.622805 0.441874
O O11 0.358981 0.571456 0.898287
O O12 0.500000 0.568268 0.192783
#
# Coordination Sequence:
#
# PCOD8217665 Si02
#       8
#     4   4   4   4   4   8   4   4
#     4  11  24  41  65  83 123 159 208 255 289 367
#     4  10  22  36  58  96 112 162 198 242 318 350
#     4  10  23  39  63  88 116 161 204 254 304 355
#     4  12  22  35  61 100 129 143 200 271 305 352
#     4  10  21  43  61  80 127 169 210 229 295 388
#     4  10  22  36  60  92 119 165 201 243 309 356
#     4  11  19  35  62  86 128 146 195 251 318 350
#     4  10  17  38  60  83 118 165 197 243 294 371
#
# _framework density 19.203761
#
# number of rings (size 3 to 8) (size 9 to 14) (size 15 to 20)
#    0.000    1.778    4.444    3.333    3.111    1.778 
#    0.000    4.444    0.000    1.333    0.000    0.000 
#    0.000    0.000    0.000    0.000    0.000    0.000 
#
# Total GULP energy -446336.055214 kJ/mol
# GULP energy per Si atom -12398.223756 kJ/mol
# Density = 1.916005 g / cm^3
# Si number density = 19.203761 Si / 1000 Ang^3
#
#
#
# Elastic Constant Matrix: (Units=GPa)
#
#
# Indices 1 2 3 4 5 6 
#
# 1 174.6855 38.6563 49.2512 0.0000 0.0000 0.0000
# 2 38.6563 100.9968 22.4912 0.0000 0.0000 0.0000
# 3 49.2512 22.4912 100.8661 0.0000 0.0000 0.0000
# 4 0.0000 0.0000 0.0000 20.1624 0.0000 0.0000
# 5 0.0000 0.0000 0.0000 0.0000 10.4771 0.0000
# 6 0.0000 0.0000 0.0000 0.0000 0.0000 0.3786
#
#
#
# Elastic Compliance Matrix: (Units=1/GPa)
#
#
# Indices 1 2 3 4 5 6 
#
# 1 0.007010 -0.002021 -0.002972 0.000000 0.000000 0.000000
# 2 -0.002021 0.011001 -0.001466 0.000000 0.000000 0.000000
# 3 -0.002972 -0.001466 0.011692 0.000000 0.000000 0.000000
# 4 0.000000 0.000000 0.000000 0.049597 0.000000 0.000000
# 5 0.000000 0.000000 0.000000 0.000000 0.095447 0.000000
# 6 0.000000 0.000000 0.000000 0.000000 0.000000 2.641054
#
#
# Mechanical properties :
#
#
# Convention : Reuss Voigt Hill
#
# Bulk Modulus (GPa) = 59.57835 66.37176 62.97505
# Shear Modulus (GPa) = 1.76409 23.94692 12.85551
#
# Velocity S-wave (km/s) = 0.95949 3.53511 2.59013
# Velocity P-wave (km/s) = 5.68499 7.16237 6.46601
#
# Compressibility (1/GPa) = 0.01678462
#
# Stress axis : x y z
#
# Youngs Moduli (GPa) = 142.65770 90.89751 85.52640
#
# Poissons Ratio (x) = 0.18371 0.25419
# Poissons Ratio (y) = 0.28833 0.12540
# Poissons Ratio (z) = 0.42399 0.13328
#
# Static dielectric constant tensor:
#      x y z
#    x 3.610960 0.000000 0.000000 
#    y 0.000000 3.520330 0.000000 
#    z 0.000000 0.000000 3.413630 
# 
# 
# High freq. dielectric constant tensor:
#      x y z
#    x 1.747880 0.000000 0.000000 
#    y 0.000000 1.744540 0.000000 
#    z 0.000000 0.000000 1.729410 
# 
# From -- ./inp_files/30337.got.cif
#   From: 2010.03.12/outbox.cif.g09.slc.cpg/sg53_16_cif.got.tgz:30337.got - 2010.04.16 14:36:59.
