data_PCOD8217219
_publ_section_title
;
Structure prediction by ZEFSAII (Michael W. Deem and Ramdas Pophale) SiO2 
 PCOD8217219
Probable space group: P N N A
;
_chemical_formula_sum "Si O2"
_cell_formula_units_Z 40
_cell_length_a 13.888547
_cell_length_b 15.829831
_cell_length_c 8.431031
_cell_angle_alpha 90.000000
_cell_angle_beta 90.000000
_cell_angle_gamma 90.000000
_cell_volume 1853.590425
_symmetry_space_group_name_H-M "P N N A"
_symmetry_group_IT_number 52
_symmetry_cell_setting 'orthorhombic'
loop_
_space_group_symop_operation_xyz
x,y,z
1/2-x,-y,z
x,1/2-y,1/2-z
1/2-x,1/2+y,1/2-z
-x,-y,-z
1/2+x,y,-z
-x,1/2+y,1/2+z
1/2+x,1/2-y,1/2+z
loop_
_atom_site_type_symbol
_atom_site_label
_atom_site_fract_x
_atom_site_fract_y
_atom_site_fract_z
Si Si1 0.243076 0.288400 0.579969
Si Si2 0.389829 0.486950 0.955303
Si Si3 0.623928 0.081228 0.918236
Si Si4 0.734182 0.119848 0.596956
Si Si5 0.596989 0.917288 0.110728
O O1 0.223110 0.250000 0.750000
O O2 0.160756 0.358626 0.558185
O O3 0.238278 0.219314 0.439177
O O4 0.348337 0.330604 0.573781
O O5 0.372497 0.453823 0.779559
O O6 0.500000 0.500000 0.000000
O O7 0.336160 0.576734 0.967702
O O8 0.341011 0.420806 0.079118
O O9 0.693494 0.098545 0.770094
O O10 0.514836 0.106162 0.880977
O O11 0.626055 0.983772 0.973536
#
# Coordination Sequence:
#
# PCOD8217219 Si02
#       5
#     8   8   8   8   8
#     4  12  25  44  69 101 143 183 228 288 357 420
#     4  11  23  43  73 102 140 185 237 285 351 429
#     4  11  26  46  73 102 139 185 240 290 348 423
#     4  11  25  43  69 106 138 183 231 296 350 419
#     4  11  25  46  72 103 140 189 232 290 355 424
#
# _framework density 21.579740999999999
#
# number of rings (size 3 to 8) (size 9 to 14) (size 15 to 20)
#    0.000    0.800    4.000    2.400    8.400    3.200 
#    0.000    2.000    0.000    0.000    0.000    0.000 
#    0.000    0.000    0.000    0.000    0.000    0.000 
#
# Total GULP energy -496102.413466 kJ/mol
# GULP energy per Si atom -12402.560337 kJ/mol
# Density = 2.153062 g / cm^3
# Si number density = 21.579741 Si / 1000 Ang^3
#
#
#
# Elastic Constant Matrix: (Units=GPa)
#
#
# Indices 1 2 3 4 5 6 
#
# 1 144.1100 54.0882 58.7480 0.0000 0.0000 0.0000
# 2 54.0882 95.6115 39.5638 0.0000 0.0000 0.0000
# 3 58.7480 39.5638 126.5367 0.0000 0.0000 0.0000
# 4 0.0000 0.0000 0.0000 39.3180 0.0000 0.0000
# 5 0.0000 0.0000 0.0000 0.0000 34.7237 0.0000
# 6 0.0000 0.0000 0.0000 0.0000 0.0000 27.7721
#
#
#
# Elastic Compliance Matrix: (Units=1/GPa)
#
#
# Indices 1 2 3 4 5 6 
#
# 1 0.009852 -0.004227 -0.003252 0.000000 0.000000 0.000000
# 2 -0.004227 0.013827 -0.002361 0.000000 0.000000 0.000000
# 3 -0.003252 -0.002361 0.010151 0.000000 0.000000 0.000000
# 4 0.000000 0.000000 0.000000 0.025434 0.000000 0.000000
# 5 0.000000 0.000000 0.000000 0.000000 0.028799 0.000000
# 6 0.000000 0.000000 0.000000 0.000000 0.000000 0.036007
#
#
# Mechanical properties :
#
#
# Convention : Reuss Voigt Hill
#
# Bulk Modulus (GPa) = 70.67439 74.56202 72.61821
# Shear Modulus (GPa) = 33.67771 34.61996 34.14883
#
# Velocity S-wave (km/s) = 3.95475 4.00969 3.98232
# Velocity P-wave (km/s) = 7.32631 7.48757 7.40738
#
# Compressibility (1/GPa) = 0.01414940
#
# Stress axis : x y z
#
# Youngs Moduli (GPa) = 101.50702 72.32073 98.51436
#
# Poissons Ratio (x) = 0.30573 0.32038
# Poissons Ratio (y) = 0.42911 0.23256
# Poissons Ratio (z) = 0.33011 0.17072
#
# Static dielectric constant tensor:
#      x y z
#    x 4.017720 0.000000 0.000000 
#    y 0.000000 4.121710 0.000000 
#    z 0.000000 0.000000 4.012220 
# 
# 
# High freq. dielectric constant tensor:
#      x y z
#    x 1.855820 0.000000 0.000000 
#    y 0.000000 1.849260 0.000000 
#    z 0.000000 0.000000 1.857380 
# 
# From -- ./inp_files/10031.got.cif
#   From: 2010.06.25/outbox.cif.g09.slc.cpg/sg52_6_cif.got.tgz:10031.got - 2010.06.26 19:32:48.
