data_PCOD8217604
_publ_section_title
;
Structure prediction by ZEFSAII (Michael W. Deem and Ramdas Pophale) SiO2 
 PCOD8217604
Probable space group: P M N A
;
_chemical_formula_sum "Si O2"
_cell_formula_units_Z 40
_cell_length_a 8.869575
_cell_length_b 12.600386
_cell_length_c 20.263376
_cell_angle_alpha 90.000000
_cell_angle_beta 90.000000
_cell_angle_gamma 90.000000
_cell_volume 2264.636293
_symmetry_space_group_name_H-M "P M N A"
_symmetry_group_IT_number 53
_symmetry_cell_setting 'orthorhombic'
loop_
_space_group_symop_operation_xyz
x,y,z
1/2-x,-y,1/2+z
x,-y,-z
1/2-x,y,1/2-z
-x,-y,-z
1/2+x,y,1/2-z
-x,y,z
1/2+x,-y,1/2+z
loop_
_atom_site_type_symbol
_atom_site_label
_atom_site_fract_x
_atom_site_fract_y
_atom_site_fract_z
Si Si1 0.178633 0.699088 0.600445
Si Si2 0.666355 0.530910 0.076085
Si Si3 0.320624 0.119529 0.319884
Si Si4 0.824241 0.961986 0.069241
Si Si5 0.174459 0.729385 0.039114
O O1 0.220733 0.575123 0.614330
O O2 0.263094 0.765866 0.656220
O O3 0.231806 0.734901 0.528137
O O4 0.000000 0.716337 0.604701
O O5 0.500000 0.565265 0.100314
O O6 0.777974 0.630566 0.085802
O O7 0.660069 0.500000 0.000000
O O8 0.250000 0.091143 0.250000
O O9 0.500000 0.121267 0.314337
O O10 0.257726 0.029542 0.370084
O O11 0.793985 0.836936 0.080070
O O12 0.000000 0.988299 0.066236
O O13 0.750408 0.000000 0.000000
O O14 0.000000 0.718467 0.019923
#
# Coordination Sequence:
#
# PCOD8217604 Si02
#       5
#     8   8   8   8   8
#     4  10  19  32  49  72 104 137 169 209 261 309
#     4   8  16  29  44  68 104 135 160 202 255 303
#     4  11  22  37  55  75 104 137 174 215 261 316
#     4   9  17  32  52  75 104 137 171 214 263 308
#     4  10  17  28  50  77 102 133 173 214 258 306
#
# _framework density 17.662880999999999
#
# number of rings (size 3 to 8) (size 9 to 14) (size 15 to 20)
#    0.000    2.400    2.000    3.000    0.000    4.400 
#    0.000    5.000    0.000    1.200    0.000    5.600 
#    0.000    0.000    0.000    0.000    0.000    0.000 
#
# Total GULP energy -495817.839921 kJ/mol
# GULP energy per Si atom -12395.445998 kJ/mol
# Density = 1.762268 g / cm^3
# Si number density = 17.662881 Si / 1000 Ang^3
#
#
#
# Elastic Constant Matrix: (Units=GPa)
#
#
# Indices 1 2 3 4 5 6 
#
# 1 70.6737 48.1684 31.8446 0.0000 0.0000 0.0000
# 2 48.1684 142.0868 60.8911 0.0000 0.0000 0.0000
# 3 31.8446 60.8911 95.2542 0.0000 0.0000 0.0000
# 4 0.0000 0.0000 0.0000 20.4351 0.0000 0.0000
# 5 0.0000 0.0000 0.0000 0.0000 17.9845 0.0000
# 6 0.0000 0.0000 0.0000 0.0000 0.0000 14.7737
#
#
#
# Elastic Compliance Matrix: (Units=1/GPa)
#
#
# Indices 1 2 3 4 5 6 
#
# 1 0.019037 -0.005132 -0.003083 0.000000 0.000000 0.000000
# 2 -0.005132 0.011077 -0.005365 0.000000 0.000000 0.000000
# 3 -0.003083 -0.005365 0.014959 0.000000 0.000000 0.000000
# 4 0.000000 0.000000 0.000000 0.048935 0.000000 0.000000
# 5 0.000000 0.000000 0.000000 0.000000 0.055603 0.000000
# 6 0.000000 0.000000 0.000000 0.000000 0.000000 0.067688
#
#
# Mechanical properties :
#
#
# Convention : Reuss Voigt Hill
#
# Bulk Modulus (GPa) = 55.83215 65.53586 60.68401
# Shear Modulus (GPa) = 19.96552 21.77935 20.87244
#
# Velocity S-wave (km/s) = 3.36574 3.51530 3.44133
# Velocity P-wave (km/s) = 6.83979 7.32535 7.08673
#
# Compressibility (1/GPa) = 0.01791083
#
# Stress axis : x y z
#
# Youngs Moduli (GPa) = 52.52986 90.27664 66.85027
#
# Poissons Ratio (x) = 0.46332 0.20613
# Poissons Ratio (y) = 0.26959 0.35867
# Poissons Ratio (z) = 0.16198 0.48436
#
# Static dielectric constant tensor:
#      x y z
#    x 3.220180 0.000000 0.000000 
#    y 0.000000 3.730950 0.000000 
#    z 0.000000 0.000000 2.971070 
# 
# 
# High freq. dielectric constant tensor:
#      x y z
#    x 1.675790 0.000000 0.000000 
#    y 0.000000 1.700050 0.000000 
#    z 0.000000 0.000000 1.632470 
# 
# From -- ./inp_files/30348.got.cif
#   From: 2010.03.12/outbox.cif.g09.slc.cpg/sg53_16_cif.got.tgz:30348.got - 2010.04.16 14:36:59.
