data_PCOD8217089
_publ_section_title
;
Structure prediction by ZEFSAII (Michael W. Deem and Ramdas Pophale) SiO2 
 PCOD8217089
Probable space group: P N N A
;
_chemical_formula_sum "Si O2"
_cell_formula_units_Z 32
_cell_length_a 31.488103
_cell_length_b 4.934771
_cell_length_c 9.488188
_cell_angle_alpha 90.000000
_cell_angle_beta 90.000000
_cell_angle_gamma 90.000000
_cell_volume 1474.337060
_symmetry_space_group_name_H-M "P N N A"
_symmetry_group_IT_number 52
_symmetry_cell_setting 'orthorhombic'
loop_
_space_group_symop_operation_xyz
x,y,z
1/2-x,-y,z
x,1/2-y,1/2-z
1/2-x,1/2+y,1/2-z
-x,-y,-z
1/2+x,y,-z
-x,1/2+y,1/2+z
1/2+x,1/2-y,1/2+z
loop_
_atom_site_type_symbol
_atom_site_label
_atom_site_fract_x
_atom_site_fract_y
_atom_site_fract_z
Si Si1 0.159784 0.755520 0.498928
Si Si2 0.720458 0.750000 0.750000
Si Si3 0.521937 0.023475 0.347178
Si Si4 0.384729 0.743719 0.905459
Si Si5 0.221300 0.750000 0.750000
O O1 0.188618 0.655444 0.371409
O O2 0.122129 0.541910 0.530776
O O3 0.191905 0.823361 0.621627
O O4 0.136220 0.041921 0.480163
O O5 0.750000 0.500000 0.796463
O O6 0.524707 0.750000 0.250000
O O7 0.498017 0.250000 0.250000
O O8 0.500000 0.000000 0.500000
O O9 0.567197 0.152885 0.384221
O O10 0.362614 0.750000 0.750000
O O11 0.250000 0.500000 0.704804
#
# Coordination Sequence:
#
# PCOD8217089 Si02
#       5
#     8   4   8   8   4
#     4  12  23  41  65  93 126 170 220 266 335 395
#     4  12  26  46  62  88 136 176 214 276 350 400
#     4  11  24  45  73 105 144 183 225 280 346 413
#     4  11  21  42  68  96 131 169 217 273 330 386
#     4  12  22  36  60  94 118 156 218 272 314 386
#
# _framework density 21.70467
#
# number of rings (size 3 to 8) (size 9 to 14) (size 15 to 20)
#    0.000    0.500    2.500    8.250    0.000    0.000 
#    6.750    0.000    0.000    0.000    0.000    0.000 
#    0.000    0.000    0.000    0.000    0.000    0.000 
#
# Total GULP energy -396437.626964 kJ/mol
# GULP energy per Si atom -12388.675843 kJ/mol
# Density = 2.165527 g / cm^3
# Si number density = 21.704670 Si / 1000 Ang^3
#
#
#
# Elastic Constant Matrix: (Units=GPa)
#
#
# Indices 1 2 3 4 5 6 
#
# 1 84.8612 38.4482 44.9855 0.0000 0.0000 0.0000
# 2 38.4482 132.0946 26.0210 0.0000 0.0000 0.0000
# 3 44.9855 26.0210 119.4172 0.0000 0.0000 0.0000
# 4 0.0000 0.0000 0.0000 34.9542 0.0000 0.0000
# 5 0.0000 0.0000 0.0000 0.0000 36.2827 0.0000
# 6 0.0000 0.0000 0.0000 0.0000 0.0000 41.9073
#
#
#
# Elastic Compliance Matrix: (Units=1/GPa)
#
#
# Indices 1 2 3 4 5 6 
#
# 1 0.016280 -0.003689 -0.005329 0.000000 0.000000 0.000000
# 2 -0.003689 0.008746 -0.000516 0.000000 0.000000 0.000000
# 3 -0.005329 -0.000516 0.010494 0.000000 0.000000 0.000000
# 4 0.000000 0.000000 0.000000 0.028609 0.000000 0.000000
# 5 0.000000 0.000000 0.000000 0.000000 0.027561 0.000000
# 6 0.000000 0.000000 0.000000 0.000000 0.000000 0.023862
#
#
# Mechanical properties :
#
#
# Convention : Reuss Voigt Hill
#
# Bulk Modulus (GPa) = 60.78340 61.69807 61.24073
# Shear Modulus (GPa) = 35.68768 37.75672 36.72220
#
# Velocity S-wave (km/s) = 4.05932 4.17534 4.11774
# Velocity P-wave (km/s) = 7.07364 7.19253 7.13333
#
# Compressibility (1/GPa) = 0.01645186
#
# Stress axis : x y z
#
# Youngs Moduli (GPa) = 61.42410 114.34209 95.29277
#
# Poissons Ratio (x) = 0.42179 0.50783
# Poissons Ratio (y) = 0.22658 0.04918
# Poissons Ratio (z) = 0.32734 0.05901
#
# Static dielectric constant tensor:
#      x y z
#    x 3.863050 0.000000 0.000000 
#    y 0.000000 4.242530 0.000000 
#    z 0.000000 0.000000 2.901840 
# 
# 
# High freq. dielectric constant tensor:
#      x y z
#    x 1.849390 0.000000 0.000000 
#    y 0.000000 1.872450 0.000000 
#    z 0.000000 0.000000 1.845700 
# 
# From -- ./inp_files/15192.got.cif
#   From: 2010.06.25/outbox.cif.g09.slc.cpg/sg52_8_cif.got.tgz:15192.got - 2010.06.26 19:32:48.
