data_PCOD8217832
_publ_section_title
;
Structure prediction by ZEFSAII (Michael W. Deem and Ramdas Pophale) SiO2 
 PCOD8217832
Probable space group: P M N A
;
_chemical_formula_sum "Si O2"
_cell_formula_units_Z 64
_cell_length_a 13.622207
_cell_length_b 7.963519
_cell_length_c 32.809015
_cell_angle_alpha 90.000000
_cell_angle_beta 90.000000
_cell_angle_gamma 90.000000
_cell_volume 3559.145053
_symmetry_space_group_name_H-M "P M N A"
_symmetry_group_IT_number 53
_symmetry_cell_setting 'orthorhombic'
loop_
_space_group_symop_operation_xyz
x,y,z
1/2-x,-y,1/2+z
x,-y,-z
1/2-x,y,1/2-z
-x,-y,-z
1/2+x,y,1/2-z
-x,y,z
1/2+x,-y,1/2+z
loop_
_atom_site_type_symbol
_atom_site_label
_atom_site_fract_x
_atom_site_fract_y
_atom_site_fract_z
Si Si1 0.386546 0.329728 0.332051
Si Si2 0.110679 0.193401 0.085615
Si Si3 0.111751 0.303000 0.001023
Si Si4 0.795980 0.330649 0.836239
Si Si5 0.611825 0.835365 0.264315
Si Si6 0.885756 0.202459 0.251645
Si Si7 0.386952 0.468202 0.797726
Si Si8 0.388251 0.195499 0.585161
O O1 0.500000 0.279504 0.335114
O O2 0.335702 0.278292 0.375283
O O3 0.374391 0.526686 0.324422
O O4 0.339510 0.232830 0.293326
O O5 0.164471 0.236264 0.042498
O O6 0.000000 0.266397 0.082007
O O7 0.109788 0.998713 0.094326
O O8 0.000000 0.237641 0.001316
O O9 0.120654 0.500000 0.000000
O O10 0.158519 0.229203 0.959566
O O11 0.817524 0.180871 0.803855
O O12 0.685144 0.405121 0.833678
O O13 0.814639 0.277076 0.882496
O O14 0.500000 0.855460 0.279561
O O15 0.625406 0.668807 0.237827
O O16 0.639318 0.006406 0.238409
O O17 0.848389 0.346349 0.283261
O O18 0.000000 0.239098 0.249606
O O19 0.500000 0.472813 0.813253
O O20 0.500000 0.269599 0.588604
#
# Coordination Sequence:
#
# PCOD8217832 Si02
#       8
#     8   8   8   8   8   8   8   8
#     4  10  18  29  47  71 100 127 157 203 246 294
#     4   9  17  29  44  69 104 140 169 195 240 299
#     4   9  16  27  44  66  97 140 174 194 232 293
#     4  12  21  32  48  75  97 129 169 208 257 298
#     4  10  19  34  54  74  97 125 160 205 255 309
#     4   9  18  34  53  70  95 131 165 204 253 297
#     4  10  22  40  52  67  96 130 173 217 257 302
#     4  10  19  30  46  70 104 137 168 206 243 295
#
# _framework density 17.981846000000001
#
# number of rings (size 3 to 8) (size 9 to 14) (size 15 to 20)
#    0.000    2.125    1.250    3.375    0.000    5.500 
#    6.750    0.000    0.000    0.000    0.000    0.000 
#    0.000    6.500    0.000    0.000    0.000    0.250 
#
# Total GULP energy -792900.507599 kJ/mol
# GULP energy per Si atom -12389.070431 kJ/mol
# Density = 1.794092 g / cm^3
# Si number density = 17.981846 Si / 1000 Ang^3
#
#
#
# Elastic Constant Matrix: (Units=GPa)
#
#
# Indices 1 2 3 4 5 6 
#
# 1 58.0762 13.1795 27.5337 0.0000 0.0000 0.0000
# 2 13.1795 87.1964 12.4010 0.0000 0.0000 0.0000
# 3 27.5337 12.4010 58.2368 0.0000 0.0000 0.0000
# 4 0.0000 0.0000 0.0000 28.4851 0.0000 0.0000
# 5 0.0000 0.0000 0.0000 0.0000 10.2740 0.0000
# 6 0.0000 0.0000 0.0000 0.0000 0.0000 5.6624
#
#
#
# Elastic Compliance Matrix: (Units=1/GPa)
#
#
# Indices 1 2 3 4 5 6 
#
# 1 0.022510 -0.001948 -0.010228 0.000000 0.000000 0.000000
# 2 -0.001948 0.011995 -0.001633 0.000000 0.000000 0.000000
# 3 -0.010228 -0.001633 0.022355 0.000000 0.000000 0.000000
# 4 0.000000 0.000000 0.000000 0.035106 0.000000 0.000000
# 5 0.000000 0.000000 0.000000 0.000000 0.097333 0.000000
# 6 0.000000 0.000000 0.000000 0.000000 0.000000 0.176604
#
#
# Mechanical properties :
#
#
# Convention : Reuss Voigt Hill
#
# Bulk Modulus (GPa) = 34.19743 34.41529 34.30636
# Shear Modulus (GPa) = 12.39872 18.91064 15.65468
#
# Velocity S-wave (km/s) = 2.62871 3.24644 2.95376
# Velocity P-wave (km/s) = 5.31719 5.76480 5.54551
#
# Compressibility (1/GPa) = 0.02924196
#
# Stress axis : x y z
#
# Youngs Moduli (GPa) = 44.42550 83.36777 44.73363
#
# Poissons Ratio (x) = 0.16238 0.45751
# Poissons Ratio (y) = 0.08653 0.07307
# Poissons Ratio (z) = 0.45436 0.13617
#
# Static dielectric constant tensor:
#      x y z
#    x 3.008230 0.000000 0.000000 
#    y 0.000000 3.452800 0.000000 
#    z 0.000000 0.000000 3.479050 
# 
# 
# High freq. dielectric constant tensor:
#      x y z
#    x 1.632700 0.000000 0.000000 
#    y 0.000000 1.716170 0.000000 
#    z 0.000000 0.000000 1.683930 
# 
# From -- ./inp_files/38947.got.cif
#   From: 2010.03.12/outbox.cif.g09.slc.cpg/sg53_20_cif.got.tgz:38947.got - 2010.04.16 14:36:59.
