data_PCOD8217480
_publ_section_title
;
Structure prediction by ZEFSAII (Michael W. Deem and Ramdas Pophale) SiO2 
 PCOD8217480
Probable space group: P M N A
;
_chemical_formula_sum "Si O2"
_cell_formula_units_Z 52
_cell_length_a 13.100555
_cell_length_b 9.950561
_cell_length_c 26.203247
_cell_angle_alpha 90.000000
_cell_angle_beta 90.000000
_cell_angle_gamma 90.000000
_cell_volume 3415.799510
_symmetry_space_group_name_H-M "P M N A"
_symmetry_group_IT_number 53
_symmetry_cell_setting 'orthorhombic'
loop_
_space_group_symop_operation_xyz
x,y,z
1/2-x,-y,1/2+z
x,-y,-z
1/2-x,y,1/2-z
-x,-y,-z
1/2+x,y,1/2-z
-x,y,z
1/2+x,-y,1/2+z
loop_
_atom_site_type_symbol
_atom_site_label
_atom_site_fract_x
_atom_site_fract_y
_atom_site_fract_z
Si Si1 0.878867 0.649145 0.491329
Si Si2 0.117375 0.753876 0.383806
Si Si3 0.250000 0.656081 0.750000
Si Si4 0.116803 0.901007 0.771704
Si Si5 0.797429 0.986546 0.666777
Si Si6 0.113141 0.524347 0.669198
Si Si7 0.115737 0.766011 0.596083
O O1 0.831890 0.500000 0.500000
O O2 0.837133 0.715665 0.439274
O O3 0.848317 0.749018 0.537551
O O4 0.000000 0.634552 0.487237
O O5 0.128807 0.628493 0.346484
O O6 0.000000 0.800552 0.388323
O O7 0.183397 0.872550 0.359962
O O8 0.161070 0.749737 0.773273
O O9 0.202020 0.559491 0.708180
O O10 0.181238 0.988372 0.812338
O O11 0.126730 0.960407 0.714474
O O12 0.000000 0.901519 0.788869
O O13 0.810729 0.868124 0.625483
O O14 0.121906 0.617472 0.619612
O O15 0.000000 0.543785 0.693661
O O16 0.000000 0.822128 0.598978
#
# Coordination Sequence:
#
# PCOD8217480 Si02
#       7
#     8   8   4   8   8   8   8
#     4   9  16  26  43  67  95 126 155 183 224 281
#     4  10  19  30  45  69 100 128 152 184 230 278
#     4  10  18  28  48  72  90 114 162 194 222 272
#     4  10  19  32  49  67  91 123 156 192 233 275
#     4  10  20  31  47  70  94 124 156 191 229 278
#     4  10  18  29  46  67  96 126 150 185 227 270
#     4  10  16  27  46  67  94 124 153 183 224 273
#
# _framework density 15.223376
#
# number of rings (size 3 to 8) (size 9 to 14) (size 15 to 20)
#    0.000    2.308    4.615    1.846    0.000    1.846 
#    0.000    2.308    0.000    0.923    0.000    2.154 
#    0.000    2.462    0.000    0.000    0.000    0.000 
#
# Total GULP energy -644664.708564 kJ/mol
# GULP energy per Si atom -12397.398242 kJ/mol
# Density = 1.518873 g / cm^3
# Si number density = 15.223376 Si / 1000 Ang^3
#
#
#
# Elastic Constant Matrix: (Units=GPa)
#
#
# Indices 1 2 3 4 5 6 
#
# 1 80.8072 31.2420 41.8190 0.0000 0.0000 0.0000
# 2 31.2420 89.1051 45.0003 0.0000 0.0000 0.0000
# 3 41.8190 45.0003 105.6903 0.0000 0.0000 0.0000
# 4 0.0000 0.0000 0.0000 21.3183 0.0000 0.0000
# 5 0.0000 0.0000 0.0000 0.0000 19.6854 0.0000
# 6 0.0000 0.0000 0.0000 0.0000 0.0000 15.9627
#
#
#
# Elastic Compliance Matrix: (Units=1/GPa)
#
#
# Indices 1 2 3 4 5 6 
#
# 1 0.016213 -0.003115 -0.005089 0.000000 0.000000 0.000000
# 2 -0.003115 0.014895 -0.005110 0.000000 0.000000 0.000000
# 3 -0.005089 -0.005110 0.013651 0.000000 0.000000 0.000000
# 4 0.000000 0.000000 0.000000 0.046908 0.000000 0.000000
# 5 0.000000 0.000000 0.000000 0.000000 0.050799 0.000000
# 6 0.000000 0.000000 0.000000 0.000000 0.000000 0.062646
#
#
# Mechanical properties :
#
#
# Convention : Reuss Voigt Hill
#
# Bulk Modulus (GPa) = 55.14937 56.85837 56.00387
# Shear Modulus (GPa) = 21.02761 21.89602 21.46182
#
# Velocity S-wave (km/s) = 3.72058 3.79663 3.75879
# Velocity P-wave (km/s) = 7.40016 7.52660 7.46364
#
# Compressibility (1/GPa) = 0.01813257
#
# Stress axis : x y z
#
# Youngs Moduli (GPa) = 61.67925 67.13563 73.25609
#
# Poissons Ratio (x) = 0.20910 0.37280
# Poissons Ratio (y) = 0.19210 0.37431
# Poissons Ratio (z) = 0.31388 0.34304
#
# Static dielectric constant tensor:
#      x y z
#    x 2.642510 0.000000 0.000000 
#    y 0.000000 2.851170 0.000000 
#    z 0.000000 0.000000 3.004650 
# 
# 
# High freq. dielectric constant tensor:
#      x y z
#    x 1.538000 0.000000 0.000000 
#    y 0.000000 1.585120 0.000000 
#    z 0.000000 0.000000 1.584300 
# 
# From -- ./inp_files/37073.got.cif
#   From: 2010.03.12/outbox.cif.g09.slc.cpg/sg53_19_cif.got.tgz:37073.got - 2010.04.16 14:36:59.
