data_PCOD8217790
_publ_section_title
;
Structure prediction by ZEFSAII (Michael W. Deem and Ramdas Pophale) SiO2 
 PCOD8217790
Probable space group: P M N A
;
_chemical_formula_sum "Si O2"
_cell_formula_units_Z 56
_cell_length_a 8.710923
_cell_length_b 16.281676
_cell_length_c 24.603360
_cell_angle_alpha 90.000000
_cell_angle_beta 90.000000
_cell_angle_gamma 90.000000
_cell_volume 3489.455822
_symmetry_space_group_name_H-M "P M N A"
_symmetry_group_IT_number 53
_symmetry_cell_setting 'orthorhombic'
loop_
_space_group_symop_operation_xyz
x,y,z
1/2-x,-y,1/2+z
x,-y,-z
1/2-x,y,1/2-z
-x,-y,-z
1/2+x,y,1/2-z
-x,y,z
1/2+x,-y,1/2+z
loop_
_atom_site_type_symbol
_atom_site_label
_atom_site_fract_x
_atom_site_fract_y
_atom_site_fract_z
Si Si1 0.322748 0.384073 0.602302
Si Si2 0.680659 0.278470 0.806125
Si Si3 0.678996 0.310778 0.484777
Si Si4 0.817865 0.021615 0.915899
Si Si5 0.172086 0.536991 0.559759
Si Si6 0.817627 0.101500 0.806852
Si Si7 0.182580 0.872371 0.984645
O O1 0.500000 0.376779 0.619076
O O2 0.216046 0.343826 0.647497
O O3 0.288320 0.337327 0.546356
O O4 0.277490 0.479986 0.597973
O O5 0.750000 0.312803 0.750000
O O6 0.500000 0.265310 0.800017
O O7 0.758938 0.192165 0.820673
O O8 0.500000 0.315057 0.471503
O O9 0.762636 0.370616 0.442054
O O10 0.747916 0.219321 0.476508
O O11 0.758887 0.041727 0.855222
O O12 0.000000 0.025940 0.917255
O O13 0.764035 0.930498 0.934441
O O14 0.754588 0.088963 0.958912
O O15 0.175580 0.500000 0.500000
O O16 0.000000 0.538930 0.583256
O O17 0.750000 0.068489 0.750000
O O18 0.000000 0.103458 0.802819
O O19 0.000000 0.867626 0.987663
#
# Coordination Sequence:
#
# PCOD8217790 Si02
#       7
#     8   8   8   8   8   8   8
#     4  10  18  29  45  65  88 114 143 176 215 257
#     4  11  21  32  45  63  87 115 146 178 212 252
#     4   9  16  26  43  65  88 114 145 180 216 257
#     4   8  14  24  40  62  87 112 142 179 218 260
#     4   9  17  28  41  60  87 116 144 173 208 253
#     4  10  18  29  44  63  86 114 146 179 214 253
#     4   8  13  23  40  63  87 111 141 180 221 259
#
# _framework density 16.048347
#
# number of rings (size 3 to 8) (size 9 to 14) (size 15 to 20)
#    0.000    2.714    0.000    5.143    0.000    4.571 
#    0.000    0.000    0.000    1.714    0.000    7.000 
#    0.000    4.571    0.000    0.000    0.000    0.000 
#
# Total GULP energy -694187.325160 kJ/mol
# GULP energy per Si atom -12396.202235 kJ/mol
# Density = 1.601182 g / cm^3
# Si number density = 16.048347 Si / 1000 Ang^3
#
#
#
# Elastic Constant Matrix: (Units=GPa)
#
#
# Indices 1 2 3 4 5 6 
#
# 1 57.5554 25.1383 28.7057 0.0000 0.0000 0.0000
# 2 25.1383 130.8697 55.0542 0.0000 0.0000 0.0000
# 3 28.7057 55.0542 89.6203 0.0000 0.0000 0.0000
# 4 0.0000 0.0000 0.0000 23.6494 0.0000 0.0000
# 5 0.0000 0.0000 0.0000 0.0000 20.2478 0.0000
# 6 0.0000 0.0000 0.0000 0.0000 0.0000 14.7599
#
#
#
# Elastic Compliance Matrix: (Units=1/GPa)
#
#
# Indices 1 2 3 4 5 6 
#
# 1 0.020929 -0.001618 -0.005710 0.000000 0.000000 0.000000
# 2 -0.001618 0.010429 -0.005888 0.000000 0.000000 0.000000
# 3 -0.005710 -0.005888 0.016604 0.000000 0.000000 0.000000
# 4 0.000000 0.000000 0.000000 0.042284 0.000000 0.000000
# 5 0.000000 0.000000 0.000000 0.000000 0.049388 0.000000
# 6 0.000000 0.000000 0.000000 0.000000 0.000000 0.067751
#
#
# Mechanical properties :
#
#
# Convention : Reuss Voigt Hill
#
# Bulk Modulus (GPa) = 46.44669 55.09356 50.77012
# Shear Modulus (GPa) = 20.74732 23.00789 21.87760
#
# Velocity S-wave (km/s) = 3.59945 3.79048 3.69620
# Velocity P-wave (km/s) = 6.80289 7.31855 7.06543
#
# Compressibility (1/GPa) = 0.02153006
#
# Stress axis : x y z
#
# Youngs Moduli (GPa) = 47.78054 95.88518 60.22574
#
# Poissons Ratio (x) = 0.15517 0.34386
# Poissons Ratio (y) = 0.07732 0.35463
# Poissons Ratio (z) = 0.27280 0.56460
#
# Static dielectric constant tensor:
#      x y z
#    x 2.895510 0.000000 0.000000 
#    y 0.000000 3.218790 0.000000 
#    z 0.000000 0.000000 2.886740 
# 
# 
# High freq. dielectric constant tensor:
#      x y z
#    x 1.604360 0.000000 0.000000 
#    y 0.000000 1.610850 0.000000 
#    z 0.000000 0.000000 1.590930 
# 
# From -- ./inp_files/34369.got.cif
#   From: 2010.03.12/outbox.cif.g09.slc.cpg/sg53_18_cif.got.tgz:34369.got - 2010.04.16 14:36:59.
