data_PCOD8217848
_publ_section_title
;
Structure prediction by ZEFSAII (Michael W. Deem and Ramdas Pophale) SiO2 
 PCOD8217848
Probable space group: P M N A
;
_chemical_formula_sum "Si O2"
_cell_formula_units_Z 48
_cell_length_a 8.868786
_cell_length_b 18.578524
_cell_length_c 16.654237
_cell_angle_alpha 90.000000
_cell_angle_beta 90.000000
_cell_angle_gamma 90.000000
_cell_volume 2744.101203
_symmetry_space_group_name_H-M "P M N A"
_symmetry_group_IT_number 53
_symmetry_cell_setting 'orthorhombic'
loop_
_space_group_symop_operation_xyz
x,y,z
1/2-x,-y,1/2+z
x,-y,-z
1/2-x,y,1/2-z
-x,-y,-z
1/2+x,y,1/2-z
-x,y,z
1/2+x,-y,1/2+z
loop_
_atom_site_type_symbol
_atom_site_label
_atom_site_fract_x
_atom_site_fract_y
_atom_site_fract_z
Si Si1 0.171599 0.840447 0.167933
Si Si2 0.825705 0.577071 0.982415
Si Si3 0.821597 0.082063 0.993399
Si Si4 0.679339 0.670865 0.667379
Si Si5 0.323617 0.206077 0.078128
Si Si6 0.172206 0.715730 0.062491
O O1 0.250000 0.862145 0.250000
O O2 0.233326 0.886913 0.092828
O O3 0.193487 0.754399 0.148849
O O4 0.000000 0.860330 0.181881
O O5 0.762760 0.616520 0.902698
O O6 0.000000 0.561985 0.966410
O O7 0.745019 0.500000 0.000000
O O8 0.801826 0.629344 0.060604
O O9 0.000000 0.090531 0.002780
O O10 0.743473 0.125823 0.066295
O O11 0.768571 0.000000 0.000000
O O12 0.750000 0.642041 0.750000
O O13 0.500000 0.673371 0.672963
O O14 0.741571 0.751429 0.650465
O O15 0.500000 0.201549 0.096559
O O16 0.292525 0.249349 0.996664
O O17 0.000000 0.731753 0.031424
#
# Coordination Sequence:
#
# PCOD8217848 Si02
#       6
#     8   8   8   8   8   8
#     4   9  17  29  46  68  92 120 154 192 233 276
#     4   8  14  27  49  72  92 121 160 198 237 286
#     4   9  18  34  53  70  93 128 163 194 237 293
#     4  10  19  32  50  71  97 128 165 206 247 293
#     4  10  18  29  48  72  95 120 155 197 239 284
#     4   8  15  29  47  66  90 123 161 193 227 281
#
# _framework density 17.492068
#
# number of rings (size 3 to 8) (size 9 to 14) (size 15 to 20)
#    0.000    3.000    0.000    4.000    0.000    3.000 
#    0.000    1.667    0.000   14.500    0.000    0.000 
#    0.000    0.000    0.000    0.000    0.000    0.000 
#
# Total GULP energy -594647.417020 kJ/mol
# GULP energy per Si atom -12388.487855 kJ/mol
# Density = 1.745225 g / cm^3
# Si number density = 17.492068 Si / 1000 Ang^3
#
#
#
# Elastic Constant Matrix: (Units=GPa)
#
#
# Indices 1 2 3 4 5 6 
#
# 1 56.9156 28.6269 24.3856 0.0000 0.0000 0.0000
# 2 28.6269 147.1626 46.1594 0.0000 0.0000 0.0000
# 3 24.3856 46.1594 84.5521 0.0000 0.0000 0.0000
# 4 0.0000 0.0000 0.0000 18.3321 0.0000 0.0000
# 5 0.0000 0.0000 0.0000 0.0000 26.6016 0.0000
# 6 0.0000 0.0000 0.0000 0.0000 0.0000 13.7598
#
#
#
# Elastic Compliance Matrix: (Units=1/GPa)
#
#
# Indices 1 2 3 4 5 6 
#
# 1 0.020851 -0.002618 -0.004584 0.000000 0.000000 0.000000
# 2 -0.002618 0.008528 -0.003901 0.000000 0.000000 0.000000
# 3 -0.004584 -0.003901 0.015279 0.000000 0.000000 0.000000
# 4 0.000000 0.000000 0.000000 0.054549 0.000000 0.000000
# 5 0.000000 0.000000 0.000000 0.000000 0.037592 0.000000
# 6 0.000000 0.000000 0.000000 0.000000 0.000000 0.072675
#
#
# Mechanical properties :
#
#
# Convention : Reuss Voigt Hill
#
# Bulk Modulus (GPa) = 44.54044 54.10824 49.32434
# Shear Modulus (GPa) = 20.90622 24.36926 22.63774
#
# Velocity S-wave (km/s) = 3.46089 3.73656 3.60136
# Velocity P-wave (km/s) = 6.44119 7.04386 6.74925
#
# Compressibility (1/GPa) = 0.02245151
#
# Stress axis : x y z
#
# Youngs Moduli (GPa) = 47.95971 117.26132 65.45101
#
# Poissons Ratio (x) = 0.30700 0.30004
# Poissons Ratio (y) = 0.12556 0.25530
# Poissons Ratio (z) = 0.21986 0.45739
#
# Static dielectric constant tensor:
#      x y z
#    x 2.998630 0.000000 0.000000 
#    y 0.000000 3.571970 0.000000 
#    z 0.000000 0.000000 3.145860 
# 
# 
# High freq. dielectric constant tensor:
#      x y z
#    x 1.656320 0.000000 0.000000 
#    y 0.000000 1.673650 0.000000 
#    z 0.000000 0.000000 1.649340 
# 
# From -- ./inp_files/26438.got.cif
#   From: 2010.03.12/outbox.cif.g09.slc.cpg/sg53_14_cif.got.tgz:26438.got - 2010.04.16 14:36:59.
