data_PCOD8217554
_publ_section_title
;
Structure prediction by ZEFSAII (Michael W. Deem and Ramdas Pophale) SiO2 
 PCOD8217554
Probable space group: P M N A
;
_chemical_formula_sum "Si O2"
_cell_formula_units_Z 64
_cell_length_a 8.602454
_cell_length_b 21.945333
_cell_length_c 18.951456
_cell_angle_alpha 90.000000
_cell_angle_beta 90.000000
_cell_angle_gamma 90.000000
_cell_volume 3577.726319
_symmetry_space_group_name_H-M "P M N A"
_symmetry_group_IT_number 53
_symmetry_cell_setting 'orthorhombic'
loop_
_space_group_symop_operation_xyz
x,y,z
1/2-x,-y,1/2+z
x,-y,-z
1/2-x,y,1/2-z
-x,-y,-z
1/2+x,y,1/2-z
-x,y,z
1/2+x,-y,1/2+z
loop_
_atom_site_type_symbol
_atom_site_label
_atom_site_fract_x
_atom_site_fract_y
_atom_site_fract_z
Si Si1 0.819313 0.200054 0.464323
Si Si2 0.315556 0.133978 0.176040
Si Si3 0.184037 0.677333 0.470711
Si Si4 0.819160 0.078891 0.531588
Si Si5 0.318245 0.977973 0.606796
Si Si6 0.317914 0.559752 0.541540
Si Si7 0.183078 0.632561 0.323255
Si Si8 0.315761 0.493093 0.176321
O O1 0.751129 0.175656 0.389203
O O2 0.741720 0.263352 0.490513
O O3 0.792955 0.151687 0.528390
O O4 0.000000 0.210902 0.451245
O O5 0.250000 0.160017 0.250000
O O6 0.500000 0.134237 0.177343
O O7 0.257649 0.064107 0.167253
O O8 0.227417 0.617759 0.513485
O O9 0.245344 0.671929 0.389773
O O10 0.000000 0.683419 0.468556
O O11 0.718186 0.052378 0.467902
O O12 0.000000 0.063317 0.519606
O O13 0.757082 0.046691 0.603746
O O14 0.500000 0.983243 0.621386
O O15 0.261420 0.500000 0.500000
O O16 0.500000 0.570970 0.533157
O O17 0.269737 0.550890 0.621914
O O18 0.250000 0.658963 0.250000
O O19 0.237339 0.562958 0.335767
O O20 0.000000 0.635402 0.317377
O O21 0.250000 0.469583 0.250000
O O22 0.500000 0.485470 0.171220
#
# Coordination Sequence:
#
# PCOD8217554 Si02
#       8
#     8   8   8   8   8   8   8   8
#     4   8  17  32  52  74  99 133 177 218 258 308
#     4  10  19  33  51  74 102 136 174 218 264 307
#     4  10  19  35  55  76 100 135 179 217 258 318
#     4   9  15  27  46  70  98 128 160 202 250 296
#     4  10  17  26  44  72  99 127 161 203 249 295
#     4  11  22  34  50  75 105 135 168 215 267 314
#     4   9  18  30  50  75  99 124 157 200 253 310
#     4  10  19  33  52  76 101 131 164 205 258 317
#
# _framework density 17.888456999999999
#
# number of rings (size 3 to 8) (size 9 to 14) (size 15 to 20)
#    0.000    2.375    1.250    4.125    0.000    1.500 
#    0.000    4.375    0.000    2.250    0.000    1.750 
#    0.000    0.000    0.000    0.000    0.000    0.000 
#
# Total GULP energy -793146.330320 kJ/mol
# GULP energy per Si atom -12392.911411 kJ/mol
# Density = 1.784774 g / cm^3
# Si number density = 17.888457 Si / 1000 Ang^3
#
#
#
# Elastic Constant Matrix: (Units=GPa)
#
#
# Indices 1 2 3 4 5 6 
#
# 1 32.7651 13.8596 18.0509 0.0000 0.0000 0.0000
# 2 13.8596 107.9885 61.4571 0.0000 0.0000 0.0000
# 3 18.0509 61.4571 124.2076 0.0000 0.0000 0.0000
# 4 0.0000 0.0000 0.0000 25.7178 0.0000 0.0000
# 5 0.0000 0.0000 0.0000 0.0000 26.9282 0.0000
# 6 0.0000 0.0000 0.0000 0.0000 0.0000 8.5922
#
#
#
# Elastic Compliance Matrix: (Units=1/GPa)
#
#
# Indices 1 2 3 4 5 6 
#
# 1 0.033525 -0.002130 -0.003818 0.000000 0.000000 0.000000
# 2 -0.002130 0.013025 -0.006135 0.000000 0.000000 0.000000
# 3 -0.003818 -0.006135 0.011642 0.000000 0.000000 0.000000
# 4 0.000000 0.000000 0.000000 0.038884 0.000000 0.000000
# 5 0.000000 0.000000 0.000000 0.000000 0.037136 0.000000
# 6 0.000000 0.000000 0.000000 0.000000 0.000000 0.116385
#
#
# Mechanical properties :
#
#
# Convention : Reuss Voigt Hill
#
# Bulk Modulus (GPa) = 29.39010 50.18848 39.78929
# Shear Modulus (GPa) = 17.47613 23.68720 20.58167
#
# Velocity S-wave (km/s) = 3.12901 3.64285 3.39566
# Velocity P-wave (km/s) = 5.43319 6.76839 6.13721
#
# Compressibility (1/GPa) = 0.03402506
#
# Stress axis : x y z
#
# Youngs Moduli (GPa) = 29.82869 76.77423 85.89840
#
# Poissons Ratio (x) = 0.16350 0.32799
# Poissons Ratio (y) = 0.06352 0.52701
# Poissons Ratio (z) = 0.11390 0.47103
#
# Static dielectric constant tensor:
#      x y z
#    x 3.153590 0.000000 0.000000 
#    y 0.000000 3.556560 0.000000 
#    z 0.000000 0.000000 3.448420 
# 
# 
# High freq. dielectric constant tensor:
#      x y z
#    x 1.684750 0.000000 0.000000 
#    y 0.000000 1.673770 0.000000 
#    z 0.000000 0.000000 1.680660 
# 
# From -- ./inp_files/27040.got.cif
#   From: 2010.03.12/outbox.cif.g09.slc.cpg/sg53_14_cif.got.tgz:27040.got - 2010.04.16 14:36:59.
