data_PCOD8217505
_publ_section_title
;
Structure prediction by ZEFSAII (Michael W. Deem and Ramdas Pophale) SiO2 
 PCOD8217505
Probable space group: P M N A
;
_chemical_formula_sum "Si O2"
_cell_formula_units_Z 48
_cell_length_a 8.815642
_cell_length_b 15.230825
_cell_length_c 20.202234
_cell_angle_alpha 90.000000
_cell_angle_beta 90.000000
_cell_angle_gamma 90.000000
_cell_volume 2712.543869
_symmetry_space_group_name_H-M "P M N A"
_symmetry_group_IT_number 53
_symmetry_cell_setting 'orthorhombic'
loop_
_space_group_symop_operation_xyz
x,y,z
1/2-x,-y,1/2+z
x,-y,-z
1/2-x,y,1/2-z
-x,-y,-z
1/2+x,y,1/2-z
-x,y,z
1/2+x,-y,1/2+z
loop_
_atom_site_type_symbol
_atom_site_label
_atom_site_fract_x
_atom_site_fract_y
_atom_site_fract_z
Si Si1 0.322864 0.962829 0.928955
Si Si2 0.176266 0.595913 0.942893
Si Si3 0.173989 0.212141 0.042443
Si Si4 0.821336 0.083828 0.820078
Si Si5 0.821570 0.569878 0.415245
Si Si6 0.177348 0.742896 0.107152
O O1 0.500000 0.975977 0.916881
O O2 0.281286 0.860138 0.924475
O O3 0.232860 0.013037 0.872692
O O4 0.271473 0.000000 0.000000
O O5 0.196887 0.695993 0.917381
O O6 0.242528 0.522489 0.891994
O O7 0.000000 0.577644 0.958011
O O8 0.271896 0.587121 0.009816
O O9 0.000000 0.180456 0.046586
O O10 0.222292 0.225177 0.966197
O O11 0.750000 0.060853 0.750000
O O12 0.771573 0.181549 0.842090
O O13 0.000000 0.077038 0.814622
O O14 0.764893 0.653387 0.372459
O O15 0.000000 0.560083 0.408071
O O16 0.000000 0.722409 0.110512
#
# Coordination Sequence:
#
# PCOD8217505 Si02
#       6
#     8   8   8   8   8   8
#     4  11  22  34  52  79 107 137 175 221 269 318
#     4   9  16  27  41  62  96 133 167 202 248 305
#     4   9  17  30  49  72  98 134 176 212 257 311
#     4  11  23  39  57  76 104 139 178 221 267 320
#     4  10  17  24  40  66  96 129 164 205 249 295
#     4   9  18  32  49  69  97 136 171 205 255 314
#
# _framework density 17.695565999999999
#
# number of rings (size 3 to 8) (size 9 to 14) (size 15 to 20)
#    0.000    2.167    1.667    5.000    0.000    5.333 
#    0.000    0.000    0.000    0.000    0.000    1.167 
#    0.000    5.333    0.000    0.000    0.000    0.000 
#
# Total GULP energy -595002.567532 kJ/mol
# GULP energy per Si atom -12395.886824 kJ/mol
# Density = 1.765529 g / cm^3
# Si number density = 17.695566 Si / 1000 Ang^3
#
#
#
# Elastic Constant Matrix: (Units=GPa)
#
#
# Indices 1 2 3 4 5 6 
#
# 1 65.8539 53.8331 22.2312 0.0000 0.0000 0.0000
# 2 53.8331 147.4667 41.3726 0.0000 0.0000 0.0000
# 3 22.2312 41.3726 58.5479 0.0000 0.0000 0.0000
# 4 0.0000 0.0000 0.0000 66.7909 0.0000 0.0000
# 5 0.0000 0.0000 0.0000 0.0000 16.0113 0.0000
# 6 0.0000 0.0000 0.0000 0.0000 0.0000 25.3157
#
#
#
# Elastic Compliance Matrix: (Units=1/GPa)
#
#
# Indices 1 2 3 4 5 6 
#
# 1 0.022163 -0.007147 -0.003366 0.000000 0.000000 0.000000
# 2 -0.007147 0.010762 -0.004892 0.000000 0.000000 0.000000
# 3 -0.003366 -0.004892 0.021815 0.000000 0.000000 0.000000
# 4 0.000000 0.000000 0.000000 0.014972 0.000000 0.000000
# 5 0.000000 0.000000 0.000000 0.000000 0.062456 0.000000
# 6 0.000000 0.000000 0.000000 0.000000 0.000000 0.039501
#
#
# Mechanical properties :
#
#
# Convention : Reuss Voigt Hill
#
# Bulk Modulus (GPa) = 41.78343 56.30468 49.04405
# Shear Modulus (GPa) = 23.75809 31.91902 27.83855
#
# Velocity S-wave (km/s) = 3.66813 4.25171 3.97065
# Velocity P-wave (km/s) = 6.45010 7.48267 6.98549
#
# Compressibility (1/GPa) = 0.02393293
#
# Stress axis : x y z
#
# Youngs Moduli (GPa) = 45.11954 92.91593 45.84086
#
# Poissons Ratio (x) = 0.66403 0.15428
# Poissons Ratio (y) = 0.32245 0.22423
# Poissons Ratio (z) = 0.15185 0.45451
#
# Static dielectric constant tensor:
#      x y z
#    x 3.246430 0.000000 0.000000 
#    y 0.000000 3.951710 0.000000 
#    z 0.000000 0.000000 2.738190 
# 
# 
# High freq. dielectric constant tensor:
#      x y z
#    x 1.692200 0.000000 0.000000 
#    y 0.000000 1.709760 0.000000 
#    z 0.000000 0.000000 1.610740 
# 
# From -- ./inp_files/33992.got.cif
#   From: 2010.03.12/outbox.cif.g09.slc.cpg/sg53_17_cif.got.tgz:33992.got - 2010.04.16 14:36:59.
