data_PCOD8217668
_publ_section_title
;
Structure prediction by ZEFSAII (Michael W. Deem and Ramdas Pophale) SiO2 
 PCOD8217668
Probable space group: P M N A
;
_chemical_formula_sum "Si O2"
_cell_formula_units_Z 64
_cell_length_a 8.963585
_cell_length_b 17.062476
_cell_length_c 27.019687
_cell_angle_alpha 90.000000
_cell_angle_beta 90.000000
_cell_angle_gamma 90.000000
_cell_volume 4132.416705
_symmetry_space_group_name_H-M "P M N A"
_symmetry_group_IT_number 53
_symmetry_cell_setting 'orthorhombic'
loop_
_space_group_symop_operation_xyz
x,y,z
1/2-x,-y,1/2+z
x,-y,-z
1/2-x,y,1/2-z
-x,-y,-z
1/2+x,y,1/2-z
-x,y,z
1/2+x,-y,1/2+z
loop_
_atom_site_type_symbol
_atom_site_label
_atom_site_fract_x
_atom_site_fract_y
_atom_site_fract_z
Si Si1 0.334271 0.025250 0.056863
Si Si2 0.832664 0.285254 0.630743
Si Si3 0.330121 0.344763 0.450481
Si Si4 0.328676 0.482907 0.384804
Si Si5 0.827316 0.828855 0.970795
Si Si6 0.678443 0.142428 0.925375
Si Si7 0.168457 0.404338 0.544548
Si Si8 0.178488 0.577695 0.303055
O O1 0.500000 0.048361 0.074603
O O2 0.229441 0.100542 0.064663
O O3 0.276043 0.947913 0.086603
O O4 0.336416 0.000000 0.000000
O O5 0.762267 0.198897 0.619693
O O6 0.825853 0.327366 0.578013
O O7 0.757383 0.340748 0.672679
O O8 0.000000 0.272830 0.649337
O O9 0.500000 0.354859 0.469705
O O10 0.309370 0.390706 0.398288
O O11 0.295010 0.252805 0.442505
O O12 0.219184 0.382164 0.489988
O O13 0.500000 0.503459 0.372705
O O14 0.277305 0.530185 0.433318
O O15 0.228394 0.505054 0.337396
O O16 0.000000 0.842542 0.981161
O O17 0.745444 0.827970 0.023179
O O18 0.500000 0.149266 0.930662
O O19 0.000000 0.437664 0.542602
O O20 0.250000 0.566812 0.250000
O O21 0.000000 0.577444 0.300182
#
# Coordination Sequence:
#
# PCOD8217668 Si02
#       8
#     8   8   8   8   8   8   8   8
#     4   8  15  25  38  54  76 110 148 178 211 250
#     4   8  15  27  44  64  84 109 143 178 210 253
#     4  10  20  30  40  58  86 120 151 181 220 261
#     4  10  20  33  46  61  85 114 145 181 221 263
#     4  10  18  26  37  56  83 115 150 183 215 249
#     4   9  15  27  42  57  80 112 147 180 212 249
#     4  10  18  28  43  62  85 114 149 184 218 256
#     4  10  20  35  52  70  88 110 141 176 221 267
#
# _framework density 15.487306
#
# number of rings (size 3 to 8) (size 9 to 14) (size 15 to 20)
#    0.000    2.625    1.250    3.375    0.000    5.250 
#    0.000    0.625    0.000    0.000    0.000    0.000 
#    0.000    1.000    0.000   10.250    0.000    1.625 
#
# Total GULP energy -792946.657035 kJ/mol
# GULP energy per Si atom -12389.791516 kJ/mol
# Density = 1.545206 g / cm^3
# Si number density = 15.487306 Si / 1000 Ang^3
#
#
#
# Elastic Constant Matrix: (Units=GPa)
#
#
# Indices 1 2 3 4 5 6 
#
# 1 60.2312 37.6817 26.4771 0.0000 0.0000 0.0000
# 2 37.6817 115.9038 46.2383 0.0000 0.0000 0.0000
# 3 26.4771 46.2383 61.4348 0.0000 0.0000 0.0000
# 4 0.0000 0.0000 0.0000 12.2327 0.0000 0.0000
# 5 0.0000 0.0000 0.0000 0.0000 14.9048 0.0000
# 6 0.0000 0.0000 0.0000 0.0000 0.0000 20.9393
#
#
#
# Elastic Compliance Matrix: (Units=1/GPa)
#
#
# Indices 1 2 3 4 5 6 
#
# 1 0.022255 -0.004872 -0.005925 0.000000 0.000000 0.000000
# 2 -0.004872 0.013396 -0.007983 0.000000 0.000000 0.000000
# 3 -0.005925 -0.007983 0.024839 0.000000 0.000000 0.000000
# 4 0.000000 0.000000 0.000000 0.081748 0.000000 0.000000
# 5 0.000000 0.000000 0.000000 0.000000 0.067092 0.000000
# 6 0.000000 0.000000 0.000000 0.000000 0.000000 0.047757
#
#
# Mechanical properties :
#
#
# Convention : Reuss Voigt Hill
#
# Bulk Modulus (GPa) = 43.60807 50.92933 47.26870
# Shear Modulus (GPa) = 16.54036 18.09356 17.31696
#
# Velocity S-wave (km/s) = 3.27156 3.42172 3.34749
# Velocity P-wave (km/s) = 6.51838 6.96899 6.74745
#
# Compressibility (1/GPa) = 0.02293154
#
# Stress axis : x y z
#
# Youngs Moduli (GPa) = 44.93368 74.64644 40.25883
#
# Poissons Ratio (x) = 0.36366 0.23852
# Poissons Ratio (y) = 0.21891 0.32139
# Poissons Ratio (z) = 0.26622 0.59591
#
# Static dielectric constant tensor:
#      x y z
#    x 2.975990 0.000000 0.000000 
#    y 0.000000 3.417440 0.000000 
#    z 0.000000 0.000000 2.588440 
# 
# 
# High freq. dielectric constant tensor:
#      x y z
#    x 1.594230 0.000000 0.000000 
#    y 0.000000 1.602180 0.000000 
#    z 0.000000 0.000000 1.533440 
# 
# From -- ./inp_files/36506.got.cif
#   From: 2010.03.12/outbox.cif.g09.slc.cpg/sg53_19_cif.got.tgz:36506.got - 2010.04.16 14:36:59.
