data_PCOD8217763
_publ_section_title
;
Structure prediction by ZEFSAII (Michael W. Deem and Ramdas Pophale) SiO2 
 PCOD8217763
Probable space group: P M N A
;
_chemical_formula_sum "Si O2"
_cell_formula_units_Z 64
_cell_length_a 9.090357
_cell_length_b 17.000589
_cell_length_c 22.916926
_cell_angle_alpha 90.000000
_cell_angle_beta 90.000000
_cell_angle_gamma 90.000000
_cell_volume 3541.614360
_symmetry_space_group_name_H-M "P M N A"
_symmetry_group_IT_number 53
_symmetry_cell_setting 'orthorhombic'
loop_
_space_group_symop_operation_xyz
x,y,z
1/2-x,-y,1/2+z
x,-y,-z
1/2-x,y,1/2-z
-x,-y,-z
1/2+x,y,1/2-z
-x,y,z
1/2+x,-y,1/2+z
loop_
_atom_site_type_symbol
_atom_site_label
_atom_site_fract_x
_atom_site_fract_y
_atom_site_fract_z
Si Si1 0.673291 0.307648 0.400215
Si Si2 0.333039 0.280853 0.919552
Si Si3 0.171112 0.949382 0.191529
Si Si4 0.671577 0.767543 0.308444
Si Si5 0.171556 0.411882 0.485661
Si Si6 0.163185 0.062463 0.387195
Si Si7 0.832766 0.216586 0.308439
Si Si8 0.168566 0.182832 0.474802
O O1 0.500000 0.314737 0.391035
O O2 0.736650 0.387515 0.428389
O O3 0.751009 0.290843 0.338197
O O4 0.711411 0.236720 0.443625
O O5 0.500000 0.287962 0.897132
O O6 0.227747 0.281462 0.863772
O O7 0.290870 0.355112 0.959874
O O8 0.313099 0.198626 0.955968
O O9 0.250000 0.981211 0.250000
O O10 0.210705 0.858742 0.181125
O O11 0.000000 0.963606 0.200625
O O12 0.222753 0.997222 0.134489
O O13 0.750000 0.736576 0.250000
O O14 0.500000 0.753287 0.300927
O O15 0.220214 0.500000 0.500000
O O16 0.000000 0.406072 0.470264
O O17 0.176182 0.141108 0.349529
O O18 0.194747 0.091827 0.454371
O O19 0.000000 0.025665 0.382353
O O20 0.750000 0.193104 0.250000
O O21 0.000000 0.240464 0.294814
O O22 0.000000 0.207711 0.456568
#
# Coordination Sequence:
#
# PCOD8217763 Si02
#       8
#     8   8   8   8   8   8   8   8
#     4  10  18  28  45  70  99 129 161 197 235 277
#     4   9  17  32  55  79 101 127 161 199 240 288
#     4  10  20  32  46  65  91 125 166 212 259 302
#     4  10  21  36  53  73  97 128 166 207 251 296
#     4   9  18  34  56  80 105 131 156 187 232 285
#     4   9  17  29  46  67  93 126 165 209 251 292
#     4  10  19  30  44  65  94 129 169 206 243 289
#     4   8  16  31  48  68  96 130 165 199 240 292
#
# _framework density 18.070855000000002
#
# number of rings (size 3 to 8) (size 9 to 14) (size 15 to 20)
#    0.000    2.625    0.000    4.125    0.000    7.250 
#    0.000    0.625    0.000    4.500    0.000    3.500 
#    0.000    0.000    0.000    0.000    0.000    0.000 
#
# Total GULP energy -793316.698632 kJ/mol
# GULP energy per Si atom -12395.573416 kJ/mol
# Density = 1.802973 g / cm^3
# Si number density = 18.070855 Si / 1000 Ang^3
#
#
#
# Elastic Constant Matrix: (Units=GPa)
#
#
# Indices 1 2 3 4 5 6 
#
# 1 93.2275 23.6021 32.2227 0.0000 0.0000 0.0000
# 2 23.6021 46.0848 17.7496 0.0000 0.0000 0.0000
# 3 32.2227 17.7496 74.0861 0.0000 0.0000 0.0000
# 4 0.0000 0.0000 0.0000 21.8867 0.0000 0.0000
# 5 0.0000 0.0000 0.0000 0.0000 29.9027 0.0000
# 6 0.0000 0.0000 0.0000 0.0000 0.0000 22.0220
#
#
#
# Elastic Compliance Matrix: (Units=1/GPa)
#
#
# Indices 1 2 3 4 5 6 
#
# 1 0.013664 -0.005188 -0.004700 0.000000 0.000000 0.000000
# 2 -0.005188 0.025875 -0.003943 0.000000 0.000000 0.000000
# 3 -0.004700 -0.003943 0.016487 0.000000 0.000000 0.000000
# 4 0.000000 0.000000 0.000000 0.045690 0.000000 0.000000
# 5 0.000000 0.000000 0.000000 0.000000 0.033442 0.000000
# 6 0.000000 0.000000 0.000000 0.000000 0.000000 0.045409
#
#
# Mechanical properties :
#
#
# Convention : Reuss Voigt Hill
#
# Bulk Modulus (GPa) = 35.25574 40.06080 37.65827
# Shear Modulus (GPa) = 22.96922 24.08389 23.52656
#
# Velocity S-wave (km/s) = 3.56907 3.65464 3.61211
# Velocity P-wave (km/s) = 6.04453 6.32656 6.18716
#
# Compressibility (1/GPa) = 0.02836418
#
# Stress axis : x y z
#
# Youngs Moduli (GPa) = 73.18280 38.64795 60.65501
#
# Poissons Ratio (x) = 0.20050 0.28509
# Poissons Ratio (y) = 0.37966 0.23914
# Poissons Ratio (z) = 0.34398 0.15238
#
# Static dielectric constant tensor:
#      x y z
#    x 3.280420 0.000000 0.000000 
#    y 0.000000 3.120730 0.000000 
#    z 0.000000 0.000000 3.419040 
# 
# 
# High freq. dielectric constant tensor:
#      x y z
#    x 1.701680 0.000000 0.000000 
#    y 0.000000 1.663680 0.000000 
#    z 0.000000 0.000000 1.693550 
# 
# From -- ./inp_files/31268.got.cif
#   From: 2010.03.12/outbox.cif.g09.slc.cpg/sg53_16_cif.got.tgz:31268.got - 2010.04.16 14:36:59.
