data_PCOD8217968
_publ_section_title
;
Structure prediction by ZEFSAII (Michael W. Deem and Ramdas Pophale) SiO2 
 PCOD8217968
Probable space group: P M N A
;
_chemical_formula_sum "Si O2"
_cell_formula_units_Z 48
_cell_length_a 18.365771
_cell_length_b 9.229700
_cell_length_c 15.889534
_cell_angle_alpha 90.000000
_cell_angle_beta 90.000000
_cell_angle_gamma 90.000000
_cell_volume 2693.443752
_symmetry_space_group_name_H-M "P M N A"
_symmetry_group_IT_number 53
_symmetry_cell_setting 'orthorhombic'
loop_
_space_group_symop_operation_xyz
x,y,z
1/2-x,-y,1/2+z
x,-y,-z
1/2-x,y,1/2-z
-x,-y,-z
1/2+x,y,1/2-z
-x,y,z
1/2+x,-y,1/2+z
loop_
_atom_site_type_symbol
_atom_site_label
_atom_site_fract_x
_atom_site_fract_y
_atom_site_fract_z
Si Si1 0.582942 0.987197 0.745345
Si Si2 0.705344 0.178076 0.667009
Si Si3 0.918208 0.348407 0.232174
Si Si4 0.288638 0.677870 0.837397
Si Si5 0.667656 0.516613 0.403808
Si Si6 0.324878 0.021795 0.093558
O O1 0.500000 0.043703 0.739254
O O2 0.634967 0.081499 0.686871
O O3 0.608887 0.001952 0.841929
O O4 0.588679 0.822448 0.713017
O O5 0.750000 0.225037 0.750000
O O6 0.673972 0.316074 0.619340
O O7 0.758991 0.090028 0.606543
O O8 0.867777 0.387172 0.312682
O O9 0.894315 0.437952 0.150497
O O10 0.000000 0.392501 0.256157
O O11 0.250000 0.724761 0.750000
O O12 0.246141 0.555041 0.887636
O O13 0.293361 0.816945 0.896582
O O14 0.644249 0.500000 0.500000
O O15 0.356146 0.000000 0.000000
#
# Coordination Sequence:
#
# PCOD8217968 Si02
#       6
#     8   8   8   8   8   8
#     4   9  19  35  53  72  97 131 166 197 236 291
#     4  10  19  32  50  73  99 129 163 198 241 289
#     4   9  18  34  53  70  93 129 168 198 233 291
#     4   9  17  33  52  70  94 131 169 194 231 292
#     4  11  21  32  50  75 101 126 160 208 249 282
#     4  10  18  30  52  78 102 125 156 202 246 285
#
# _framework density 17.821052999999999
#
# number of rings (size 3 to 8) (size 9 to 14) (size 15 to 20)
#    0.000    2.333    0.000    6.000    0.000    1.333 
#    0.000    0.000    0.000    3.000    0.000    0.000 
#    0.000    0.000    0.000    0.000    0.000    0.000 
#
# Total GULP energy -595219.308879 kJ/mol
# GULP energy per Si atom -12400.402268 kJ/mol
# Density = 1.778049 g / cm^3
# Si number density = 17.821053 Si / 1000 Ang^3
#
#
#
# Elastic Constant Matrix: (Units=GPa)
#
#
# Indices 1 2 3 4 5 6 
#
# 1 112.1498 28.7749 13.4473 0.0000 0.0000 0.0000
# 2 28.7749 70.0760 25.4000 0.0000 0.0000 0.0000
# 3 13.4473 25.4000 69.5802 0.0000 0.0000 0.0000
# 4 0.0000 0.0000 0.0000 20.4146 0.0000 0.0000
# 5 0.0000 0.0000 0.0000 0.0000 14.2914 0.0000
# 6 0.0000 0.0000 0.0000 0.0000 0.0000 16.1452
#
#
#
# Elastic Compliance Matrix: (Units=1/GPa)
#
#
# Indices 1 2 3 4 5 6 
#
# 1 0.009982 -0.003918 -0.000499 0.000000 0.000000 0.000000
# 2 -0.003918 0.017984 -0.005808 0.000000 0.000000 0.000000
# 3 -0.000499 -0.005808 0.016588 0.000000 0.000000 0.000000
# 4 0.000000 0.000000 0.000000 0.048984 0.000000 0.000000
# 5 0.000000 0.000000 0.000000 0.000000 0.069972 0.000000
# 6 0.000000 0.000000 0.000000 0.000000 0.000000 0.061938
#
#
# Mechanical properties :
#
#
# Convention : Reuss Voigt Hill
#
# Bulk Modulus (GPa) = 41.48514 43.00560 42.24537
# Shear Modulus (GPa) = 19.69025 22.44919 21.06972
#
# Velocity S-wave (km/s) = 3.32759 3.55308 3.44218
# Velocity P-wave (km/s) = 6.17196 6.40443 6.28927
#
# Compressibility (1/GPa) = 0.02410502
#
# Stress axis : x y z
#
# Youngs Moduli (GPa) = 100.18331 55.60460 60.28293
#
# Poissons Ratio (x) = 0.21785 0.03007
# Poissons Ratio (y) = 0.39251 0.35011
# Poissons Ratio (z) = 0.04998 0.32294
#
# Static dielectric constant tensor:
#      x y z
#    x 3.481020 0.000000 0.000000 
#    y 0.000000 3.237670 0.000000 
#    z 0.000000 0.000000 3.122600 
# 
# 
# High freq. dielectric constant tensor:
#      x y z
#    x 1.689230 0.000000 0.000000 
#    y 0.000000 1.690950 0.000000 
#    z 0.000000 0.000000 1.672700 
# 
# From -- ./inp_files/23606.got.cif
#   From: 2010.03.12/outbox.cif.g09.slc.cpg/sg53_12_cif.got.tgz:23606.got - 2010.04.16 14:36:59.
