data_PCOD8217965
_publ_section_title
;
Structure prediction by ZEFSAII (Michael W. Deem and Ramdas Pophale) SiO2 
 PCOD8217965
Probable space group: P M N A
;
_chemical_formula_sum "Si O2"
_cell_formula_units_Z 48
_cell_length_a 8.735505
_cell_length_b 15.371337
_cell_length_c 17.909114
_cell_angle_alpha 90.000000
_cell_angle_beta 90.000000
_cell_angle_gamma 90.000000
_cell_volume 2404.771198
_symmetry_space_group_name_H-M "P M N A"
_symmetry_group_IT_number 53
_symmetry_cell_setting 'orthorhombic'
loop_
_space_group_symop_operation_xyz
x,y,z
1/2-x,-y,1/2+z
x,-y,-z
1/2-x,y,1/2-z
-x,-y,-z
1/2+x,y,1/2-z
-x,y,z
1/2+x,-y,1/2+z
loop_
_atom_site_type_symbol
_atom_site_label
_atom_site_fract_x
_atom_site_fract_y
_atom_site_fract_z
Si Si1 0.820392 0.639479 0.426455
Si Si2 0.319098 0.193738 0.831441
Si Si3 0.681848 0.019037 0.667355
Si Si4 0.678946 0.154171 0.169386
Si Si5 0.177745 0.334849 0.403696
Si Si6 0.679308 0.493594 0.328369
O O1 0.771374 0.726186 0.383140
O O2 0.769163 0.649228 0.511836
O O3 0.733765 0.556828 0.393860
O O4 0.000000 0.622462 0.419201
O O5 0.250000 0.210588 0.750000
O O6 0.500000 0.182591 0.824503
O O7 0.248099 0.106926 0.870137
O O8 0.750000 0.016959 0.750000
O O9 0.500000 0.021600 0.667083
O O10 0.742768 0.930036 0.629391
O O11 0.750000 0.174136 0.250000
O O12 0.500000 0.135960 0.179656
O O13 0.711979 0.235014 0.115615
O O14 0.272781 0.395471 0.347906
O O15 0.000000 0.357326 0.392738
O O16 0.750000 0.523732 0.250000
O O17 0.500000 0.499253 0.319873
#
# Coordination Sequence:
#
# PCOD8217965 Si02
#       6
#     8   8   8   8   8   8
#     4  10  22  40  60  83 114 150 185 226 278 333
#     4  10  19  33  55  81 109 143 185 230 275 326
#     4  10  18  30  51  78 109 143 181 229 279 324
#     4  10  19  33  55  81 109 143 185 230 275 326
#     4  10  22  40  60  83 114 150 185 226 278 333
#     4  12  25  40  61  87 113 145 185 230 277 328
#
# _framework density 19.960318999999998
#
# number of rings (size 3 to 8) (size 9 to 14) (size 15 to 20)
#    0.000    1.667    0.000    7.500    0.000    8.000 
#    0.000    0.833    0.000    5.000    0.000    0.000 
#    0.000    0.000    0.000    0.000    0.000    0.000 
#
# Total GULP energy -595301.825139 kJ/mol
# GULP energy per Si atom -12402.121357 kJ/mol
# Density = 1.991489 g / cm^3
# Si number density = 19.960319 Si / 1000 Ang^3
#
#
#
# Elastic Constant Matrix: (Units=GPa)
#
#
# Indices 1 2 3 4 5 6 
#
# 1 99.7802 41.6125 20.4225 0.0000 0.0000 0.0000
# 2 41.6125 111.3649 19.2134 0.0000 0.0000 0.0000
# 3 20.4225 19.2134 66.4516 0.0000 0.0000 0.0000
# 4 0.0000 0.0000 0.0000 -4.3255 0.0000 0.0000
# 5 0.0000 0.0000 0.0000 0.0000 22.0650 0.0000
# 6 0.0000 0.0000 0.0000 0.0000 0.0000 84.8398
#
#
#
# Elastic Compliance Matrix: (Units=1/GPa)
#
#
# Indices 1 2 3 4 5 6 
#
# 1 0.012277 -0.004143 -0.002575 0.000000 0.000000 0.000000
# 2 -0.004143 0.010849 -0.001864 0.000000 0.000000 0.000000
# 3 -0.002575 -0.001864 0.016379 0.000000 0.000000 0.000000
# 4 0.000000 0.000000 0.000000 -0.231188 0.000000 0.000000
# 5 0.000000 0.000000 0.000000 0.000000 0.045321 0.000000
# 6 0.000000 0.000000 0.000000 0.000000 0.000000 0.011787
#
#
# Mechanical properties :
#
#
# Convention : Reuss Voigt Hill
#
# Bulk Modulus (GPa) = 44.76028 48.89926 46.82977
# Shear Modulus (GPa) = -45.46914 33.60577 -5.93169
#
# Velocity S-wave (km/s) = -4.77799 4.10766 -1.72574
# Velocity P-wave (km/s) = 2.82235 6.85919 4.42057
#
# Compressibility (1/GPa) = 0.02234124
#
# Stress axis : x y z
#
# Youngs Moduli (GPa) = 81.45355 92.17350 61.05459
#
# Poissons Ratio (x) = 0.38188 0.15722
# Poissons Ratio (y) = 0.33747 0.11378
# Poissons Ratio (z) = 0.20975 0.17177
#
# Static dielectric constant tensor:
#      x y z
#    x 3.658660 0.000000 0.000000 
#    y 0.000000 4.233760 0.000000 
#    z 0.000000 0.000000 3.457290 
# 
# 
# High freq. dielectric constant tensor:
#      x y z
#    x 1.783950 0.000000 0.000000 
#    y 0.000000 1.803880 0.000000 
#    z 0.000000 0.000000 1.752310 
# 
# From -- ./inp_files/26211.got.cif
#   From: 2010.03.12/outbox.cif.g09.slc.cpg/sg53_14_cif.got.tgz:26211.got - 2010.04.16 14:36:59.
