data_PCOD8217458
_publ_section_title
;
Structure prediction by ZEFSAII (Michael W. Deem and Ramdas Pophale) SiO2 
 PCOD8217458
Probable space group: P M N A
;
_chemical_formula_sum "Si O2"
_cell_formula_units_Z 48
_cell_length_a 13.014288
_cell_length_b 12.299167
_cell_length_c 18.550145
_cell_angle_alpha 90.000000
_cell_angle_beta 90.000000
_cell_angle_gamma 90.000000
_cell_volume 2969.227132
_symmetry_space_group_name_H-M "P M N A"
_symmetry_group_IT_number 53
_symmetry_cell_setting 'orthorhombic'
loop_
_space_group_symop_operation_xyz
x,y,z
1/2-x,-y,1/2+z
x,-y,-z
1/2-x,y,1/2-z
-x,-y,-z
1/2+x,y,1/2-z
-x,y,z
1/2+x,-y,1/2+z
loop_
_atom_site_type_symbol
_atom_site_label
_atom_site_fract_x
_atom_site_fract_y
_atom_site_fract_z
Si Si1 0.714054 0.248477 0.535189
Si Si2 0.880909 0.616678 0.537696
Si Si3 0.733391 0.619984 0.668446
Si Si4 0.613748 0.956019 0.420509
Si Si5 0.619113 0.810679 0.614043
Si Si6 0.619430 0.456115 0.576354
O O1 0.827471 0.285025 0.508205
O O2 0.703848 0.135969 0.581162
O O3 0.639955 0.235688 0.466143
O O4 0.672364 0.340137 0.589399
O O5 0.865266 0.500000 0.500000
O O6 0.835039 0.611021 0.618714
O O7 0.000000 0.647607 0.543490
O O8 0.750000 0.583272 0.750000
O O9 0.688470 0.742362 0.669371
O O10 0.646475 0.539331 0.638967
O O11 0.500000 0.913137 0.394864
O O12 0.598762 0.000000 0.500000
O O13 0.648839 0.062014 0.374745
O O14 0.500000 0.792290 0.631050
O O15 0.662578 0.500000 0.500000
O O16 0.500000 0.437843 0.573740
#
# Coordination Sequence:
#
# PCOD8217458 Si02
#       6
#     8   8   8   8   8   8
#     4  10  15  27  47  73  96 121 151 198 247 292
#     4  10  19  33  48  66  95 133 171 202 238 289
#     4  11  21  32  46  68 100 130 167 200 246 296
#     4   8  14  23  42  72  99 117 140 184 245 297
#     4   9  16  28  46  71  98 123 151 194 248 294
#     4  11  18  28  49  75  98 121 153 205 259 297
#
# _framework density 16.165821999999999
#
# number of rings (size 3 to 8) (size 9 to 14) (size 15 to 20)
#    0.000    2.167    5.000    3.000    0.000    1.333 
#    0.000    0.000    0.000   13.500    0.000    0.000 
#    0.000    0.000    0.000    0.000    0.000    0.000 
#
# Total GULP energy -594742.937405 kJ/mol
# GULP energy per Si atom -12390.477863 kJ/mol
# Density = 1.612903 g / cm^3
# Si number density = 16.165822 Si / 1000 Ang^3
#
#
#
# Elastic Constant Matrix: (Units=GPa)
#
#
# Indices 1 2 3 4 5 6 
#
# 1 95.3883 45.8726 24.8051 0.0000 0.0000 0.0000
# 2 45.8726 104.3157 29.8436 0.0000 0.0000 0.0000
# 3 24.8051 29.8436 63.8283 0.0000 0.0000 0.0000
# 4 0.0000 0.0000 0.0000 12.5882 0.0000 0.0000
# 5 0.0000 0.0000 0.0000 0.0000 9.0200 0.0000
# 6 0.0000 0.0000 0.0000 0.0000 0.0000 21.7604
#
#
#
# Elastic Compliance Matrix: (Units=1/GPa)
#
#
# Indices 1 2 3 4 5 6 
#
# 1 0.013746 -0.005214 -0.002904 0.000000 0.000000 0.000000
# 2 -0.005214 0.013044 -0.004073 0.000000 0.000000 0.000000
# 3 -0.002904 -0.004073 0.018700 0.000000 0.000000 0.000000
# 4 0.000000 0.000000 0.000000 0.079440 0.000000 0.000000
# 5 0.000000 0.000000 0.000000 0.000000 0.110864 0.000000
# 6 0.000000 0.000000 0.000000 0.000000 0.000000 0.045955
#
#
# Mechanical properties :
#
#
# Convention : Reuss Voigt Hill
#
# Bulk Modulus (GPa) = 47.37423 51.61943 49.49683
# Shear Modulus (GPa) = 15.96592 19.54112 17.75352
#
# Velocity S-wave (km/s) = 3.14607 3.48054 3.31752
# Velocity P-wave (km/s) = 6.52425 6.93922 6.73493
#
# Compressibility (1/GPa) = 0.02110852
#
# Stress axis : x y z
#
# Youngs Moduli (GPa) = 72.74797 76.66195 53.47614
#
# Poissons Ratio (x) = 0.39971 0.15530
# Poissons Ratio (y) = 0.37930 0.21779
# Poissons Ratio (z) = 0.21127 0.31222
#
# Static dielectric constant tensor:
#      x y z
#    x 2.993350 0.000000 0.000000 
#    y 0.000000 3.628370 0.000000 
#    z 0.000000 0.000000 2.794200 
# 
# 
# High freq. dielectric constant tensor:
#      x y z
#    x 1.612750 0.000000 0.000000 
#    y 0.000000 1.632340 0.000000 
#    z 0.000000 0.000000 1.564250 
# 
# From -- ./inp_files/28370.got.cif
#   From: 2010.03.12/outbox.cif.g09.slc.cpg/sg53_15_cif.got.tgz:28370.got - 2010.04.16 14:36:59.
