data_PCOD8217618
_publ_section_title
;
Structure prediction by ZEFSAII (Michael W. Deem and Ramdas Pophale) SiO2 
 PCOD8217618
Probable space group: P M N A
;
_chemical_formula_sum "Si O2"
_cell_formula_units_Z 40
_cell_length_a 8.362706
_cell_length_b 12.741848
_cell_length_c 21.092439
_cell_angle_alpha 90.000000
_cell_angle_beta 90.000000
_cell_angle_gamma 90.000000
_cell_volume 2247.532864
_symmetry_space_group_name_H-M "P M N A"
_symmetry_group_IT_number 53
_symmetry_cell_setting 'orthorhombic'
loop_
_space_group_symop_operation_xyz
x,y,z
1/2-x,-y,1/2+z
x,-y,-z
1/2-x,y,1/2-z
-x,-y,-z
1/2+x,y,1/2-z
-x,y,z
1/2+x,-y,1/2+z
loop_
_atom_site_type_symbol
_atom_site_label
_atom_site_fract_x
_atom_site_fract_y
_atom_site_fract_z
Si Si1 0.315142 0.582808 0.581567
Si Si2 0.689921 0.141014 0.950306
Si Si3 0.185934 0.630223 0.446831
Si Si4 0.189761 0.921416 0.587549
Si Si5 0.689530 0.257018 0.179137
O O1 0.500000 0.602924 0.566806
O O2 0.210046 0.622644 0.522627
O O3 0.285603 0.457964 0.590713
O O4 0.262912 0.641386 0.645189
O O5 0.500000 0.142613 0.955038
O O6 0.747589 0.254322 0.924182
O O7 0.746173 0.043762 0.905427
O O8 0.757941 0.123514 0.021311
O O9 0.000000 0.614201 0.431683
O O10 0.253678 0.849093 0.644736
O O11 0.000000 0.917374 0.586668
O O12 0.750000 0.253741 0.250000
O O13 0.500000 0.265214 0.176943
#
# Coordination Sequence:
#
# PCOD8217618 Si02
#       5
#     8   8   8   8   8
#     4  11  21  32  46  70 103 135 168 206 251 299
#     4   8  13  24  47  76 100 124 157 203 248 295
#     4  10  17  29  51  76 101 130 165 208 254 301
#     4   8  14  26  46  73 100 125 161 201 244 292
#     4  11  21  35  53  73  99 133 168 206 244 294
#
# _framework density 17.797293
#
# number of rings (size 3 to 8) (size 9 to 14) (size 15 to 20)
#    0.000    2.400    2.000    5.400    0.000    0.000 
#    0.000    0.000    0.000    7.200    0.000    2.800 
#    0.000    0.000    0.000    0.000    0.000    0.000 
#
# Total GULP energy -495696.252204 kJ/mol
# GULP energy per Si atom -12392.406305 kJ/mol
# Density = 1.775679 g / cm^3
# Si number density = 17.797293 Si / 1000 Ang^3
#
#
#
# Elastic Constant Matrix: (Units=GPa)
#
#
# Indices 1 2 3 4 5 6 
#
# 1 43.1179 20.9102 9.6791 0.0000 0.0000 0.0000
# 2 20.9102 182.8073 65.3727 0.0000 0.0000 0.0000
# 3 9.6791 65.3727 90.0471 0.0000 0.0000 0.0000
# 4 0.0000 0.0000 0.0000 27.6113 0.0000 0.0000
# 5 0.0000 0.0000 0.0000 0.0000 19.0613 0.0000
# 6 0.0000 0.0000 0.0000 0.0000 0.0000 9.1426
#
#
#
# Elastic Compliance Matrix: (Units=1/GPa)
#
#
# Indices 1 2 3 4 5 6 
#
# 1 0.024598 -0.002523 -0.000812 0.000000 0.000000 0.000000
# 2 -0.002523 0.007647 -0.005281 0.000000 0.000000 0.000000
# 3 -0.000812 -0.005281 0.015026 0.000000 0.000000 0.000000
# 4 0.000000 0.000000 0.000000 0.036217 0.000000 0.000000
# 5 0.000000 0.000000 0.000000 0.000000 0.052462 0.000000
# 6 0.000000 0.000000 0.000000 0.000000 0.000000 0.109378
#
#
# Mechanical properties :
#
#
# Convention : Reuss Voigt Hill
#
# Bulk Modulus (GPa) = 33.28934 56.43290 44.86112
# Shear Modulus (GPa) = 18.34363 25.83041 22.08702
#
# Velocity S-wave (km/s) = 3.21393 3.81381 3.52665
# Velocity P-wave (km/s) = 5.70244 7.15340 6.46873
#
# Compressibility (1/GPa) = 0.03003965
#
# Stress axis : x y z
#
# Youngs Moduli (GPa) = 40.65347 130.76706 66.55051
#
# Poissons Ratio (x) = 0.32995 0.05406
# Poissons Ratio (y) = 0.10258 0.35142
# Poissons Ratio (z) = 0.03302 0.69052
#
# Static dielectric constant tensor:
#      x y z
#    x 2.997110 0.000000 0.000000 
#    y 0.000000 4.015860 0.000000 
#    z 0.000000 0.000000 2.851330 
# 
# 
# High freq. dielectric constant tensor:
#      x y z
#    x 1.665530 0.000000 0.000000 
#    y 0.000000 1.713750 0.000000 
#    z 0.000000 0.000000 1.632850 
# 
# From -- ./inp_files/30375.got.cif
#   From: 2010.03.12/outbox.cif.g09.slc.cpg/sg53_16_cif.got.tgz:30375.got - 2010.04.16 14:36:59.
