data_PCOD8217524
_publ_section_title
;
Structure prediction by ZEFSAII (Michael W. Deem and Ramdas Pophale) SiO2 
 PCOD8217524
Probable space group: P M N A
;
_chemical_formula_sum "Si O2"
_cell_formula_units_Z 56
_cell_length_a 8.964177
_cell_length_b 20.663201
_cell_length_c 16.886277
_cell_angle_alpha 90.000000
_cell_angle_beta 90.000000
_cell_angle_gamma 90.000000
_cell_volume 3127.821298
_symmetry_space_group_name_H-M "P M N A"
_symmetry_group_IT_number 53
_symmetry_cell_setting 'orthorhombic'
loop_
_space_group_symop_operation_xyz
x,y,z
1/2-x,-y,1/2+z
x,-y,-z
1/2-x,y,1/2-z
-x,-y,-z
1/2+x,y,1/2-z
-x,y,z
1/2+x,-y,1/2+z
loop_
_atom_site_type_symbol
_atom_site_label
_atom_site_fract_x
_atom_site_fract_y
_atom_site_fract_z
Si Si1 0.675342 0.938936 0.169046
Si Si2 0.822448 0.413095 0.945943
Si Si3 0.824333 0.706806 0.502064
Si Si4 0.667872 0.044363 0.423164
Si Si5 0.826793 0.470259 0.397944
Si Si6 0.673379 0.854349 0.019150
Si Si7 0.669927 0.661275 0.827641
O O1 0.750000 0.914935 0.250000
O O2 0.500000 0.944752 0.180904
O O3 0.718531 0.886118 0.102738
O O4 0.738252 0.009625 0.145789
O O5 0.752927 0.460649 0.877544
O O6 0.000000 0.414343 0.941628
O O7 0.762072 0.339533 0.939564
O O8 0.760012 0.440530 0.027781
O O9 0.783946 0.779288 0.477016
O O10 0.766755 0.693677 0.591830
O O11 0.000000 0.691794 0.496426
O O12 0.500000 0.055315 0.392647
O O13 0.739362 0.113247 0.445896
O O14 0.672389 0.000000 0.500000
O O15 0.810874 0.417074 0.328762
O O16 0.000000 0.481658 0.418732
O O17 0.500000 0.865065 0.001760
O O18 0.750000 0.689264 0.750000
O O19 0.500000 0.681901 0.819099
#
# Coordination Sequence:
#
# PCOD8217524 Si02
#       7
#     8   8   8   8   8   8   8
#     4  10  19  32  52  77 101 127 161 203 249 294
#     4  10  17  25  42  69  92 112 146 195 238 273
#     4   9  18  33  49  67  94 131 168 198 237 293
#     4   9  17  30  49  73 100 127 157 197 241 284
#     4   9  16  28  44  62  86 118 150 185 234 288
#     4   9  18  33  53  73  97 132 170 202 237 290
#     4   9  18  30  46  66  90 121 157 198 243 290
#
# _framework density 17.903836999999999
#
# number of rings (size 3 to 8) (size 9 to 14) (size 15 to 20)
#    0.000    2.714    0.000    4.286    0.000    5.714 
#    0.000    0.714    0.000    2.571    0.000    2.000 
#    0.000    0.000    0.000    0.000    0.000    0.000 
#
# Total GULP energy -694035.201964 kJ/mol
# GULP energy per Si atom -12393.485749 kJ/mol
# Density = 1.786309 g / cm^3
# Si number density = 17.903837 Si / 1000 Ang^3
#
#
#
# Elastic Constant Matrix: (Units=GPa)
#
#
# Indices 1 2 3 4 5 6 
#
# 1 93.4130 50.1284 30.7794 0.0000 0.0000 0.0000
# 2 50.1284 116.7807 31.1365 0.0000 0.0000 0.0000
# 3 30.7794 31.1365 59.1899 0.0000 0.0000 0.0000
# 4 0.0000 0.0000 0.0000 15.8579 0.0000 0.0000
# 5 0.0000 0.0000 0.0000 0.0000 24.9285 0.0000
# 6 0.0000 0.0000 0.0000 0.0000 0.0000 23.9157
#
#
#
# Elastic Compliance Matrix: (Units=1/GPa)
#
#
# Indices 1 2 3 4 5 6 
#
# 1 0.015166 -0.005126 -0.005190 0.000000 0.000000 0.000000
# 2 -0.005126 0.011693 -0.003485 0.000000 0.000000 0.000000
# 3 -0.005190 -0.003485 0.021427 0.000000 0.000000 0.000000
# 4 0.000000 0.000000 0.000000 0.063060 0.000000 0.000000
# 5 0.000000 0.000000 0.000000 0.000000 0.040115 0.000000
# 6 0.000000 0.000000 0.000000 0.000000 0.000000 0.041814
#
#
# Mechanical properties :
#
#
# Convention : Reuss Voigt Hill
#
# Bulk Modulus (GPa) = 48.34871 54.83023 51.58947
# Shear Modulus (GPa) = 21.95183 23.42970 22.69077
#
# Velocity S-wave (km/s) = 3.50537 3.62144 3.56387
# Velocity P-wave (km/s) = 6.59141 6.94102 6.76847
#
# Compressibility (1/GPa) = 0.02068308
#
# Stress axis : x y z
#
# Youngs Moduli (GPa) = 65.93621 85.52281 46.67024
#
# Poissons Ratio (x) = 0.43842 0.24221
# Poissons Ratio (y) = 0.33801 0.16265
# Poissons Ratio (z) = 0.34220 0.29806
#
# Static dielectric constant tensor:
#      x y z
#    x 3.324980 0.000000 0.000000 
#    y 0.000000 3.644990 0.000000 
#    z 0.000000 0.000000 3.075110 
# 
# 
# High freq. dielectric constant tensor:
#      x y z
#    x 1.698090 0.000000 0.000000 
#    y 0.000000 1.688220 0.000000 
#    z 0.000000 0.000000 1.652750 
# 
# From -- ./inp_files/26700.got.cif
#   From: 2010.03.12/outbox.cif.g09.slc.cpg/sg53_14_cif.got.tgz:26700.got - 2010.04.16 14:36:59.
