data_PCOD8217156
_publ_section_title
;
Structure prediction by ZEFSAII (Michael W. Deem and Ramdas Pophale) SiO2 
 PCOD8217156
Probable space group: P N N A
;
_chemical_formula_sum "Si O2"
_cell_formula_units_Z 44
_cell_length_a 18.496622
_cell_length_b 13.660219
_cell_length_c 8.029826
_cell_angle_alpha 90.000000
_cell_angle_beta 90.000000
_cell_angle_gamma 90.000000
_cell_volume 2028.879331
_symmetry_space_group_name_H-M "P N N A"
_symmetry_group_IT_number 52
_symmetry_cell_setting 'orthorhombic'
loop_
_space_group_symop_operation_xyz
x,y,z
1/2-x,-y,z
x,1/2-y,1/2-z
1/2-x,1/2+y,1/2-z
-x,-y,-z
1/2+x,y,-z
-x,1/2+y,1/2+z
1/2+x,1/2-y,1/2+z
loop_
_atom_site_type_symbol
_atom_site_label
_atom_site_fract_x
_atom_site_fract_y
_atom_site_fract_z
Si Si1 0.643606 0.107313 0.377323
Si Si2 0.857051 0.861745 0.746639
Si Si3 0.739377 0.750000 0.250000
Si Si4 0.146128 0.927317 0.851159
Si Si5 0.250000 0.500000 0.384804
Si Si6 0.031767 0.250000 0.750000
Si Si7 0.501546 0.826619 0.099527
O O1 0.615996 0.100695 0.566619
O O2 0.711696 0.182163 0.370431
O O3 0.579322 0.152339 0.268354
O O4 0.660870 0.998631 0.307224
O O5 0.835766 0.750000 0.750000
O O6 0.922254 0.877561 0.881007
O O7 0.779232 0.911418 0.775314
O O8 0.687227 0.823771 0.153613
O O9 0.061288 0.910479 0.878719
O O10 0.178230 0.979018 0.011520
O O11 0.987099 0.271706 0.579569
O O12 0.509946 0.750000 0.250000
#
# Coordination Sequence:
#
# PCOD8217156 Si02
#       7
#     8   8   4   8   4   4   8
#     4  11  23  42  76 100 135 191 236 283 364 421
#     4  11  24  47  71 102 143 183 235 292 351 424
#     4  11  22  42  70  98 139 182 234 296 349 414
#     4  12  25  44  70 104 140 184 239 296 349 419
#     4  12  26  44  66 106 140 184 238 290 346 418
#     4  11  22  46  76  98 135 194 228 282 365 418
#     4  11  24  48  70 103 143 184 233 292 351 420
#
# _framework density 21.686848000000001
#
# number of rings (size 3 to 8) (size 9 to 14) (size 15 to 20)
#    0.000    0.727    6.364    2.182    2.545    3.636 
#    8.182    0.000    0.000    0.000    0.000    0.000 
#    0.000    0.000    0.000    0.000    0.000    0.000 
#
# Total GULP energy -545295.949458 kJ/mol
# GULP energy per Si atom -12393.089760 kJ/mol
# Density = 2.163749 g / cm^3
# Si number density = 21.686848 Si / 1000 Ang^3
#
#
#
# Elastic Constant Matrix: (Units=GPa)
#
#
# Indices 1 2 3 4 5 6 
#
# 1 111.7204 61.0874 33.5716 0.0000 0.0000 0.0000
# 2 61.0874 119.7712 38.6050 0.0000 0.0000 0.0000
# 3 33.5716 38.6050 138.9583 0.0000 0.0000 0.0000
# 4 0.0000 0.0000 0.0000 -104.8538 0.0000 0.0000
# 5 0.0000 0.0000 0.0000 0.0000 9.9675 0.0000
# 6 0.0000 0.0000 0.0000 0.0000 0.0000 37.2054
#
#
#
# Elastic Compliance Matrix: (Units=1/GPa)
#
#
# Indices 1 2 3 4 5 6 
#
# 1 0.012652 -0.006005 -0.001388 0.000000 0.000000 0.000000
# 2 -0.006005 0.012021 -0.001889 0.000000 0.000000 0.000000
# 3 -0.001388 -0.001889 0.008057 0.000000 0.000000 0.000000
# 4 0.000000 0.000000 0.000000 -0.009537 0.000000 0.000000
# 5 0.000000 0.000000 0.000000 0.000000 0.100326 0.000000
# 6 0.000000 0.000000 0.000000 0.000000 0.000000 0.026878
#
#
# Mechanical properties :
#
#
# Convention : Reuss Voigt Hill
#
# Bulk Modulus (GPa) = 70.59870 70.77532 70.68701
# Shear Modulus (GPa) = 28.78825 4.27621 16.53223
#
# Velocity S-wave (km/s) = 3.64737 1.40573 2.76400
# Velocity P-wave (km/s) = 7.09663 5.94481 6.54610
#
# Compressibility (1/GPa) = 0.01416457
#
# Stress axis : x y z
#
# Youngs Moduli (GPa) = 79.04048 83.18772 124.12306
#
# Poissons Ratio (x) = 0.49957 0.17231
# Poissons Ratio (y) = 0.47467 0.23444
# Poissons Ratio (z) = 0.10972 0.15712
#
# Static dielectric constant tensor:
#      x y z
#    x 3.924110 0.000000 0.000000 
#    y 0.000000 4.283540 0.000000 
#    z 0.000000 0.000000 3.927350 
# 
# 
# High freq. dielectric constant tensor:
#      x y z
#    x 1.846280 0.000000 0.000000 
#    y 0.000000 1.854310 0.000000 
#    z 0.000000 0.000000 1.849300 
# 
# From -- ./inp_files/12010.got.cif
#   From: 2010.06.25/outbox.cif.g09.slc.cpg/sg52_7_cif.got.tgz:12010.got - 2010.06.26 19:32:48.
