data_PCOD8217317
_publ_section_title
;
Structure prediction by ZEFSAII (Michael W. Deem and Ramdas Pophale) SiO2 
 PCOD8217317
Probable space group: P N N A
;
_chemical_formula_sum "Si O2"
_cell_formula_units_Z 48
_cell_length_a 13.687984
_cell_length_b 17.787219
_cell_length_c 8.647104
_cell_angle_alpha 90.000000
_cell_angle_beta 90.000000
_cell_angle_gamma 90.000000
_cell_volume 2105.320520
_symmetry_space_group_name_H-M "P N N A"
_symmetry_group_IT_number 52
_symmetry_cell_setting 'orthorhombic'
loop_
_space_group_symop_operation_xyz
x,y,z
1/2-x,-y,z
x,1/2-y,1/2-z
1/2-x,1/2+y,1/2-z
-x,-y,-z
1/2+x,y,-z
-x,1/2+y,1/2+z
1/2+x,1/2-y,1/2+z
loop_
_atom_site_type_symbol
_atom_site_label
_atom_site_fract_x
_atom_site_fract_y
_atom_site_fract_z
Si Si1 0.183780 0.929076 0.362053
Si Si2 0.969193 0.715244 0.417285
Si Si3 0.850326 0.197632 0.115752
Si Si4 0.797788 0.779203 0.583714
Si Si5 0.500422 0.445208 0.354007
Si Si6 0.149470 0.955743 0.699492
O O1 0.262564 0.864117 0.401087
O O2 0.105611 0.920640 0.220844
O O3 0.127034 0.931456 0.524279
O O4 0.250000 0.000000 0.320091
O O5 0.963515 0.750000 0.250000
O O6 0.080917 0.709191 0.469163
O O7 0.936795 0.627876 0.405732
O O8 0.911865 0.767452 0.541472
O O9 0.891291 0.250000 0.250000
O O10 0.846925 0.112096 0.176085
O O11 0.747048 0.229376 0.056491
O O12 0.771231 0.750000 0.750000
O O13 0.500000 0.500000 0.500000
O O14 0.559616 0.488817 0.224472
O O15 0.250000 0.000000 0.714524
#
# Coordination Sequence:
#
# PCOD8217317 Si02
#       6
#     8   8   8   8   8   8
#     4  11  27  47  76 106 150 200 247 310 385 459
#     4  12  28  46  73 107 147 195 253 307 383 449
#     4  12  23  45  72 105 146 191 246 311 374 451
#     4  12  27  47  72 106 146 192 249 313 378 457
#     4  12  26  47  74 110 150 199 250 315 376 453
#     4  11  25  46  73 106 147 196 248 305 378 453
#
# _framework density 22.799377
#
# number of rings (size 3 to 8) (size 9 to 14) (size 15 to 20)
#    0.000    0.333    3.333    5.000    7.000    2.000 
#    0.000    0.000    0.000    0.000    0.000    0.000 
#    0.000    0.000    0.000    0.000    0.000    0.000 
#
# Total GULP energy -594746.947460 kJ/mol
# GULP energy per Si atom -12390.561405 kJ/mol
# Density = 2.274748 g / cm^3
# Si number density = 22.799377 Si / 1000 Ang^3
#
#
#
# Elastic Constant Matrix: (Units=GPa)
#
#
# Indices 1 2 3 4 5 6 
#
# 1 81.9253 47.1059 31.3505 0.0000 0.0000 0.0000
# 2 47.1059 134.1327 51.5594 0.0000 0.0000 0.0000
# 3 31.3505 51.5594 108.3032 0.0000 0.0000 0.0000
# 4 0.0000 0.0000 0.0000 35.1967 0.0000 0.0000
# 5 0.0000 0.0000 0.0000 0.0000 78.1689 0.0000
# 6 0.0000 0.0000 0.0000 0.0000 0.0000 44.6862
#
#
#
# Elastic Compliance Matrix: (Units=1/GPa)
#
#
# Indices 1 2 3 4 5 6 
#
# 1 0.015773 -0.004632 -0.002361 0.000000 0.000000 0.000000
# 2 -0.004632 0.010485 -0.003651 0.000000 0.000000 0.000000
# 3 -0.002361 -0.003651 0.011655 0.000000 0.000000 0.000000
# 4 0.000000 0.000000 0.000000 0.028412 0.000000 0.000000
# 5 0.000000 0.000000 0.000000 0.000000 0.012793 0.000000
# 6 0.000000 0.000000 0.000000 0.000000 0.000000 0.022378
#
#
# Mechanical properties :
#
#
# Convention : Reuss Voigt Hill
#
# Bulk Modulus (GPa) = 60.14663 64.93253 62.53958
# Shear Modulus (GPa) = 38.96364 44.56671 41.76518
#
# Velocity S-wave (km/s) = 4.13846 4.42603 4.28466
# Velocity P-wave (km/s) = 7.01954 7.39334 7.20886
#
# Compressibility (1/GPa) = 0.01662603
#
# Stress axis : x y z
#
# Youngs Moduli (GPa) = 63.40008 95.37128 85.80167
#
# Poissons Ratio (x) = 0.44174 0.20255
# Poissons Ratio (y) = 0.29366 0.31326
# Poissons Ratio (z) = 0.14967 0.34819
#
# Static dielectric constant tensor:
#      x y z
#    x 3.720410 0.000000 0.000000 
#    y 0.000000 4.242010 0.000000 
#    z 0.000000 0.000000 4.247220 
# 
# 
# High freq. dielectric constant tensor:
#      x y z
#    x 1.893870 0.000000 0.000000 
#    y 0.000000 1.916580 0.000000 
#    z 0.000000 0.000000 1.918930 
# 
# From -- ./inp_files/10510.got.cif
#   From: 2010.06.25/outbox.cif.g09.slc.cpg/sg52_6_cif.got.tgz:10510.got - 2010.06.26 19:32:48.
