data_PCOD8217745
_publ_section_title
;
Structure prediction by ZEFSAII (Michael W. Deem and Ramdas Pophale) SiO2 
 PCOD8217745
Probable space group: P M N A
;
_chemical_formula_sum "Si O2"
_cell_formula_units_Z 56
_cell_length_a 8.788542
_cell_length_b 17.536741
_cell_length_c 22.034712
_cell_angle_alpha 90.000000
_cell_angle_beta 90.000000
_cell_angle_gamma 90.000000
_cell_volume 3396.042362
_symmetry_space_group_name_H-M "P M N A"
_symmetry_group_IT_number 53
_symmetry_cell_setting 'orthorhombic'
loop_
_space_group_symop_operation_xyz
x,y,z
1/2-x,-y,1/2+z
x,-y,-z
1/2-x,y,1/2-z
-x,-y,-z
1/2+x,y,1/2-z
-x,y,z
1/2+x,-y,1/2+z
loop_
_atom_site_type_symbol
_atom_site_label
_atom_site_fract_x
_atom_site_fract_y
_atom_site_fract_z
Si Si1 0.171828 0.477345 0.069926
Si Si2 0.831963 0.967278 0.567191
Si Si3 0.179507 0.749761 0.184991
Si Si4 0.819818 0.871549 0.396982
Si Si5 0.674623 0.671841 0.961204
Si Si6 0.321998 0.826329 0.523602
Si Si7 0.825488 0.373514 0.600509
O O1 0.253545 0.396078 0.078619
O O2 0.264617 0.540363 0.107909
O O3 0.000000 0.472435 0.094832
O O4 0.172514 0.500000 0.000000
O O5 0.716649 0.896120 0.569504
O O6 0.000000 0.939114 0.587121
O O7 0.840801 0.000000 0.500000
O O8 0.777535 0.038383 0.608939
O O9 0.250000 0.733304 0.250000
O O10 0.243573 0.829441 0.159495
O O11 0.222857 0.680546 0.141363
O O12 0.000000 0.755809 0.190294
O O13 0.761853 0.835810 0.459687
O O14 0.000000 0.858807 0.395577
O O15 0.500000 0.681756 0.942262
O O16 0.765780 0.748654 0.945217
O O17 0.691775 0.654039 0.031928
O O18 0.500000 0.823460 0.511506
O O19 0.000000 0.369983 0.622102
#
# Coordination Sequence:
#
# PCOD8217745 Si02
#       7
#     8   8   8   8   8   8   8
#     4   9  17  28  43  64  90 117 152 190 227 273
#     4   8  16  29  44  61  86 119 152 185 226 276
#     4  12  24  36  51  69  91 120 159 201 238 275
#     4  10  19  33  48  63  87 120 155 192 234 277
#     4  10  18  28  44  64  92 125 157 188 226 276
#     4  11  19  26  42  67  94 122 155 190 227 273
#     4  10  19  32  48  64  88 121 156 191 232 277
#
# _framework density 16.489782000000002
#
# number of rings (size 3 to 8) (size 9 to 14) (size 15 to 20)
#    0.000    2.000    1.429    5.143    0.000    6.000 
#    0.000    0.000    0.000    0.000    0.000    0.000 
#    0.000    1.143    0.000    8.000    0.000    6.286 
#
# Total GULP energy -694364.203763 kJ/mol
# GULP energy per Si atom -12399.360781 kJ/mol
# Density = 1.645225 g / cm^3
# Si number density = 16.489782 Si / 1000 Ang^3
#
#
#
# Elastic Constant Matrix: (Units=GPa)
#
#
# Indices 1 2 3 4 5 6 
#
# 1 125.2333 54.7299 17.8886 0.0000 0.0000 0.0000
# 2 54.7299 122.0175 17.2837 0.0000 0.0000 0.0000
# 3 17.8886 17.2837 23.3768 0.0000 0.0000 0.0000
# 4 0.0000 0.0000 0.0000 8.0494 0.0000 0.0000
# 5 0.0000 0.0000 0.0000 0.0000 18.1163 0.0000
# 6 0.0000 0.0000 0.0000 0.0000 0.0000 31.3893
#
#
#
# Elastic Compliance Matrix: (Units=1/GPa)
#
#
# Indices 1 2 3 4 5 6 
#
# 1 0.010441 -0.003967 -0.005057 0.000000 0.000000 0.000000
# 2 -0.003967 0.010661 -0.004847 0.000000 0.000000 0.000000
# 3 -0.005057 -0.004847 0.050231 0.000000 0.000000 0.000000
# 4 0.000000 0.000000 0.000000 0.124233 0.000000 0.000000
# 5 0.000000 0.000000 0.000000 0.000000 0.055199 0.000000
# 6 0.000000 0.000000 0.000000 0.000000 0.000000 0.031858
#
#
# Mechanical properties :
#
#
# Convention : Reuss Voigt Hill
#
# Bulk Modulus (GPa) = 22.94008 50.04800 36.49404
# Shear Modulus (GPa) = 15.38959 23.55936 19.47448
#
# Velocity S-wave (km/s) = 3.05828 3.78395 3.44030
# Velocity P-wave (km/s) = 5.13932 7.03618 6.16119
#
# Compressibility (1/GPa) = 0.04359182
#
# Stress axis : x y z
#
# Youngs Moduli (GPa) = 95.77561 93.79578 19.90810
#
# Poissons Ratio (x) = 0.37208 0.10067
# Poissons Ratio (y) = 0.37994 0.09649
# Poissons Ratio (z) = 0.48432 0.45463
#
# Static dielectric constant tensor:
#      x y z
#    x 3.248760 0.000000 0.000000 
#    y 0.000000 3.510820 0.000000 
#    z 0.000000 0.000000 2.769460 
# 
# 
# High freq. dielectric constant tensor:
#      x y z
#    x 1.652650 0.000000 0.000000 
#    y 0.000000 1.651760 0.000000 
#    z 0.000000 0.000000 1.557350 
# 
# From -- ./inp_files/34392.got.cif
#   From: 2010.03.12/outbox.cif.g09.slc.cpg/sg53_18_cif.got.tgz:34392.got - 2010.04.16 14:36:59.
