data_PCOD8217985
_publ_section_title
;
Structure prediction by ZEFSAII (Michael W. Deem and Ramdas Pophale) SiO2 
 PCOD8217985
Probable space group: P M N A
;
_chemical_formula_sum "Si O2"
_cell_formula_units_Z 64
_cell_length_a 8.679412
_cell_length_b 21.240163
_cell_length_c 20.060385
_cell_angle_alpha 90.000000
_cell_angle_beta 90.000000
_cell_angle_gamma 90.000000
_cell_volume 3698.174616
_symmetry_space_group_name_H-M "P M N A"
_symmetry_group_IT_number 53
_symmetry_cell_setting 'orthorhombic'
loop_
_space_group_symop_operation_xyz
x,y,z
1/2-x,-y,1/2+z
x,-y,-z
1/2-x,y,1/2-z
-x,-y,-z
1/2+x,y,1/2-z
-x,y,z
1/2+x,-y,1/2+z
loop_
_atom_site_type_symbol
_atom_site_label
_atom_site_fract_x
_atom_site_fract_y
_atom_site_fract_z
Si Si1 0.820664 0.690820 0.450258
Si Si2 0.816957 0.877716 0.318838
Si Si3 0.830125 0.308362 0.813730
Si Si4 0.331201 0.455027 0.685948
Si Si5 0.817428 0.058727 0.453645
Si Si6 0.817332 0.446736 0.547853
Si Si7 0.183358 0.174477 0.540974
Si Si8 0.816963 0.984032 0.819066
O O1 0.788666 0.702442 0.372925
O O2 0.747058 0.623018 0.471792
O O3 0.759475 0.755721 0.484740
O O4 0.000000 0.684935 0.462692
O O5 0.750000 0.848543 0.250000
O O6 0.760389 0.837244 0.382714
O O7 0.000000 0.881840 0.314137
O O8 0.751953 0.947177 0.329809
O O9 0.750000 0.275771 0.750000
O O10 0.852138 0.381781 0.799891
O O11 0.000000 0.278816 0.827386
O O12 0.250000 0.487132 0.750000
O O13 0.500000 0.485743 0.675365
O O14 0.226407 0.467258 0.621846
O O15 0.755106 0.121573 0.490541
O O16 0.734379 0.057697 0.382197
O O17 0.000000 0.059683 0.442298
O O18 0.769702 0.000000 0.500000
O O19 0.746489 0.500000 0.500000
O O20 0.000000 0.444367 0.542148
O O21 0.000000 0.171872 0.541706
O O22 0.750000 0.954882 0.750000
O O23 0.000000 0.986712 0.814447
#
# Coordination Sequence:
#
# PCOD8217985 Si02
#       8
#     8   8   8   8   8   8   8   8
#     4   9  17  30  45  63  89 120 156 191 225 275
#     4  10  18  31  46  65  92 127 163 194 230 269
#     4   9  16  26  40  59  84 117 154 188 223 261
#     4   9  16  26  42  64  90 119 151 188 227 269
#     4  10  18  33  53  71  95 125 155 192 236 280
#     4   9  17  29  46  68  94 124 156 192 232 274
#     4   9  18  31  48  67  91 125 160 192 235 280
#     4  11  21  33  50  73  97 123 158 197 237 278
#
# _framework density 17.305834000000001
#
# number of rings (size 3 to 8) (size 9 to 14) (size 15 to 20)
#    0.000    2.500    1.250    3.000    0.000    4.000 
#    0.000    3.125    0.000    0.000    0.000    0.875 
#    0.000    0.000    0.000    0.000    0.000    0.000 
#
# Total GULP energy -792890.865622 kJ/mol
# GULP energy per Si atom -12388.919775 kJ/mol
# Density = 1.726645 g / cm^3
# Si number density = 17.305834 Si / 1000 Ang^3
#
#
#
# Elastic Constant Matrix: (Units=GPa)
#
#
# Indices 1 2 3 4 5 6 
#
# 1 46.5274 18.7886 21.5839 0.0000 0.0000 0.0000
# 2 18.7886 111.8530 62.4148 0.0000 0.0000 0.0000
# 3 21.5839 62.4148 103.1243 0.0000 0.0000 0.0000
# 4 0.0000 0.0000 0.0000 9.4671 0.0000 0.0000
# 5 0.0000 0.0000 0.0000 0.0000 25.3559 0.0000
# 6 0.0000 0.0000 0.0000 0.0000 0.0000 7.7617
#
#
#
# Elastic Compliance Matrix: (Units=1/GPa)
#
#
# Indices 1 2 3 4 5 6 
#
# 1 0.024057 -0.001859 -0.003910 0.000000 0.000000 0.000000
# 2 -0.001859 0.013643 -0.007868 0.000000 0.000000 0.000000
# 3 -0.003910 -0.007868 0.015277 0.000000 0.000000 0.000000
# 4 0.000000 0.000000 0.000000 0.105628 0.000000 0.000000
# 5 0.000000 0.000000 0.000000 0.000000 0.039438 0.000000
# 6 0.000000 0.000000 0.000000 0.000000 0.000000 0.128837
#
#
# Mechanical properties :
#
#
# Convention : Reuss Voigt Hill
#
# Bulk Modulus (GPa) = 38.90565 51.89769 45.40167
# Shear Modulus (GPa) = 13.78456 19.09813 16.44134
#
# Velocity S-wave (km/s) = 2.82534 3.32560 3.08563
# Velocity P-wave (km/s) = 5.75964 6.69327 6.24393
#
# Compressibility (1/GPa) = 0.02570321
#
# Stress axis : x y z
#
# Youngs Moduli (GPa) = 41.56742 73.29696 65.45579
#
# Poissons Ratio (x) = 0.13628 0.25592
# Poissons Ratio (y) = 0.07729 0.51502
# Poissons Ratio (z) = 0.16252 0.57671
#
# Static dielectric constant tensor:
#      x y z
#    x 3.173810 0.000000 0.000000 
#    y 0.000000 3.403060 0.000000 
#    z 0.000000 0.000000 3.280400 
# 
# 
# High freq. dielectric constant tensor:
#      x y z
#    x 1.660800 0.000000 0.000000 
#    y 0.000000 1.642720 0.000000 
#    z 0.000000 0.000000 1.649530 
# 
# From -- ./inp_files/31324.got.cif
#   From: 2010.03.12/outbox.cif.g09.slc.cpg/sg53_16_cif.got.tgz:31324.got - 2010.04.16 14:36:59.
