data_PCOD8217882
_publ_section_title
;
Structure prediction by ZEFSAII (Michael W. Deem and Ramdas Pophale) SiO2 
 PCOD8217882
Probable space group: P M N A
;
_chemical_formula_sum "Si O2"
_cell_formula_units_Z 64
_cell_length_a 8.679678
_cell_length_b 18.757760
_cell_length_c 25.214422
_cell_angle_alpha 90.000000
_cell_angle_beta 90.000000
_cell_angle_gamma 90.000000
_cell_volume 4105.193248
_symmetry_space_group_name_H-M "P M N A"
_symmetry_group_IT_number 53
_symmetry_cell_setting 'orthorhombic'
loop_
_space_group_symop_operation_xyz
x,y,z
1/2-x,-y,1/2+z
x,-y,-z
1/2-x,y,1/2-z
-x,-y,-z
1/2+x,y,1/2-z
-x,y,z
1/2+x,-y,1/2+z
loop_
_atom_site_type_symbol
_atom_site_label
_atom_site_fract_x
_atom_site_fract_y
_atom_site_fract_z
Si Si1 0.319975 0.223436 0.803277
Si Si2 0.320709 0.314042 0.607838
Si Si3 0.682415 0.983709 0.417007
Si Si4 0.317614 0.930755 0.305329
Si Si5 0.823160 0.464187 0.928561
Si Si6 0.317424 0.112947 0.487511
Si Si7 0.175979 0.590172 0.534197
Si Si8 0.822082 0.261305 0.500716
O O1 0.250000 0.257611 0.750000
O O2 0.500000 0.208096 0.796875
O O3 0.290048 0.278905 0.849542
O O4 0.233245 0.149914 0.814827
O O5 0.500000 0.298173 0.619414
O O6 0.285650 0.399041 0.611320
O O7 0.280474 0.279928 0.551405
O O8 0.500000 0.981343 0.417116
O O9 0.744457 0.974555 0.356757
O O10 0.737563 0.919340 0.455704
O O11 0.737010 0.059326 0.440796
O O12 0.250000 0.961817 0.250000
O O13 0.500000 0.934767 0.301496
O O14 0.726622 0.537731 0.916986
O O15 0.000000 0.485349 0.925038
O O16 0.784733 0.433450 0.986309
O O17 0.500000 0.124093 0.486483
O O18 0.234244 0.187457 0.475692
O O19 0.199143 0.675227 0.543371
O O20 0.000000 0.574599 0.519113
O O21 0.000000 0.255330 0.517886
#
# Coordination Sequence:
#
# PCOD8217882 Si02
#       8
#     8   8   8   8   8   8   8   8
#     4  11  21  32  45  62  84 110 140 175 211 249
#     4  10  19  30  43  60  82 111 143 176 209 246
#     4   8  16  29  45  62  81 107 142 178 214 256
#     4  10  18  30  46  64  86 112 142 177 213 253
#     4   9  16  25  39  57  77 102 137 171 198 230
#     4   9  16  29  46  61  79 110 145 177 214 257
#     4   9  16  25  37  53  80 110 134 162 198 237
#     4  10  19  28  39  61  87 112 141 173 208 250
#
# _framework density 15.590009
#
# number of rings (size 3 to 8) (size 9 to 14) (size 15 to 20)
#    0.000    2.500    0.000    6.000    0.000    4.000 
#    0.000    3.125    0.000    0.000    0.000    0.000 
#    0.000    1.000    0.000    4.500    0.000    5.000 
#
# Total GULP energy -792971.065495 kJ/mol
# GULP energy per Si atom -12390.172898 kJ/mol
# Density = 1.555453 g / cm^3
# Si number density = 15.590009 Si / 1000 Ang^3
#
#
#
# Elastic Constant Matrix: (Units=GPa)
#
#
# Indices 1 2 3 4 5 6 
#
# 1 47.6147 29.5214 22.2825 0.0000 0.0000 0.0000
# 2 29.5214 115.0485 42.2274 0.0000 0.0000 0.0000
# 3 22.2825 42.2274 79.9845 0.0000 0.0000 0.0000
# 4 0.0000 0.0000 0.0000 18.5908 0.0000 0.0000
# 5 0.0000 0.0000 0.0000 0.0000 18.5372 0.0000
# 6 0.0000 0.0000 0.0000 0.0000 0.0000 9.5992
#
#
#
# Elastic Compliance Matrix: (Units=1/GPa)
#
#
# Indices 1 2 3 4 5 6 
#
# 1 0.026311 -0.005037 -0.004670 0.000000 0.000000 0.000000
# 2 -0.005037 0.011745 -0.004798 0.000000 0.000000 0.000000
# 3 -0.004670 -0.004798 0.016336 0.000000 0.000000 0.000000
# 4 0.000000 0.000000 0.000000 0.053790 0.000000 0.000000
# 5 0.000000 0.000000 0.000000 0.000000 0.053946 0.000000
# 6 0.000000 0.000000 0.000000 0.000000 0.000000 0.104176
#
#
# Mechanical properties :
#
#
# Convention : Reuss Voigt Hill
#
# Bulk Modulus (GPa) = 39.39786 47.85669 43.62728
# Shear Modulus (GPa) = 16.45955 19.25318 17.85636
#
# Velocity S-wave (km/s) = 3.25280 3.51802 3.38801
# Velocity P-wave (km/s) = 6.27962 6.87500 6.58405
#
# Compressibility (1/GPa) = 0.02538209
#
# Stress axis : x y z
#
# Youngs Moduli (GPa) = 38.00753 85.13940 61.21271
#
# Poissons Ratio (x) = 0.42885 0.28589
# Poissons Ratio (y) = 0.19145 0.29368
# Poissons Ratio (z) = 0.17751 0.40847
#
# Static dielectric constant tensor:
#      x y z
#    x 2.937710 0.000000 0.000000 
#    y 0.000000 3.353500 0.000000 
#    z 0.000000 0.000000 2.628170 
# 
# 
# High freq. dielectric constant tensor:
#      x y z
#    x 1.604250 0.000000 0.000000 
#    y 0.000000 1.598340 0.000000 
#    z 0.000000 0.000000 1.551200 
# 
# From -- ./inp_files/36468.got.cif
#   From: 2010.03.12/outbox.cif.g09.slc.cpg/sg53_19_cif.got.tgz:36468.got - 2010.04.16 14:36:59.
