data_PCOD8217467
_publ_section_title
;
Structure prediction by ZEFSAII (Michael W. Deem and Ramdas Pophale) SiO2 
 PCOD8217467
Probable space group: P M N A
;
_chemical_formula_sum "Si O2"
_cell_formula_units_Z 64
_cell_length_a 9.334593
_cell_length_b 16.899594
_cell_length_c 26.831602
_cell_angle_alpha 90.000000
_cell_angle_beta 90.000000
_cell_angle_gamma 90.000000
_cell_volume 4232.707536
_symmetry_space_group_name_H-M "P M N A"
_symmetry_group_IT_number 53
_symmetry_cell_setting 'orthorhombic'
loop_
_space_group_symop_operation_xyz
x,y,z
1/2-x,-y,1/2+z
x,-y,-z
1/2-x,y,1/2-z
-x,-y,-z
1/2+x,y,1/2-z
-x,y,z
1/2+x,-y,1/2+z
loop_
_atom_site_type_symbol
_atom_site_label
_atom_site_fract_x
_atom_site_fract_y
_atom_site_fract_z
Si Si1 0.163276 0.395449 0.962820
Si Si2 0.833115 0.285562 0.877372
Si Si3 0.660889 0.468444 0.385438
Si Si4 0.658221 0.985849 0.941223
Si Si5 0.667231 0.821112 0.972423
Si Si6 0.332454 0.867591 0.429411
Si Si7 0.331406 0.591356 0.300938
Si Si8 0.167836 0.646790 0.557457
O O1 0.230039 0.328970 0.926028
O O2 0.167815 0.479530 0.935541
O O3 0.000000 0.375684 0.979475
O O4 0.265425 0.397335 0.010180
O O5 0.804233 0.191459 0.882322
O O6 0.776324 0.325514 0.826164
O O7 0.000000 0.306921 0.878795
O O8 0.500000 0.437416 0.377000
O O9 0.710007 0.519594 0.337810
O O10 0.763605 0.392266 0.392823
O O11 0.500000 0.002000 0.919180
O O12 0.702464 0.893677 0.934145
O O13 0.767563 0.046735 0.914999
O O14 0.659679 0.000000 0.000000
O O15 0.500000 0.824939 0.988180
O O16 0.704599 0.740200 0.943989
O O17 0.760990 0.829116 0.022084
O O18 0.500000 0.877607 0.440067
O O19 0.250000 0.577936 0.250000
O O20 0.500000 0.593383 0.290120
O O21 0.000000 0.631337 0.558164
#
# Coordination Sequence:
#
# PCOD8217467 Si02
#       8
#     8   8   8   8   8   8   8   8
#     4   9  16  29  43  55  78 115 146 166 203 253
#     4   8  15  27  43  62  84 110 138 170 209 252
#     4   9  19  32  45  59  80 111 141 167 208 263
#     4   8  15  27  38  49  76 114 143 168 206 245
#     4   9  18  29  37  51  81 119 145 170 211 246
#     4  10  16  24  41  61  79 104 144 181 203 235
#     4   9  18  34  51  65  83 108 137 170 212 258
#     4  11  20  27  39  60  85 110 144 183 210 236
#
# _framework density 15.120345
#
# number of rings (size 3 to 8) (size 9 to 14) (size 15 to 20)
#    0.000    2.875    1.250    3.375    0.000    5.250 
#    0.000    3.125    0.000    0.000    0.000    0.000 
#    0.000    1.000    0.000    4.500    0.000    4.000 
#
# Total GULP energy -793054.946663 kJ/mol
# GULP energy per Si atom -12391.483542 kJ/mol
# Density = 1.508593 g / cm^3
# Si number density = 15.120345 Si / 1000 Ang^3
#
#
#
# Elastic Constant Matrix: (Units=GPa)
#
#
# Indices 1 2 3 4 5 6 
#
# 1 71.9581 53.0307 37.3300 0.0000 0.0000 0.0000
# 2 53.0307 110.6526 46.9221 0.0000 0.0000 0.0000
# 3 37.3300 46.9221 65.2068 0.0000 0.0000 0.0000
# 4 0.0000 0.0000 0.0000 13.5447 0.0000 0.0000
# 5 0.0000 0.0000 0.0000 0.0000 17.7095 0.0000
# 6 0.0000 0.0000 0.0000 0.0000 0.0000 40.1058
#
#
#
# Elastic Compliance Matrix: (Units=1/GPa)
#
#
# Indices 1 2 3 4 5 6 
#
# 1 0.023992 -0.008166 -0.007859 0.000000 0.000000 0.000000
# 2 -0.008166 0.015785 -0.006684 0.000000 0.000000 0.000000
# 3 -0.007859 -0.006684 0.024645 0.000000 0.000000 0.000000
# 4 0.000000 0.000000 0.000000 0.073830 0.000000 0.000000
# 5 0.000000 0.000000 0.000000 0.000000 0.056467 0.000000
# 6 0.000000 0.000000 0.000000 0.000000 0.000000 0.024934
#
#
# Mechanical properties :
#
#
# Convention : Reuss Voigt Hill
#
# Bulk Modulus (GPa) = 52.61996 58.04254 55.33125
# Shear Modulus (GPa) = 18.42268 21.64098 20.03183
#
# Velocity S-wave (km/s) = 3.49435 3.78729 3.64377
# Velocity P-wave (km/s) = 7.15241 7.58915 7.37401
#
# Compressibility (1/GPa) = 0.01900420
#
# Stress axis : x y z
#
# Youngs Moduli (GPa) = 41.68085 63.35116 40.57638
#
# Poissons Ratio (x) = 0.51729 0.31890
# Poissons Ratio (y) = 0.34035 0.27122
# Poissons Ratio (z) = 0.32758 0.42344
#
# Static dielectric constant tensor:
#      x y z
#    x 2.864940 0.000000 0.000000 
#    y 0.000000 3.258580 0.000000 
#    z 0.000000 0.000000 2.520710 
# 
# 
# High freq. dielectric constant tensor:
#      x y z
#    x 1.574690 0.000000 0.000000 
#    y 0.000000 1.587340 0.000000 
#    z 0.000000 0.000000 1.520110 
# 
# From -- ./inp_files/36519.got.cif
#   From: 2010.03.12/outbox.cif.g09.slc.cpg/sg53_19_cif.got.tgz:36519.got - 2010.04.16 14:36:59.
