data_PCOD8217704
_publ_section_title
;
Structure prediction by ZEFSAII (Michael W. Deem and Ramdas Pophale) SiO2 
 PCOD8217704
Probable space group: P M N A
;
_chemical_formula_sum "Si O2"
_cell_formula_units_Z 48
_cell_length_a 13.861836
_cell_length_b 10.240601
_cell_length_c 22.230446
_cell_angle_alpha 90.000000
_cell_angle_beta 90.000000
_cell_angle_gamma 90.000000
_cell_volume 3155.690319
_symmetry_space_group_name_H-M "P M N A"
_symmetry_group_IT_number 53
_symmetry_cell_setting 'orthorhombic'
loop_
_space_group_symop_operation_xyz
x,y,z
1/2-x,-y,1/2+z
x,-y,-z
1/2-x,y,1/2-z
-x,-y,-z
1/2+x,y,1/2-z
-x,y,z
1/2+x,-y,1/2+z
loop_
_atom_site_type_symbol
_atom_site_label
_atom_site_fract_x
_atom_site_fract_y
_atom_site_fract_z
Si Si1 0.887554 0.131681 0.464675
Si Si2 0.207224 0.788985 0.655326
Si Si3 0.106386 0.209553 0.223320
Si Si4 0.708558 0.520360 0.156433
Si Si5 0.605903 0.518510 0.276776
Si Si6 0.390073 0.622750 0.042613
O O1 0.825411 0.133717 0.403790
O O2 0.855129 0.249765 0.507343
O O3 0.000000 0.144575 0.447423
O O4 0.864639 0.000000 0.500000
O O5 0.317658 0.829711 0.671166
O O6 0.141247 0.836978 0.710916
O O7 0.196536 0.633973 0.644200
O O8 0.101667 0.364002 0.225756
O O9 0.000000 0.150556 0.209253
O O10 0.642130 0.566630 0.211838
O O11 0.819363 0.558847 0.171016
O O12 0.678719 0.604943 0.099440
O O13 0.500000 0.577984 0.290603
O O14 0.500000 0.637573 0.065029
O O15 0.378888 0.500000 0.000000
#
# Coordination Sequence:
#
# PCOD8217704 Si02
#       6
#     8   8   8   8   8   8
#     4  10  20  31  43  62  89 118 143 173 216 260
#     4   9  15  25  42  64  89 112 138 176 218 253
#     4   8  14  23  40  65  87 110 141 178 215 251
#     4   9  15  24  41  65  88 111 142 177 212 255
#     4   8  14  23  38  62  91 115 135 173 223 257
#     4  10  18  27  43  64  85 112 142 173 208 250
#
# _framework density 15.210618
#
# number of rings (size 3 to 8) (size 9 to 14) (size 15 to 20)
#    0.000    3.000    1.667    3.000    0.000    1.333 
#    0.000    0.000    0.000    6.000    0.000    2.333 
#    0.000    0.000    0.000    0.000    0.000    0.000 
#
# Total GULP energy -594927.283669 kJ/mol
# GULP energy per Si atom -12394.318410 kJ/mol
# Density = 1.517600 g / cm^3
# Si number density = 15.210618 Si / 1000 Ang^3
#
#
#
# Elastic Constant Matrix: (Units=GPa)
#
#
# Indices 1 2 3 4 5 6 
#
# 1 127.5567 20.6726 66.7994 0.0000 0.0000 0.0000
# 2 20.6726 49.0572 31.0905 0.0000 0.0000 0.0000
# 3 66.7994 31.0905 112.4255 0.0000 0.0000 0.0000
# 4 0.0000 0.0000 0.0000 15.5261 0.0000 0.0000
# 5 0.0000 0.0000 0.0000 0.0000 28.9520 0.0000
# 6 0.0000 0.0000 0.0000 0.0000 0.0000 13.7043
#
#
#
# Elastic Compliance Matrix: (Units=1/GPa)
#
#
# Indices 1 2 3 4 5 6 
#
# 1 0.011396 -0.000620 -0.006600 0.000000 0.000000 0.000000
# 2 -0.000620 0.024750 -0.006476 0.000000 0.000000 0.000000
# 3 -0.006600 -0.006476 0.014607 0.000000 0.000000 0.000000
# 4 0.000000 0.000000 0.000000 0.064408 0.000000 0.000000
# 5 0.000000 0.000000 0.000000 0.000000 0.034540 0.000000
# 6 0.000000 0.000000 0.000000 0.000000 0.000000 0.072970
#
#
# Mechanical properties :
#
#
# Convention : Reuss Voigt Hill
#
# Bulk Modulus (GPa) = 42.80499 58.46272 50.63385
# Shear Modulus (GPa) = 19.39114 23.00162 21.19638
#
# Velocity S-wave (km/s) = 3.57437 3.89293 3.73704
# Velocity P-wave (km/s) = 6.72588 7.66325 7.20981
#
# Compressibility (1/GPa) = 0.02336176
#
# Stress axis : x y z
#
# Youngs Moduli (GPa) = 87.74726 40.40428 68.45926
#
# Poissons Ratio (x) = 0.02503 0.45183
# Poissons Ratio (y) = 0.05437 0.44336
# Poissons Ratio (z) = 0.57913 0.26167
#
# Static dielectric constant tensor:
#      x y z
#    x 3.412220 0.000000 0.000000 
#    y 0.000000 2.474190 0.000000 
#    z 0.000000 0.000000 2.798910 
# 
# 
# High freq. dielectric constant tensor:
#      x y z
#    x 1.582420 0.000000 0.000000 
#    y 0.000000 1.532660 0.000000 
#    z 0.000000 0.000000 1.578910 
# 
# From -- ./inp_files/32269.got.cif
#   From: 2010.03.12/outbox.cif.g09.slc.cpg/sg53_17_cif.got.tgz:32269.got - 2010.04.16 14:36:59.
