data_PCOD8217643
_publ_section_title
;
Structure prediction by ZEFSAII (Michael W. Deem and Ramdas Pophale) SiO2 
 PCOD8217643
Probable space group: P M N A
;
_chemical_formula_sum "Si O2"
_cell_formula_units_Z 48
_cell_length_a 21.304391
_cell_length_b 9.915841
_cell_length_c 13.367938
_cell_angle_alpha 90.000000
_cell_angle_beta 90.000000
_cell_angle_gamma 90.000000
_cell_volume 2823.989652
_symmetry_space_group_name_H-M "P M N A"
_symmetry_group_IT_number 53
_symmetry_cell_setting 'orthorhombic'
loop_
_space_group_symop_operation_xyz
x,y,z
1/2-x,-y,1/2+z
x,-y,-z
1/2-x,y,1/2-z
-x,-y,-z
1/2+x,y,1/2-z
-x,y,z
1/2+x,-y,1/2+z
loop_
_atom_site_type_symbol
_atom_site_label
_atom_site_fract_x
_atom_site_fract_y
_atom_site_fract_z
Si Si1 0.838248 0.031235 0.709695
Si Si2 0.714551 0.102602 0.591371
Si Si3 0.570204 0.862844 0.059840
Si Si4 0.204285 0.351886 0.034112
Si Si5 0.147439 0.635953 0.554338
Si Si6 0.322802 0.278958 0.253154
O O1 0.782742 0.094432 0.642487
O O2 0.836739 0.069334 0.825542
O O3 0.901577 0.097612 0.667622
O O4 0.834624 0.869877 0.709133
O O5 0.693179 0.250092 0.556729
O O6 0.711757 0.000000 0.500000
O O7 0.500000 0.805188 0.074733
O O8 0.611389 0.756185 0.999446
O O9 0.569387 0.000000 0.000000
O O10 0.278440 0.340370 0.051006
O O11 0.161261 0.306789 0.130048
O O12 0.183066 0.500000 0.000000
O O13 0.125726 0.500000 0.500000
O O14 0.135547 0.629789 0.675531
O O15 0.250000 0.317580 0.250000
#
# Coordination Sequence:
#
# PCOD8217643 Si02
#       6
#     8   8   8   8   8   8
#     4  11  19  30  54  76 103 133 177 213 251 313
#     4  11  18  30  53  79  98 136 173 203 258 315
#     4  11  22  35  53  74 102 137 180 224 256 299
#     4  10  20  32  48  77 113 138 167 206 259 321
#     4  10  20  33  51  73 108 141 170 210 258 316
#     4  10  17  31  50  74 105 143 164 207 260 306
#
# _framework density 16.997229000000001
#
# number of rings (size 3 to 8) (size 9 to 14) (size 15 to 20)
#    0.000    1.500    6.667    1.500    0.000    1.667 
#    6.000    0.000    0.000    0.500    0.000    0.000 
#    0.000    3.333    0.000    0.000    0.000    0.000 
#
# Total GULP energy -594639.775807 kJ/mol
# GULP energy per Si atom -12388.328663 kJ/mol
# Density = 1.695854 g / cm^3
# Si number density = 16.997229 Si / 1000 Ang^3
#
#
#
# Elastic Constant Matrix: (Units=GPa)
#
#
# Indices 1 2 3 4 5 6 
#
# 1 36.1772 19.0595 31.5010 0.0000 0.0000 0.0000
# 2 19.0595 91.2323 49.0912 0.0000 0.0000 0.0000
# 3 31.5010 49.0912 137.1527 0.0000 0.0000 0.0000
# 4 0.0000 0.0000 0.0000 33.4059 0.0000 0.0000
# 5 0.0000 0.0000 0.0000 0.0000 12.9238 0.0000
# 6 0.0000 0.0000 0.0000 0.0000 0.0000 9.2948
#
#
#
# Elastic Compliance Matrix: (Units=1/GPa)
#
#
# Indices 1 2 3 4 5 6 
#
# 1 0.035562 -0.003758 -0.006823 0.000000 0.000000 0.000000
# 2 -0.003758 0.013973 -0.004138 0.000000 0.000000 0.000000
# 3 -0.006823 -0.004138 0.010339 0.000000 0.000000 0.000000
# 4 0.000000 0.000000 0.000000 0.029935 0.000000 0.000000
# 5 0.000000 0.000000 0.000000 0.000000 0.077377 0.000000
# 6 0.000000 0.000000 0.000000 0.000000 0.000000 0.107587
#
#
# Mechanical properties :
#
#
# Convention : Reuss Voigt Hill
#
# Bulk Modulus (GPa) = 32.85522 51.54061 42.19792
# Shear Modulus (GPa) = 15.90551 22.11895 19.01223
#
# Velocity S-wave (km/s) = 3.06236 3.61130 3.34810
# Velocity P-wave (km/s) = 5.64586 6.91212 6.31083
#
# Compressibility (1/GPa) = 0.03043656
#
# Stress axis : x y z
#
# Youngs Moduli (GPa) = 28.11953 71.56735 96.71781
#
# Poissons Ratio (x) = 0.26896 0.65988
# Poissons Ratio (y) = 0.10568 0.40023
# Poissons Ratio (z) = 0.19185 0.29616
#
# Static dielectric constant tensor:
#      x y z
#    x 2.918330 0.000000 0.000000 
#    y 0.000000 3.720080 0.000000 
#    z 0.000000 0.000000 3.679260 
# 
# 
# High freq. dielectric constant tensor:
#      x y z
#    x 1.592780 0.000000 0.000000 
#    y 0.000000 1.658870 0.000000 
#    z 0.000000 0.000000 1.675350 
# 
# From -- ./inp_files/18364.got.cif
#   From: 2010.03.12/outbox.cif.g09.slc.cpg/sg53_10_cif.got.tgz:18364.got - 2010.04.16 14:36:59.
