data_PCOD8217561
_publ_section_title
;
Structure prediction by ZEFSAII (Michael W. Deem and Ramdas Pophale) SiO2 
 PCOD8217561
Probable space group: P M N A
;
_chemical_formula_sum "Si O2"
_cell_formula_units_Z 56
_cell_length_a 14.364680
_cell_length_b 9.708311
_cell_length_c 24.979055
_cell_angle_alpha 90.000000
_cell_angle_beta 90.000000
_cell_angle_gamma 90.000000
_cell_volume 3483.498599
_symmetry_space_group_name_H-M "P M N A"
_symmetry_group_IT_number 53
_symmetry_cell_setting 'orthorhombic'
loop_
_space_group_symop_operation_xyz
x,y,z
1/2-x,-y,1/2+z
x,-y,-z
1/2-x,y,1/2-z
-x,-y,-z
1/2+x,y,1/2-z
-x,y,z
1/2+x,-y,1/2+z
loop_
_atom_site_type_symbol
_atom_site_label
_atom_site_fract_x
_atom_site_fract_y
_atom_site_fract_z
Si Si1 0.103364 0.312013 0.307873
Si Si2 0.890195 0.189737 0.044853
Si Si3 0.650754 0.086264 0.272761
Si Si4 0.609752 0.882953 0.430325
Si Si5 0.109606 0.510829 0.214359
Si Si6 0.395593 0.801902 0.317964
Si Si7 0.704782 0.699172 0.641618
O O1 0.095588 0.175793 0.270950
O O2 0.135905 0.440753 0.270977
O O3 0.182156 0.296203 0.353569
O O4 0.000000 0.335973 0.333030
O O5 0.827751 0.294542 0.079867
O O6 0.000000 0.212274 0.056248
O O7 0.854877 0.037392 0.059989
O O8 0.867093 0.213170 0.981789
O O9 0.750000 0.048502 0.250000
O O10 0.658199 0.171857 0.327639
O O11 0.602064 0.940453 0.282887
O O12 0.500000 0.894116 0.423573
O O13 0.656069 0.823525 0.375579
O O14 0.143953 0.670662 0.214906
O O15 0.165534 0.441130 0.166053
O O16 0.000000 0.490623 0.204586
O O17 0.500000 0.759966 0.332016
#
# Coordination Sequence:
#
# PCOD8217561 Si02
#       7
#     8   8   8   8   8   8   8
#     4   9  18  31  43  59  83 112 148 188 218 248
#     4   9  15  25  43  66  91 115 140 172 210 252
#     4   9  17  26  41  62  83 108 146 180 211 252
#     4   8  15  25  40  65  92 115 140 169 204 256
#     4   9  18  28  40  60  88 117 139 167 212 256
#     4  10  17  27  42  62  90 119 141 166 206 258
#     4  10  17  28  44  61  82 115 150 178 213 255
#
# _framework density 16.075792
#
# number of rings (size 3 to 8) (size 9 to 14) (size 15 to 20)
#    0.000    2.857    1.429    3.000    0.000    2.286 
#    0.000    0.714    0.000    3.429    0.000    2.000 
#    0.000    1.143    0.000    0.000    0.000    0.000 
#
# Total GULP energy -693825.110282 kJ/mol
# GULP energy per Si atom -12389.734112 kJ/mol
# Density = 1.603920 g / cm^3
# Si number density = 16.075792 Si / 1000 Ang^3
#
#
#
# Elastic Constant Matrix: (Units=GPa)
#
#
# Indices 1 2 3 4 5 6 
#
# 1 45.5734 9.9722 17.5472 0.0000 0.0000 0.0000
# 2 9.9722 92.6989 21.3003 0.0000 0.0000 0.0000
# 3 17.5472 21.3003 57.8684 0.0000 0.0000 0.0000
# 4 0.0000 0.0000 0.0000 13.9037 0.0000 0.0000
# 5 0.0000 0.0000 0.0000 0.0000 16.0906 0.0000
# 6 0.0000 0.0000 0.0000 0.0000 0.0000 12.5013
#
#
#
# Elastic Compliance Matrix: (Units=1/GPa)
#
#
# Indices 1 2 3 4 5 6 
#
# 1 0.024933 -0.001032 -0.007180 0.000000 0.000000 0.000000
# 2 -0.001032 0.011827 -0.004040 0.000000 0.000000 0.000000
# 3 -0.007180 -0.004040 0.020945 0.000000 0.000000 0.000000
# 4 0.000000 0.000000 0.000000 0.071923 0.000000 0.000000
# 5 0.000000 0.000000 0.000000 0.000000 0.062148 0.000000
# 6 0.000000 0.000000 0.000000 0.000000 0.000000 0.079992
#
#
# Mechanical properties :
#
#
# Convention : Reuss Voigt Hill
#
# Bulk Modulus (GPa) = 30.12116 32.64222 31.38169
# Shear Modulus (GPa) = 16.26860 18.32053 17.29457
#
# Velocity S-wave (km/s) = 3.18464 3.37951 3.28352
# Velocity P-wave (km/s) = 5.68333 5.96468 5.82570
#
# Compressibility (1/GPa) = 0.03319926
#
# Stress axis : x y z
#
# Youngs Moduli (GPa) = 40.10717 84.55200 47.74402
#
# Poissons Ratio (x) = 0.08728 0.34282
# Poissons Ratio (y) = 0.04140 0.19290
# Poissons Ratio (z) = 0.28799 0.34161
#
# Static dielectric constant tensor:
#      x y z
#    x 2.895200 0.000000 0.000000 
#    y 0.000000 3.099010 0.000000 
#    z 0.000000 0.000000 2.995890 
# 
# 
# High freq. dielectric constant tensor:
#      x y z
#    x 1.587010 0.000000 0.000000 
#    y 0.000000 1.611150 0.000000 
#    z 0.000000 0.000000 1.592090 
# 
# From -- ./inp_files/38913.got.cif
#   From: 2010.03.12/outbox.cif.g09.slc.cpg/sg53_20_cif.got.tgz:38913.got - 2010.04.16 14:36:59.
