data_PCOD8217523
_publ_section_title
;
Structure prediction by ZEFSAII (Michael W. Deem and Ramdas Pophale) SiO2 
 PCOD8217523
Probable space group: P M N A
;
_chemical_formula_sum "Si O2"
_cell_formula_units_Z 56
_cell_length_a 23.324034
_cell_length_b 9.554956
_cell_length_c 16.726153
_cell_angle_alpha 90.000000
_cell_angle_beta 90.000000
_cell_angle_gamma 90.000000
_cell_volume 3727.592442
_symmetry_space_group_name_H-M "P M N A"
_symmetry_group_IT_number 53
_symmetry_cell_setting 'orthorhombic'
loop_
_space_group_symop_operation_xyz
x,y,z
1/2-x,-y,1/2+z
x,-y,-z
1/2-x,y,1/2-z
-x,-y,-z
1/2+x,y,1/2-z
-x,y,z
1/2+x,-y,1/2+z
loop_
_atom_site_type_symbol
_atom_site_label
_atom_site_fract_x
_atom_site_fract_y
_atom_site_fract_z
Si Si1 0.806846 0.350422 0.978439
Si Si2 0.880603 0.292890 0.129271
Si Si3 0.500000 0.630051 0.395361
Si Si4 0.814587 0.791233 0.279618
Si Si5 0.770732 0.895421 0.436190
Si Si6 0.500000 0.302503 0.429607
Si Si7 0.119575 0.601013 0.174947
Si Si8 0.199364 0.945663 0.808781
O O1 0.759864 0.229343 0.984740
O O2 0.834874 0.349227 0.891198
O O3 0.777543 0.500000 0.000000
O O4 0.857158 0.327158 0.041754
O O5 0.944782 0.235636 0.114138
O O6 0.881579 0.433374 0.182685
O O7 0.843459 0.180582 0.176061
O O8 0.500000 0.468743 0.419532
O O9 0.500000 0.726730 0.475017
O O10 0.443298 0.662952 0.343669
O O11 0.750000 0.756166 0.250000
O O12 0.815338 0.823222 0.374759
O O13 0.857699 0.664560 0.259066
O O14 0.836142 0.931173 0.234737
O O15 0.801503 0.000000 0.500000
O O16 0.724410 0.992322 0.390855
O O17 0.250000 0.892645 0.750000
#
# Coordination Sequence:
#
# PCOD8217523 Si02
#       8
#     8   8   4   8   8   4   8   8
#     4  10  17  25  42  66  89 117 147 183 219 256
#     4  10  18  27  44  64  90 120 154 182 214 260
#     4   9  16  26  43  61  90 120 152 177 214 270
#     4   9  18  30  44  60  86 119 148 183 230 266
#     4  10  17  30  46  61  85 119 153 188 227 271
#     4   9  16  26  41  65  89 120 150 182 214 255
#     4  10  17  29  42  63  89 119 151 184 217 260
#     4   9  18  30  42  60  85 122 151 181 222 269
#
# _framework density 15.023102
#
# number of rings (size 3 to 8) (size 9 to 14) (size 15 to 20)
#    0.000    2.714    5.714    0.000    0.000    0.571 
#    0.000    0.714    0.000    1.714    0.000    0.500 
#    0.000    0.000    0.000   21.357    0.000    0.571 
#
# Total GULP energy -694055.698274 kJ/mol
# GULP energy per Si atom -12393.851755 kJ/mol
# Density = 1.498891 g / cm^3
# Si number density = 15.023102 Si / 1000 Ang^3
#
#
#
# Elastic Constant Matrix: (Units=GPa)
#
#
# Indices 1 2 3 4 5 6 
#
# 1 65.5054 48.4350 34.1131 0.0000 0.0000 0.0000
# 2 48.4350 77.5888 37.4568 0.0000 0.0000 0.0000
# 3 34.1131 37.4568 67.9749 0.0000 0.0000 0.0000
# 4 0.0000 0.0000 0.0000 27.3049 0.0000 0.0000
# 5 0.0000 0.0000 0.0000 0.0000 19.1313 0.0000
# 6 0.0000 0.0000 0.0000 0.0000 0.0000 11.7085
#
#
#
# Elastic Compliance Matrix: (Units=1/GPa)
#
#
# Indices 1 2 3 4 5 6 
#
# 1 0.030338 -0.015789 -0.006525 0.000000 0.000000 0.000000
# 2 -0.015789 0.025776 -0.006280 0.000000 0.000000 0.000000
# 3 -0.006525 -0.006280 0.021447 0.000000 0.000000 0.000000
# 4 0.000000 0.000000 0.000000 0.036623 0.000000 0.000000
# 5 0.000000 0.000000 0.000000 0.000000 0.052270 0.000000
# 6 0.000000 0.000000 0.000000 0.000000 0.000000 0.085408
#
#
# Mechanical properties :
#
#
# Convention : Reuss Voigt Hill
#
# Bulk Modulus (GPa) = 49.08400 50.11989 49.60194
# Shear Modulus (GPa) = 15.83071 17.69989 16.76530
#
# Velocity S-wave (km/s) = 3.24969 3.43618 3.34423
# Velocity P-wave (km/s) = 6.84280 7.01266 6.92825
#
# Compressibility (1/GPa) = 0.02037324
#
# Stress axis : x y z
#
# Youngs Moduli (GPa) = 32.96176 38.79505 46.62754
#
# Poissons Ratio (x) = 0.61252 0.30424
# Poissons Ratio (y) = 0.52042 0.29284
# Poissons Ratio (z) = 0.21508 0.24364
#
# Static dielectric constant tensor:
#      x y z
#    x 2.698110 0.000000 0.000000 
#    y 0.000000 2.887510 0.000000 
#    z 0.000000 0.000000 2.802780 
# 
# 
# High freq. dielectric constant tensor:
#      x y z
#    x 1.539040 0.000000 0.000000 
#    y 0.000000 1.572580 0.000000 
#    z 0.000000 0.000000 1.556920 
# 
# From -- ./inp_files/29593.got.cif
#   From: 2010.03.12/outbox.cif.g09.slc.cpg/sg53_15_cif.got.tgz:29593.got - 2010.04.16 14:36:59.
