data_PCOD8217032
_publ_section_title
;
Structure prediction by ZEFSAII (Michael W. Deem and Ramdas Pophale) SiO2 
 PCOD8217032
Probable space group: P N N A
;
_chemical_formula_sum "Si O2"
_cell_formula_units_Z 64
_cell_length_a 18.164127
_cell_length_b 11.031210
_cell_length_c 15.303305
_cell_angle_alpha 90.000000
_cell_angle_beta 90.000000
_cell_angle_gamma 90.000000
_cell_volume 3066.358411
_symmetry_space_group_name_H-M "P N N A"
_symmetry_group_IT_number 52
_symmetry_cell_setting 'orthorhombic'
loop_
_space_group_symop_operation_xyz
x,y,z
1/2-x,-y,z
x,1/2-y,1/2-z
1/2-x,1/2+y,1/2-z
-x,-y,-z
1/2+x,y,-z
-x,1/2+y,1/2+z
1/2+x,1/2-y,1/2+z
loop_
_atom_site_type_symbol
_atom_site_label
_atom_site_fract_x
_atom_site_fract_y
_atom_site_fract_z
Si Si1 0.062033 0.935194 0.819689
Si Si2 0.113769 0.427842 0.120641
Si Si3 0.213308 0.244561 0.046033
Si Si4 0.333327 0.959970 0.942948
Si Si5 0.427124 0.426095 0.408717
Si Si6 0.120831 0.821067 0.458620
Si Si7 0.455258 0.344417 0.868674
Si Si8 0.821593 0.560898 0.702056
O O1 0.054818 0.796840 0.849124
O O2 0.058801 0.933284 0.714127
O O3 0.141175 0.996854 0.846224
O O4 0.999823 0.015732 0.866572
O O5 0.176722 0.375450 0.057272
O O6 0.117014 0.572921 0.112738
O O7 0.128800 0.385844 0.220294
O O8 0.036380 0.369758 0.094297
O O9 0.299980 0.257893 0.032666
O O10 0.195784 0.164079 0.131661
O O11 0.173566 0.183978 0.961086
O O12 0.250000 0.000000 0.967725
O O13 0.400676 0.012457 0.001086
O O14 0.436900 0.282441 0.426891
O O15 0.361827 0.446553 0.340786
O O16 0.100257 0.877178 0.552982
O O17 0.750000 0.500000 0.745071
#
# Coordination Sequence:
#
# PCOD8217032 Si02
#       8
#     8   8   8   8   8   8   8   8
#     4  11  23  40  69  97 122 168 220 282 332 376
#     4  12  26  39  60  94 133 181 215 258 333 410
#     4  11  22  39  65  95 127 166 223 270 326 394
#     4  11  20  39  67  98 125 157 219 283 332 380
#     4  11  20  38  63  96 127 161 212 268 331 386
#     4  12  24  43  63  90 136 183 212 261 335 407
#     4  11  24  44  63  93 133 169 223 267 328 400
#     4  11  20  38  61  96 134 159 211 279 328 383
#
# _framework density 20.871663000000002
#
# number of rings (size 3 to 8) (size 9 to 14) (size 15 to 20)
#    0.000    0.750    5.000    4.500    3.500    0.500 
#    0.000    1.250    0.000    1.500    0.000    0.000 
#    0.000    0.000    0.000    0.000    0.000    0.000 
#
# Total GULP energy -793225.916967 kJ/mol
# GULP energy per Si atom -12394.154953 kJ/mol
# Density = 2.082416 g / cm^3
# Si number density = 20.871663 Si / 1000 Ang^3
#
#
#
# Elastic Constant Matrix: (Units=GPa)
#
#
# Indices 1 2 3 4 5 6 
#
# 1 87.1058 41.6183 58.1053 0.0000 0.0000 0.0000
# 2 41.6183 78.4305 37.0934 0.0000 0.0000 0.0000
# 3 58.1053 37.0934 98.5389 0.0000 0.0000 0.0000
# 4 0.0000 0.0000 0.0000 25.4354 0.0000 0.0000
# 5 0.0000 0.0000 0.0000 0.0000 30.1223 0.0000
# 6 0.0000 0.0000 0.0000 0.0000 0.0000 27.0362
#
#
#
# Elastic Compliance Matrix: (Units=1/GPa)
#
#
# Indices 1 2 3 4 5 6 
#
# 1 0.021370 -0.006545 -0.010137 0.000000 0.000000 0.000000
# 2 -0.006545 0.017516 -0.002734 0.000000 0.000000 0.000000
# 3 -0.010137 -0.002734 0.017155 0.000000 0.000000 0.000000
# 4 0.000000 0.000000 0.000000 0.039315 0.000000 0.000000
# 5 0.000000 0.000000 0.000000 0.000000 0.033198 0.000000
# 6 0.000000 0.000000 0.000000 0.000000 0.000000 0.036987
#
#
# Mechanical properties :
#
#
# Convention : Reuss Voigt Hill
#
# Bulk Modulus (GPa) = 58.11289 59.74548 58.92918
# Shear Modulus (GPa) = 23.79687 25.00265 24.39976
#
# Velocity S-wave (km/s) = 3.38028 3.46486 3.42283
# Velocity P-wave (km/s) = 6.56799 6.68538 6.62694
#
# Compressibility (1/GPa) = 0.01720789
#
# Stress axis : x y z
#
# Youngs Moduli (GPa) = 46.79512 57.08908 58.29162
#
# Poissons Ratio (x) = 0.37366 0.59091
# Poissons Ratio (y) = 0.30629 0.15938
# Poissons Ratio (z) = 0.47437 0.15610
#
# Static dielectric constant tensor:
#      x y z
#    x 3.825430 0.000000 0.000000 
#    y 0.000000 3.771790 0.000000 
#    z 0.000000 0.000000 3.888350 
# 
# 
# High freq. dielectric constant tensor:
#      x y z
#    x 1.819370 0.000000 0.000000 
#    y 0.000000 1.812700 0.000000 
#    z 0.000000 0.000000 1.801270 
# 
# From -- ./inp_files/28296.got.cif
#   From: 2010.06.25/outbox.cif.g09.slc.cpg/sg52_15_cif.got.tgz:28296.got - 2010.06.26 19:32:48.
