data_PCOD8217173
_publ_section_title
;
Structure prediction by ZEFSAII (Michael W. Deem and Ramdas Pophale) SiO2 
 PCOD8217173
Probable space group: P N N A
;
_chemical_formula_sum "Si O2"
_cell_formula_units_Z 48
_cell_length_a 19.062916
_cell_length_b 14.700364
_cell_length_c 8.309597
_cell_angle_alpha 90.000000
_cell_angle_beta 90.000000
_cell_angle_gamma 90.000000
_cell_volume 2328.613359
_symmetry_space_group_name_H-M "P N N A"
_symmetry_group_IT_number 52
_symmetry_cell_setting 'orthorhombic'
loop_
_space_group_symop_operation_xyz
x,y,z
1/2-x,-y,z
x,1/2-y,1/2-z
1/2-x,1/2+y,1/2-z
-x,-y,-z
1/2+x,y,-z
-x,1/2+y,1/2+z
1/2+x,1/2-y,1/2+z
loop_
_atom_site_type_symbol
_atom_site_label
_atom_site_fract_x
_atom_site_fract_y
_atom_site_fract_z
Si Si1 0.026745 0.325194 0.119484
Si Si2 0.802091 0.575395 0.594403
Si Si3 0.585592 0.837704 0.648497
Si Si4 0.953954 0.504819 0.660194
Si Si5 0.236692 0.600191 0.061748
Si Si6 0.837618 0.738337 0.068860
O O1 0.013682 0.250000 0.250000
O O2 0.020603 0.422935 0.205827
O O3 0.102052 0.307556 0.038232
O O4 0.965143 0.309848 0.994377
O O5 0.750000 0.500000 0.516370
O O6 0.875159 0.525187 0.611900
O O7 0.772170 0.609702 0.763935
O O8 0.812481 0.662692 0.485085
O O9 0.608653 0.750000 0.750000
O O10 0.653920 0.884714 0.574205
O O11 0.541921 0.905953 0.760726
O O12 0.000000 0.500000 0.500000
O O13 0.250000 0.500000 0.990026
O O14 0.270066 0.672873 0.939710
O O15 0.865071 0.750000 0.250000
#
# Coordination Sequence:
#
# PCOD8217173 Si02
#       6
#     8   8   8   8   8   8
#     4  12  24  46  68  99 144 185 225 285 348 419
#     4  11  22  46  73  95 134 186 234 277 346 422
#     4  12  25  42  71 103 138 182 234 282 350 416
#     4  12  25  44  70 103 136 180 231 286 347 420
#     4  11  22  46  71  96 133 185 228 281 349 415
#     4  12  25  42  71 103 138 179 232 286 348 418
#
# _framework density 20.613126999999999
#
# number of rings (size 3 to 8) (size 9 to 14) (size 15 to 20)
#    0.000    0.333    6.667    3.500    2.333    1.333 
#    3.000    0.000    0.000    0.000    0.000    0.000 
#    0.000    0.000    0.000    0.000    0.000    0.000 
#
# Total GULP energy -595370.895022 kJ/mol
# GULP energy per Si atom -12403.560313 kJ/mol
# Density = 2.056621 g / cm^3
# Si number density = 20.613127 Si / 1000 Ang^3
#
#
#
# Elastic Constant Matrix: (Units=GPa)
#
#
# Indices 1 2 3 4 5 6 
#
# 1 103.6842 0.9802 38.7833 0.0000 0.0000 0.0000
# 2 0.9802 95.1540 48.1323 0.0000 0.0000 0.0000
# 3 38.7833 48.1323 91.0413 0.0000 0.0000 0.0000
# 4 0.0000 0.0000 0.0000 0.6552 0.0000 0.0000
# 5 0.0000 0.0000 0.0000 0.0000 16.7484 0.0000
# 6 0.0000 0.0000 0.0000 0.0000 0.0000 42.0926
#
#
#
# Elastic Compliance Matrix: (Units=1/GPa)
#
#
# Indices 1 2 3 4 5 6 
#
# 1 0.012241 0.003428 -0.007027 0.000000 0.000000 0.000000
# 2 0.003428 0.015306 -0.009553 0.000000 0.000000 0.000000
# 3 -0.007027 -0.009553 0.019028 0.000000 0.000000 0.000000
# 4 0.000000 0.000000 0.000000 1.526223 0.000000 0.000000
# 5 0.000000 0.000000 0.000000 0.000000 0.059707 0.000000
# 6 0.000000 0.000000 0.000000 0.000000 0.000000 0.023757
#
#
# Mechanical properties :
#
#
# Convention : Reuss Voigt Hill
#
# Bulk Modulus (GPa) = 49.32867 51.74123 50.53495
# Shear Modulus (GPa) = 2.95977 25.36483 14.16230
#
# Velocity S-wave (km/s) = 1.19958 3.51168 2.62401
# Velocity P-wave (km/s) = 5.08933 6.44966 5.80945
#
# Compressibility (1/GPa) = 0.02027219
#
# Stress axis : x y z
#
# Youngs Moduli (GPa) = 81.69415 65.33376 52.55441
#
# Poissons Ratio (x) = -0.22400 0.36931
# Poissons Ratio (y) = -0.28009 0.50203
# Poissons Ratio (z) = 0.57408 0.62411
#
# Static dielectric constant tensor:
#      x y z
#    x 4.029480 0.000000 0.000000 
#    y 0.000000 4.046410 0.000000 
#    z 0.000000 0.000000 4.010620 
# 
# 
# High freq. dielectric constant tensor:
#      x y z
#    x 1.815930 0.000000 0.000000 
#    y 0.000000 1.828600 0.000000 
#    z 0.000000 0.000000 1.795100 
# 
# From -- ./inp_files/12074.got.cif
#   From: 2010.06.25/outbox.cif.g09.slc.cpg/sg52_7_cif.got.tgz:12074.got - 2010.06.26 19:32:48.
