data_PCOD8217708
_publ_section_title
;
Structure prediction by ZEFSAII (Michael W. Deem and Ramdas Pophale) SiO2 
 PCOD8217708
Probable space group: P M N A
;
_chemical_formula_sum "Si O2"
_cell_formula_units_Z 64
_cell_length_a 9.426171
_cell_length_b 16.627713
_cell_length_c 21.739196
_cell_angle_alpha 90.000000
_cell_angle_beta 90.000000
_cell_angle_gamma 90.000000
_cell_volume 3407.307365
_symmetry_space_group_name_H-M "P M N A"
_symmetry_group_IT_number 53
_symmetry_cell_setting 'orthorhombic'
loop_
_space_group_symop_operation_xyz
x,y,z
1/2-x,-y,1/2+z
x,-y,-z
1/2-x,y,1/2-z
-x,-y,-z
1/2+x,y,1/2-z
-x,y,z
1/2+x,-y,1/2+z
loop_
_atom_site_type_symbol
_atom_site_label
_atom_site_fract_x
_atom_site_fract_y
_atom_site_fract_z
Si Si1 0.336861 0.396602 0.368831
Si Si2 0.165358 0.280542 0.884287
Si Si3 0.335331 0.970373 0.811109
Si Si4 0.836031 0.438875 0.812105
Si Si5 0.344448 0.843113 0.907454
Si Si6 0.834339 0.843037 0.311244
Si Si7 0.836556 0.278319 0.024687
Si Si8 0.345690 0.719918 0.799909
O O1 0.500000 0.375394 0.355510
O O2 0.311228 0.492460 0.364458
O O3 0.291944 0.356152 0.434182
O O4 0.240267 0.360898 0.314936
O O5 0.212548 0.355726 0.842885
O O6 0.264460 0.205442 0.867086
O O7 0.000000 0.258587 0.874522
O O8 0.196709 0.302466 0.954941
O O9 0.250000 0.945668 0.750000
O O10 0.500000 0.948908 0.798838
O O11 0.281262 0.920908 0.871289
O O12 0.313310 0.063515 0.826578
O O13 0.750000 0.455117 0.750000
O O14 0.000000 0.435455 0.793196
O O15 0.500000 0.863951 0.935912
O O16 0.242668 0.806060 0.959436
O O17 0.364481 0.773240 0.858848
O O18 0.750000 0.818374 0.250000
O O19 0.000000 0.821184 0.303199
O O20 0.000000 0.257824 0.034917
O O21 0.250000 0.767610 0.750000
O O22 0.500000 0.697239 0.772937
#
# Coordination Sequence:
#
# PCOD8217708 Si02
#       8
#     8   8   8   8   8   8   8   8
#     4   9  18  33  51  72  99 131 166 205 250 297
#     4  10  21  37  55  76 102 133 172 215 256 300
#     4   9  18  32  51  77 106 135 169 210 256 306
#     4  10  21  35  53  77 103 131 165 208 256 305
#     4   9  18  32  49  71 101 134 169 208 249 298
#     4  10  20  35  56  80 105 134 168 209 259 308
#     4   9  19  35  54  75 101 135 174 212 249 295
#     4  10  18  27  43  68  98 132 166 202 246 295
#
# _framework density 18.783159999999999
#
# number of rings (size 3 to 8) (size 9 to 14) (size 15 to 20)
#    0.000    2.500    0.000    1.875    0.000    5.500 
#    0.000    3.125    0.000    3.750    0.000    5.250 
#    0.000    0.000    0.000    0.000    0.000    0.000 
#
# Total GULP energy -793227.878281 kJ/mol
# GULP energy per Si atom -12394.185598 kJ/mol
# Density = 1.874041 g / cm^3
# Si number density = 18.783160 Si / 1000 Ang^3
#
#
#
# Elastic Constant Matrix: (Units=GPa)
#
#
# Indices 1 2 3 4 5 6 
#
# 1 87.0249 39.2987 42.7202 0.0000 0.0000 0.0000
# 2 39.2987 95.4068 42.7907 0.0000 0.0000 0.0000
# 3 42.7202 42.7907 92.3682 0.0000 0.0000 0.0000
# 4 0.0000 0.0000 0.0000 24.2629 0.0000 0.0000
# 5 0.0000 0.0000 0.0000 0.0000 28.2572 0.0000
# 6 0.0000 0.0000 0.0000 0.0000 0.0000 -36.6577
#
#
#
# Elastic Compliance Matrix: (Units=1/GPa)
#
#
# Indices 1 2 3 4 5 6 
#
# 1 0.016069 -0.004147 -0.005511 0.000000 0.000000 0.000000
# 2 -0.004147 0.014301 -0.004707 0.000000 0.000000 0.000000
# 3 -0.005511 -0.004707 0.015555 0.000000 0.000000 0.000000
# 4 0.000000 0.000000 0.000000 0.041215 0.000000 0.000000
# 5 0.000000 0.000000 0.000000 0.000000 0.035389 0.000000
# 6 0.000000 0.000000 0.000000 0.000000 0.000000 -0.027279
#
#
# Mechanical properties :
#
#
# Convention : Reuss Voigt Hill
#
# Bulk Modulus (GPa) = 58.15459 58.26880 58.21169
# Shear Modulus (GPa) = 38.54708 13.17186 25.85947
#
# Velocity S-wave (km/s) = 4.53505 2.65100 3.71447
# Velocity P-wave (km/s) = 7.64529 6.36079 7.03243
#
# Compressibility (1/GPa) = 0.01719555
#
# Stress axis : x y z
#
# Youngs Moduli (GPa) = 62.23179 69.92602 64.28647
#
# Poissons Ratio (x) = 0.29001 0.35425
# Poissons Ratio (y) = 0.25810 0.30259
# Poissons Ratio (z) = 0.34293 0.32913
#
# Static dielectric constant tensor:
#      x y z
#    x 4.146050 0.000000 0.000000 
#    y 0.000000 3.475760 0.000000 
#    z 0.000000 0.000000 3.367550 
# 
# 
# High freq. dielectric constant tensor:
#      x y z
#    x 1.729730 0.000000 0.000000 
#    y 0.000000 1.726390 0.000000 
#    z 0.000000 0.000000 1.713890 
# 
# From -- ./inp_files/31102.got.cif
#   From: 2010.03.12/outbox.cif.g09.slc.cpg/sg53_16_cif.got.tgz:31102.got - 2010.04.16 14:36:59.
