data_PCOD8217845
_publ_section_title
;
Structure prediction by ZEFSAII (Michael W. Deem and Ramdas Pophale) SiO2 
 PCOD8217845
Probable space group: P M N A
;
_chemical_formula_sum "Si O2"
_cell_formula_units_Z 64
_cell_length_a 8.892375
_cell_length_b 15.090037
_cell_length_c 29.410978
_cell_angle_alpha 90.000000
_cell_angle_beta 90.000000
_cell_angle_gamma 90.000000
_cell_volume 3946.549369
_symmetry_space_group_name_H-M "P M N A"
_symmetry_group_IT_number 53
_symmetry_cell_setting 'orthorhombic'
loop_
_space_group_symop_operation_xyz
x,y,z
1/2-x,-y,1/2+z
x,-y,-z
1/2-x,y,1/2-z
-x,-y,-z
1/2+x,y,1/2-z
-x,y,z
1/2+x,-y,1/2+z
loop_
_atom_site_type_symbol
_atom_site_label
_atom_site_fract_x
_atom_site_fract_y
_atom_site_fract_z
Si Si1 0.176898 0.443689 0.563768
Si Si2 0.679589 0.984399 0.202220
Si Si3 0.677404 0.369741 0.032130
Si Si4 0.825707 0.796881 0.205431
Si Si5 0.822015 0.964088 0.888232
Si Si6 0.676691 0.185422 0.458518
Si Si7 0.821107 0.135705 0.942421
Si Si8 0.171945 0.699810 0.114746
O O1 0.233732 0.392560 0.518653
O O2 0.226078 0.546830 0.563716
O O3 0.245255 0.393360 0.606960
O O4 0.000000 0.438506 0.565881
O O5 0.750000 0.018602 0.250000
O O6 0.500000 0.987937 0.205238
O O7 0.737872 0.043787 0.160188
O O8 0.736609 0.885324 0.191907
O O9 0.500000 0.356009 0.033121
O O10 0.753949 0.281468 0.050700
O O11 0.750000 0.754831 0.250000
O O12 0.808168 0.722952 0.167300
O O13 0.000000 0.822217 0.213583
O O14 0.779253 0.876487 0.916387
O O15 0.000000 0.971972 0.879652
O O16 0.760753 0.047511 0.917560
O O17 0.500000 0.197246 0.462619
O O18 0.736661 0.141240 0.505521
O O19 0.757922 0.221350 0.915757
O O20 0.000000 0.132911 0.940201
O O21 0.000000 0.686899 0.101110
#
# Coordination Sequence:
#
# PCOD8217845 Si02
#       8
#     8   8   8   8   8   8   8   8
#     4   9  18  31  47  66  91 126 160 192 238 284
#     4  11  21  33  50  70  93 123 160 200 242 284
#     4   9  18  32  46  64  94 126 157 198 241 279
#     4  10  19  32  48  69  96 126 157 195 240 284
#     4  10  19  33  49  68  97 130 163 199 237 284
#     4  10  19  30  49  71  93 129 170 201 234 276
#     4   9  16  29  45  66  97 131 163 193 230 274
#     4  10  18  29  48  70  95 125 160 198 236 278
#
# _framework density 16.216697
#
# number of rings (size 3 to 8) (size 9 to 14) (size 15 to 20)
#    0.000    2.250    2.500    3.375    0.000    3.500 
#    0.000    1.875    0.000    1.500    0.000    0.875 
#    0.000    4.000    0.000    0.000    0.000    0.000 
#
# Total GULP energy -793437.964440 kJ/mol
# GULP energy per Si atom -12397.468194 kJ/mol
# Density = 1.617979 g / cm^3
# Si number density = 16.216697 Si / 1000 Ang^3
#
#
#
# Elastic Constant Matrix: (Units=GPa)
#
#
# Indices 1 2 3 4 5 6 
#
# 1 57.3057 38.0100 44.3242 0.0000 0.0000 0.0000
# 2 38.0100 112.4151 60.8060 0.0000 0.0000 0.0000
# 3 44.3242 60.8060 110.3059 0.0000 0.0000 0.0000
# 4 0.0000 0.0000 0.0000 20.6965 0.0000 0.0000
# 5 0.0000 0.0000 0.0000 0.0000 24.8993 0.0000
# 6 0.0000 0.0000 0.0000 0.0000 0.0000 24.2819
#
#
#
# Elastic Compliance Matrix: (Units=1/GPa)
#
#
# Indices 1 2 3 4 5 6 
#
# 1 0.026912 -0.004631 -0.008261 0.000000 0.000000 0.000000
# 2 -0.004631 0.013472 -0.005565 0.000000 0.000000 0.000000
# 3 -0.008261 -0.005565 0.015453 0.000000 0.000000 0.000000
# 4 0.000000 0.000000 0.000000 0.048317 0.000000 0.000000
# 5 0.000000 0.000000 0.000000 0.000000 0.040162 0.000000
# 6 0.000000 0.000000 0.000000 0.000000 0.000000 0.041183
#
#
# Mechanical properties :
#
#
# Convention : Reuss Voigt Hill
#
# Bulk Modulus (GPa) = 52.84954 62.92301 57.88627
# Shear Modulus (GPa) = 21.86070 23.10130 22.48100
#
# Velocity S-wave (km/s) = 3.67554 3.77840 3.72733
# Velocity P-wave (km/s) = 7.11851 7.61056 7.36864
#
# Compressibility (1/GPa) = 0.01892164
#
# Stress axis : x y z
#
# Youngs Moduli (GPa) = 37.15872 74.22900 64.71137
#
# Poissons Ratio (x) = 0.34375 0.53459
# Poissons Ratio (y) = 0.17208 0.36015
# Poissons Ratio (z) = 0.30697 0.41312
#
# Static dielectric constant tensor:
#      x y z
#    x 2.916860 0.000000 0.000000 
#    y 0.000000 3.008940 0.000000 
#    z 0.000000 0.000000 3.138480 
# 
# 
# High freq. dielectric constant tensor:
#      x y z
#    x 1.612680 0.000000 0.000000 
#    y 0.000000 1.605050 0.000000 
#    z 0.000000 0.000000 1.614070 
# 
# From -- ./inp_files/38438.got.cif
#   From: 2010.03.12/outbox.cif.g09.slc.cpg/sg53_20_cif.got.tgz:38438.got - 2010.04.16 14:36:59.
