data_PCOD8217014
_publ_section_title
;
Structure prediction by ZEFSAII (Michael W. Deem and Ramdas Pophale) SiO2 
 PCOD8217014
Probable space group: P N N A
;
_chemical_formula_sum "Si O2"
_cell_formula_units_Z 64
_cell_length_a 9.683379
_cell_length_b 17.914429
_cell_length_c 19.718952
_cell_angle_alpha 90.000000
_cell_angle_beta 90.000000
_cell_angle_gamma 90.000000
_cell_volume 3420.690095
_symmetry_space_group_name_H-M "P N N A"
_symmetry_group_IT_number 52
_symmetry_cell_setting 'orthorhombic'
loop_
_space_group_symop_operation_xyz
x,y,z
1/2-x,-y,z
x,1/2-y,1/2-z
1/2-x,1/2+y,1/2-z
-x,-y,-z
1/2+x,y,-z
-x,1/2+y,1/2+z
1/2+x,1/2-y,1/2+z
loop_
_atom_site_type_symbol
_atom_site_label
_atom_site_fract_x
_atom_site_fract_y
_atom_site_fract_z
Si Si1 0.730744 0.833451 0.036135
Si Si2 0.698149 0.383945 0.324250
Si Si3 0.475422 0.478191 0.676198
Si Si4 0.769256 0.333451 0.036135
Si Si5 0.475422 0.478191 0.823802
Si Si6 0.457185 0.925225 0.461642
Si Si7 0.198149 0.116055 0.675750
Si Si8 0.542815 0.425225 0.538358
O O1 0.791426 0.827357 0.112804
O O2 0.734570 0.750000 0.005334
O O3 0.574722 0.862467 0.034373
O O4 0.818086 0.891105 0.991463
O O5 0.560836 0.434407 0.334036
O O6 0.831491 0.435589 0.327064
O O7 0.691237 0.343526 0.250000
O O8 0.546655 0.465641 0.750000
O O9 0.574057 0.447786 0.616657
O O10 0.925279 0.362467 0.034373
O O11 0.708574 0.327357 0.112804
O O12 0.681914 0.391105 0.991463
O O13 0.574057 0.447786 0.883343
O O14 0.331491 0.435589 0.827064
O O15 0.439164 0.565593 0.834036
O O16 0.500000 0.000000 0.500000
O O17 0.500000 0.500000 0.500000
#
# Coordination Sequence:
#
# PCOD8217014 Si02
#       8
#     8   8   8   8   8   8   8   8
#     4  11  22  34  51  79 111 139 171 217 268 314
#     4   8  14  27  48  75 104 130 164 212 263 307
#     4   8  14  27  50  77  99 127 173 221 251 293
#     4  11  22  34  51  79 111 139 171 217 268 314
#     4   8  14  27  50  77  99 127 173 221 251 293
#     4  11  20  35  56  78 103 140 180 215 259 315
#     4   8  14  27  48  75 104 130 164 212 263 307
#     4  11  20  35  56  78 103 140 180 215 259 315
#
# _framework density 18.709675000000001
#
# number of rings (size 3 to 8) (size 9 to 14) (size 15 to 20)
#    0.000    2.500    2.500    3.000    0.000    0.500 
#    0.000    0.000    0.000    6.750    0.000    0.000 
#    0.000    0.000    0.000    0.000    0.000    0.000 
#
# Total GULP energy -793003.572724 kJ/mol
# GULP energy per Si atom -12390.680824 kJ/mol
# Density = 1.866709 g / cm^3
# Si number density = 18.709675 Si / 1000 Ang^3
#
#
#
# Elastic Constant Matrix: (Units=GPa)
#
#
# Indices 1 2 3 4 5 6 
#
# 1 24.2254 -3.5502 9.4283 0.0000 0.0000 0.0000
# 2 -3.5502 70.7476 6.7683 0.0000 0.0000 0.0000
# 3 9.4283 6.7683 108.1967 0.0000 0.0000 0.0000
# 4 0.0000 0.0000 0.0000 18.5340 0.0000 0.0000
# 5 0.0000 0.0000 0.0000 0.0000 23.4200 0.0000
# 6 0.0000 0.0000 0.0000 0.0000 0.0000 21.2713
#
#
#
# Elastic Compliance Matrix: (Units=1/GPa)
#
#
# Indices 1 2 3 4 5 6 
#
# 1 0.043178 0.002542 -0.003922 0.000000 0.000000 0.000000
# 2 0.002542 0.014369 -0.001120 0.000000 0.000000 0.000000
# 3 -0.003922 -0.001120 0.009654 0.000000 0.000000 0.000000
# 4 0.000000 0.000000 0.000000 0.053955 0.000000 0.000000
# 5 0.000000 0.000000 0.000000 0.000000 0.042699 0.000000
# 6 0.000000 0.000000 0.000000 0.000000 0.000000 0.047012
#
#
# Mechanical properties :
#
#
# Convention : Reuss Voigt Hill
#
# Bulk Modulus (GPa) = 16.07683 25.38473 20.73078
# Shear Modulus (GPa) = 21.13268 25.34662 23.23965
#
# Velocity S-wave (km/s) = 3.36446 3.68466 3.52819
# Velocity P-wave (km/s) = 4.86870 5.63023 5.26325
#
# Compressibility (1/GPa) = 0.06220133
#
# Stress axis : x y z
#
# Youngs Moduli (GPa) = 23.16009 69.59190 103.58144
#
# Poissons Ratio (x) = -0.17689 0.40620
# Poissons Ratio (y) = -0.05887 0.11605
# Poissons Ratio (z) = 0.09082 0.07797
#
# Static dielectric constant tensor:
#      x y z
#    x 2.999870 0.000000 0.000000 
#    y 0.000000 3.171980 0.000000 
#    z 0.000000 0.000000 4.072730 
# 
# 
# High freq. dielectric constant tensor:
#      x y z
#    x 1.679730 0.000000 0.000000 
#    y 0.000000 1.706610 0.000000 
#    z 0.000000 0.000000 1.743340 
# 
# From -- ./inp_files/36186.got.cif
#   From: 2010.06.25/outbox.cif.g09.slc.cpg/sg52_19_cif.got.tgz:36186.got - 2010.06.26 19:32:48.
