data_PCOD8217595
_publ_section_title
;
Structure prediction by ZEFSAII (Michael W. Deem and Ramdas Pophale) SiO2 
 PCOD8217595
Probable space group: P M N A
;
_chemical_formula_sum "Si O2"
_cell_formula_units_Z 64
_cell_length_a 23.026944
_cell_length_b 9.281484
_cell_length_c 19.752477
_cell_angle_alpha 90.000000
_cell_angle_beta 90.000000
_cell_angle_gamma 90.000000
_cell_volume 4221.582588
_symmetry_space_group_name_H-M "P M N A"
_symmetry_group_IT_number 53
_symmetry_cell_setting 'orthorhombic'
loop_
_space_group_symop_operation_xyz
x,y,z
1/2-x,-y,1/2+z
x,-y,-z
1/2-x,y,1/2-z
-x,-y,-z
1/2+x,y,1/2-z
-x,y,z
1/2+x,-y,1/2+z
loop_
_atom_site_type_symbol
_atom_site_label
_atom_site_fract_x
_atom_site_fract_y
_atom_site_fract_z
Si Si1 0.263459 0.420096 0.929844
Si Si2 0.657299 0.279621 0.223302
Si Si3 0.618554 0.772635 0.959557
Si Si4 0.932942 0.072402 0.337492
Si Si5 0.935382 0.781882 0.397850
Si Si6 0.222997 0.684757 0.855623
Si Si7 0.619515 0.504010 0.125976
Si Si8 0.249775 0.162995 0.482571
O O1 0.222148 0.518239 0.882037
O O2 0.323107 0.401507 0.888964
O O3 0.238728 0.261964 0.950098
O O4 0.276850 0.500000 0.000000
O O5 0.614239 0.143293 0.213182
O O6 0.715808 0.269532 0.178549
O O7 0.671066 0.295068 0.302401
O O8 0.623075 0.420554 0.197302
O O9 0.577329 0.871337 0.913745
O O10 0.609271 0.608106 0.935439
O O11 0.605603 0.794473 0.037619
O O12 0.685315 0.818653 0.952407
O O13 0.000000 0.104897 0.315598
O O14 0.920299 0.900794 0.340456
O O15 0.931415 0.621126 0.366656
O O16 0.000000 0.809167 0.423941
O O17 0.209541 0.786532 0.920101
O O18 0.265304 0.000000 0.500000
#
# Coordination Sequence:
#
# PCOD8217595 Si02
#       8
#     8   8   8   8   8   8   8   8
#     4   9  14  27  42  60  86 110 140 182 219 264
#     4   9  18  32  48  61  83 121 158 189 219 269
#     4  11  18  28  42  60  89 125 159 189 219 256
#     4  10  20  32  43  62  90 123 157 194 227 259
#     4  11  21  28  40  62  89 121 160 198 225 249
#     4   9  17  31  48  65  85 118 155 182 227 269
#     4  10  17  28  41  58  81 117 157 191 222 252
#     4  11  18  26  46  71  93 117 145 183 231 273
#
# _framework density 15.160192
#
# number of rings (size 3 to 8) (size 9 to 14) (size 15 to 20)
#    0.000    2.000    6.250    1.875    0.000    4.000 
#    0.000    1.250    0.000    3.000    0.000    0.000 
#    0.000    5.000    0.000    0.000    0.000    0.125 
#
# Total GULP energy -792986.818694 kJ/mol
# GULP energy per Si atom -12390.419042 kJ/mol
# Density = 1.512569 g / cm^3
# Si number density = 15.160192 Si / 1000 Ang^3
#
#
#
# Elastic Constant Matrix: (Units=GPa)
#
#
# Indices 1 2 3 4 5 6 
#
# 1 40.2123 23.3842 30.7841 0.0000 0.0000 0.0000
# 2 23.3842 104.3980 40.8781 0.0000 0.0000 0.0000
# 3 30.7841 40.8781 72.2492 0.0000 0.0000 0.0000
# 4 0.0000 0.0000 0.0000 11.2635 0.0000 0.0000
# 5 0.0000 0.0000 0.0000 0.0000 20.0587 0.0000
# 6 0.0000 0.0000 0.0000 0.0000 0.0000 13.0311
#
#
#
# Elastic Compliance Matrix: (Units=1/GPa)
#
#
# Indices 1 2 3 4 5 6 
#
# 1 0.037513 -0.002754 -0.014425 0.000000 0.000000 0.000000
# 2 -0.002754 0.012507 -0.005903 0.000000 0.000000 0.000000
# 3 -0.014425 -0.005903 0.023327 0.000000 0.000000 0.000000
# 4 0.000000 0.000000 0.000000 0.088782 0.000000 0.000000
# 5 0.000000 0.000000 0.000000 0.000000 0.049854 0.000000
# 6 0.000000 0.000000 0.000000 0.000000 0.000000 0.076740
#
#
# Mechanical properties :
#
#
# Convention : Reuss Voigt Hill
#
# Bulk Modulus (GPa) = 36.78864 45.21693 41.00278
# Shear Modulus (GPa) = 14.53709 16.99152 15.76431
#
# Velocity S-wave (km/s) = 3.09997 3.35147 3.22817
# Velocity P-wave (km/s) = 6.09363 6.69830 6.40311
#
# Compressibility (1/GPa) = 0.02718230
#
# Stress axis : x y z
#
# Youngs Moduli (GPa) = 26.65765 79.95552 42.86850
#
# Poissons Ratio (x) = 0.22021 0.61839
# Poissons Ratio (y) = 0.07342 0.25305
# Poissons Ratio (z) = 0.38454 0.47197
#
# Static dielectric constant tensor:
#      x y z
#    x 2.638940 0.000000 0.000000 
#    y 0.000000 3.205760 0.000000 
#    z 0.000000 0.000000 2.791980 
# 
# 
# High freq. dielectric constant tensor:
#      x y z
#    x 1.537430 0.000000 0.000000 
#    y 0.000000 1.589800 0.000000 
#    z 0.000000 0.000000 1.549150 
# 
# From -- ./inp_files/29602.got.cif
#   From: 2010.03.12/outbox.cif.g09.slc.cpg/sg53_15_cif.got.tgz:29602.got - 2010.04.16 14:36:59.
