data_PCOD8217578
_publ_section_title
;
Structure prediction by ZEFSAII (Michael W. Deem and Ramdas Pophale) SiO2 
 PCOD8217578
Probable space group: P M N A
;
_chemical_formula_sum "Si O2"
_cell_formula_units_Z 64
_cell_length_a 8.746896
_cell_length_b 18.122983
_cell_length_c 23.534311
_cell_angle_alpha 90.000000
_cell_angle_beta 90.000000
_cell_angle_gamma 90.000000
_cell_volume 3730.655391
_symmetry_space_group_name_H-M "P M N A"
_symmetry_group_IT_number 53
_symmetry_cell_setting 'orthorhombic'
loop_
_space_group_symop_operation_xyz
x,y,z
1/2-x,-y,1/2+z
x,-y,-z
1/2-x,y,1/2-z
-x,-y,-z
1/2+x,y,1/2-z
-x,y,z
1/2+x,-y,1/2+z
loop_
_atom_site_type_symbol
_atom_site_label
_atom_site_fract_x
_atom_site_fract_y
_atom_site_fract_z
Si Si1 0.818956 0.358019 0.624074
Si Si2 0.318612 0.926288 0.187061
Si Si3 0.181207 0.417163 0.503511
Si Si4 0.318994 0.776859 0.312305
Si Si5 0.820015 0.503796 0.689054
Si Si6 0.823038 0.232525 0.188133
Si Si7 0.819277 0.358897 0.384345
Si Si8 0.822837 0.930791 0.811252
O O1 0.764036 0.375571 0.560182
O O2 0.726612 0.287435 0.644898
O O3 0.768059 0.425990 0.663438
O O4 0.000000 0.343355 0.627709
O O5 0.250000 0.931229 0.250000
O O6 0.500000 0.920961 0.187186
O O7 0.248201 0.852189 0.159803
O O8 0.262723 0.001842 0.155191
O O9 0.250838 0.500000 0.500000
O O10 0.234142 0.368724 0.449569
O O11 0.000000 0.425083 0.504615
O O12 0.250000 0.761680 0.250000
O O13 0.500000 0.782677 0.306375
O O14 0.750000 0.515810 0.750000
O O15 0.760142 0.569333 0.649154
O O16 0.000000 0.506891 0.693995
O O17 0.750000 0.244388 0.250000
O O18 0.754420 0.285990 0.141139
O O19 0.798255 0.150205 0.161620
O O20 0.000000 0.249842 0.196551
O O21 0.000000 0.351136 0.379792
O O22 0.750000 0.923311 0.750000
O O23 0.000000 0.951583 0.806272
#
# Coordination Sequence:
#
# PCOD8217578 Si02
#       8
#     8   8   8   8   8   8   8   8
#     4  10  19  33  52  72  95 125 164 207 248 292
#     4  10  17  27  45  69  97 129 163 196 236 285
#     4   9  16  32  56  75  92 121 165 211 252 294
#     4  11  21  33  48  70 102 134 165 200 243 293
#     4  10  20  31  46  68  95 126 159 196 240 291
#     4  10  20  32  47  70 102 136 166 202 244 292
#     4  10  19  32  51  73  95 126 165 205 248 293
#     4   9  16  27  43  65  95 130 164 195 235 284
#
# _framework density 17.155162000000001
#
# number of rings (size 3 to 8) (size 9 to 14) (size 15 to 20)
#    0.000    2.125    1.250    5.250    0.000    4.500 
#    0.000    0.625    0.000    0.750    0.000    0.875 
#    0.000    7.000    0.000    0.000    0.000    0.000 
#
# Total GULP energy -793284.631030 kJ/mol
# GULP energy per Si atom -12395.072360 kJ/mol
# Density = 1.711612 g / cm^3
# Si number density = 17.155162 Si / 1000 Ang^3
#
#
#
# Elastic Constant Matrix: (Units=GPa)
#
#
# Indices 1 2 3 4 5 6 
#
# 1 88.5552 55.8170 30.3234 0.0000 0.0000 0.0000
# 2 55.8170 141.5387 39.0814 0.0000 0.0000 0.0000
# 3 30.3234 39.0814 71.6887 0.0000 0.0000 0.0000
# 4 0.0000 0.0000 0.0000 5.9999 0.0000 0.0000
# 5 0.0000 0.0000 0.0000 0.0000 17.5649 0.0000
# 6 0.0000 0.0000 0.0000 0.0000 0.0000 30.1321
#
#
#
# Elastic Compliance Matrix: (Units=1/GPa)
#
#
# Indices 1 2 3 4 5 6 
#
# 1 0.015900 -0.005195 -0.003893 0.000000 0.000000 0.000000
# 2 -0.005195 0.010015 -0.003262 0.000000 0.000000 0.000000
# 3 -0.003893 -0.003262 0.017374 0.000000 0.000000 0.000000
# 4 0.000000 0.000000 0.000000 0.166671 0.000000 0.000000
# 5 0.000000 0.000000 0.000000 0.000000 0.056932 0.000000
# 6 0.000000 0.000000 0.000000 0.000000 0.000000 0.033187
#
#
# Mechanical properties :
#
#
# Convention : Reuss Voigt Hill
#
# Bulk Modulus (GPa) = 53.79839 61.35846 57.57843
# Shear Modulus (GPa) = 15.10682 22.51010 18.80846
#
# Velocity S-wave (km/s) = 2.97071 3.62629 3.31474
# Velocity P-wave (km/s) = 6.57227 7.30600 6.94883
#
# Compressibility (1/GPa) = 0.01858792
#
# Stress axis : x y z
#
# Youngs Moduli (GPa) = 62.89217 99.85279 57.55623
#
# Poissons Ratio (x) = 0.51877 0.22408
# Poissons Ratio (y) = 0.32675 0.18775
# Poissons Ratio (z) = 0.24486 0.32572
#
# Static dielectric constant tensor:
#      x y z
#    x 3.110720 0.000000 0.000000 
#    y 0.000000 4.006740 0.000000 
#    z 0.000000 0.000000 2.954480 
# 
# 
# High freq. dielectric constant tensor:
#      x y z
#    x 1.657910 0.000000 0.000000 
#    y 0.000000 1.682240 0.000000 
#    z 0.000000 0.000000 1.617960 
# 
# From -- ./inp_files/34524.got.cif
#   From: 2010.03.12/outbox.cif.g09.slc.cpg/sg53_18_cif.got.tgz:34524.got - 2010.04.16 14:36:59.
