data_PCOD8217376
_publ_section_title
;
Structure prediction by ZEFSAII (Michael W. Deem and Ramdas Pophale) SiO2 
 PCOD8217376
Probable space group: P N N A
;
_chemical_formula_sum "Si O2"
_cell_formula_units_Z 28
_cell_length_a 4.849304
_cell_length_b 8.834466
_cell_length_c 22.734746
_cell_angle_alpha 90.000000
_cell_angle_beta 90.000000
_cell_angle_gamma 90.000000
_cell_volume 973.979511
_symmetry_space_group_name_H-M "P N N A"
_symmetry_group_IT_number 52
_symmetry_cell_setting 'orthorhombic'
loop_
_space_group_symop_operation_xyz
x,y,z
1/2-x,-y,z
x,1/2-y,1/2-z
1/2-x,1/2+y,1/2-z
-x,-y,-z
1/2+x,y,-z
-x,1/2+y,1/2+z
1/2+x,1/2-y,1/2+z
loop_
_atom_site_type_symbol
_atom_site_label
_atom_site_fract_x
_atom_site_fract_y
_atom_site_fract_z
Si Si1 0.750000 0.000000 0.046484
Si Si2 0.056917 0.790504 0.467767
Si Si3 0.447191 0.732910 0.368230
Si Si4 0.250000 0.500000 0.274099
Si Si5 0.750000 0.000000 0.307579
O O1 0.616131 0.876584 0.089871
O O2 0.003958 0.892294 0.016240
O O3 0.259071 0.863155 0.518236
O O4 0.185099 0.808644 0.403023
O O5 0.330835 0.645037 0.312369
O O6 0.655062 0.862706 0.348560
O O7 0.500078 0.444870 0.233411
#
# Coordination Sequence:
#
# PCOD8217376 Si02
#       5
#     4   8   8   4   4
#     4  12  23  43  78 114 160 196 271 323 398 464
#     4  12  25  43  77 119 157 206 265 329 397 476
#     4  12  28  49  80 115 159 201 268 335 397 489
#     4  12  28  51  80 114 152 214 273 336 404 488
#     4  12  33  52  80 112 164 210 268 337 422 470
#
# _framework density 28.748038999999999
#
# number of rings (size 3 to 8) (size 9 to 14) (size 15 to 20)
#    0.000    0.000    5.714    2.571    4.000    4.571 
#    0.000    1.429    0.000    0.000    0.000    0.000 
#    0.000    0.000    0.000    0.000    0.000    0.000 
#
# Total GULP energy -347098.559922 kJ/mol
# GULP energy per Si atom -12396.377140 kJ/mol
# Density = 2.868261 g / cm^3
# Si number density = 28.748039 Si / 1000 Ang^3
#
#
#
# Elastic Constant Matrix: (Units=GPa)
#
#
# Indices 1 2 3 4 5 6 
#
# 1 233.0768 53.2844 88.3376 0.0000 0.0000 0.0000
# 2 53.2844 128.7158 63.7824 0.0000 0.0000 0.0000
# 3 88.3376 63.7824 187.8411 0.0000 0.0000 0.0000
# 4 0.0000 0.0000 0.0000 -167.4741 0.0000 0.0000
# 5 0.0000 0.0000 0.0000 0.0000 31.2291 0.0000
# 6 0.0000 0.0000 0.0000 0.0000 0.0000 34.8310
#
#
#
# Elastic Compliance Matrix: (Units=1/GPa)
#
#
# Indices 1 2 3 4 5 6 
#
# 1 0.005363 -0.001167 -0.002126 0.000000 0.000000 0.000000
# 2 -0.001167 0.009594 -0.002709 0.000000 0.000000 0.000000
# 3 -0.002126 -0.002709 0.007243 0.000000 0.000000 0.000000
# 4 0.000000 0.000000 0.000000 -0.005971 0.000000 0.000000
# 5 0.000000 0.000000 0.000000 0.000000 0.032021 0.000000
# 6 0.000000 0.000000 0.000000 0.000000 0.000000 0.028710
#
#
# Mechanical properties :
#
#
# Convention : Reuss Voigt Hill
#
# Bulk Modulus (GPa) = 98.06601 106.71582 102.39092
# Shear Modulus (GPa) = 54.13387 2.66584 28.39985
#
# Velocity S-wave (km/s) = 4.34411 0.96401 3.14648
# Velocity P-wave (km/s) = 7.70377 6.20006 6.99245
#
# Compressibility (1/GPa) = 0.01019721
#
# Stress axis : x y z
#
# Youngs Moduli (GPa) = 186.46742 104.22650 138.05771
#
# Poissons Ratio (x) = 0.12159 0.29350
# Poissons Ratio (y) = 0.21753 0.37403
# Poissons Ratio (z) = 0.39641 0.28237
#
# Static dielectric constant tensor:
#      x y z
#    x 6.244010 0.000000 0.000000 
#    y 0.000000 5.529940 0.000000 
#    z 0.000000 0.000000 5.660170 
# 
# 
# High freq. dielectric constant tensor:
#      x y z
#    x 2.209200 0.000000 0.000000 
#    y 0.000000 2.177010 0.000000 
#    z 0.000000 0.000000 2.188030 
# 
# From -- ./inp_files/41409.got.cif
#   From: 2010.06.25/outbox.cif.g09.slc.cpg/sg52_21_cif.got.tgz:41409.got - 2010.06.26 19:32:48.
