data_PCOD8217671
_publ_section_title
;
Structure prediction by ZEFSAII (Michael W. Deem and Ramdas Pophale) SiO2 
 PCOD8217671
Probable space group: P M N A
;
_chemical_formula_sum "Si O2"
_cell_formula_units_Z 64
_cell_length_a 8.891064
_cell_length_b 20.083098
_cell_length_c 22.598810
_cell_angle_alpha 90.000000
_cell_angle_beta 90.000000
_cell_angle_gamma 90.000000
_cell_volume 4035.245991
_symmetry_space_group_name_H-M "P M N A"
_symmetry_group_IT_number 53
_symmetry_cell_setting 'orthorhombic'
loop_
_space_group_symop_operation_xyz
x,y,z
1/2-x,-y,1/2+z
x,-y,-z
1/2-x,y,1/2-z
-x,-y,-z
1/2+x,y,1/2-z
-x,y,z
1/2+x,-y,1/2+z
loop_
_atom_site_type_symbol
_atom_site_label
_atom_site_fract_x
_atom_site_fract_y
_atom_site_fract_z
Si Si1 0.178133 0.891951 0.603884
Si Si2 0.323911 0.849030 0.482236
Si Si3 0.830880 0.411062 0.945927
Si Si4 0.170579 0.715889 0.471805
Si Si5 0.665977 0.031467 0.935517
Si Si6 0.829043 0.319531 0.391219
Si Si7 0.669422 0.553448 0.582989
Si Si8 0.677991 0.789614 0.686674
O O1 0.237175 0.859267 0.543562
O O2 0.257041 0.857853 0.659588
O O3 0.000000 0.879237 0.605839
O O4 0.216728 0.971014 0.607614
O O5 0.500000 0.850133 0.494656
O O6 0.274138 0.778675 0.454749
O O7 0.282103 0.907086 0.434984
O O8 0.774311 0.476712 0.910003
O O9 0.000000 0.393033 0.926128
O O10 0.724573 0.347771 0.933421
O O11 0.828955 0.427725 0.014680
O O12 0.186932 0.700911 0.540913
O O13 0.000000 0.731924 0.454225
O O14 0.500000 0.057735 0.917637
O O15 0.658206 0.000000 0.000000
O O16 0.777996 0.396213 0.381655
O O17 0.719930 0.272619 0.354163
O O18 0.000000 0.311788 0.368953
O O19 0.500000 0.560387 0.607799
O O20 0.750000 0.777742 0.750000
O O21 0.500000 0.795375 0.691989
#
# Coordination Sequence:
#
# PCOD8217671 Si02
#       8
#     8   8   8   8   8   8   8   8
#     4  10  19  33  48  62  82 108 140 177 219 262
#     4  11  19  26  41  63  86 113 145 178 212 255
#     4   8  14  24  37  55  79 106 139 174 207 245
#     4  10  18  26  39  57  84 115 144 178 213 251
#     4   8  16  29  44  60  82 109 136 172 213 255
#     4  10  19  30  44  60  80 108 142 180 216 257
#     4   8  14  25  40  56  77 105 137 174 211 248
#     4  12  24  36  50  65  84 110 143 185 226 264
#
# _framework density 15.860248
#
# number of rings (size 3 to 8) (size 9 to 14) (size 15 to 20)
#    0.000    2.375    1.250    4.875    0.000    4.250 
#    0.000    2.500    0.000    0.000    0.000    0.000 
#    0.000    0.000    0.000    1.125    0.000   17.250 
#
# Total GULP energy -793291.749691 kJ/mol
# GULP energy per Si atom -12395.183589 kJ/mol
# Density = 1.582415 g / cm^3
# Si number density = 15.860248 Si / 1000 Ang^3
#
#
#
# Elastic Constant Matrix: (Units=GPa)
#
#
# Indices 1 2 3 4 5 6 
#
# 1 107.0114 53.3969 16.4347 0.0000 0.0000 0.0000
# 2 53.3969 116.2788 17.1090 0.0000 0.0000 0.0000
# 3 16.4347 17.1090 19.3325 0.0000 0.0000 0.0000
# 4 0.0000 0.0000 0.0000 7.7064 0.0000 0.0000
# 5 0.0000 0.0000 0.0000 0.0000 14.3799 0.0000
# 6 0.0000 0.0000 0.0000 0.0000 0.0000 31.3351
#
#
#
# Elastic Compliance Matrix: (Units=1/GPa)
#
#
# Indices 1 2 3 4 5 6 
#
# 1 0.012802 -0.004918 -0.006531 0.000000 0.000000 0.000000
# 2 -0.004918 0.011777 -0.006242 0.000000 0.000000 0.000000
# 3 -0.006531 -0.006242 0.062802 0.000000 0.000000 0.000000
# 4 0.000000 0.000000 0.000000 0.129762 0.000000 0.000000
# 5 0.000000 0.000000 0.000000 0.000000 0.069541 0.000000
# 6 0.000000 0.000000 0.000000 0.000000 0.000000 0.031913
#
#
# Mechanical properties :
#
#
# Convention : Reuss Voigt Hill
#
# Bulk Modulus (GPa) = 19.23069 46.27824 32.75447
# Shear Modulus (GPa) = 13.46582 21.06310 17.26446
#
# Velocity S-wave (km/s) = 2.91697 3.64819 3.30288
# Velocity P-wave (km/s) = 4.84731 6.85476 5.93650
#
# Compressibility (1/GPa) = 0.05200021
#
# Stress axis : x y z
#
# Youngs Moduli (GPa) = 78.11484 84.91330 15.92311
#
# Poissons Ratio (x) = 0.41759 0.10399
# Poissons Ratio (y) = 0.38415 0.09939
# Poissons Ratio (z) = 0.51014 0.52999
#
# Static dielectric constant tensor:
#      x y z
#    x 3.125600 0.000000 0.000000 
#    y 0.000000 3.508910 0.000000 
#    z 0.000000 0.000000 2.497290 
# 
# 
# High freq. dielectric constant tensor:
#      x y z
#    x 1.619680 0.000000 0.000000 
#    y 0.000000 1.626550 0.000000 
#    z 0.000000 0.000000 1.523940 
# 
# From -- ./inp_files/31329.got.cif
#   From: 2010.03.12/outbox.cif.g09.slc.cpg/sg53_16_cif.got.tgz:31329.got - 2010.04.16 14:36:59.
