data_PCOD8217201
_publ_section_title
;
Structure prediction by ZEFSAII (Michael W. Deem and Ramdas Pophale) SiO2 
 PCOD8217201
Probable space group: P N N A
;
_chemical_formula_sum "Si O2"
_cell_formula_units_Z 32
_cell_length_a 10.430605
_cell_length_b 15.897337
_cell_length_c 8.759985
_cell_angle_alpha 90.000000
_cell_angle_beta 90.000000
_cell_angle_gamma 90.000000
_cell_volume 1452.570576
_symmetry_space_group_name_H-M "P N N A"
_symmetry_group_IT_number 52
_symmetry_cell_setting 'orthorhombic'
loop_
_space_group_symop_operation_xyz
x,y,z
1/2-x,-y,z
x,1/2-y,1/2-z
1/2-x,1/2+y,1/2-z
-x,-y,-z
1/2+x,y,-z
-x,1/2+y,1/2+z
1/2+x,1/2-y,1/2+z
loop_
_atom_site_type_symbol
_atom_site_label
_atom_site_fract_x
_atom_site_fract_y
_atom_site_fract_z
Si Si1 0.887296 0.236279 0.069296
Si Si2 0.877103 0.450997 0.558552
Si Si3 0.152637 0.300096 0.101898
Si Si4 0.384908 0.513172 0.112816
O O1 0.886982 0.250000 0.250000
O O2 0.029126 0.262934 0.011420
O O3 0.864582 0.141294 0.013582
O O4 0.776689 0.298303 0.007263
O O5 0.750000 0.500000 0.506493
O O6 0.888742 0.449321 0.743286
O O7 0.000000 0.500000 0.500000
O O8 0.193906 0.250000 0.250000
O O9 0.113148 0.390813 0.167605
O O10 0.250000 0.500000 0.023805
O O11 0.500000 0.500000 0.000000
#
# Coordination Sequence:
#
# PCOD8217201 Si02
#       4
#     8   8   8   8
#     4  11  24  42  65  98 132 172 219 270 329 395
#     4  11  23  42  66  95 131 173 218 271 328 389
#     4  11  23  42  63  93 132 168 212 268 323 386
#     4  11  24  42  65  96 129 171 218 269 323 386
#
# _framework density 22.029911999999999
#
# number of rings (size 3 to 8) (size 9 to 14) (size 15 to 20)
#    0.000    1.000    0.000    9.000    0.000    6.000 
#    0.000    0.000    0.000    0.000    0.000    0.000 
#    0.000    0.000    0.000    0.000    0.000    0.000 
#
# Total GULP energy -396703.768443 kJ/mol
# GULP energy per Si atom -12396.992764 kJ/mol
# Density = 2.197977 g / cm^3
# Si number density = 22.029912 Si / 1000 Ang^3
#
#
#
# Elastic Constant Matrix: (Units=GPa)
#
#
# Indices 1 2 3 4 5 6 
#
# 1 189.0340 9.9588 61.0116 0.0000 0.0000 0.0000
# 2 9.9588 114.1774 44.6020 0.0000 0.0000 0.0000
# 3 61.0116 44.6020 97.5295 0.0000 0.0000 0.0000
# 4 0.0000 0.0000 0.0000 29.6727 0.0000 0.0000
# 5 0.0000 0.0000 0.0000 0.0000 35.7124 0.0000
# 6 0.0000 0.0000 0.0000 0.0000 0.0000 31.1808
#
#
#
# Elastic Compliance Matrix: (Units=1/GPa)
#
#
# Indices 1 2 3 4 5 6 
#
# 1 0.006783 0.001298 -0.004837 0.000000 0.000000 0.000000
# 2 0.001298 0.010912 -0.005802 0.000000 0.000000 0.000000
# 3 -0.004837 -0.005802 0.015932 0.000000 0.000000 0.000000
# 4 0.000000 0.000000 0.000000 0.033701 0.000000 0.000000
# 5 0.000000 0.000000 0.000000 0.000000 0.028001 0.000000
# 6 0.000000 0.000000 0.000000 0.000000 0.000000 0.032071
#
#
# Mechanical properties :
#
#
# Convention : Reuss Voigt Hill
#
# Bulk Modulus (GPa) = 66.91156 70.20952 68.56054
# Shear Modulus (GPa) = 33.09877 38.32441 35.71159
#
# Velocity S-wave (km/s) = 3.88035 4.17544 4.03059
# Velocity P-wave (km/s) = 7.10740 7.42866 7.26980
#
# Compressibility (1/GPa) = 0.01494510
#
# Stress axis : x y z
#
# Youngs Moduli (GPa) = 147.43384 91.64611 62.76593
#
# Poissons Ratio (x) = -0.11893 0.30357
# Poissons Ratio (y) = -0.19133 0.36416
# Poissons Ratio (z) = 0.71307 0.53172
#
# Static dielectric constant tensor:
#      x y z
#    x 4.578140 0.000000 0.000000 
#    y 0.000000 4.166660 0.000000 
#    z 0.000000 0.000000 3.736700 
# 
# 
# High freq. dielectric constant tensor:
#      x y z
#    x 1.898430 0.000000 0.000000 
#    y 0.000000 1.879680 0.000000 
#    z 0.000000 0.000000 1.846010 
# 
# From -- ./inp_files/8196.got.cif
#   From: 2010.06.25/outbox.cif.g09.slc.cpg/sg52_5_cif.got.tgz:8196.got - 2010.06.26 19:32:48.
