data_PCOD8217315
_publ_section_title
;
Structure prediction by ZEFSAII (Michael W. Deem and Ramdas Pophale) SiO2 
 PCOD8217315
Probable space group: P N N A
;
_chemical_formula_sum "Si O2"
_cell_formula_units_Z 40
_cell_length_a 9.425501
_cell_length_b 8.533576
_cell_length_c 20.930756
_cell_angle_alpha 90.000000
_cell_angle_beta 90.000000
_cell_angle_gamma 90.000000
_cell_volume 1683.528293
_symmetry_space_group_name_H-M "P N N A"
_symmetry_group_IT_number 52
_symmetry_cell_setting 'orthorhombic'
loop_
_space_group_symop_operation_xyz
x,y,z
1/2-x,-y,z
x,1/2-y,1/2-z
1/2-x,1/2+y,1/2-z
-x,-y,-z
1/2+x,y,-z
-x,1/2+y,1/2+z
1/2+x,1/2-y,1/2+z
loop_
_atom_site_type_symbol
_atom_site_label
_atom_site_fract_x
_atom_site_fract_y
_atom_site_fract_z
Si Si1 0.887462 0.086691 0.858001
Si Si2 0.908206 0.436965 0.827506
Si Si3 0.594129 0.926060 0.221917
Si Si4 0.369630 0.392293 0.503503
Si Si5 0.091717 0.562966 0.942495
O O1 0.916725 0.250605 0.823717
O O2 0.843709 0.148203 0.929205
O O3 0.750000 0.000000 0.828945
O O4 0.025425 0.966584 0.848932
O O5 0.750000 0.500000 0.840007
O O6 0.969968 0.486996 0.760025
O O7 0.015982 0.514798 0.877842
O O8 0.601973 0.750000 0.250000
O O9 0.750000 0.000000 0.228339
O O10 0.250000 0.500000 0.534950
O O11 0.500000 0.500000 0.500000
O O12 0.395900 0.248476 0.550528
O O13 0.250000 0.500000 0.944489
O O14 0.000000 0.500000 0.000000
#
# Coordination Sequence:
#
# PCOD8217315 Si02
#       5
#     8   8   8   8   8
#     4  11  25  46  72 104 144 190 244 293 362 430
#     4  12  26  46  76 106 146 193 243 300 362 436
#     4  12  27  49  76 108 145 187 241 303 368 434
#     4  11  26  43  70 103 147 193 238 297 355 428
#     4  12  25  45  72 106 146 193 245 295 362 431
#
# _framework density 23.759623999999999
#
# number of rings (size 3 to 8) (size 9 to 14) (size 15 to 20)
#    0.000    0.400    2.000    6.000    8.400    0.800 
#    0.000    0.000    0.000    0.000    0.000    0.000 
#    0.000    0.000    0.000    0.000    0.000    0.000 
#
# Total GULP energy -495549.181445 kJ/mol
# GULP energy per Si atom -12388.729536 kJ/mol
# Density = 2.370555 g / cm^3
# Si number density = 23.759624 Si / 1000 Ang^3
#
#
#
# Elastic Constant Matrix: (Units=GPa)
#
#
# Indices 1 2 3 4 5 6 
#
# 1 200.2730 73.9329 17.9963 0.0000 0.0000 0.0000
# 2 73.9329 203.5779 17.1617 0.0000 0.0000 0.0000
# 3 17.9963 17.1617 37.3906 0.0000 0.0000 0.0000
# 4 0.0000 0.0000 0.0000 37.0002 0.0000 0.0000
# 5 0.0000 0.0000 0.0000 0.0000 36.1306 0.0000
# 6 0.0000 0.0000 0.0000 0.0000 0.0000 53.5194
#
#
#
# Elastic Compliance Matrix: (Units=1/GPa)
#
#
# Indices 1 2 3 4 5 6 
#
# 1 0.005897 -0.001979 -0.001930 0.000000 0.000000 0.000000
# 2 -0.001979 0.005774 -0.001698 0.000000 0.000000 0.000000
# 3 -0.001930 -0.001698 0.028453 0.000000 0.000000 0.000000
# 4 0.000000 0.000000 0.000000 0.027027 0.000000 0.000000
# 5 0.000000 0.000000 0.000000 0.000000 0.027677 0.000000
# 6 0.000000 0.000000 0.000000 0.000000 0.000000 0.018685
#
#
# Mechanical properties :
#
#
# Convention : Reuss Voigt Hill
#
# Bulk Modulus (GPa) = 34.58933 73.26925 53.92929
# Shear Modulus (GPa) = 37.21258 47.47343 42.34300
#
# Velocity S-wave (km/s) = 3.96183 4.47483 4.22612
# Velocity P-wave (km/s) = 5.95968 7.58969 6.82353
#
# Compressibility (1/GPa) = 0.02891065
#
# Stress axis : x y z
#
# Youngs Moduli (GPa) = 169.57292 173.19230 35.14585
#
# Poissons Ratio (x) = 0.34274 0.06783
# Poissons Ratio (y) = 0.33558 0.05967
# Poissons Ratio (z) = 0.32728 0.29402
#
# Static dielectric constant tensor:
#      x y z
#    x 4.370950 0.000000 0.000000 
#    y 0.000000 3.941660 0.000000 
#    z 0.000000 0.000000 -3.117760 
# 
# 
# High freq. dielectric constant tensor:
#      x y z
#    x 1.960950 0.000000 0.000000 
#    y 0.000000 1.956230 0.000000 
#    z 0.000000 0.000000 1.955310 
# 
# From -- ./inp_files/39166.got.cif
#   From: 2010.06.25/outbox.cif.g09.slc.cpg/sg52_20_cif.got.tgz:39166.got - 2010.06.26 19:32:48.
