data_PCOD8217309
_publ_section_title
;
Structure prediction by ZEFSAII (Michael W. Deem and Ramdas Pophale) SiO2 
 PCOD8217309
Probable space group: P N N A
;
_chemical_formula_sum "Si O2"
_cell_formula_units_Z 32
_cell_length_a 34.809237
_cell_length_b 4.805621
_cell_length_c 8.078166
_cell_angle_alpha 90.000000
_cell_angle_beta 90.000000
_cell_angle_gamma 90.000000
_cell_volume 1351.315611
_symmetry_space_group_name_H-M "P N N A"
_symmetry_group_IT_number 52
_symmetry_cell_setting 'orthorhombic'
loop_
_space_group_symop_operation_xyz
x,y,z
1/2-x,-y,z
x,1/2-y,1/2-z
1/2-x,1/2+y,1/2-z
-x,-y,-z
1/2+x,y,-z
-x,1/2+y,1/2+z
1/2+x,1/2-y,1/2+z
loop_
_atom_site_type_symbol
_atom_site_label
_atom_site_fract_x
_atom_site_fract_y
_atom_site_fract_z
Si Si1 0.831755 0.628408 0.068841
Si Si2 0.460937 0.127718 0.068109
Si Si3 0.790901 0.119316 0.930676
Si Si4 0.580727 0.138313 0.433233
O O1 0.825368 0.750000 0.250000
O O2 0.875677 0.539796 0.036974
O O3 0.804971 0.358056 0.055367
O O4 0.820560 0.862392 0.933819
O O5 0.466329 0.250000 0.250000
O O6 0.552685 0.623617 0.050008
O O7 0.500000 0.000000 0.000000
O O8 0.429469 0.880777 0.065112
O O9 0.788130 0.250000 0.750000
O O10 0.750000 0.000000 0.989546
O O11 0.574264 0.250000 0.250000
#
# Coordination Sequence:
#
# PCOD8217309 Si02
#       4
#     8   8   8   8
#     4  11  25  45  71 102 135 176 226 282 341 402
#     4  12  26  45  69 102 139 179 228 278 336 403
#     4  12  25  44  68  99 139 180 225 278 338 403
#     4  11  25  46  71 101 138 177 223 282 343 402
#
# _framework density 23.680624999999999
#
# number of rings (size 3 to 8) (size 9 to 14) (size 15 to 20)
#    0.000    0.500    0.000    8.250    0.000   14.000 
#    0.000    1.250    0.000    0.000    0.000    0.000 
#    0.000    0.000    0.000    0.000    0.000    0.000 
#
# Total GULP energy -396971.796283 kJ/mol
# GULP energy per Si atom -12405.368634 kJ/mol
# Density = 2.362673 g / cm^3
# Si number density = 23.680625 Si / 1000 Ang^3
#
#
#
# Elastic Constant Matrix: (Units=GPa)
#
#
# Indices 1 2 3 4 5 6 
#
# 1 178.1302 103.0803 90.9894 0.0000 0.0000 0.0000
# 2 103.0803 191.3066 56.1032 0.0000 0.0000 0.0000
# 3 90.9894 56.1032 90.2141 0.0000 0.0000 0.0000
# 4 0.0000 0.0000 0.0000 45.8961 0.0000 0.0000
# 5 0.0000 0.0000 0.0000 0.0000 -34.2325 0.0000
# 6 0.0000 0.0000 0.0000 0.0000 0.0000 5.7747
#
#
#
# Elastic Compliance Matrix: (Units=1/GPa)
#
#
# Indices 1 2 3 4 5 6 
#
# 1 0.013786 -0.004098 -0.011356 0.000000 0.000000 0.000000
# 2 -0.004098 0.007611 -0.000600 0.000000 0.000000 0.000000
# 3 -0.011356 -0.000600 0.022912 0.000000 0.000000 0.000000
# 4 0.000000 0.000000 0.000000 0.021788 0.000000 0.000000
# 5 0.000000 0.000000 0.000000 0.000000 -0.029212 0.000000
# 6 0.000000 0.000000 0.000000 0.000000 0.000000 0.173168
#
#
# Mechanical properties :
#
#
# Convention : Reuss Voigt Hill
#
# Bulk Modulus (GPa) = 81.96350 106.66631 94.31490
# Shear Modulus (GPa) = 20.30641 17.45287 18.87964
#
# Velocity S-wave (km/s) = 2.93151 2.71774 2.82664
# Velocity P-wave (km/s) = 6.79305 7.41550 7.11109
#
# Compressibility (1/GPa) = 0.01220055
#
# Stress axis : x y z
#
# Youngs Moduli (GPa) = 72.53823 131.38400 43.64614
#
# Poissons Ratio (x) = 0.53839 0.49564
# Poissons Ratio (y) = 0.29725 0.02620
# Poissons Ratio (z) = 0.82374 0.07887
#
# Static dielectric constant tensor:
#      x y z
#    x 4.452240 0.000000 0.000000 
#    y 0.000000 4.770050 0.000000 
#    z 0.000000 0.000000 4.165360 
# 
# 
# High freq. dielectric constant tensor:
#      x y z
#    x 1.946540 0.000000 0.000000 
#    y 0.000000 1.964960 0.000000 
#    z 0.000000 0.000000 1.934960 
# 
# From -- ./inp_files/15180.got.cif
#   From: 2010.06.25/outbox.cif.g09.slc.cpg/sg52_8_cif.got.tgz:15180.got - 2010.06.26 19:32:48.
