data_PCOD8217065
_publ_section_title
;
Structure prediction by ZEFSAII (Michael W. Deem and Ramdas Pophale) SiO2 
 PCOD8217065
Probable space group: P N N A
;
_chemical_formula_sum "Si O2"
_cell_formula_units_Z 64
_cell_length_a 15.270010
_cell_length_b 17.580245
_cell_length_c 11.784136
_cell_angle_alpha 90.000000
_cell_angle_beta 90.000000
_cell_angle_gamma 90.000000
_cell_volume 3163.457401
_symmetry_space_group_name_H-M "P N N A"
_symmetry_group_IT_number 52
_symmetry_cell_setting 'orthorhombic'
loop_
_space_group_symop_operation_xyz
x,y,z
1/2-x,-y,z
x,1/2-y,1/2-z
1/2-x,1/2+y,1/2-z
-x,-y,-z
1/2+x,y,-z
-x,1/2+y,1/2+z
1/2+x,1/2-y,1/2+z
loop_
_atom_site_type_symbol
_atom_site_label
_atom_site_fract_x
_atom_site_fract_y
_atom_site_fract_z
Si Si1 0.334059 0.642426 0.049187
Si Si2 0.924793 0.906885 0.942924
Si Si3 0.009101 0.250822 0.115012
Si Si4 0.914009 0.993298 0.421682
Si Si5 0.024111 0.460349 0.674493
Si Si6 0.141091 0.652117 0.988078
Si Si7 0.401303 0.337448 0.238077
Si Si8 0.774559 0.587826 0.714379
O O1 0.410515 0.704641 0.056326
O O2 0.327211 0.599903 0.169358
O O3 0.358370 0.579341 0.957299
O O4 0.241360 0.680150 0.009519
O O5 0.989537 0.834337 0.935856
O O6 0.830380 0.884607 0.893565
O O7 0.911594 0.940056 0.069699
O O8 0.959658 0.972334 0.860146
O O9 0.021812 0.250000 0.250000
O O10 0.914665 0.287598 0.085568
O O11 0.856804 0.069762 0.429954
O O12 0.928554 0.985791 0.287917
O O13 0.000000 0.000000 0.500000
O O14 0.972521 0.382764 0.692376
O O15 0.092302 0.639043 0.107208
O O16 0.423455 0.250000 0.250000
O O17 0.307315 0.356142 0.290538
O O18 0.750000 0.500000 0.704575
#
# Coordination Sequence:
#
# PCOD8217065 Si02
#       8
#     8   8   8   8   8   8   8   8
#     4  11  23  39  68 100 130 169 225 282 338 399
#     4  11  24  40  59  93 128 172 215 266 330 414
#     4  12  23  42  66  98 137 179 224 276 344 416
#     4  12  20  40  68  94 126 170 223 277 338 400
#     4  11  23  42  63  88 126 174 215 264 337 401
#     4  11  24  39  64  99 129 169 220 285 335 395
#     4  11  22  37  65  97 125 160 218 279 331 389
#     4  11  21  38  63  93 127 165 216 276 325 387
#
# _framework density 20.231031000000002
#
# number of rings (size 3 to 8) (size 9 to 14) (size 15 to 20)
#    0.000    0.750    5.000    4.125    3.500    0.000 
#    0.000    2.500    0.000    0.000    0.000    0.000 
#    0.000    0.000    0.000    0.000    0.000    0.000 
#
# Total GULP energy -793688.031676 kJ/mol
# GULP energy per Si atom -12401.375495 kJ/mol
# Density = 2.018498 g / cm^3
# Si number density = 20.231031 Si / 1000 Ang^3
#
#
#
# Elastic Constant Matrix: (Units=GPa)
#
#
# Indices 1 2 3 4 5 6 
#
# 1 82.1284 33.8506 42.7529 0.0000 0.0000 0.0000
# 2 33.8506 128.8497 30.6489 0.0000 0.0000 0.0000
# 3 42.7529 30.6489 129.2668 0.0000 0.0000 0.0000
# 4 0.0000 0.0000 0.0000 -9.0831 0.0000 0.0000
# 5 0.0000 0.0000 0.0000 0.0000 30.8945 0.0000
# 6 0.0000 0.0000 0.0000 0.0000 0.0000 21.1926
#
#
#
# Elastic Compliance Matrix: (Units=1/GPa)
#
#
# Indices 1 2 3 4 5 6 
#
# 1 0.015782 -0.003078 -0.004490 0.000000 0.000000 0.000000
# 2 -0.003078 0.008825 -0.001074 0.000000 0.000000 0.000000
# 3 -0.004490 -0.001074 0.009476 0.000000 0.000000 0.000000
# 4 0.000000 0.000000 0.000000 -0.110094 0.000000 0.000000
# 5 0.000000 0.000000 0.000000 0.000000 0.032368 0.000000
# 6 0.000000 0.000000 0.000000 0.000000 0.000000 0.047186
#
#
# Mechanical properties :
#
#
# Convention : Reuss Voigt Hill
#
# Bulk Modulus (GPa) = 59.53060 61.63884 60.58472
# Shear Modulus (GPa) = 189.20057 24.13363 106.66710
#
# Velocity S-wave (km/s) = 9.68106 3.45759 7.26904
# Velocity P-wave (km/s) = 12.42792 6.81715 10.02314
#
# Compressibility (1/GPa) = 0.01679808
#
# Stress axis : x y z
#
# Youngs Moduli (GPa) = 63.36330 113.31170 105.53412
#
# Poissons Ratio (x) = 0.34879 0.47383
# Poissons Ratio (y) = 0.19504 0.11338
# Poissons Ratio (z) = 0.28449 0.12174
#
# Static dielectric constant tensor:
#      x y z
#    x 3.617900 0.000000 0.000000 
#    y 0.000000 3.457240 0.000000 
#    z 0.000000 0.000000 3.728570 
# 
# 
# High freq. dielectric constant tensor:
#      x y z
#    x 1.777780 0.000000 0.000000 
#    y 0.000000 1.801960 0.000000 
#    z 0.000000 0.000000 1.790710 
# 
# From -- ./inp_files/19857.got.cif
#   From: 2010.06.25/outbox.cif.g09.slc.cpg/sg52_10_cif.got.tgz:19857.got - 2010.06.26 19:32:48.
