data_PCOD8217868
_publ_section_title
;
Structure prediction by ZEFSAII (Michael W. Deem and Ramdas Pophale) SiO2 
 PCOD8217868
Probable space group: P M N A
;
_chemical_formula_sum "Si O2"
_cell_formula_units_Z 64
_cell_length_a 26.942120
_cell_length_b 10.105219
_cell_length_c 14.406525
_cell_angle_alpha 90.000000
_cell_angle_beta 90.000000
_cell_angle_gamma 90.000000
_cell_volume 3922.263201
_symmetry_space_group_name_H-M "P M N A"
_symmetry_group_IT_number 53
_symmetry_cell_setting 'orthorhombic'
loop_
_space_group_symop_operation_xyz
x,y,z
1/2-x,-y,1/2+z
x,-y,-z
1/2-x,y,1/2-z
-x,-y,-z
1/2+x,y,1/2-z
-x,y,z
1/2+x,-y,1/2+z
loop_
_atom_site_type_symbol
_atom_site_label
_atom_site_fract_x
_atom_site_fract_y
_atom_site_fract_z
Si Si1 0.304203 0.850847 0.208774
Si Si2 0.880339 0.755033 0.827690
Si Si3 0.608518 0.240210 0.661302
Si Si4 0.557290 0.008122 0.393842
Si Si5 0.558427 0.495213 0.389514
Si Si6 0.827339 0.157802 0.001647
Si Si7 0.698929 0.834651 0.802129
Si Si8 0.281879 0.155558 0.991038
O O1 0.250000 0.811168 0.250000
O O2 0.348607 0.776179 0.261834
O O3 0.309998 0.009172 0.215521
O O4 0.311831 0.802692 0.101594
O O5 0.909796 0.620837 0.843939
O O6 0.834915 0.783782 0.896873
O O7 0.850356 0.755845 0.730979
O O8 0.919450 0.872452 0.836962
O O9 0.568136 0.122911 0.665982
O O10 0.578277 0.376275 0.665076
O O11 0.633005 0.231118 0.561125
O O12 0.500000 0.037686 0.399458
O O13 0.578446 0.000000 0.500000
O O14 0.567545 0.500000 0.500000
O O15 0.500000 0.476632 0.368907
O O16 0.773558 0.202991 0.968453
O O17 0.832812 0.000000 0.000000
O O18 0.750000 0.792535 0.750000
O O19 0.699843 0.789212 0.910198
O O20 0.282019 0.000000 0.000000
#
# Coordination Sequence:
#
# PCOD8217868 Si02
#       8
#     8   8   8   8   8   8   8   8
#     4  10  18  29  51  81 109 138 173 209 252 306
#     4  12  19  33  51  74 105 143 172 207 257 312
#     4  12  19  33  51  74 105 143 172 207 257 312
#     4  11  20  30  49  75  99 127 173 224 259 301
#     4  11  24  38  51  73 107 141 173 214 267 319
#     4  11  16  27  50  80 106 135 173 207 247 300
#     4  10  18  29  51  81 109 138 173 209 252 306
#     4   9  18  28  47  80 115 139 169 209 251 300
#
# _framework density 16.31711
#
# number of rings (size 3 to 8) (size 9 to 14) (size 15 to 20)
#    0.000    1.250    7.500    0.750    0.000    2.000 
#    0.000    0.625    0.000    0.750    0.000    5.250 
#    0.000    0.000    0.000    0.000    0.000    0.000 
#
# Total GULP energy -792986.489317 kJ/mol
# GULP energy per Si atom -12390.413896 kJ/mol
# Density = 1.627997 g / cm^3
# Si number density = 16.317110 Si / 1000 Ang^3
#
#
#
# Elastic Constant Matrix: (Units=GPa)
#
#
# Indices 1 2 3 4 5 6 
#
# 1 95.6560 38.6298 44.5782 0.0000 0.0000 0.0000
# 2 38.6298 87.2696 25.3518 0.0000 0.0000 0.0000
# 3 44.5782 25.3518 91.3557 0.0000 0.0000 0.0000
# 4 0.0000 0.0000 0.0000 10.9992 0.0000 0.0000
# 5 0.0000 0.0000 0.0000 0.0000 28.5851 0.0000
# 6 0.0000 0.0000 0.0000 0.0000 0.0000 8.0154
#
#
#
# Elastic Compliance Matrix: (Units=1/GPa)
#
#
# Indices 1 2 3 4 5 6 
#
# 1 0.015312 -0.005011 -0.006081 0.000000 0.000000 0.000000
# 2 -0.005011 0.014104 -0.001469 0.000000 0.000000 0.000000
# 3 -0.006081 -0.001469 0.014321 0.000000 0.000000 0.000000
# 4 0.000000 0.000000 0.000000 0.090916 0.000000 0.000000
# 5 0.000000 0.000000 0.000000 0.000000 0.034983 0.000000
# 6 0.000000 0.000000 0.000000 0.000000 0.000000 0.124760
#
#
# Mechanical properties :
#
#
# Convention : Reuss Voigt Hill
#
# Bulk Modulus (GPa) = 53.72022 54.60011 54.16016
# Shear Modulus (GPa) = 15.35053 20.56802 17.95928
#
# Velocity S-wave (km/s) = 3.07051 3.55423 3.32119
# Velocity P-wave (km/s) = 6.75017 7.09774 6.92614
#
# Compressibility (1/GPa) = 0.01861497
#
# Stress axis : x y z
#
# Youngs Moduli (GPa) = 65.30944 70.90403 69.82739
#
# Poissons Ratio (x) = 0.35532 0.42461
# Poissons Ratio (y) = 0.32728 0.10254
# Poissons Ratio (z) = 0.39714 0.10413
#
# Static dielectric constant tensor:
#      x y z
#    x 3.104060 0.000000 0.000000 
#    y 0.000000 2.837700 0.000000 
#    z 0.000000 0.000000 3.247690 
# 
# 
# High freq. dielectric constant tensor:
#      x y z
#    x 1.632010 0.000000 0.000000 
#    y 0.000000 1.596610 0.000000 
#    z 0.000000 0.000000 1.610820 
# 
# From -- ./inp_files/25239.got.cif
#   From: 2010.03.12/outbox.cif.g09.slc.cpg/sg53_13_cif.got.tgz:25239.got - 2010.04.16 14:36:59.
