data_PCOD8217959
_publ_section_title
;
Structure prediction by ZEFSAII (Michael W. Deem and Ramdas Pophale) SiO2 
 PCOD8217959
Probable space group: P M N A
;
_chemical_formula_sum "Si O2"
_cell_formula_units_Z 40
_cell_length_a 8.682380
_cell_length_b 26.169430
_cell_length_c 9.144732
_cell_angle_alpha 90.000000
_cell_angle_beta 90.000000
_cell_angle_gamma 90.000000
_cell_volume 2077.801403
_symmetry_space_group_name_H-M "P M N A"
_symmetry_group_IT_number 53
_symmetry_cell_setting 'orthorhombic'
loop_
_space_group_symop_operation_xyz
x,y,z
1/2-x,-y,1/2+z
x,-y,-z
1/2-x,y,1/2-z
-x,-y,-z
1/2+x,y,1/2-z
-x,y,z
1/2+x,-y,1/2+z
loop_
_atom_site_type_symbol
_atom_site_label
_atom_site_fract_x
_atom_site_fract_y
_atom_site_fract_z
Si Si1 0.681522 0.049541 0.409419
Si Si2 0.182383 0.450891 0.089408
Si Si3 0.682893 0.848283 0.912333
Si Si4 0.682569 0.744979 0.589227
Si Si5 0.318182 0.353483 0.589998
O O1 0.750000 0.041644 0.250000
O O2 0.500000 0.057291 0.399288
O O3 0.755561 0.099705 0.488629
O O4 0.728905 0.000000 0.500000
O O5 0.250000 0.452485 0.250000
O O6 0.000000 0.450433 0.101995
O O7 0.241253 0.500000 0.000000
O O8 0.243864 0.400671 0.006155
O O9 0.750000 0.849422 0.750000
O O10 0.500000 0.847040 0.912840
O O11 0.749121 0.796602 0.985689
O O12 0.750000 0.735842 0.750000
O O13 0.500000 0.749421 0.601556
O O14 0.736209 0.698605 0.487038
O O15 0.250000 0.356987 0.750000
O O16 0.500000 0.355826 0.603013
#
# Coordination Sequence:
#
# PCOD8217959 Si02
#       5
#     8   8   8   8   8
#     4  10  20  34  53  77 105 137 173 214 260 310
#     4  10  21  37  57  83 112 142 180 222 265 315
#     4  10  18  30  51  76 102 134 172 213 260 311
#     4  10  19  33  53  77 103 132 172 217 261 311
#     4  10  22  37  54  78 108 142 178 218 263 314
#
# _framework density 19.251118999999999
#
# number of rings (size 3 to 8) (size 9 to 14) (size 15 to 20)
#    0.000    2.000    0.000    6.600    0.000    4.400 
#    0.000    1.000    0.000    0.000    0.000    0.000 
#    0.000    0.000    0.000    0.000    0.000    0.000 
#
# Total GULP energy -495953.510481 kJ/mol
# GULP energy per Si atom -12398.837762 kJ/mol
# Density = 1.920730 g / cm^3
# Si number density = 19.251119 Si / 1000 Ang^3
#
#
#
# Elastic Constant Matrix: (Units=GPa)
#
#
# Indices 1 2 3 4 5 6 
#
# 1 81.2024 65.0375 33.8405 0.0000 0.0000 0.0000
# 2 65.0375 227.5541 88.4763 0.0000 0.0000 0.0000
# 3 33.8405 88.4763 114.7366 0.0000 0.0000 0.0000
# 4 0.0000 0.0000 0.0000 36.1622 0.0000 0.0000
# 5 0.0000 0.0000 0.0000 0.0000 30.3915 0.0000
# 6 0.0000 0.0000 0.0000 0.0000 0.0000 -82.5211
#
#
#
# Elastic Compliance Matrix: (Units=1/GPa)
#
#
# Indices 1 2 3 4 5 6 
#
# 1 0.016207 -0.003961 -0.001725 0.000000 0.000000 0.000000
# 2 -0.003961 0.007245 -0.004418 0.000000 0.000000 0.000000
# 3 -0.001725 -0.004418 0.012631 0.000000 0.000000 0.000000
# 4 0.000000 0.000000 0.000000 0.027653 0.000000 0.000000
# 5 0.000000 0.000000 0.000000 0.000000 0.032904 0.000000
# 6 0.000000 0.000000 0.000000 0.000000 0.000000 -0.012118
#
#
# Mechanical properties :
#
#
# Convention : Reuss Voigt Hill
#
# Bulk Modulus (GPa) = 62.99962 88.68909 75.84436
# Shear Modulus (GPa) = 45.44545 12.54912 28.99728
#
# Velocity S-wave (km/s) = 4.86394 2.55593 3.88527
# Velocity P-wave (km/s) = 8.02123 7.40810 7.72075
#
# Compressibility (1/GPa) = 0.01587311
#
# Stress axis : x y z
#
# Youngs Moduli (GPa) = 61.70334 138.03506 79.16747
#
# Poissons Ratio (x) = 0.54678 0.13660
# Poissons Ratio (y) = 0.24442 0.34977
# Poissons Ratio (z) = 0.10647 0.60986
#
# Static dielectric constant tensor:
#      x y z
#    x 3.489550 0.000000 0.000000 
#    y 0.000000 4.570160 0.000000 
#    z 0.000000 0.000000 3.231710 
# 
# 
# High freq. dielectric constant tensor:
#      x y z
#    x 1.753660 0.000000 0.000000 
#    y 0.000000 1.780750 0.000000 
#    z 0.000000 0.000000 1.718300 
# 
# From -- ./inp_files/6433.got.cif
#   From: 2010.03.12/outbox.cif.g09.slc.cpg/sg53_4_cif.got.tgz:6433.got - 2010.04.16 14:36:59.
