data_PCOD8217972
_publ_section_title
;
Structure prediction by ZEFSAII (Michael W. Deem and Ramdas Pophale) SiO2 
 PCOD8217972
Probable space group: P M N A
;
_chemical_formula_sum "Si O2"
_cell_formula_units_Z 56
_cell_length_a 16.560865
_cell_length_b 14.408932
_cell_length_c 13.276323
_cell_angle_alpha 90.000000
_cell_angle_beta 90.000000
_cell_angle_gamma 90.000000
_cell_volume 3168.054313
_symmetry_space_group_name_H-M "P M N A"
_symmetry_group_IT_number 53
_symmetry_cell_setting 'orthorhombic'
loop_
_space_group_symop_operation_xyz
x,y,z
1/2-x,-y,1/2+z
x,-y,-z
1/2-x,y,1/2-z
-x,-y,-z
1/2+x,y,1/2-z
-x,y,z
1/2+x,-y,1/2+z
loop_
_atom_site_type_symbol
_atom_site_label
_atom_site_fract_x
_atom_site_fract_y
_atom_site_fract_z
Si Si1 0.263078 0.233783 0.942715
Si Si2 0.672202 0.625441 0.314433
Si Si3 0.137470 0.096242 0.879897
Si Si4 0.407406 0.450784 0.393185
Si Si5 0.300745 0.271751 0.350823
Si Si6 0.090353 0.219075 0.699049
Si Si7 0.591073 0.108021 0.399893
O O1 0.207485 0.322535 0.912756
O O2 0.226064 0.139166 0.896427
O O3 0.353013 0.228926 0.898967
O O4 0.263619 0.239151 0.063715
O O5 0.750000 0.605480 0.250000
O O6 0.626854 0.528452 0.319903
O O7 0.605111 0.690837 0.265950
O O8 0.102411 0.130948 0.773016
O O9 0.141237 0.985134 0.876121
O O10 0.086932 0.128113 0.979390
O O11 0.401825 0.500000 0.500000
O O12 0.500000 0.423358 0.367386
O O13 0.350443 0.362042 0.383913
O O14 0.250000 0.289811 0.250000
O O15 0.365884 0.189785 0.337914
O O16 0.000000 0.217270 0.656468
O O17 0.500000 0.097457 0.359820
#
# Coordination Sequence:
#
# PCOD8217972 Si02
#       7
#     8   8   8   8   8   8   8
#     4   9  19  34  51  77 106 136 179 218 259 316
#     4   9  17  32  53  76 107 134 161 210 267 325
#     4   9  17  31  54  81 110 140 170 216 275 316
#     4  11  21  34  55  80 101 129 169 222 274 318
#     4  11  23  38  53  73 104 147 182 213 263 323
#     4  10  18  30  52  81 108 138 173 216 264 312
#     4  10  19  33  53  82 111 137 174 222 266 311
#
# _framework density 17.676466000000001
#
# number of rings (size 3 to 8) (size 9 to 14) (size 15 to 20)
#    0.000    2.143    1.429    4.286    0.000    1.143 
#    0.000    1.429    0.000    0.000    0.000   15.000 
#    0.000    0.000    0.000    0.000    0.000    0.000 
#
# Total GULP energy -693849.134799 kJ/mol
# GULP energy per Si atom -12390.163121 kJ/mol
# Density = 1.763623 g / cm^3
# Si number density = 17.676466 Si / 1000 Ang^3
#
#
#
# Elastic Constant Matrix: (Units=GPa)
#
#
# Indices 1 2 3 4 5 6 
#
# 1 100.6312 44.0337 38.4098 0.0000 0.0000 0.0000
# 2 44.0337 108.2313 23.9481 0.0000 0.0000 0.0000
# 3 38.4098 23.9481 65.0934 0.0000 0.0000 0.0000
# 4 0.0000 0.0000 0.0000 15.4842 0.0000 0.0000
# 5 0.0000 0.0000 0.0000 0.0000 47.1947 0.0000
# 6 0.0000 0.0000 0.0000 0.0000 0.0000 62.3588
#
#
#
# Elastic Compliance Matrix: (Units=1/GPa)
#
#
# Indices 1 2 3 4 5 6 
#
# 1 0.014498 -0.004361 -0.006951 0.000000 0.000000 0.000000
# 2 -0.004361 0.011370 -0.001610 0.000000 0.000000 0.000000
# 3 -0.006951 -0.001610 0.020056 0.000000 0.000000 0.000000
# 4 0.000000 0.000000 0.000000 0.064582 0.000000 0.000000
# 5 0.000000 0.000000 0.000000 0.000000 0.021189 0.000000
# 6 0.000000 0.000000 0.000000 0.000000 0.000000 0.016036
#
#
# Mechanical properties :
#
#
# Convention : Reuss Voigt Hill
#
# Bulk Modulus (GPa) = 49.79628 54.08210 51.93919
# Shear Modulus (GPa) = 27.73645 36.17849 31.95747
#
# Velocity S-wave (km/s) = 3.96551 4.52896 4.25657
# Velocity P-wave (km/s) = 7.01421 7.61647 7.32153
#
# Compressibility (1/GPa) = 0.02008182
#
# Stress axis : x y z
#
# Youngs Moduli (GPa) = 68.97296 87.95211 49.85959
#
# Poissons Ratio (x) = 0.38353 0.34656
# Poissons Ratio (y) = 0.30077 0.08027
# Poissons Ratio (z) = 0.47942 0.14159
#
# Static dielectric constant tensor:
#      x y z
#    x 3.201480 0.000000 0.000000 
#    y 0.000000 3.184450 0.000000 
#    z 0.000000 0.000000 3.038350 
# 
# 
# High freq. dielectric constant tensor:
#      x y z
#    x 1.677330 0.000000 0.000000 
#    y 0.000000 1.690020 0.000000 
#    z 0.000000 0.000000 1.659030 
# 
# From -- ./inp_files/22967.got.cif
#   From: 2010.03.12/outbox.cif.g09.slc.cpg/sg53_12_cif.got.tgz:22967.got - 2010.04.16 14:36:59.
