data_PCOD8217690
_publ_section_title
;
Structure prediction by ZEFSAII (Michael W. Deem and Ramdas Pophale) SiO2 
 PCOD8217690
Probable space group: P M N A
;
_chemical_formula_sum "Si O2"
_cell_formula_units_Z 64
_cell_length_a 8.919088
_cell_length_b 26.081840
_cell_length_c 18.303540
_cell_angle_alpha 90.000000
_cell_angle_beta 90.000000
_cell_angle_gamma 90.000000
_cell_volume 4257.883436
_symmetry_space_group_name_H-M "P M N A"
_symmetry_group_IT_number 53
_symmetry_cell_setting 'orthorhombic'
loop_
_space_group_symop_operation_xyz
x,y,z
1/2-x,-y,1/2+z
x,-y,-z
1/2-x,y,1/2-z
-x,-y,-z
1/2+x,y,1/2-z
-x,y,z
1/2+x,-y,1/2+z
loop_
_atom_site_type_symbol
_atom_site_label
_atom_site_fract_x
_atom_site_fract_y
_atom_site_fract_z
Si Si1 0.322232 0.006331 0.173237
Si Si2 0.664665 0.054552 0.961884
Si Si3 0.674657 0.305365 0.175073
Si Si4 0.822837 0.188366 0.326727
Si Si5 0.822944 0.100327 0.090007
Si Si6 0.675319 0.396825 0.076148
Si Si7 0.669245 0.449393 0.548368
Si Si8 0.324022 0.494767 0.171436
O O1 0.250000 0.992177 0.250000
O O2 0.500000 0.015442 0.179520
O O3 0.285285 0.957353 0.121313
O O4 0.248695 0.058079 0.142872
O O5 0.500000 0.080955 0.964033
O O6 0.783409 0.089786 0.004829
O O7 0.652735 0.000000 0.000000
O O8 0.750000 0.322920 0.250000
O O9 0.500000 0.311932 0.188561
O O10 0.716577 0.247181 0.154465
O O11 0.727639 0.342515 0.109818
O O12 0.750000 0.172102 0.250000
O O13 0.746970 0.155120 0.390086
O O14 0.000000 0.178435 0.323141
O O15 0.000000 0.100660 0.100389
O O16 0.500000 0.398468 0.059028
O O17 0.718837 0.440965 0.133834
O O18 0.759865 0.403402 0.999103
O O19 0.677563 0.500000 0.500000
O O20 0.500000 0.434792 0.569209
O O21 0.761787 0.458266 0.622642
O O22 0.250000 0.496712 0.250000
O O23 0.500000 0.501697 0.180064
#
# Coordination Sequence:
#
# PCOD8217690 Si02
#       8
#     8   8   8   8   8   8   8   8
#     4  10  19  30  44  62  85 111 139 170 204 244
#     4   8  16  30  44  59  81 108 136 168 205 243
#     4   9  18  30  44  61  82 109 140 175 210 245
#     4  10  19  31  44  59  82 110 141 176 211 244
#     4  11  20  29  43  61  82 110 143 175 207 244
#     4   9  17  29  43  60  82 109 140 171 208 247
#     4   9  17  28  41  58  80 107 139 171 203 242
#     4  10  18  27  41  60  84 111 138 171 206 244
#
# _framework density 15.030943000000001
#
# number of rings (size 3 to 8) (size 9 to 14) (size 15 to 20)
#    0.000    2.500    0.000    4.125    0.000    5.750 
#    0.000    0.000    0.000    0.000    0.000    0.000 
#    0.000    1.000    0.000    6.500    0.000    4.875 
#
# Total GULP energy -793494.428091 kJ/mol
# GULP energy per Si atom -12398.350439 kJ/mol
# Density = 1.499673 g / cm^3
# Si number density = 15.030943 Si / 1000 Ang^3
#
#
#
# Elastic Constant Matrix: (Units=GPa)
#
#
# Indices 1 2 3 4 5 6 
#
# 1 90.5719 38.4606 53.4027 0.0000 0.0000 0.0000
# 2 38.4606 67.1662 45.4819 0.0000 0.0000 0.0000
# 3 53.4027 45.4819 103.2693 0.0000 0.0000 0.0000
# 4 0.0000 0.0000 0.0000 23.7147 0.0000 0.0000
# 5 0.0000 0.0000 0.0000 0.0000 28.1248 0.0000
# 6 0.0000 0.0000 0.0000 0.0000 0.0000 16.0797
#
#
#
# Elastic Compliance Matrix: (Units=1/GPa)
#
#
# Indices 1 2 3 4 5 6 
#
# 1 0.017176 -0.005445 -0.006484 0.000000 0.000000 0.000000
# 2 -0.005445 0.022941 -0.007288 0.000000 0.000000 0.000000
# 3 -0.006484 -0.007288 0.016247 0.000000 0.000000 0.000000
# 4 0.000000 0.000000 0.000000 0.042168 0.000000 0.000000
# 5 0.000000 0.000000 0.000000 0.000000 0.035556 0.000000
# 6 0.000000 0.000000 0.000000 0.000000 0.000000 0.062190
#
#
# Mechanical properties :
#
#
# Convention : Reuss Voigt Hill
#
# Bulk Modulus (GPa) = 55.77328 59.52201 57.64765
# Shear Modulus (GPa) = 20.77367 21.82797 21.30082
#
# Velocity S-wave (km/s) = 3.72164 3.81491 3.76856
# Velocity P-wave (km/s) = 7.46014 7.68702 7.57443
#
# Compressibility (1/GPa) = 0.01792973
#
# Stress axis : x y z
#
# Youngs Moduli (GPa) = 58.22018 43.58919 61.55158
#
# Poissons Ratio (x) = 0.23732 0.39912
# Poissons Ratio (y) = 0.31698 0.44861
# Poissons Ratio (z) = 0.37752 0.31770
#
# Static dielectric constant tensor:
#      x y z
#    x 2.997460 0.000000 0.000000 
#    y 0.000000 2.779760 0.000000 
#    z 0.000000 0.000000 3.052480 
# 
# 
# High freq. dielectric constant tensor:
#      x y z
#    x 1.588960 0.000000 0.000000 
#    y 0.000000 1.539580 0.000000 
#    z 0.000000 0.000000 1.566050 
# 
# From -- ./inp_files/27055.got.cif
#   From: 2010.03.12/outbox.cif.g09.slc.cpg/sg53_14_cif.got.tgz:27055.got - 2010.04.16 14:36:59.
