data_PCOD8217774
_publ_section_title
;
Structure prediction by ZEFSAII (Michael W. Deem and Ramdas Pophale) SiO2 
 PCOD8217774
Probable space group: P M N A
;
_chemical_formula_sum "Si O2"
_cell_formula_units_Z 64
_cell_length_a 24.861727
_cell_length_b 9.205281
_cell_length_c 18.023714
_cell_angle_alpha 90.000000
_cell_angle_beta 90.000000
_cell_angle_gamma 90.000000
_cell_volume 4124.892464
_symmetry_space_group_name_H-M "P M N A"
_symmetry_group_IT_number 53
_symmetry_cell_setting 'orthorhombic'
loop_
_space_group_symop_operation_xyz
x,y,z
1/2-x,-y,1/2+z
x,-y,-z
1/2-x,y,1/2-z
-x,-y,-z
1/2+x,y,1/2-z
-x,y,z
1/2+x,-y,1/2+z
loop_
_atom_site_type_symbol
_atom_site_label
_atom_site_fract_x
_atom_site_fract_y
_atom_site_fract_z
Si Si1 0.242235 0.141141 0.414202
Si Si2 0.691976 0.297794 0.212650
Si Si3 0.354592 0.225560 0.657883
Si Si4 0.441850 0.879048 0.551364
Si Si5 0.854603 0.884195 0.837654
Si Si6 0.758003 0.804494 0.418014
Si Si7 0.559220 0.620946 0.444873
Si Si8 0.806330 0.373369 0.708160
O O1 0.197668 0.225577 0.367363
O O2 0.302947 0.157506 0.386112
O O3 0.238212 0.217721 0.494070
O O4 0.227477 0.972457 0.405617
O O5 0.750000 0.294132 0.250000
O O6 0.649842 0.200572 0.259638
O O7 0.671788 0.462273 0.200730
O O8 0.301521 0.239875 0.607795
O O9 0.401109 0.323067 0.620067
O O10 0.348142 0.286664 0.740917
O O11 0.366454 0.055545 0.670070
O O12 0.500000 0.939436 0.580257
O O13 0.406238 0.823264 0.619577
O O14 0.454013 0.749818 0.498289
O O15 0.411548 0.000000 0.500000
O O16 0.800341 0.704628 0.372282
O O17 0.585403 0.500000 0.500000
O O18 0.500000 0.570275 0.412618
O O19 0.750000 0.371064 0.750000
#
# Coordination Sequence:
#
# PCOD8217774 Si02
#       8
#     8   8   8   8   8   8   8   8
#     4   9  17  28  45  63  86 113 151 184 219 261
#     4   9  18  30  41  62  85 114 144 185 222 261
#     4  10  18  30  45  63  85 120 151 182 220 264
#     4  10  19  31  46  65  89 116 150 189 220 252
#     4  10  18  28  47  63  86 116 153 183 220 262
#     4   9  17  29  44  64  85 115 148 185 219 264
#     4  10  21  33  44  63  91 120 150 186 225 259
#     4   9  18  30  41  59  88 113 146 182 224 262
#
# _framework density 15.515555000000001
#
# number of rings (size 3 to 8) (size 9 to 14) (size 15 to 20)
#    0.000    2.500    1.250    1.500    3.500    3.500 
#    4.500    0.000    0.000    0.000    0.000    0.000 
#    0.000    1.000    0.000    7.500    0.000    2.250 
#
# Total GULP energy -792858.221071 kJ/mol
# GULP energy per Si atom -12388.409704 kJ/mol
# Density = 1.548024 g / cm^3
# Si number density = 15.515555 Si / 1000 Ang^3
#
#
#
# Elastic Constant Matrix: (Units=GPa)
#
#
# Indices 1 2 3 4 5 6 
#
# 1 45.2583 14.9307 34.9478 0.0000 0.0000 0.0000
# 2 14.9307 64.9603 40.0925 0.0000 0.0000 0.0000
# 3 34.9478 40.0925 107.1719 0.0000 0.0000 0.0000
# 4 0.0000 0.0000 0.0000 27.2914 0.0000 0.0000
# 5 0.0000 0.0000 0.0000 0.0000 26.2477 0.0000
# 6 0.0000 0.0000 0.0000 0.0000 0.0000 15.6830
#
#
#
# Elastic Compliance Matrix: (Units=1/GPa)
#
#
# Indices 1 2 3 4 5 6 
#
# 1 0.029592 -0.001100 -0.009238 0.000000 0.000000 0.000000
# 2 -0.001100 0.020056 -0.007144 0.000000 0.000000 0.000000
# 3 -0.009238 -0.007144 0.015016 0.000000 0.000000 0.000000
# 4 0.000000 0.000000 0.000000 0.036642 0.000000 0.000000
# 5 0.000000 0.000000 0.000000 0.000000 0.038099 0.000000
# 6 0.000000 0.000000 0.000000 0.000000 0.000000 0.063763
#
#
# Mechanical properties :
#
#
# Convention : Reuss Voigt Hill
#
# Bulk Modulus (GPa) = 33.67075 44.14804 38.90940
# Shear Modulus (GPa) = 20.15870 22.33904 21.24887
#
# Velocity S-wave (km/s) = 3.60843 3.79856 3.70472
# Velocity P-wave (km/s) = 6.25375 6.91047 6.59030
#
# Compressibility (1/GPa) = 0.02969937
#
# Stress axis : x y z
#
# Youngs Moduli (GPa) = 33.79311 49.86003 66.59585
#
# Poissons Ratio (x) = 0.05484 0.61523
# Poissons Ratio (y) = 0.03717 0.47578
# Poissons Ratio (z) = 0.31219 0.35621
#
# Static dielectric constant tensor:
#      x y z
#    x 2.706690 0.000000 0.000000 
#    y 0.000000 3.053100 0.000000 
#    z 0.000000 0.000000 2.974230 
# 
# 
# High freq. dielectric constant tensor:
#      x y z
#    x 1.551120 0.000000 0.000000 
#    y 0.000000 1.609380 0.000000 
#    z 0.000000 0.000000 1.581690 
# 
# From -- ./inp_files/29610.got.cif
#   From: 2010.03.12/outbox.cif.g09.slc.cpg/sg53_15_cif.got.tgz:29610.got - 2010.04.16 14:36:59.
