data_PCOD8217575
_publ_section_title
;
Structure prediction by ZEFSAII (Michael W. Deem and Ramdas Pophale) SiO2 
 PCOD8217575
Probable space group: P M N A
;
_chemical_formula_sum "Si O2"
_cell_formula_units_Z 48
_cell_length_a 8.479154
_cell_length_b 15.424990
_cell_length_c 19.870001
_cell_angle_alpha 90.000000
_cell_angle_beta 90.000000
_cell_angle_gamma 90.000000
_cell_volume 2598.814631
_symmetry_space_group_name_H-M "P M N A"
_symmetry_group_IT_number 53
_symmetry_cell_setting 'orthorhombic'
loop_
_space_group_symop_operation_xyz
x,y,z
1/2-x,-y,1/2+z
x,-y,-z
1/2-x,y,1/2-z
-x,-y,-z
1/2+x,y,1/2-z
-x,y,z
1/2+x,-y,1/2+z
loop_
_atom_site_type_symbol
_atom_site_label
_atom_site_fract_x
_atom_site_fract_y
_atom_site_fract_z
Si Si1 0.185634 0.404277 0.320768
Si Si2 0.184404 0.913808 0.930657
Si Si3 0.683780 0.087387 0.921456
Si Si4 0.812920 0.601342 0.321970
Si Si5 0.315284 0.265490 0.572800
Si Si6 0.314031 0.262416 0.075331
O O1 0.250000 0.369190 0.250000
O O2 0.242259 0.502447 0.334212
O O3 0.248332 0.343116 0.380610
O O4 0.000000 0.401613 0.317189
O O5 0.230205 0.824084 0.893945
O O6 0.000000 0.917365 0.946970
O O7 0.236557 0.000283 0.889456
O O8 0.284713 0.912584 0.999059
O O9 0.500000 0.086853 0.905038
O O10 0.759985 0.175393 0.891864
O O11 0.750000 0.633940 0.250000
O O12 0.728949 0.655903 0.379417
O O13 0.000000 0.613143 0.326004
O O14 0.500000 0.261904 0.559458
O O15 0.229656 0.280149 0.501806
O O16 0.500000 0.250660 0.081926
#
# Coordination Sequence:
#
# PCOD8217575 Si02
#       6
#     8   8   8   8   8   8
#     4   9  20  36  56  76 100 133 172 211 253 303
#     4  10  17  27  44  70 101 133 166 206 249 298
#     4  10  17  28  46  69  98 134 168 205 249 300
#     4  10  20  37  56  76 100 133 171 210 253 305
#     4  11  21  33  50  77 106 135 169 212 256 299
#     4  10  19  33  51  76 105 136 170 210 255 301
#
# _framework density 18.469958999999999
#
# number of rings (size 3 to 8) (size 9 to 14) (size 15 to 20)
#    0.000    2.000    0.000    8.500    0.000    2.667 
#    0.000    3.333    0.000    1.000    0.000    4.667 
#    0.000    0.000    0.000    0.000    0.000    0.000 
#
# Total GULP energy -595062.494875 kJ/mol
# GULP energy per Si atom -12397.135310 kJ/mol
# Density = 1.842792 g / cm^3
# Si number density = 18.469959 Si / 1000 Ang^3
#
#
#
# Elastic Constant Matrix: (Units=GPa)
#
#
# Indices 1 2 3 4 5 6 
#
# 1 61.1879 29.4831 12.0784 0.0000 0.0000 0.0000
# 2 29.4831 140.6036 61.3020 0.0000 0.0000 0.0000
# 3 12.0784 61.3020 67.1624 0.0000 0.0000 0.0000
# 4 0.0000 0.0000 0.0000 -4.0577 0.0000 0.0000
# 5 0.0000 0.0000 0.0000 0.0000 21.1306 0.0000
# 6 0.0000 0.0000 0.0000 0.0000 0.0000 95.1780
#
#
#
# Elastic Compliance Matrix: (Units=1/GPa)
#
#
# Indices 1 2 3 4 5 6 
#
# 1 0.018185 -0.003965 0.000349 0.000000 0.000000 0.000000
# 2 -0.003965 0.012678 -0.010859 0.000000 0.000000 0.000000
# 3 0.000349 -0.010859 0.024738 0.000000 0.000000 0.000000
# 4 0.000000 0.000000 0.000000 -0.246443 0.000000 0.000000
# 5 0.000000 0.000000 0.000000 0.000000 0.047325 0.000000
# 6 0.000000 0.000000 0.000000 0.000000 0.000000 0.010507
#
#
# Mechanical properties :
#
#
# Convention : Reuss Voigt Hill
#
# Bulk Modulus (GPa) = 37.52260 52.74233 45.13246
# Shear Modulus (GPa) = -52.53347 33.52287 -9.50530
#
# Velocity S-wave (km/s) = -5.33895 4.26490 -2.27102
# Velocity P-wave (km/s) = 4.20075 7.27119 4.19666
#
# Compressibility (1/GPa) = 0.02665061
#
# Stress axis : x y z
#
# Youngs Moduli (GPa) = 54.99073 78.87718 40.42425
#
# Poissons Ratio (x) = 0.31278 -0.01411
# Poissons Ratio (y) = 0.21806 0.43895
# Poissons Ratio (z) = -0.01919 0.85649
#
# Static dielectric constant tensor:
#      x y z
#    x 3.404260 0.000000 0.000000 
#    y 0.000000 4.312920 0.000000 
#    z 0.000000 0.000000 3.005950 
# 
# 
# High freq. dielectric constant tensor:
#      x y z
#    x 1.730350 0.000000 0.000000 
#    y 0.000000 1.740130 0.000000 
#    z 0.000000 0.000000 1.661460 
# 
# From -- ./inp_files/30521.got.cif
#   From: 2010.03.12/outbox.cif.g09.slc.cpg/sg53_16_cif.got.tgz:30521.got - 2010.04.16 14:36:59.
