data_PCOD8217452
_publ_section_title
;
Structure prediction by ZEFSAII (Michael W. Deem and Ramdas Pophale) SiO2 
 PCOD8217452
Probable space group: P N N A
;
_chemical_formula_sum "Si O2"
_cell_formula_units_Z 64
_cell_length_a 9.706767
_cell_length_b 20.765555
_cell_length_c 19.761226
_cell_angle_alpha 90.000000
_cell_angle_beta 90.000000
_cell_angle_gamma 90.000000
_cell_volume 3983.199264
_symmetry_space_group_name_H-M "P N N A"
_symmetry_group_IT_number 52
_symmetry_cell_setting 'orthorhombic'
loop_
_space_group_symop_operation_xyz
x,y,z
1/2-x,-y,z
x,1/2-y,1/2-z
1/2-x,1/2+y,1/2-z
-x,-y,-z
1/2+x,y,-z
-x,1/2+y,1/2+z
1/2+x,1/2-y,1/2+z
loop_
_atom_site_type_symbol
_atom_site_label
_atom_site_fract_x
_atom_site_fract_y
_atom_site_fract_z
Si Si1 0.407672 0.376927 0.561924
Si Si2 0.085902 0.188993 0.708636
Si Si3 0.586161 0.071448 0.204633
Si Si4 0.414099 0.311007 0.791364
Si Si5 0.586161 0.928552 0.204632
Si Si6 0.092533 0.774799 0.561912
Si Si7 0.407467 0.725201 0.938088
Si Si8 0.592328 0.123072 0.061924
O O1 0.464274 0.411255 0.629255
O O2 0.422827 0.301050 0.572917
O O3 0.500000 0.401678 0.500000
O O4 0.250000 0.395928 0.546748
O O5 0.025779 0.250000 0.750000
O O6 0.027445 0.123101 0.741541
O O7 0.250000 0.191542 0.712354
O O8 0.038741 0.191337 0.630501
O O9 0.750000 0.074623 0.205523
O O10 0.535726 0.088745 0.129255
O O11 0.533128 0.000000 0.224140
O O12 0.474222 0.250000 0.750000
O O13 0.472555 0.376899 0.758459
O O14 0.461259 0.308663 0.869499
O O15 0.250000 0.793498 0.546057
O O16 1.000000 0.799892 0.500000
O O17 0.422827 0.801050 0.927084
#
# Coordination Sequence:
#
# PCOD8217452 Si02
#       8
#     8   8   8   8   8   8   8   8
#     4   9  16  26  40  60  86 113 139 167 202 246
#     4   9  14  24  42  61  80 107 141 173 206 243
#     4   9  16  25  39  61  85 107 137 177 211 239
#     4   9  14  24  42  61  80 107 141 173 206 243
#     4   9  16  25  39  61  85 107 137 177 211 239
#     4   9  16  26  43  64  85 109 137 171 209 248
#     4   9  16  26  43  64  85 109 137 171 209 248
#     4   9  16  26  40  60  86 113 139 167 202 246
#
# _framework density 16.067487
#
# number of rings (size 3 to 8) (size 9 to 14) (size 15 to 20)
#    0.000    3.000    2.500    0.000    0.000    0.500 
#    0.000    0.000    0.000    3.000    0.000    0.000 
#    0.000    0.000    0.000    0.000    0.000    0.000 
#
# Total GULP energy -793346.670287 kJ/mol
# GULP energy per Si atom -12396.041723 kJ/mol
# Density = 1.603092 g / cm^3
# Si number density = 16.067487 Si / 1000 Ang^3
#
#
#
# Elastic Constant Matrix: (Units=GPa)
#
#
# Indices 1 2 3 4 5 6 
#
# 1 31.5069 18.3292 40.4820 0.0000 0.0000 0.0000
# 2 18.3292 92.2470 75.8906 0.0000 0.0000 0.0000
# 3 40.4820 75.8906 154.4238 0.0000 0.0000 0.0000
# 4 0.0000 0.0000 0.0000 23.0567 0.0000 0.0000
# 5 0.0000 0.0000 0.0000 0.0000 24.2464 0.0000
# 6 0.0000 0.0000 0.0000 0.0000 0.0000 6.3235
#
#
#
# Elastic Compliance Matrix: (Units=1/GPa)
#
#
# Indices 1 2 3 4 5 6 
#
# 1 0.047962 0.001366 -0.013245 0.000000 0.000000 0.000000
# 2 0.001366 0.018237 -0.009321 0.000000 0.000000 0.000000
# 3 -0.013245 -0.009321 0.014528 0.000000 0.000000 0.000000
# 4 0.000000 0.000000 0.000000 0.043371 0.000000 0.000000
# 5 0.000000 0.000000 0.000000 0.000000 0.041243 0.000000
# 6 0.000000 0.000000 0.000000 0.000000 0.000000 0.158140
#
#
# Mechanical properties :
#
#
# Convention : Reuss Voigt Hill
#
# Bulk Modulus (GPa) = 26.08971 60.84236 43.46604
# Shear Modulus (GPa) = 13.20461 20.29036 16.74749
#
# Velocity S-wave (km/s) = 2.86985 3.55747 3.23200
# Velocity P-wave (km/s) = 5.22056 7.40426 6.40614
#
# Compressibility (1/GPa) = 0.03832928
#
# Stress axis : x y z
#
# Youngs Moduli (GPa) = 20.84993 54.83370 68.83108
#
# Poissons Ratio (x) = -0.07492 0.91164
# Poissons Ratio (y) = -0.02849 0.64155
# Poissons Ratio (z) = 0.27615 0.51108
#
# Static dielectric constant tensor:
#      x y z
#    x 2.629580 0.000000 0.000000 
#    y 0.000000 3.087720 0.000000 
#    z 0.000000 0.000000 3.219200 
# 
# 
# High freq. dielectric constant tensor:
#      x y z
#    x 1.560740 0.000000 0.000000 
#    y 0.000000 1.600820 0.000000 
#    z 0.000000 0.000000 1.625530 
# 
# From -- ./inp_files/36256.got.cif
#   From: 2010.06.25/outbox.cif.g09.slc.cpg/sg52_19_cif.got.tgz:36256.got - 2010.06.26 19:32:48.
