data_PCOD8217017
_publ_section_title
;
Structure prediction by ZEFSAII (Michael W. Deem and Ramdas Pophale) SiO2 
 PCOD8217017
Probable space group: P N N A
;
_chemical_formula_sum "Si O2"
_cell_formula_units_Z 64
_cell_length_a 13.851881
_cell_length_b 18.591971
_cell_length_c 11.707690
_cell_angle_alpha 90.000000
_cell_angle_beta 90.000000
_cell_angle_gamma 90.000000
_cell_volume 3015.125542
_symmetry_space_group_name_H-M "P N N A"
_symmetry_group_IT_number 52
_symmetry_cell_setting 'orthorhombic'
loop_
_space_group_symop_operation_xyz
x,y,z
1/2-x,-y,z
x,1/2-y,1/2-z
1/2-x,1/2+y,1/2-z
-x,-y,-z
1/2+x,y,-z
-x,1/2+y,1/2+z
1/2+x,1/2-y,1/2+z
loop_
_atom_site_type_symbol
_atom_site_label
_atom_site_fract_x
_atom_site_fract_y
_atom_site_fract_z
Si Si1 0.311275 0.253563 0.624827
Si Si2 0.670157 0.908109 0.716031
Si Si3 0.619480 0.432760 0.784920
Si Si4 0.990932 0.685542 0.662093
Si Si5 0.678204 0.901316 0.449564
Si Si6 0.105491 0.211965 0.923217
Si Si7 0.114449 0.448033 0.945740
Si Si8 0.978839 0.654882 0.213622
O O1 0.264777 0.250000 0.750000
O O2 0.395928 0.312898 0.626174
O O3 0.359420 0.176809 0.589938
O O4 0.218735 0.274045 0.549223
O O5 0.779783 0.894976 0.759265
O O6 0.688329 0.908471 0.582727
O O7 0.592925 0.845810 0.750409
O O8 0.626898 0.984850 0.756842
O O9 0.533208 0.390483 0.721371
O O10 0.600538 0.429239 0.921137
O O11 0.967106 0.750000 0.750000
O O12 0.932577 0.692709 0.546256
O O13 0.785335 0.914447 0.399227
O O14 0.607357 0.966893 0.414880
O O15 0.047037 0.278027 0.866912
O O16 0.086700 0.149412 0.828620
O O17 0.030620 0.414538 0.868030
#
# Coordination Sequence:
#
# PCOD8217017 Si02
#       8
#     8   8   8   8   8   8   8   8
#     4  11  21  39  60  85 134 167 190 256 318 363
#     4   9  20  36  64  87 117 159 199 273 306 348
#     4   9  20  41  57  90 127 150 206 259 312 362
#     4  11  25  38  63  90 118 168 204 241 312 383
#     4   9  17  32  56  90 119 154 206 250 313 358
#     4  11  23  40  57  89 127 158 204 257 297 371
#     4   9  17  32  61  88 118 156 198 261 304 364
#     4  11  20  36  59  84 119 162 201 247 311 360
#
# _framework density 21.226313000000001
#
# number of rings (size 3 to 8) (size 9 to 14) (size 15 to 20)
#    0.000    2.000    2.500    3.000    1.750    6.000 
#    2.250    0.625    0.000    6.000    0.000    0.000 
#    0.000    0.000    0.000    0.000    0.000    0.000 
#
# Total GULP energy -792914.287095 kJ/mol
# GULP energy per Si atom -12389.285736 kJ/mol
# Density = 2.117800 g / cm^3
# Si number density = 21.226313 Si / 1000 Ang^3
#
#
#
# Elastic Constant Matrix: (Units=GPa)
#
#
# Indices 1 2 3 4 5 6 
#
# 1 119.9195 53.3458 28.4613 0.0000 0.0000 0.0000
# 2 53.3458 64.1253 21.2031 0.0000 0.0000 0.0000
# 3 28.4613 21.2031 78.3368 0.0000 0.0000 0.0000
# 4 0.0000 0.0000 0.0000 29.7385 0.0000 0.0000
# 5 0.0000 0.0000 0.0000 0.0000 40.9844 0.0000
# 6 0.0000 0.0000 0.0000 0.0000 0.0000 -0.3791
#
#
#
# Elastic Compliance Matrix: (Units=1/GPa)
#
#
# Indices 1 2 3 4 5 6 
#
# 1 0.013532 -0.010578 -0.002053 0.000000 0.000000 0.000000
# 2 -0.010578 0.025397 -0.003031 0.000000 0.000000 0.000000
# 3 -0.002053 -0.003031 0.014332 0.000000 0.000000 0.000000
# 4 0.000000 0.000000 0.000000 0.033626 0.000000 0.000000
# 5 0.000000 0.000000 0.000000 0.000000 0.024400 0.000000
# 6 0.000000 0.000000 0.000000 0.000000 0.000000 -2.638058
#
#
# Mechanical properties :
#
#
# Convention : Reuss Voigt Hill
#
# Bulk Modulus (GPa) = 45.58760 52.04467 48.81613
# Shear Modulus (GPa) = -2.00954 24.69353 11.34200
#
# Velocity S-wave (km/s) = -0.97405 3.41449 2.31408
# Velocity P-wave (km/s) = 4.50095 6.33381 5.49434
#
# Compressibility (1/GPa) = 0.02193579
#
# Stress axis : x y z
#
# Youngs Moduli (GPa) = 73.89904 39.37518 69.77550
#
# Poissons Ratio (x) = 0.41652 0.14326
# Poissons Ratio (y) = 0.78173 0.21147
# Poissons Ratio (z) = 0.15173 0.11934
#
# Static dielectric constant tensor:
#      x y z
#    x 4.163010 0.000000 0.000000 
#    y 0.000000 2.472410 0.000000 
#    z 0.000000 0.000000 3.667590 
# 
# 
# High freq. dielectric constant tensor:
#      x y z
#    x 1.851360 0.000000 0.000000 
#    y 0.000000 1.812080 0.000000 
#    z 0.000000 0.000000 1.801380 
# 
# From -- ./inp_files/19859.got.cif
#   From: 2010.06.25/outbox.cif.g09.slc.cpg/sg52_10_cif.got.tgz:19859.got - 2010.06.26 19:32:48.
