data_PCOD8217363
_publ_section_title
;
Structure prediction by ZEFSAII (Michael W. Deem and Ramdas Pophale) SiO2 
 PCOD8217363
Probable space group: P N N A
;
_chemical_formula_sum "Si O2"
_cell_formula_units_Z 32
_cell_length_a 5.064048
_cell_length_b 11.234067
_cell_length_c 25.928756
_cell_angle_alpha 90.000000
_cell_angle_beta 90.000000
_cell_angle_gamma 90.000000
_cell_volume 1475.083157
_symmetry_space_group_name_H-M "P N N A"
_symmetry_group_IT_number 52
_symmetry_cell_setting 'orthorhombic'
loop_
_space_group_symop_operation_xyz
x,y,z
1/2-x,-y,z
x,1/2-y,1/2-z
1/2-x,1/2+y,1/2-z
-x,-y,-z
1/2+x,y,-z
-x,1/2+y,1/2+z
1/2+x,1/2-y,1/2+z
loop_
_atom_site_type_symbol
_atom_site_label
_atom_site_fract_x
_atom_site_fract_y
_atom_site_fract_z
Si Si1 0.750000 0.000000 0.569480
Si Si2 0.295390 0.755259 0.031199
Si Si3 0.756437 0.859297 0.857572
Si Si4 0.750000 0.500000 0.139063
Si Si5 0.245221 0.747486 0.809167
O O1 0.814680 0.887805 0.533619
O O2 0.500878 0.967192 0.604619
O O3 0.344880 0.810642 0.086980
O O4 0.520640 0.800199 0.992240
O O5 0.472149 0.806985 0.843452
O O6 0.973899 0.819775 0.815957
O O7 0.750000 0.000000 0.858906
O O8 0.811520 0.387763 0.174816
O O9 0.333253 0.750000 0.750000
#
# Coordination Sequence:
#
# PCOD8217363 Si02
#       5
#     4   8   8   4   8
#     4  12  22  43  66 104 138 172 224 283 346 390
#     4  12  24  42  68  99 133 180 227 277 341 399
#     4  12  27  48  69 100 142 180 229 281 330 407
#     4  12  22  43  74  98 140 174 218 293 336 394
#     4  12  26  47  72 104 136 180 228 278 343 401
#
# _framework density 21.693693
#
# number of rings (size 3 to 8) (size 9 to 14) (size 15 to 20)
#    0.000    0.000    5.000    5.250    3.500    1.000 
#    0.000    0.000    0.000    0.000    0.000    0.000 
#    0.000    0.000    0.000    0.000    0.000    0.000 
#
# Total GULP energy -397132.054422 kJ/mol
# GULP energy per Si atom -12410.376701 kJ/mol
# Density = 2.164432 g / cm^3
# Si number density = 21.693693 Si / 1000 Ang^3
#
#
#
# Elastic Constant Matrix: (Units=GPa)
#
#
# Indices 1 2 3 4 5 6 
#
# 1 112.1939 21.0343 13.9435 0.0000 0.0000 0.0000
# 2 21.0343 118.0546 13.0548 0.0000 0.0000 0.0000
# 3 13.9435 13.0548 93.0642 0.0000 0.0000 0.0000
# 4 0.0000 0.0000 0.0000 19.2105 0.0000 0.0000
# 5 0.0000 0.0000 0.0000 0.0000 38.2684 0.0000
# 6 0.0000 0.0000 0.0000 0.0000 0.0000 25.0638
#
#
#
# Elastic Compliance Matrix: (Units=1/GPa)
#
#
# Indices 1 2 3 4 5 6 
#
# 1 0.009348 -0.001535 -0.001185 0.000000 0.000000 0.000000
# 2 -0.001535 0.008856 -0.001012 0.000000 0.000000 0.000000
# 3 -0.001185 -0.001012 0.011065 0.000000 0.000000 0.000000
# 4 0.000000 0.000000 0.000000 0.052055 0.000000 0.000000
# 5 0.000000 0.000000 0.000000 0.000000 0.026131 0.000000
# 6 0.000000 0.000000 0.000000 0.000000 0.000000 0.039898
#
#
# Mechanical properties :
#
#
# Convention : Reuss Voigt Hill
#
# Bulk Modulus (GPa) = 45.86199 46.59754 46.22976
# Shear Modulus (GPa) = 30.84784 34.86056 32.85420
#
# Velocity S-wave (km/s) = 3.77500 4.01302 3.89583
# Velocity P-wave (km/s) = 6.33935 6.55735 6.44927
#
# Compressibility (1/GPa) = 0.02180455
#
# Stress axis : x y z
#
# Youngs Moduli (GPa) = 106.97302 112.91754 90.37603
#
# Poissons Ratio (x) = 0.17327 0.10713
# Poissons Ratio (y) = 0.16415 0.09150
# Poissons Ratio (z) = 0.12680 0.11432
#
# Static dielectric constant tensor:
#      x y z
#    x 4.037690 0.000000 0.000000 
#    y 0.000000 3.921200 0.000000 
#    z 0.000000 0.000000 3.837790 
# 
# 
# High freq. dielectric constant tensor:
#      x y z
#    x 1.870440 0.000000 0.000000 
#    y 0.000000 1.853850 0.000000 
#    z 0.000000 0.000000 1.857190 
# 
# From -- ./inp_files/34825.got.cif
#   From: 2010.06.25/outbox.cif.g09.slc.cpg/sg52_18_cif.got.tgz:34825.got - 2010.06.26 19:32:48.
