data_PCOD8217425
_publ_section_title
;
Structure prediction by ZEFSAII (Michael W. Deem and Ramdas Pophale) SiO2 
 PCOD8217425
Probable space group: P N N A
;
_chemical_formula_sum "Si O2"
_cell_formula_units_Z 40
_cell_length_a 17.922779
_cell_length_b 12.106525
_cell_length_c 8.455185
_cell_angle_alpha 90.000000
_cell_angle_beta 90.000000
_cell_angle_gamma 90.000000
_cell_volume 1834.627788
_symmetry_space_group_name_H-M "P N N A"
_symmetry_group_IT_number 52
_symmetry_cell_setting 'orthorhombic'
loop_
_space_group_symop_operation_xyz
x,y,z
1/2-x,-y,z
x,1/2-y,1/2-z
1/2-x,1/2+y,1/2-z
-x,-y,-z
1/2+x,y,-z
-x,1/2+y,1/2+z
1/2+x,1/2-y,1/2+z
loop_
_atom_site_type_symbol
_atom_site_label
_atom_site_fract_x
_atom_site_fract_y
_atom_site_fract_z
Si Si1 0.356308 0.638592 0.179487
Si Si2 0.141234 0.871769 0.748992
Si Si3 0.834690 0.043377 0.907989
Si Si4 0.595997 0.750000 0.750000
Si Si5 0.250000 0.000000 0.526935
Si Si6 0.508145 0.871302 0.470080
O O1 0.323095 0.750000 0.250000
O O2 0.381745 0.551892 0.317265
O O3 0.425824 0.673072 0.068920
O O4 0.287656 0.591362 0.081128
O O5 0.179548 0.750000 0.750000
O O6 0.185870 0.946973 0.629538
O O7 0.058017 0.854995 0.685372
O O8 0.137543 0.936304 0.914370
O O9 0.847867 0.157517 0.815765
O O10 0.750000 0.000000 0.907843
O O11 0.542701 0.802656 0.615894
O O12 0.500000 0.000000 0.500000
#
# Coordination Sequence:
#
# PCOD8217425 Si02
#       6
#     8   8   8   4   4   8
#     4  12  29  47  76 109 150 192 250 305 368 449
#     4  12  26  45  74 103 147 191 244 303 371 432
#     4  12  27  45  77 110 145 198 250 296 383 443
#     4  12  26  50  80 104 154 200 248 314 374 448
#     4  12  26  46  70 108 150 188 244 308 362 440
#     4  12  25  50  74 109 145 200 243 306 374 441
#
# _framework density 21.802788
#
# number of rings (size 3 to 8) (size 9 to 14) (size 15 to 20)
#    0.000    0.000    8.000    0.600    4.200    2.400 
#    1.800    0.000    0.000    0.000    0.000    0.000 
#    0.000    0.000    0.000    0.000    0.000    0.000 
#
# Total GULP energy -495964.661362 kJ/mol
# GULP energy per Si atom -12399.116534 kJ/mol
# Density = 2.175316 g / cm^3
# Si number density = 21.802788 Si / 1000 Ang^3
#
#
#
# Elastic Constant Matrix: (Units=GPa)
#
#
# Indices 1 2 3 4 5 6 
#
# 1 106.1534 28.3834 49.2573 0.0000 0.0000 0.0000
# 2 28.3834 155.1684 63.6915 0.0000 0.0000 0.0000
# 3 49.2573 63.6915 162.1964 0.0000 0.0000 0.0000
# 4 0.0000 0.0000 0.0000 -108.0812 0.0000 0.0000
# 5 0.0000 0.0000 0.0000 0.0000 15.9531 0.0000
# 6 0.0000 0.0000 0.0000 0.0000 0.0000 32.6251
#
#
#
# Elastic Compliance Matrix: (Units=1/GPa)
#
#
# Indices 1 2 3 4 5 6 
#
# 1 0.011042 -0.000767 -0.003052 0.000000 0.000000 0.000000
# 2 -0.000767 0.007736 -0.002805 0.000000 0.000000 0.000000
# 3 -0.003052 -0.002805 0.008194 0.000000 0.000000 0.000000
# 4 0.000000 0.000000 0.000000 -0.009252 0.000000 0.000000
# 5 0.000000 0.000000 0.000000 0.000000 0.062684 0.000000
# 6 0.000000 0.000000 0.000000 0.000000 0.000000 0.030651
#
#
# Mechanical properties :
#
#
# Convention : Reuss Voigt Hill
#
# Bulk Modulus (GPa) = 72.86714 78.46475 75.66594
# Shear Modulus (GPa) = 38.79677 6.91180 22.85429
#
# Velocity S-wave (km/s) = 4.22292 1.78242 3.24115
# Velocity P-wave (km/s) = 7.56776 6.34843 6.98475
#
# Compressibility (1/GPa) = 0.01372361
#
# Stress axis : x y z
#
# Youngs Moduli (GPa) = 90.56650 129.26158 122.04510
#
# Poissons Ratio (x) = 0.09914 0.37249
# Poissons Ratio (y) = 0.06946 0.34233
# Poissons Ratio (z) = 0.27641 0.36257
#
# Static dielectric constant tensor:
#      x y z
#    x 4.196520 0.000000 0.000000 
#    y 0.000000 4.299030 0.000000 
#    z 0.000000 0.000000 4.325830 
# 
# 
# High freq. dielectric constant tensor:
#      x y z
#    x 1.854360 0.000000 0.000000 
#    y 0.000000 1.875810 0.000000 
#    z 0.000000 0.000000 1.871510 
# 
# From -- ./inp_files/11685.got.cif
#   From: 2010.06.25/outbox.cif.g09.slc.cpg/sg52_6_cif.got.tgz:11685.got - 2010.06.26 19:32:48.
