data_PCOD8217303
_publ_section_title
;
Structure prediction by ZEFSAII (Michael W. Deem and Ramdas Pophale) SiO2 
 PCOD8217303
Probable space group: P N N A
;
_chemical_formula_sum "Si O2"
_cell_formula_units_Z 32
_cell_length_a 15.209655
_cell_length_b 16.569238
_cell_length_c 5.071731
_cell_angle_alpha 90.000000
_cell_angle_beta 90.000000
_cell_angle_gamma 90.000000
_cell_volume 1278.139069
_symmetry_space_group_name_H-M "P N N A"
_symmetry_group_IT_number 52
_symmetry_cell_setting 'orthorhombic'
loop_
_space_group_symop_operation_xyz
x,y,z
1/2-x,-y,z
x,1/2-y,1/2-z
1/2-x,1/2+y,1/2-z
-x,-y,-z
1/2+x,y,-z
-x,1/2+y,1/2+z
1/2+x,1/2-y,1/2+z
loop_
_atom_site_type_symbol
_atom_site_label
_atom_site_fract_x
_atom_site_fract_y
_atom_site_fract_z
Si Si1 0.088300 0.345690 0.805912
Si Si2 0.586371 0.579018 0.005534
Si Si3 0.144190 0.012514 0.018677
Si Si4 0.738234 0.802720 0.505597
O O1 0.073994 0.250000 0.750000
O O2 0.109482 0.396824 0.540772
O O3 0.009350 0.382178 0.975084
O O4 0.177749 0.360346 0.969797
O O5 0.599604 0.506278 0.799620
O O6 0.653741 0.647104 0.917835
O O7 0.603516 0.548636 0.300855
O O8 0.250000 0.000000 0.024665
O O9 0.764762 0.750000 0.750000
O O10 0.717592 0.750000 0.250000
#
# Coordination Sequence:
#
# PCOD8217303 Si02
#       4
#     8   8   8   8
#     4  11  27  48  73 113 149 196 247 312 376 443
#     4  12  26  48  77 106 148 195 255 301 375 445
#     4  12  26  49  78 107 150 199 248 307 373 446
#     4  11  25  44  72 108 151 197 245 310 374 441
#
# _framework density 25.0364
#
# number of rings (size 3 to 8) (size 9 to 14) (size 15 to 20)
#    0.000    0.500    2.500    4.500    3.500    5.000 
#    0.000    0.000    0.000    0.000    0.000    0.000 
#    0.000    0.000    0.000    0.000    0.000    0.000 
#
# Total GULP energy -396771.973346 kJ/mol
# GULP energy per Si atom -12399.124167 kJ/mol
# Density = 2.497942 g / cm^3
# Si number density = 25.036400 Si / 1000 Ang^3
#
#
#
# Elastic Constant Matrix: (Units=GPa)
#
#
# Indices 1 2 3 4 5 6 
#
# 1 151.5236 38.5545 -11.3075 0.0000 0.0000 0.0000
# 2 38.5545 110.5179 2.1688 0.0000 0.0000 0.0000
# 3 -11.3075 2.1688 67.1037 0.0000 0.0000 0.0000
# 4 0.0000 0.0000 0.0000 20.4033 0.0000 0.0000
# 5 0.0000 0.0000 0.0000 0.0000-1917.0122 0.0000
# 6 0.0000 0.0000 0.0000 0.0000 0.0000 34.5584
#
#
#
# Elastic Compliance Matrix: (Units=1/GPa)
#
#
# Indices 1 2 3 4 5 6 
#
# 1 0.007358 -0.002593 0.001324 0.000000 0.000000 0.000000
# 2 -0.002593 0.009968 -0.000759 0.000000 0.000000 0.000000
# 3 0.001324 -0.000759 0.015150 0.000000 0.000000 0.000000
# 4 0.000000 0.000000 0.000000 0.049012 0.000000 0.000000
# 5 0.000000 0.000000 0.000000 0.000000 -0.000522 0.000000
# 6 0.000000 0.000000 0.000000 0.000000 0.000000 0.028937
#
#
# Mechanical properties :
#
#
# Convention : Reuss Voigt Hill
#
# Bulk Modulus (GPa) = 35.18737 43.10853 39.14795
# Shear Modulus (GPa) = 40.50815 -352.42814 -155.95999
#
# Velocity S-wave (km/s) = 4.02676 -11.87737 -7.90117
# Velocity P-wave (km/s) = 5.97535 13.07058 8.21996
#
# Compressibility (1/GPa) = 0.02841929
#
# Stress axis : x y z
#
# Youngs Moduli (GPa) = 135.90347 100.32363 66.00703
#
# Poissons Ratio (x) = 0.26013 -0.08737
# Poissons Ratio (y) = 0.35238 0.05010
# Poissons Ratio (z) = -0.17990 0.07615
#
# Static dielectric constant tensor:
#      x y z
#    x 4.884780 0.000000 0.000000 
#    y 0.000000 4.709070 0.000000 
#    z 0.000000 0.000000 4.369460 
# 
# 
# High freq. dielectric constant tensor:
#      x y z
#    x 2.021680 0.000000 0.000000 
#    y 0.000000 2.011940 0.000000 
#    z 0.000000 0.000000 2.002050 
# 
# From -- ./inp_files/1913.got.cif
#   From: 2010.06.25/outbox.cif.g09.slc.cpg/sg52_1_cif.got.tgz:1913.got - 2010.06.26 19:32:48.
