data_PCOD8217379
_publ_section_title
;
Structure prediction by ZEFSAII (Michael W. Deem and Ramdas Pophale) SiO2 
 PCOD8217379
Probable space group: P N N A
;
_chemical_formula_sum "Si O2"
_cell_formula_units_Z 20
_cell_length_a 13.953729
_cell_length_b 4.866025
_cell_length_c 12.260093
_cell_angle_alpha 90.000000
_cell_angle_beta 90.000000
_cell_angle_gamma 90.000000
_cell_volume 832.450435
_symmetry_space_group_name_H-M "P N N A"
_symmetry_group_IT_number 52
_symmetry_cell_setting 'orthorhombic'
loop_
_space_group_symop_operation_xyz
x,y,z
1/2-x,-y,z
x,1/2-y,1/2-z
1/2-x,1/2+y,1/2-z
-x,-y,-z
1/2+x,y,-z
-x,1/2+y,1/2+z
1/2+x,1/2-y,1/2+z
loop_
_atom_site_type_symbol
_atom_site_label
_atom_site_fract_x
_atom_site_fract_y
_atom_site_fract_z
Si Si1 0.750000 0.500000 0.676668
Si Si2 0.892103 0.599967 0.492331
Si Si3 0.650487 0.883907 0.354770
O O1 0.790575 0.250000 0.750000
O O2 0.838405 0.636324 0.607886
O O3 0.828233 0.362252 0.437426
O O4 0.000000 0.500000 0.500000
O O5 0.903205 0.874699 0.419365
O O6 0.593866 0.750000 0.250000
O O7 0.750000 0.000000 0.308721
#
# Coordination Sequence:
#
# PCOD8217379 Si02
#       3
#     4   8   8
#     4  12  26  48  72 100 148 200 246 298 370 444
#     4  12  26  46  72 106 148 194 249 306 366 450
#     4  12  23  44  73 106 141 183 237 304 381 434
#
# _framework density 24.025452000000001
#
# number of rings (size 3 to 8) (size 9 to 14) (size 15 to 20)
#    0.000    0.000    4.000    7.200    0.000    4.800 
#    0.000    0.000    0.000    0.000    0.000    0.000 
#    0.000    0.000    0.000    0.000    0.000    0.000 
#
# Total GULP energy -247838.303664 kJ/mol
# GULP energy per Si atom -12391.915183 kJ/mol
# Density = 2.397077 g / cm^3
# Si number density = 24.025452 Si / 1000 Ang^3
#
#
#
# Elastic Constant Matrix: (Units=GPa)
#
#
# Indices 1 2 3 4 5 6 
#
# 1 98.6686 25.8867 55.8295 0.0000 0.0000 0.0000
# 2 25.8867 187.6393 92.4947 0.0000 0.0000 0.0000
# 3 55.8295 92.4947 148.2162 0.0000 0.0000 0.0000
# 4 0.0000 0.0000 0.0000 74.8504 0.0000 0.0000
# 5 0.0000 0.0000 0.0000 0.0000 7.1477 0.0000
# 6 0.0000 0.0000 0.0000 0.0000 0.0000 34.5488
#
#
#
# Elastic Compliance Matrix: (Units=1/GPa)
#
#
# Indices 1 2 3 4 5 6 
#
# 1 0.012983 0.000895 -0.005449 0.000000 0.000000 0.000000
# 2 0.000895 0.007759 -0.005179 0.000000 0.000000 0.000000
# 3 -0.005449 -0.005179 0.012031 0.000000 0.000000 0.000000
# 4 0.000000 0.000000 0.000000 0.013360 0.000000 0.000000
# 5 0.000000 0.000000 0.000000 0.000000 0.139906 0.000000
# 6 0.000000 0.000000 0.000000 0.000000 0.000000 0.028945
#
#
# Mechanical properties :
#
#
# Convention : Reuss Voigt Hill
#
# Bulk Modulus (GPa) = 75.14659 86.99400 81.07030
# Shear Modulus (GPa) = 20.93053 40.66359 30.79706
#
# Velocity S-wave (km/s) = 2.95478 4.11849 3.58418
# Velocity P-wave (km/s) = 6.55643 7.67487 7.13759
#
# Compressibility (1/GPa) = 0.01330732
#
# Stress axis : x y z
#
# Youngs Moduli (GPa) = 77.02189 128.88512 83.11638
#
# Poissons Ratio (x) = -0.11533 0.45289
# Poissons Ratio (y) = -0.06892 0.43046
# Poissons Ratio (z) = 0.41968 0.66749
#
# Static dielectric constant tensor:
#      x y z
#    x 3.793390 0.000000 0.000000 
#    y 0.000000 4.650570 0.000000 
#    z 0.000000 0.000000 4.641490 
# 
# 
# High freq. dielectric constant tensor:
#      x y z
#    x 1.921240 0.000000 0.000000 
#    y 0.000000 1.982440 0.000000 
#    z 0.000000 0.000000 1.966090 
# 
# From -- ./inp_files/18586.got.cif
#   From: 2010.06.25/outbox.cif.g09.slc.cpg/sg52_10_cif.got.tgz:18586.got - 2010.06.26 19:32:48.
