data_PCOD8217660
_publ_section_title
;
Structure prediction by ZEFSAII (Michael W. Deem and Ramdas Pophale) SiO2 
 PCOD8217660
Probable space group: P M N A
;
_chemical_formula_sum "Si O2"
_cell_formula_units_Z 52
_cell_length_a 17.189628
_cell_length_b 5.314394
_cell_length_c 30.380944
_cell_angle_alpha 90.000000
_cell_angle_beta 90.000000
_cell_angle_gamma 90.000000
_cell_volume 2775.373847
_symmetry_space_group_name_H-M "P M N A"
_symmetry_group_IT_number 53
_symmetry_cell_setting 'orthorhombic'
loop_
_space_group_symop_operation_xyz
x,y,z
1/2-x,-y,1/2+z
x,-y,-z
1/2-x,y,1/2-z
-x,-y,-z
1/2+x,y,1/2-z
-x,y,z
1/2+x,-y,1/2+z
loop_
_atom_site_type_symbol
_atom_site_label
_atom_site_fract_x
_atom_site_fract_y
_atom_site_fract_z
Si Si1 0.089979 0.611097 0.703180
Si Si2 0.413511 0.705415 0.422736
Si Si3 0.909724 0.110266 0.757422
Si Si4 0.777558 0.413040 0.363751
Si Si5 0.365850 0.000000 0.500000
Si Si6 0.818318 0.912442 0.152678
Si Si7 0.277053 0.378434 0.453090
O O1 0.111120 0.361221 0.730379
O O2 0.138554 0.613039 0.658249
O O3 0.000000 0.613261 0.689505
O O4 0.112178 0.860224 0.730377
O O5 0.500000 0.607919 0.410158
O O6 0.420302 0.814732 0.472562
O O7 0.384167 0.899006 0.385371
O O8 0.351614 0.484803 0.426663
O O9 0.858942 0.115058 0.800725
O O10 0.000000 0.107694 0.770563
O O11 0.742797 0.684687 0.351536
O O12 0.791845 0.391282 0.417128
O O13 0.722339 0.183954 0.348844
O O14 0.305467 0.899815 0.536670
O O15 0.254093 0.500000 0.500000
#
# Coordination Sequence:
#
# PCOD8217660 Si02
#       7
#     8   8   8   8   4   8   8
#     4  10  22  39  60  82 108 142 180 225 281 333
#     4  10  20  32  48  74 107 147 188 225 258 306
#     4  10  21  38  56  82 116 150 182 219 268 322
#     4  11  22  38  57  83 110 140 186 230 269 329
#     4  10  17  34  50  70 103 142 184 226 263 314
#     4  11  22  36  55  82 114 148 185 224 268 313
#     4   9  20  35  52  75 107 144 185 224 280 323
#
# _framework density 18.736214
#
# number of rings (size 3 to 8) (size 9 to 14) (size 15 to 20)
#    0.000    1.846    1.538    2.538    0.000    7.077 
#    0.000    1.538    0.000    0.462    0.000    0.538 
#    0.000    0.000    0.000    0.000    0.000    0.000 
#
# Total GULP energy -644308.751007 kJ/mol
# GULP energy per Si atom -12390.552904 kJ/mol
# Density = 1.869357 g / cm^3
# Si number density = 18.736214 Si / 1000 Ang^3
#
#
#
# Elastic Constant Matrix: (Units=GPa)
#
#
# Indices 1 2 3 4 5 6 
#
# 1 55.0594 13.9167 64.8431 0.0000 0.0000 0.0000
# 2 13.9167 99.4422 30.6063 0.0000 0.0000 0.0000
# 3 64.8431 30.6063 138.7279 0.0000 0.0000 0.0000
# 4 0.0000 0.0000 0.0000 26.6621 0.0000 0.0000
# 5 0.0000 0.0000 0.0000 0.0000 15.7041 0.0000
# 6 0.0000 0.0000 0.0000 0.0000 0.0000 9.4969
#
#
#
# Elastic Compliance Matrix: (Units=1/GPa)
#
#
# Indices 1 2 3 4 5 6 
#
# 1 0.040405 0.000170 -0.018923 0.000000 0.000000 0.000000
# 2 0.000170 0.010789 -0.002460 0.000000 0.000000 0.000000
# 3 -0.018923 -0.002460 0.016596 0.000000 0.000000 0.000000
# 4 0.000000 0.000000 0.000000 0.037506 0.000000 0.000000
# 5 0.000000 0.000000 0.000000 0.000000 0.063678 0.000000
# 6 0.000000 0.000000 0.000000 0.000000 0.000000 0.105297
#
#
# Mechanical properties :
#
#
# Convention : Reuss Voigt Hill
#
# Bulk Modulus (GPa) = 39.42613 56.88464 48.15539
# Shear Modulus (GPa) = 15.37737 22.63019 19.00378
#
# Velocity S-wave (km/s) = 2.86795 3.47916 3.18823
# Velocity P-wave (km/s) = 5.66174 6.82393 6.26982
#
# Compressibility (1/GPa) = 0.02536389
#
# Stress axis : x y z
#
# Youngs Moduli (GPa) = 24.74929 92.68371 60.25556
#
# Poissons Ratio (x) = -0.01572 1.14023
# Poissons Ratio (y) = -0.00420 0.14821
# Poissons Ratio (z) = 0.46834 0.22797
#
# Static dielectric constant tensor:
#      x y z
#    x 3.184660 0.000000 0.000000 
#    y 0.000000 3.701940 0.000000 
#    z 0.000000 0.000000 3.838980 
# 
# 
# High freq. dielectric constant tensor:
#      x y z
#    x 1.690760 0.000000 0.000000 
#    y 0.000000 1.741910 0.000000 
#    z 0.000000 0.000000 1.740090 
# 
# From -- ./inp_files/37134.got.cif
#   From: 2010.03.12/outbox.cif.g09.slc.cpg/sg53_19_cif.got.tgz:37134.got - 2010.04.16 14:36:59.
