data_PCOD8217540
_publ_section_title
;
Structure prediction by ZEFSAII (Michael W. Deem and Ramdas Pophale) SiO2 
 PCOD8217540
Probable space group: P M N A
;
_chemical_formula_sum "Si O2"
_cell_formula_units_Z 56
_cell_length_a 9.123153
_cell_length_b 17.466166
_cell_length_c 22.321860
_cell_angle_alpha 90.000000
_cell_angle_beta 90.000000
_cell_angle_gamma 90.000000
_cell_volume 3556.910370
_symmetry_space_group_name_H-M "P M N A"
_symmetry_group_IT_number 53
_symmetry_cell_setting 'orthorhombic'
loop_
_space_group_symop_operation_xyz
x,y,z
1/2-x,-y,1/2+z
x,-y,-z
1/2-x,y,1/2-z
-x,-y,-z
1/2+x,y,1/2-z
-x,y,z
1/2+x,-y,1/2+z
loop_
_atom_site_type_symbol
_atom_site_label
_atom_site_fract_x
_atom_site_fract_y
_atom_site_fract_z
Si Si1 0.669895 0.334635 0.477547
Si Si2 0.167394 0.163884 0.033992
Si Si3 0.326351 0.368573 0.899472
Si Si4 0.330238 0.118645 0.598742
Si Si5 0.661380 0.531856 0.933245
Si Si6 0.674033 0.254575 0.686710
Si Si7 0.834205 0.024405 0.431294
O O1 0.500000 0.348199 0.493901
O O2 0.692895 0.251843 0.446900
O O3 0.763851 0.337938 0.537881
O O4 0.723056 0.398402 0.429460
O O5 0.261849 0.108101 0.076422
O O6 0.000000 0.138923 0.042367
O O7 0.213604 0.156256 0.964543
O O8 0.500000 0.351665 0.897882
O O9 0.294515 0.459750 0.891565
O O10 0.243525 0.328318 0.845069
O O11 0.500000 0.098065 0.600988
O O12 0.286423 0.178595 0.649686
O O13 0.243899 0.039379 0.609700
O O14 0.500000 0.562810 0.915498
O O15 0.657400 0.500000 0.000000
O O16 0.750000 0.244283 0.750000
O O17 0.500000 0.266322 0.692830
O O18 0.000000 0.030461 0.409662
O O19 0.818140 0.000000 0.500000
#
# Coordination Sequence:
#
# PCOD8217540 Si02
#       7
#     8   8   8   8   8   8   8
#     4  10  17  26  42  65  89 117 151 182 215 262
#     4   9  16  27  41  60  87 118 147 175 214 262
#     4  10  19  31  45  60  85 118 149 185 226 263
#     4   9  17  31  45  57  82 116 146 179 220 263
#     4   8  16  28  40  59  85 115 147 178 219 265
#     4  11  22  35  49  67  87 114 154 191 227 264
#     4   9  17  26  39  62  84 108 145 180 214 258
#
# _framework density 15.744
#
# number of rings (size 3 to 8) (size 9 to 14) (size 15 to 20)
#    0.000    2.571    1.429    2.571    0.000    7.143 
#    0.000    0.000    0.000    0.000    0.000    0.000 
#    0.000    1.143    0.000    6.286    0.000    4.857 
#
# Total GULP energy -694205.827863 kJ/mol
# GULP energy per Si atom -12396.532640 kJ/mol
# Density = 1.570817 g / cm^3
# Si number density = 15.744000 Si / 1000 Ang^3
#
#
#
# Elastic Constant Matrix: (Units=GPa)
#
#
# Indices 1 2 3 4 5 6 
#
# 1 99.9752 73.4417 33.8143 0.0000 0.0000 0.0000
# 2 73.4417 134.3000 41.7697 0.0000 0.0000 0.0000
# 3 33.8143 41.7697 46.0226 0.0000 0.0000 0.0000
# 4 0.0000 0.0000 0.0000 15.3923 0.0000 0.0000
# 5 0.0000 0.0000 0.0000 0.0000 15.1402 0.0000
# 6 0.0000 0.0000 0.0000 0.0000 0.0000 25.3931
#
#
#
# Elastic Compliance Matrix: (Units=1/GPa)
#
#
# Indices 1 2 3 4 5 6 
#
# 1 0.017803 -0.007896 -0.005914 0.000000 0.000000 0.000000
# 2 -0.007896 0.013877 -0.006793 0.000000 0.000000 0.000000
# 3 -0.005914 -0.006793 0.032239 0.000000 0.000000 0.000000
# 4 0.000000 0.000000 0.000000 0.064968 0.000000 0.000000
# 5 0.000000 0.000000 0.000000 0.000000 0.066049 0.000000
# 6 0.000000 0.000000 0.000000 0.000000 0.000000 0.039381
#
#
# Mechanical properties :
#
#
# Convention : Reuss Voigt Hill
#
# Bulk Modulus (GPa) = 44.02841 64.26102 54.14471
# Shear Modulus (GPa) = 17.66198 19.93659 18.79929
#
# Velocity S-wave (km/s) = 3.35300 3.56237 3.45927
# Velocity P-wave (km/s) = 6.55866 7.60430 7.10075
#
# Compressibility (1/GPa) = 0.02271261
#
# Stress axis : x y z
#
# Youngs Moduli (GPa) = 56.16881 72.06266 31.01855
#
# Poissons Ratio (x) = 0.56904 0.18345
# Poissons Ratio (y) = 0.44353 0.21070
# Poissons Ratio (z) = 0.33219 0.48950
#
# Static dielectric constant tensor:
#      x y z
#    x 3.121600 0.000000 0.000000 
#    y 0.000000 3.335720 0.000000 
#    z 0.000000 0.000000 2.523690 
# 
# 
# High freq. dielectric constant tensor:
#      x y z
#    x 1.617750 0.000000 0.000000 
#    y 0.000000 1.617070 0.000000 
#    z 0.000000 0.000000 1.531440 
# 
# From -- ./inp_files/34390.got.cif
#   From: 2010.03.12/outbox.cif.g09.slc.cpg/sg53_18_cif.got.tgz:34390.got - 2010.04.16 14:36:59.
