data_PCOD8217093
_publ_section_title
;
Structure prediction by ZEFSAII (Michael W. Deem and Ramdas Pophale) SiO2 
 PCOD8217093
Probable space group: P N N A
;
_chemical_formula_sum "Si O2"
_cell_formula_units_Z 56
_cell_length_a 16.145647
_cell_length_b 21.091199
_cell_length_c 8.748264
_cell_angle_alpha 90.000000
_cell_angle_beta 90.000000
_cell_angle_gamma 90.000000
_cell_volume 2979.055559
_symmetry_space_group_name_H-M "P N N A"
_symmetry_group_IT_number 52
_symmetry_cell_setting 'orthorhombic'
loop_
_space_group_symop_operation_xyz
x,y,z
1/2-x,-y,z
x,1/2-y,1/2-z
1/2-x,1/2+y,1/2-z
-x,-y,-z
1/2+x,y,-z
-x,1/2+y,1/2+z
1/2+x,1/2-y,1/2+z
loop_
_atom_site_type_symbol
_atom_site_label
_atom_site_fract_x
_atom_site_fract_y
_atom_site_fract_z
Si Si1 0.885038 0.750000 0.250000
Si Si2 0.752144 0.571627 0.627509
Si Si3 0.254144 0.066346 0.610098
Si Si4 0.254718 0.166394 0.854306
Si Si5 0.887583 0.071940 0.621282
Si Si6 0.903000 0.250000 0.250000
Si Si7 0.885410 0.567379 0.859109
Si Si8 0.504989 0.326622 0.007674
O O1 0.823724 0.787260 0.133884
O O2 0.940228 0.711871 0.128787
O O3 0.750000 0.500000 0.562645
O O4 0.735624 0.622855 0.499623
O O5 0.679752 0.583009 0.748471
O O6 0.843657 0.584051 0.696594
O O7 0.228452 0.125248 0.709413
O O8 0.346136 0.076567 0.545738
O O9 0.190594 0.058370 0.472602
O O10 0.250000 0.000000 0.704759
O O11 0.343659 0.198986 0.831283
O O12 0.950439 0.130604 0.622555
O O13 0.930626 0.002171 0.645470
O O14 0.957556 0.219251 0.387381
O O15 0.944719 0.624519 0.902277
#
# Coordination Sequence:
#
# PCOD8217093 Si02
#       8
#     4   8   8   8   8   4   8   8
#     4  11  28  38  60  81 120 162 208 227 296 346
#     4   9  20  37  64  92 115 147 194 246 300 351
#     4   9  16  34  61  82 106 146 192 239 286 346
#     4  11  21  43  55  87 116 159 196 240 280 361
#     4   9  19  37  62  88 112 148 194 243 299 350
#     4  11  28  38  60  81 120 162 208 227 296 346
#     4   9  19  37  62  88 112 148 194 243 299 350
#     4  12  23  42  56  86 119 158 196 252 286 348
#
# _framework density 18.797903999999999
#
# number of rings (size 3 to 8) (size 9 to 14) (size 15 to 20)
#    0.000    2.000    2.857    2.571    4.000    0.000 
#    0.000    1.429    0.000    3.429    0.000    0.000 
#    0.000    0.000    0.000    0.000    0.000    0.000 
#
# Total GULP energy -693795.377794 kJ/mol
# GULP energy per Si atom -12389.203175 kJ/mol
# Density = 1.875512 g / cm^3
# Si number density = 18.797904 Si / 1000 Ang^3
#
#
#
# Elastic Constant Matrix: (Units=GPa)
#
#
# Indices 1 2 3 4 5 6 
#
# 1 92.3832 59.2649 36.8296 0.0000 0.0000 0.0000
# 2 59.2649 128.0944 57.8134 0.0000 0.0000 0.0000
# 3 36.8296 57.8134 83.2241 0.0000 0.0000 0.0000
# 4 0.0000 0.0000 0.0000 39.5852 0.0000 0.0000
# 5 0.0000 0.0000 0.0000 0.0000 18.5100 0.0000
# 6 0.0000 0.0000 0.0000 0.0000 0.0000 20.6402
#
#
#
# Elastic Compliance Matrix: (Units=1/GPa)
#
#
# Indices 1 2 3 4 5 6 
#
# 1 0.015827 -0.006062 -0.002793 0.000000 0.000000 0.000000
# 2 -0.006062 0.013694 -0.006830 0.000000 0.000000 0.000000
# 3 -0.002793 -0.006830 0.017996 0.000000 0.000000 0.000000
# 4 0.000000 0.000000 0.000000 0.025262 0.000000 0.000000
# 5 0.000000 0.000000 0.000000 0.000000 0.054025 0.000000
# 6 0.000000 0.000000 0.000000 0.000000 0.000000 0.048449
#
#
# Mechanical properties :
#
#
# Convention : Reuss Voigt Hill
#
# Bulk Modulus (GPa) = 61.93027 67.94638 64.93833
# Shear Modulus (GPa) = 23.58427 25.73334 24.65880
#
# Velocity S-wave (km/s) = 3.54591 3.70394 3.62579
# Velocity P-wave (km/s) = 7.05560 7.38353 7.22142
#
# Compressibility (1/GPa) = 0.01614719
#
# Stress axis : x y z
#
# Youngs Moduli (GPa) = 63.18435 73.02381 55.56647
#
# Poissons Ratio (x) = 0.44267 0.15518
# Poissons Ratio (y) = 0.38302 0.37954
# Poissons Ratio (z) = 0.17646 0.49877
#
# Static dielectric constant tensor:
#      x y z
#    x 3.544420 0.000000 0.000000 
#    y 0.000000 3.765430 0.000000 
#    z 0.000000 0.000000 3.262000 
# 
# 
# High freq. dielectric constant tensor:
#      x y z
#    x 1.726750 0.000000 0.000000 
#    y 0.000000 1.749240 0.000000 
#    z 0.000000 0.000000 1.715260 
# 
# From -- ./inp_files/10852.got.cif
#   From: 2010.06.25/outbox.cif.g09.slc.cpg/sg52_6_cif.got.tgz:10852.got - 2010.06.26 19:32:48.
