data_PCOD8217088
_publ_section_title
;
Structure prediction by ZEFSAII (Michael W. Deem and Ramdas Pophale) SiO2 
 PCOD8217088
Probable space group: P N N A
;
_chemical_formula_sum "Si O2"
_cell_formula_units_Z 48
_cell_length_a 16.156560
_cell_length_b 17.011017
_cell_length_c 8.793509
_cell_angle_alpha 90.000000
_cell_angle_beta 90.000000
_cell_angle_gamma 90.000000
_cell_volume 2416.803765
_symmetry_space_group_name_H-M "P N N A"
_symmetry_group_IT_number 52
_symmetry_cell_setting 'orthorhombic'
loop_
_space_group_symop_operation_xyz
x,y,z
1/2-x,-y,z
x,1/2-y,1/2-z
1/2-x,1/2+y,1/2-z
-x,-y,-z
1/2+x,y,-z
-x,1/2+y,1/2+z
1/2+x,1/2-y,1/2+z
loop_
_atom_site_type_symbol
_atom_site_label
_atom_site_fract_x
_atom_site_fract_y
_atom_site_fract_z
Si Si1 0.167723 0.468626 0.683463
Si Si2 0.770866 0.911415 0.872262
Si Si3 0.425221 0.841056 0.291467
Si Si4 0.458090 0.077066 0.932942
Si Si5 0.597654 0.839026 0.795232
Si Si6 0.525730 0.079285 0.416008
O O1 0.250000 0.500000 0.771739
O O2 0.193496 0.408692 0.546170
O O3 0.134533 0.549453 0.607080
O O4 0.099097 0.432036 0.793004
O O5 0.838170 0.875946 0.758913
O O6 0.691088 0.858592 0.840228
O O7 0.750000 0.000000 0.823636
O O8 0.432360 0.750000 0.250000
O O9 0.497543 0.891895 0.215875
O O10 0.438206 0.854443 0.471059
O O11 0.458217 0.146617 0.055661
O O12 0.500000 0.000000 0.000000
O O13 0.589915 0.750000 0.750000
O O14 0.559453 0.891869 0.660749
O O15 0.500000 0.000000 0.500000
#
# Coordination Sequence:
#
# PCOD8217088 Si02
#       6
#     8   8   8   8   8   8
#     4  11  22  39  70  97 120 169 242 278 321 402
#     4  11  21  42  68  92 125 181 228 269 329 423
#     4  12  25  41  63  97 140 174 213 287 350 389
#     4  12  19  42  70  91 125 184 232 262 326 424
#     4  12  24  40  66 101 134 173 223 284 342 401
#     4  12  24  41  66  99 132 173 229 283 333 403
#
# _framework density 19.860942999999999
#
# number of rings (size 3 to 8) (size 9 to 14) (size 15 to 20)
#    0.000    0.333    8.333    2.500    0.000    2.000 
#    0.000    0.000    0.000    2.000    0.000    0.000 
#    0.000    0.000    0.000    0.000    0.000    0.000 
#
# Total GULP energy -594982.951850 kJ/mol
# GULP energy per Si atom -12395.478164 kJ/mol
# Density = 1.981574 g / cm^3
# Si number density = 19.860943 Si / 1000 Ang^3
#
#
#
# Elastic Constant Matrix: (Units=GPa)
#
#
# Indices 1 2 3 4 5 6 
#
# 1 130.5158 44.2965 61.6138 0.0000 0.0000 0.0000
# 2 44.2965 118.7794 52.8203 0.0000 0.0000 0.0000
# 3 61.6138 52.8203 125.5947 0.0000 0.0000 0.0000
# 4 0.0000 0.0000 0.0000 38.2098 0.0000 0.0000
# 5 0.0000 0.0000 0.0000 0.0000 40.4040 0.0000
# 6 0.0000 0.0000 0.0000 0.0000 0.0000 31.6352
#
#
#
# Elastic Compliance Matrix: (Units=1/GPa)
#
#
# Indices 1 2 3 4 5 6 
#
# 1 0.010332 -0.001967 -0.004241 0.000000 0.000000 0.000000
# 2 -0.001967 0.010730 -0.003548 0.000000 0.000000 0.000000
# 3 -0.004241 -0.003548 0.011535 0.000000 0.000000 0.000000
# 4 0.000000 0.000000 0.000000 0.026171 0.000000 0.000000
# 5 0.000000 0.000000 0.000000 0.000000 0.024750 0.000000
# 6 0.000000 0.000000 0.000000 0.000000 0.000000 0.031610
#
#
# Mechanical properties :
#
#
# Convention : Reuss Voigt Hill
#
# Bulk Modulus (GPa) = 76.42482 76.92791 76.67637
# Shear Modulus (GPa) = 35.97073 36.46041 36.21557
#
# Velocity S-wave (km/s) = 4.26035 4.28925 4.27483
# Velocity P-wave (km/s) = 7.92239 7.95912 7.94078
#
# Compressibility (1/GPa) = 0.01308475
#
# Stress axis : x y z
#
# Youngs Moduli (GPa) = 96.78953 93.19521 86.69395
#
# Poissons Ratio (x) = 0.18331 0.36769
# Poissons Ratio (y) = 0.19038 0.30757
# Poissons Ratio (z) = 0.41051 0.33063
#
# Static dielectric constant tensor:
#      x y z
#    x 3.914090 0.000000 0.000000 
#    y 0.000000 3.631810 0.000000 
#    z 0.000000 0.000000 3.874430 
# 
# 
# High freq. dielectric constant tensor:
#      x y z
#    x 1.796080 0.000000 0.000000 
#    y 0.000000 1.762330 0.000000 
#    z 0.000000 0.000000 1.777650 
# 
# From -- ./inp_files/10456.got.cif
#   From: 2010.06.25/outbox.cif.g09.slc.cpg/sg52_6_cif.got.tgz:10456.got - 2010.06.26 19:32:48.
