data_PCOD8217132
_publ_section_title
;
Structure prediction by ZEFSAII (Michael W. Deem and Ramdas Pophale) SiO2 
 PCOD8217132
Probable space group: P N N A
;
_chemical_formula_sum "Si O2"
_cell_formula_units_Z 48
_cell_length_a 14.797421
_cell_length_b 16.985990
_cell_length_c 9.340638
_cell_angle_alpha 90.000000
_cell_angle_beta 90.000000
_cell_angle_gamma 90.000000
_cell_volume 2347.758574
_symmetry_space_group_name_H-M "P N N A"
_symmetry_group_IT_number 52
_symmetry_cell_setting 'orthorhombic'
loop_
_space_group_symop_operation_xyz
x,y,z
1/2-x,-y,z
x,1/2-y,1/2-z
1/2-x,1/2+y,1/2-z
-x,-y,-z
1/2+x,y,-z
-x,1/2+y,1/2+z
1/2+x,1/2-y,1/2+z
loop_
_atom_site_type_symbol
_atom_site_label
_atom_site_fract_x
_atom_site_fract_y
_atom_site_fract_z
Si Si1 0.480431 0.235310 0.081234
Si Si2 0.706964 0.684535 0.499873
Si Si3 0.566722 0.428022 0.499801
Si Si4 0.282156 0.918081 0.773229
Si Si5 0.208106 0.084371 0.234542
Si Si6 0.652782 0.180791 0.489701
O O1 0.479007 0.250000 0.250000
O O2 0.511743 0.148013 0.046146
O O3 0.379696 0.241670 0.014541
O O4 0.545494 0.299573 0.004880
O O5 0.702688 0.630311 0.356509
O O6 0.716788 0.631017 0.641895
O O7 0.797574 0.735605 0.485916
O O8 0.500000 0.500000 0.500000
O O9 0.646197 0.445467 0.390190
O O10 0.611869 0.420655 0.655706
O O11 0.327930 0.864442 0.655658
O O12 0.250000 0.000000 0.701911
O O13 0.187682 0.130135 0.379464
O O14 0.250000 0.000000 0.272890
#
# Coordination Sequence:
#
# PCOD8217132 Si02
#       6
#     8   8   8   8   8   8
#     4  12  22  41  68  97 132 174 219 278 330 391
#     4  11  23  42  71  93 127 179 225 257 329 405
#     4  11  22  40  67  95 126 173 229 262 321 398
#     4  11  22  43  66  95 136 171 217 277 329 391
#     4  11  23  42  66  95 136 173 220 275 333 396
#     4  12  23  44  64 100 134 171 215 283 335 386
#
# _framework density 20.445032999999999
#
# number of rings (size 3 to 8) (size 9 to 14) (size 15 to 20)
#    0.000    0.667    5.000    6.500    0.000    0.000 
#    9.000    0.833    0.000    0.000    0.000    0.000 
#    0.000    0.000    0.000    0.000    0.000    0.000 
#
# Total GULP energy -595264.568027 kJ/mol
# GULP energy per Si atom -12401.345167 kJ/mol
# Density = 2.039850 g / cm^3
# Si number density = 20.445033 Si / 1000 Ang^3
#
#
#
# Elastic Constant Matrix: (Units=GPa)
#
#
# Indices 1 2 3 4 5 6 
#
# 1 100.3135 30.3161 28.9630 0.0000 0.0000 0.0000
# 2 30.3161 112.2034 50.0234 0.0000 0.0000 0.0000
# 3 28.9630 50.0234 77.2687 0.0000 0.0000 0.0000
# 4 0.0000 0.0000 0.0000 43.8558 0.0000 0.0000
# 5 0.0000 0.0000 0.0000 0.0000 18.0445 0.0000
# 6 0.0000 0.0000 0.0000 0.0000 0.0000 26.3704
#
#
#
# Elastic Compliance Matrix: (Units=1/GPa)
#
#
# Indices 1 2 3 4 5 6 
#
# 1 0.011392 -0.001651 -0.003201 0.000000 0.000000 0.000000
# 2 -0.001651 0.012768 -0.007647 0.000000 0.000000 0.000000
# 3 -0.003201 -0.007647 0.019092 0.000000 0.000000 0.000000
# 4 0.000000 0.000000 0.000000 0.022802 0.000000 0.000000
# 5 0.000000 0.000000 0.000000 0.000000 0.055418 0.000000
# 6 0.000000 0.000000 0.000000 0.000000 0.000000 0.037921
#
#
# Mechanical properties :
#
#
# Convention : Reuss Voigt Hill
#
# Bulk Modulus (GPa) = 54.78301 56.48786 55.63543
# Shear Modulus (GPa) = 26.24996 29.68637 27.96817
#
# Velocity S-wave (km/s) = 3.58708 3.81466 3.70262
# Velocity P-wave (km/s) = 6.63398 6.86231 6.74911
#
# Compressibility (1/GPa) = 0.01825384
#
# Stress axis : x y z
#
# Youngs Moduli (GPa) = 87.78135 78.32323 52.37670
#
# Poissons Ratio (x) = 0.12929 0.16768
# Poissons Ratio (y) = 0.14490 0.40052
# Poissons Ratio (z) = 0.28103 0.59893
#
# Static dielectric constant tensor:
#      x y z
#    x 3.874760 0.000000 0.000000 
#    y 0.000000 3.654960 0.000000 
#    z 0.000000 0.000000 3.623120 
# 
# 
# High freq. dielectric constant tensor:
#      x y z
#    x 1.799670 0.000000 0.000000 
#    y 0.000000 1.812260 0.000000 
#    z 0.000000 0.000000 1.795200 
# 
# From -- ./inp_files/10486.got.cif
#   From: 2010.06.25/outbox.cif.g09.slc.cpg/sg52_6_cif.got.tgz:10486.got - 2010.06.26 19:32:48.
