data_PCOD8217682
_publ_section_title
;
Structure prediction by ZEFSAII (Michael W. Deem and Ramdas Pophale) SiO2 
 PCOD8217682
Probable space group: P M N A
;
_chemical_formula_sum "Si O2"
_cell_formula_units_Z 64
_cell_length_a 9.071881
_cell_length_b 18.620889
_cell_length_c 24.630467
_cell_angle_alpha 90.000000
_cell_angle_beta 90.000000
_cell_angle_gamma 90.000000
_cell_volume 4160.738316
_symmetry_space_group_name_H-M "P M N A"
_symmetry_group_IT_number 53
_symmetry_cell_setting 'orthorhombic'
loop_
_space_group_symop_operation_xyz
x,y,z
1/2-x,-y,1/2+z
x,-y,-z
1/2-x,y,1/2-z
-x,-y,-z
1/2+x,y,1/2-z
-x,y,z
1/2+x,-y,1/2+z
loop_
_atom_site_type_symbol
_atom_site_label
_atom_site_fract_x
_atom_site_fract_y
_atom_site_fract_z
Si Si1 0.173466 0.225968 0.696029
Si Si2 0.333429 0.321916 0.611411
Si Si3 0.823865 0.990236 0.420746
Si Si4 0.171203 0.938393 0.303340
Si Si5 0.666700 0.452788 0.920444
Si Si6 0.677778 0.105706 0.491610
Si Si7 0.164592 0.602138 0.542652
Si Si8 0.665020 0.267932 0.489126
O O1 0.250000 0.256667 0.750000
O O2 0.229248 0.270260 0.645115
O O3 0.220879 0.143591 0.686928
O O4 0.000000 0.235294 0.701448
O O5 0.500000 0.320355 0.633754
O O6 0.273170 0.403585 0.616174
O O7 0.325967 0.293978 0.550513
O O8 0.787020 0.983035 0.357042
O O9 0.750346 0.924118 0.453112
O O10 0.000000 0.991017 0.431294
O O11 0.746389 0.063214 0.440666
O O12 0.250000 0.970999 0.250000
O O13 0.000000 0.942646 0.291124
O O14 0.500000 0.450481 0.897308
O O15 0.726828 0.535226 0.921473
O O16 0.666640 0.421445 0.980592
O O17 0.500000 0.097425 0.494284
O O18 0.730211 0.187811 0.484858
O O19 0.253403 0.676009 0.550641
O O20 0.000000 0.618590 0.561989
O O21 0.500000 0.266312 0.467495
#
# Coordination Sequence:
#
# PCOD8217682 Si02
#       8
#     8   8   8   8   8   8   8   8
#     4  10  19  31  44  59  80 106 135 171 209 246
#     4  10  18  27  40  59  81 109 141 172 204 242
#     4  10  19  31  45  63  85 110 142 180 215 253
#     4   9  19  32  47  65  84 108 140 176 217 257
#     4   8  14  25  38  55  78 105 135 166 197 233
#     4  10  19  30  43  61  85 117 148 175 212 257
#     4   8  14  24  39  56  77 105 136 166 198 233
#     4   9  18  28  39  58  84 110 140 173 205 243
#
# _framework density 15.381886
#
# number of rings (size 3 to 8) (size 9 to 14) (size 15 to 20)
#    0.000    2.750    0.000    3.750    0.000    3.500 
#    0.000    2.500    0.000    0.000    0.000    0.000 
#    0.000    1.000    0.000    9.000    0.000    7.250 
#
# Total GULP energy -793223.518374 kJ/mol
# GULP energy per Si atom -12394.117475 kJ/mol
# Density = 1.534688 g / cm^3
# Si number density = 15.381886 Si / 1000 Ang^3
#
#
#
# Elastic Constant Matrix: (Units=GPa)
#
#
# Indices 1 2 3 4 5 6 
#
# 1 71.1266 41.5920 26.8839 0.0000 0.0000 0.0000
# 2 41.5920 111.8095 24.7163 0.0000 0.0000 0.0000
# 3 26.8839 24.7163 59.0392 0.0000 0.0000 0.0000
# 4 0.0000 0.0000 0.0000 14.8628 0.0000 0.0000
# 5 0.0000 0.0000 0.0000 0.0000 22.4543 0.0000
# 6 0.0000 0.0000 0.0000 0.0000 0.0000 26.7604
#
#
#
# Elastic Compliance Matrix: (Units=1/GPa)
#
#
# Indices 1 2 3 4 5 6 
#
# 1 0.020075 -0.006002 -0.006628 0.000000 0.000000 0.000000
# 2 -0.006002 0.011651 -0.002144 0.000000 0.000000 0.000000
# 3 -0.006628 -0.002144 0.020854 0.000000 0.000000 0.000000
# 4 0.000000 0.000000 0.000000 0.067282 0.000000 0.000000
# 5 0.000000 0.000000 0.000000 0.000000 0.044535 0.000000
# 6 0.000000 0.000000 0.000000 0.000000 0.000000 0.037369
#
#
# Mechanical properties :
#
#
# Convention : Reuss Voigt Hill
#
# Bulk Modulus (GPa) = 43.42289 47.59553 45.50921
# Shear Modulus (GPa) = 20.92132 22.73440 21.82786
#
# Velocity S-wave (km/s) = 3.69199 3.84864 3.77113
# Velocity P-wave (km/s) = 6.81657 7.12455 6.97226
#
# Compressibility (1/GPa) = 0.02302933
#
# Stress axis : x y z
#
# Youngs Moduli (GPa) = 49.81402 85.83260 47.95295
#
# Poissons Ratio (x) = 0.51520 0.31785
# Poissons Ratio (y) = 0.29900 0.10282
# Poissons Ratio (z) = 0.33018 0.18404
#
# Static dielectric constant tensor:
#      x y z
#    x 3.113960 0.000000 0.000000 
#    y 0.000000 3.124610 0.000000 
#    z 0.000000 0.000000 2.682940 
# 
# 
# High freq. dielectric constant tensor:
#      x y z
#    x 1.599650 0.000000 0.000000 
#    y 0.000000 1.585710 0.000000 
#    z 0.000000 0.000000 1.545740 
# 
# From -- ./inp_files/36470.got.cif
#   From: 2010.03.12/outbox.cif.g09.slc.cpg/sg53_19_cif.got.tgz:36470.got - 2010.04.16 14:36:59.
