data_PCOD8217537
_publ_section_title
;
Structure prediction by ZEFSAII (Michael W. Deem and Ramdas Pophale) SiO2 
 PCOD8217537
Probable space group: P M N A
;
_chemical_formula_sum "Si O2"
_cell_formula_units_Z 56
_cell_length_a 24.604060
_cell_length_b 25.550011
_cell_length_c 5.048632
_cell_angle_alpha 90.000000
_cell_angle_beta 90.000000
_cell_angle_gamma 90.000000
_cell_volume 3173.741747
_symmetry_space_group_name_H-M "P M N A"
_symmetry_group_IT_number 53
_symmetry_cell_setting 'orthorhombic'
loop_
_space_group_symop_operation_xyz
x,y,z
1/2-x,-y,1/2+z
x,-y,-z
1/2-x,y,1/2-z
-x,-y,-z
1/2+x,y,1/2-z
-x,y,z
1/2+x,-y,1/2+z
loop_
_atom_site_type_symbol
_atom_site_label
_atom_site_fract_x
_atom_site_fract_y
_atom_site_fract_z
Si Si1 0.938763 0.535912 0.253500
Si Si2 0.937212 0.123654 0.486265
Si Si3 0.061486 0.056848 0.972123
Si Si4 0.366591 0.364903 0.678724
Si Si5 0.687552 0.319606 0.181204
Si Si6 0.107735 0.227728 0.290855
Si Si7 0.439655 0.729635 0.289178
O O1 0.923843 0.500000 0.500000
O O2 0.890465 0.577946 0.231140
O O3 0.000000 0.560190 0.285714
O O4 0.937139 0.500000 0.000000
O O5 0.913295 0.096183 0.751949
O O6 0.893779 0.168310 0.398692
O O7 0.000000 0.145026 0.525292
O O8 0.936551 0.080907 0.260119
O O9 0.000000 0.047476 0.872314
O O10 0.090848 0.000000 0.000000
O O11 0.338818 0.359109 0.393298
O O12 0.419067 0.328533 0.671347
O O13 0.322705 0.346827 0.898177
O O14 0.750000 0.313500 0.250000
O O15 0.664149 0.259900 0.178518
O O16 0.064477 0.256823 0.479989
O O17 0.091765 0.229269 0.980784
O O18 0.500000 0.731795 0.391699
#
# Coordination Sequence:
#
# PCOD8217537 Si02
#       7
#     8   8   8   8   8   8   8
#     4  10  20  34  54  80 109 135 159 194 240 289
#     4  10  17  26  41  61  91 123 153 192 232 274
#     4   9  17  27  39  57  85 126 166 191 217 263
#     4  10  20  34  54  75  96 129 166 197 238 291
#     4  10  21  37  55  72  95 128 165 208 248 289
#     4  10  20  30  45  70  94 124 159 194 243 292
#     4  10  18  29  45  68  99 125 152 188 231 293
#
# _framework density 17.644787999999998
#
# number of rings (size 3 to 8) (size 9 to 14) (size 15 to 20)
#    0.000    2.143    0.000    4.286    0.000    2.857 
#    0.000    4.286    0.000    8.571    0.000    0.000 
#    0.000    2.286    0.000    0.143    0.000    0.000 
#
# Total GULP energy -693878.186986 kJ/mol
# GULP energy per Si atom -12390.681910 kJ/mol
# Density = 1.760463 g / cm^3
# Si number density = 17.644788 Si / 1000 Ang^3
#
#
#
# Elastic Constant Matrix: (Units=GPa)
#
#
# Indices 1 2 3 4 5 6 
#
# 1 51.6572 39.5512 2.8352 0.0000 0.0000 0.0000
# 2 39.5512 94.4908 18.7568 0.0000 0.0000 0.0000
# 3 2.8352 18.7568 80.8267 0.0000 0.0000 0.0000
# 4 0.0000 0.0000 0.0000 25.9987 0.0000 0.0000
# 5 0.0000 0.0000 0.0000 0.0000 12.0077 0.0000
# 6 0.0000 0.0000 0.0000 0.0000 0.0000 11.7753
#
#
#
# Elastic Compliance Matrix: (Units=1/GPa)
#
#
# Indices 1 2 3 4 5 6 
#
# 1 0.028756 -0.012408 0.001871 0.000000 0.000000 0.000000
# 2 -0.012408 0.016448 -0.003382 0.000000 0.000000 0.000000
# 3 0.001871 -0.003382 0.013091 0.000000 0.000000 0.000000
# 4 0.000000 0.000000 0.000000 0.038463 0.000000 0.000000
# 5 0.000000 0.000000 0.000000 0.000000 0.083280 0.000000
# 6 0.000000 0.000000 0.000000 0.000000 0.000000 0.084923
#
#
# Mechanical properties :
#
#
# Convention : Reuss Voigt Hill
#
# Bulk Modulus (GPa) = 32.83277 38.80680 35.81979
# Shear Modulus (GPa) = 16.50431 21.01177 18.75804
#
# Velocity S-wave (km/s) = 3.06169 3.45457 3.26405
# Velocity P-wave (km/s) = 5.58092 6.16061 5.87792
#
# Compressibility (1/GPa) = 0.03045738
#
# Stress axis : x y z
#
# Youngs Moduli (GPa) = 34.77589 60.79839 76.38664
#
# Poissons Ratio (x) = 0.75436 -0.14289
# Poissons Ratio (y) = 0.43149 0.25831
# Poissons Ratio (z) = -0.06505 0.20560
#
# Static dielectric constant tensor:
#      x y z
#    x 3.142640 0.000000 0.000000 
#    y 0.000000 3.265640 0.000000 
#    z 0.000000 0.000000 3.645320 
# 
# 
# High freq. dielectric constant tensor:
#      x y z
#    x 1.625110 0.000000 0.000000 
#    y 0.000000 1.679470 0.000000 
#    z 0.000000 0.000000 1.710000 
# 
# From -- ./inp_files/3809.got.cif
#   From: 2010.03.12/outbox.cif.g09.slc.cpg/sg53_2_cif.got.tgz:3809.got - 2010.04.16 14:36:59.
