data_PCOD8217026
_publ_section_title
;
Structure prediction by ZEFSAII (Michael W. Deem and Ramdas Pophale) SiO2 
 PCOD8217026
Probable space group: P N N A
;
_chemical_formula_sum "Si O2"
_cell_formula_units_Z 56
_cell_length_a 20.301357
_cell_length_b 14.695287
_cell_length_c 9.167261
_cell_angle_alpha 90.000000
_cell_angle_beta 90.000000
_cell_angle_gamma 90.000000
_cell_volume 2734.908096
_symmetry_space_group_name_H-M "P N N A"
_symmetry_group_IT_number 52
_symmetry_cell_setting 'orthorhombic'
loop_
_space_group_symop_operation_xyz
x,y,z
1/2-x,-y,z
x,1/2-y,1/2-z
1/2-x,1/2+y,1/2-z
-x,-y,-z
1/2+x,y,-z
-x,1/2+y,1/2+z
1/2+x,1/2-y,1/2+z
loop_
_atom_site_type_symbol
_atom_site_label
_atom_site_fract_x
_atom_site_fract_y
_atom_site_fract_z
Si Si1 0.200211 0.208116 0.408866
Si Si2 0.430539 0.951776 0.705766
Si Si3 0.488158 0.184522 0.483132
Si Si4 0.156651 0.689182 0.108887
Si Si5 0.356981 0.987392 0.425925
Si Si6 0.032579 0.089690 0.245702
Si Si7 0.089215 0.326603 0.538215
O O1 0.188165 0.250000 0.250000
O O2 0.275474 0.228557 0.461696
O O3 0.189748 0.099500 0.400654
O O4 0.148896 0.245310 0.979991
O O5 0.486926 0.899063 0.614437
O O6 0.375151 0.992664 0.598345
O O7 0.466002 0.034322 0.792842
O O8 0.393233 0.890637 0.825750
O O9 0.409009 0.194780 0.489167
O O10 0.513793 0.174961 0.650243
O O11 0.521372 0.275588 0.420509
O O12 0.141055 0.750000 0.250000
O O13 0.174126 0.582005 0.132743
O O14 0.423553 0.979336 0.336733
O O15 0.075431 0.116815 0.106976
#
# Coordination Sequence:
#
# PCOD8217026 Si02
#       7
#     8   8   8   8   8   8   8
#     4  11  22  39  62  95 124 163 208 265 315 375
#     4  11  21  35  62  94 124 157 213 253 309 377
#     4  11  20  37  61  88 118 159 206 257 308 361
#     4  11  23  38  62  92 122 160 220 262 311 370
#     4  11  20  39  64  90 123 163 209 260 310 376
#     4  11  20  37  61  91 130 155 205 260 315 365
#     4  12  22  36  62  95 126 164 201 257 318 377
#
# _framework density 20.476008
#
# number of rings (size 3 to 8) (size 9 to 14) (size 15 to 20)
#    0.000    0.857    7.143    3.429    0.000    0.000 
#    0.000    0.000    6.286    0.000    0.000    0.000 
#    0.000    0.000    0.000    0.000    0.000    0.000 
#
# Total GULP energy -693895.821236 kJ/mol
# GULP energy per Si atom -12390.996808 kJ/mol
# Density = 2.042940 g / cm^3
# Si number density = 20.476008 Si / 1000 Ang^3
#
#
#
# Elastic Constant Matrix: (Units=GPa)
#
#
# Indices 1 2 3 4 5 6 
#
# 1 109.2788 22.5579 29.3374 0.0000 0.0000 0.0000
# 2 22.5579 91.2712 44.1448 0.0000 0.0000 0.0000
# 3 29.3374 44.1448 80.0639 0.0000 0.0000 0.0000
# 4 0.0000 0.0000 0.0000 22.3042 0.0000 0.0000
# 5 0.0000 0.0000 0.0000 0.0000 8.9044 0.0000
# 6 0.0000 0.0000 0.0000 0.0000 0.0000 14.2255
#
#
#
# Elastic Compliance Matrix: (Units=1/GPa)
#
#
# Indices 1 2 3 4 5 6 
#
# 1 0.010212 -0.000974 -0.003205 0.000000 0.000000 0.000000
# 2 -0.000974 0.015034 -0.007932 0.000000 0.000000 0.000000
# 3 -0.003205 -0.007932 0.018038 0.000000 0.000000 0.000000
# 4 0.000000 0.000000 0.000000 0.044835 0.000000 0.000000
# 5 0.000000 0.000000 0.000000 0.000000 0.112304 0.000000
# 6 0.000000 0.000000 0.000000 0.000000 0.000000 0.070296
#
#
# Mechanical properties :
#
#
# Convention : Reuss Voigt Hill
#
# Bulk Modulus (GPa) = 52.46131 52.52158 52.49144
# Shear Modulus (GPa) = 16.59503 21.39173 18.99338
#
# Velocity S-wave (km/s) = 2.84995 3.23572 3.04894
# Velocity P-wave (km/s) = 6.04203 6.29808 6.17138
#
# Compressibility (1/GPa) = 0.01906167
#
# Stress axis : x y z
#
# Youngs Moduli (GPa) = 97.92031 66.51762 55.43831
#
# Poissons Ratio (x) = 0.06478 0.17769
# Poissons Ratio (y) = 0.09536 0.43975
# Poissons Ratio (z) = 0.31385 0.52763
#
# Static dielectric constant tensor:
#      x y z
#    x 3.719830 0.000000 0.000000 
#    y 0.000000 3.798030 0.000000 
#    z 0.000000 0.000000 3.516730 
# 
# 
# High freq. dielectric constant tensor:
#      x y z
#    x 1.794570 0.000000 0.000000 
#    y 0.000000 1.808170 0.000000 
#    z 0.000000 0.000000 1.773310 
# 
# From -- ./inp_files/13542.got.cif
#   From: 2010.06.25/outbox.cif.g09.slc.cpg/sg52_7_cif.got.tgz:13542.got - 2010.06.26 19:32:48.
