data_PCOD8217654
_publ_section_title
;
Structure prediction by ZEFSAII (Michael W. Deem and Ramdas Pophale) SiO2 
 PCOD8217654
Probable space group: P M N A
;
_chemical_formula_sum "Si O2"
_cell_formula_units_Z 64
_cell_length_a 19.494211
_cell_length_b 9.786966
_cell_length_c 19.205732
_cell_angle_alpha 90.000000
_cell_angle_beta 90.000000
_cell_angle_gamma 90.000000
_cell_volume 3664.245864
_symmetry_space_group_name_H-M "P M N A"
_symmetry_group_IT_number 53
_symmetry_cell_setting 'orthorhombic'
loop_
_space_group_symop_operation_xyz
x,y,z
1/2-x,-y,1/2+z
x,-y,-z
1/2-x,y,1/2-z
-x,-y,-z
1/2+x,y,1/2-z
-x,y,z
1/2+x,-y,1/2+z
loop_
_atom_site_type_symbol
_atom_site_label
_atom_site_fract_x
_atom_site_fract_y
_atom_site_fract_z
Si Si1 0.572290 0.668531 0.912923
Si Si2 0.420038 0.868367 0.201926
Si Si3 0.359837 0.867397 0.732231
Si Si4 0.179842 0.612720 0.288738
Si Si5 0.290958 0.450538 0.072884
Si Si6 0.074571 0.402481 0.255151
Si Si7 0.760227 0.827479 0.639689
Si Si8 0.121800 0.036908 0.422473
O O1 0.500000 0.640370 0.952162
O O2 0.635498 0.605800 0.955137
O O3 0.570049 0.599834 0.838009
O O4 0.580334 0.829370 0.900129
O O5 0.500000 0.830095 0.213964
O O6 0.370993 0.740481 0.213207
O O7 0.398131 0.990405 0.253953
O O8 0.407169 0.913257 0.122893
O O9 0.413980 0.745777 0.720132
O O10 0.312103 0.815919 0.795330
O O11 0.313256 0.885685 0.663147
O O12 0.250000 0.651791 0.250000
O O13 0.199160 0.566771 0.367957
O O14 0.139952 0.500297 0.241157
O O15 0.249803 0.322653 0.105935
O O16 0.255125 0.500000 0.000000
O O17 0.000000 0.455697 0.227021
O O18 0.796138 0.935415 0.587055
O O19 0.104490 0.000000 0.500000
#
# Coordination Sequence:
#
# PCOD8217654 Si02
#       8
#     8   8   8   8   8   8   8   8
#     4   9  17  30  45  66  94 138 185 210 242 297
#     4  11  23  35  50  79 113 141 177 227 271 321
#     4  10  17  33  58  72  96 134 185 227 268 308
#     4  11  23  36  52  74 110 147 180 215 277 332
#     4  10  20  34  49  73 104 138 180 229 264 310
#     4  10  17  32  54  74  99 131 173 223 267 313
#     4   9  18  32  53  73  94 136 189 230 256 304
#     4  10  20  32  47  68 104 146 183 219 255 310
#
# _framework density 17.466078
#
# number of rings (size 3 to 8) (size 9 to 14) (size 15 to 20)
#    0.000    2.000    5.000    1.875    7.000    1.750 
#    0.000    0.000    0.000    0.000    0.000    0.000 
#    0.000   27.000    0.000    0.000    0.000    0.000 
#
# Total GULP energy -792928.594479 kJ/mol
# GULP energy per Si atom -12389.509289 kJ/mol
# Density = 1.742632 g / cm^3
# Si number density = 17.466078 Si / 1000 Ang^3
#
#
#
# Elastic Constant Matrix: (Units=GPa)
#
#
# Indices 1 2 3 4 5 6 
#
# 1 104.5020 39.3542 36.2864 0.0000 0.0000 0.0000
# 2 39.3542 90.3490 22.4908 0.0000 0.0000 0.0000
# 3 36.2864 22.4908 43.5264 0.0000 0.0000 0.0000
# 4 0.0000 0.0000 0.0000 14.4232 0.0000 0.0000
# 5 0.0000 0.0000 0.0000 0.0000 22.6948 0.0000
# 6 0.0000 0.0000 0.0000 0.0000 0.0000 28.4881
#
#
#
# Elastic Compliance Matrix: (Units=1/GPa)
#
#
# Indices 1 2 3 4 5 6 
#
# 1 0.014522 -0.003801 -0.010143 0.000000 0.000000 0.000000
# 2 -0.003801 0.013697 -0.003909 0.000000 0.000000 0.000000
# 3 -0.010143 -0.003909 0.033450 0.000000 0.000000 0.000000
# 4 0.000000 0.000000 0.000000 0.069333 0.000000 0.000000
# 5 0.000000 0.000000 0.000000 0.000000 0.044063 0.000000
# 6 0.000000 0.000000 0.000000 0.000000 0.000000 0.035102
#
#
# Mechanical properties :
#
#
# Convention : Reuss Voigt Hill
#
# Bulk Modulus (GPa) = 38.51435 48.29336 43.40386
# Shear Modulus (GPa) = 19.64425 22.47093 21.05759
#
# Velocity S-wave (km/s) = 3.35731 3.59074 3.47598
# Velocity P-wave (km/s) = 6.09323 6.70082 6.40424
#
# Compressibility (1/GPa) = 0.02596435
#
# Stress axis : x y z
#
# Youngs Moduli (GPa) = 68.85882 73.01002 29.89530
#
# Poissons Ratio (x) = 0.27750 0.30323
# Poissons Ratio (y) = 0.26172 0.11685
# Poissons Ratio (z) = 0.69843 0.28538
#
# Static dielectric constant tensor:
#      x y z
#    x 3.601890 0.000000 0.000000 
#    y 0.000000 3.402770 0.000000 
#    z 0.000000 0.000000 3.196170 
# 
# 
# High freq. dielectric constant tensor:
#      x y z
#    x 1.668080 0.000000 0.000000 
#    y 0.000000 1.677550 0.000000 
#    z 0.000000 0.000000 1.625800 
# 
# From -- ./inp_files/33073.got.cif
#   From: 2010.03.12/outbox.cif.g09.slc.cpg/sg53_17_cif.got.tgz:33073.got - 2010.04.16 14:36:59.
