data_PCOD8217829
_publ_section_title
;
Structure prediction by ZEFSAII (Michael W. Deem and Ramdas Pophale) SiO2 
 PCOD8217829
Probable space group: P M N A
;
_chemical_formula_sum "Si O2"
_cell_formula_units_Z 64
_cell_length_a 9.680832
_cell_length_b 10.388635
_cell_length_c 38.377196
_cell_angle_alpha 90.000000
_cell_angle_beta 90.000000
_cell_angle_gamma 90.000000
_cell_volume 3859.618785
_symmetry_space_group_name_H-M "P M N A"
_symmetry_group_IT_number 53
_symmetry_cell_setting 'orthorhombic'
loop_
_space_group_symop_operation_xyz
x,y,z
1/2-x,-y,1/2+z
x,-y,-z
1/2-x,y,1/2-z
-x,-y,-z
1/2+x,y,1/2-z
-x,y,z
1/2+x,-y,1/2+z
loop_
_atom_site_type_symbol
_atom_site_label
_atom_site_fract_x
_atom_site_fract_y
_atom_site_fract_z
Si Si1 0.663942 0.507033 0.419366
Si Si2 0.163527 0.750000 0.035837
Si Si3 0.838520 0.100396 0.642162
Si Si4 0.347479 0.403042 0.779813
Si Si5 0.836560 0.250000 0.041945
Si Si6 0.652521 0.903043 0.220187
Si Si7 0.338520 0.600397 0.142162
Si Si8 0.163942 0.992966 0.080634
O O1 0.500000 0.511051 0.412491
O O2 0.713892 0.623325 0.443994
O O3 0.712936 0.376004 0.437592
O O4 0.743400 0.515201 0.382854
O O5 0.213893 0.876674 0.056006
O O6 0.000000 0.750001 0.033272
O O7 0.227690 0.750000 0.996968
O O8 0.797657 0.058630 0.681456
O O9 0.804368 0.250000 0.636053
O O10 0.743400 0.015201 0.617146
O O11 0.000000 0.073738 0.635154
O O12 0.250000 0.463312 0.750000
O O13 0.500000 0.458747 0.773106
O O14 0.350846 0.250000 0.777112
O O15 0.297657 0.441370 0.818544
O O16 0.000000 0.250001 0.038720
O O17 0.787065 0.123995 0.062407
O O18 0.750000 0.963313 0.250000
O O19 0.500000 0.958748 0.226894
O O20 0.500000 0.573739 0.135154
O O21 0.000000 0.988947 0.087509
#
# Coordination Sequence:
#
# PCOD8217829 Si02
#       8
#     8   8   8   8   8   8   8   8
#     4  10  18  29  47  70  90 116 155 190 224 269
#     4   9  16  28  47  69  90 115 150 189 230 275
#     4   9  17  29  44  63  92 125 151 182 227 269
#     4   8  14  24  38  59  87 118 147 177 219 265
#     4   9  18  30  45  67  96 119 142 191 242 267
#     4   8  14  24  38  59  87 118 147 177 219 265
#     4   9  17  29  44  63  92 125 151 182 227 269
#     4  10  18  29  47  70  90 116 155 190 224 269
#
# _framework density 16.581949000000002
#
# number of rings (size 3 to 8) (size 9 to 14) (size 15 to 20)
#    0.000    3.000    1.250    2.250    0.000    4.000 
#    0.000    3.125    0.000    4.500    0.000    0.875 
#    0.000    0.000    0.000    0.000    0.000    0.000 
#
# Total GULP energy -793360.402844 kJ/mol
# GULP energy per Si atom -12396.256294 kJ/mol
# Density = 1.654421 g / cm^3
# Si number density = 16.581949 Si / 1000 Ang^3
#
#
#
# Elastic Constant Matrix: (Units=GPa)
#
#
# Indices 1 2 3 4 5 6 
#
# 1 49.2050 25.6944 64.0432 0.0000 0.0000 0.0000
# 2 25.6944 90.1240 56.4268 0.0000 0.0000 0.0000
# 3 64.0432 56.4268 167.4008 0.0000 0.0000 0.0000
# 4 0.0000 0.0000 0.0000 8.1077 0.0000 0.0000
# 5 0.0000 0.0000 0.0000 0.0000 28.4261 0.0000
# 6 0.0000 0.0000 0.0000 0.0000 0.0000 10.5407
#
#
#
# Elastic Compliance Matrix: (Units=1/GPa)
#
#
# Indices 1 2 3 4 5 6 
#
# 1 0.040872 -0.002361 -0.014841 0.000000 0.000000 0.000000
# 2 -0.002361 0.014200 -0.003883 0.000000 0.000000 0.000000
# 3 -0.014841 -0.003883 0.012960 0.000000 0.000000 0.000000
# 4 0.000000 0.000000 0.000000 0.123340 0.000000 0.000000
# 5 0.000000 0.000000 0.000000 0.000000 0.035179 0.000000
# 6 0.000000 0.000000 0.000000 0.000000 0.000000 0.094870
#
#
# Mechanical properties :
#
#
# Convention : Reuss Voigt Hill
#
# Bulk Modulus (GPa) = 38.66562 66.56207 52.61384
# Shear Modulus (GPa) = 13.43316 20.11925 16.77621
#
# Velocity S-wave (km/s) = 2.84933 3.48706 3.18420
# Velocity P-wave (km/s) = 5.84751 7.51273 6.73181
#
# Compressibility (1/GPa) = 0.02586277
#
# Stress axis : x y z
#
# Youngs Moduli (GPa) = 24.46654 70.42109 77.15799
#
# Poissons Ratio (x) = 0.16625 1.14509
# Poissons Ratio (y) = 0.05776 0.29964
# Poissons Ratio (z) = 0.36310 0.27347
#
# Static dielectric constant tensor:
#      x y z
#    x 2.956960 0.000000 0.000000 
#    y 0.000000 2.847330 0.000000 
#    z 0.000000 0.000000 3.337780 
# 
# 
# High freq. dielectric constant tensor:
#      x y z
#    x 1.610810 0.000000 0.000000 
#    y 0.000000 1.599470 0.000000 
#    z 0.000000 0.000000 1.653750 
# 
# From -- ./inp_files/38739.got.cif
#   From: 2010.03.12/outbox.cif.g09.slc.cpg/sg53_20_cif.got.tgz:38739.got - 2010.04.16 14:36:59.
