data_PCOD8217324
_publ_section_title
;
Structure prediction by ZEFSAII (Michael W. Deem and Ramdas Pophale) SiO2 
 PCOD8217324
Probable space group: P N N A
;
_chemical_formula_sum "Si O2"
_cell_formula_units_Z 32
_cell_length_a 12.282969
_cell_length_b 10.790756
_cell_length_c 10.717049
_cell_angle_alpha 90.000000
_cell_angle_beta 90.000000
_cell_angle_gamma 90.000000
_cell_volume 1420.464697
_symmetry_space_group_name_H-M "P N N A"
_symmetry_group_IT_number 52
_symmetry_cell_setting 'orthorhombic'
loop_
_space_group_symop_operation_xyz
x,y,z
1/2-x,-y,z
x,1/2-y,1/2-z
1/2-x,1/2+y,1/2-z
-x,-y,-z
1/2+x,y,-z
-x,1/2+y,1/2+z
1/2+x,1/2-y,1/2+z
loop_
_atom_site_type_symbol
_atom_site_label
_atom_site_fract_x
_atom_site_fract_y
_atom_site_fract_z
Si Si1 0.622677 0.000347 0.641892
Si Si2 0.250000 0.500000 0.720964
Si Si3 0.650088 0.750000 0.250000
Si Si4 0.025539 0.072627 0.877376
Si Si5 0.019175 0.697486 0.976647
O O1 0.550492 0.967147 0.762503
O O2 0.602170 0.904763 0.529708
O O3 0.750000 0.000000 0.678326
O O4 0.585918 0.134204 0.588823
O O5 0.285350 0.374440 0.794552
O O6 0.151497 0.451710 0.640349
O O7 0.577464 0.782758 0.128742
O O8 0.014499 0.219055 0.905561
O O9 0.000000 0.000000 0.000000
#
# Coordination Sequence:
#
# PCOD8217324 Si02
#       5
#     8   4   4   8   8
#     4  11  27  46  75 110 151 196 254 316 382 455
#     4  12  28  44  78 106 150 196 252 306 376 456
#     4  12  26  48  76 108 152 200 250 314 374 462
#     4  12  26  48  71 107 144 195 250 309 382 453
#     4  11  25  48  71 109 149 195 251 311 383 453
#
# _framework density 22.527839
#
# number of rings (size 3 to 8) (size 9 to 14) (size 15 to 20)
#    0.000    0.500    5.000    0.750   10.500    0.000 
#    9.000    0.000    0.000    0.000    0.000    0.000 
#    0.000    0.000    0.000    0.000    0.000    0.000 
#
# Total GULP energy -396572.038524 kJ/mol
# GULP energy per Si atom -12392.876204 kJ/mol
# Density = 2.247656 g / cm^3
# Si number density = 22.527839 Si / 1000 Ang^3
#
#
#
# Elastic Constant Matrix: (Units=GPa)
#
#
# Indices 1 2 3 4 5 6 
#
# 1 167.6297 39.7309 53.2539 0.0000 0.0000 0.0000
# 2 39.7309 128.5869 21.2877 0.0000 0.0000 0.0000
# 3 53.2539 21.2877 116.5709 0.0000 0.0000 0.0000
# 4 0.0000 0.0000 0.0000 49.9366 0.0000 0.0000
# 5 0.0000 0.0000 0.0000 0.0000 10.8912 0.0000
# 6 0.0000 0.0000 0.0000 0.0000 0.0000 30.9083
#
#
#
# Elastic Compliance Matrix: (Units=1/GPa)
#
#
# Indices 1 2 3 4 5 6 
#
# 1 0.007349 -0.001768 -0.003034 0.000000 0.000000 0.000000
# 2 -0.001768 0.008445 -0.000734 0.000000 0.000000 0.000000
# 3 -0.003034 -0.000734 0.010099 0.000000 0.000000 0.000000
# 4 0.000000 0.000000 0.000000 0.020025 0.000000 0.000000
# 5 0.000000 0.000000 0.000000 0.000000 0.091817 0.000000
# 6 0.000000 0.000000 0.000000 0.000000 0.000000 0.032354
#
#
# Mechanical properties :
#
#
# Convention : Reuss Voigt Hill
#
# Bulk Modulus (GPa) = 67.48336 71.25917 69.37127
# Shear Modulus (GPa) = 26.86710 38.24823 32.55767
#
# Velocity S-wave (km/s) = 3.45718 4.12493 3.80573
# Velocity P-wave (km/s) = 6.77913 7.37476 7.08321
#
# Compressibility (1/GPa) = 0.01481847
#
# Stress axis : x y z
#
# Youngs Moduli (GPa) = 136.08117 118.41648 99.02262
#
# Poissons Ratio (x) = 0.20939 0.30045
# Poissons Ratio (y) = 0.24063 0.07272
# Poissons Ratio (z) = 0.41290 0.08696
#
# Static dielectric constant tensor:
#      x y z
#    x 3.938700 0.000000 0.000000 
#    y 0.000000 4.547630 0.000000 
#    z 0.000000 0.000000 4.262280 
# 
# 
# High freq. dielectric constant tensor:
#      x y z
#    x 1.883020 0.000000 0.000000 
#    y 0.000000 1.912490 0.000000 
#    z 0.000000 0.000000 1.891420 
# 
# From -- ./inp_files/17701.got.cif
#   From: 2010.06.25/outbox.cif.g09.slc.cpg/sg52_9_cif.got.tgz:17701.got - 2010.06.26 19:32:48.
