data_PCOD8217629
_publ_section_title
;
Structure prediction by ZEFSAII (Michael W. Deem and Ramdas Pophale) SiO2 
 PCOD8217629
Probable space group: P M N A
;
_chemical_formula_sum "Si O2"
_cell_formula_units_Z 48
_cell_length_a 10.189043
_cell_length_b 13.783187
_cell_length_c 19.107949
_cell_angle_alpha 90.000000
_cell_angle_beta 90.000000
_cell_angle_gamma 90.000000
_cell_volume 2683.472301
_symmetry_space_group_name_H-M "P M N A"
_symmetry_group_IT_number 53
_symmetry_cell_setting 'orthorhombic'
loop_
_space_group_symop_operation_xyz
x,y,z
1/2-x,-y,1/2+z
x,-y,-z
1/2-x,y,1/2-z
-x,-y,-z
1/2+x,y,1/2-z
-x,y,z
1/2+x,-y,1/2+z
loop_
_atom_site_type_symbol
_atom_site_label
_atom_site_fract_x
_atom_site_fract_y
_atom_site_fract_z
Si Si1 0.756279 0.792478 0.106185
Si Si2 0.500000 0.095252 0.905398
Si Si3 0.000000 0.913778 0.092711
Si Si4 0.850030 0.445512 0.069036
Si Si5 0.749270 0.241025 0.441584
Si Si6 0.000000 0.876875 0.570595
Si Si7 0.500000 0.125731 0.428822
Si Si8 0.653795 0.604848 0.313052
O O1 0.624391 0.849396 0.127372
O O2 0.778713 0.697589 0.151889
O O3 0.872024 0.865686 0.125302
O O4 0.754438 0.762352 0.025385
O O5 0.500000 0.979718 0.887653
O O6 0.500000 0.102772 0.988574
O O7 0.000000 0.026043 0.114419
O O8 0.000000 0.899510 0.010088
O O9 0.756530 0.352995 0.081976
O O10 0.840417 0.514882 0.134940
O O11 0.000000 0.410019 0.056318
O O12 0.798830 0.500000 0.000000
O O13 0.875190 0.188087 0.409113
O O14 0.626979 0.186055 0.407651
O O15 0.750000 0.576379 0.250000
O O16 0.500000 0.623933 0.292029
#
# Coordination Sequence:
#
# PCOD8217629 Si02
#       8
#     8   4   4   8   8   4   4   8
#     4  10  18  31  52  76 108 147 183 218 275 331
#     4   9  18  30  48  73 115 158 172 208 270 328
#     4   9  16  26  44  77 107 138 170 222 266 318
#     4  10  19  34  59  83 108 143 187 239 287 330
#     4  10  17  30  50  81 111 145 179 224 283 327
#     4   9  18  30  44  76 122 149 174 212 272 333
#     4   9  16  24  46  76 110 133 176 222 268 321
#     4  11  24  40  57  81 112 147 187 233 282 342
#
# _framework density 17.887270999999998
#
# number of rings (size 3 to 8) (size 9 to 14) (size 15 to 20)
#    0.000    2.167    3.333    1.000    1.167    4.000 
#    1.500    0.417    0.000    0.000    0.000    7.000 
#    0.000    0.000    0.000    0.000    0.000    0.000 
#
# Total GULP energy -595055.124931 kJ/mol
# GULP energy per Si atom -12396.981769 kJ/mol
# Density = 1.784656 g / cm^3
# Si number density = 17.887271 Si / 1000 Ang^3
#
#
#
# Elastic Constant Matrix: (Units=GPa)
#
#
# Indices 1 2 3 4 5 6 
#
# 1 157.1695 76.3912 25.4763 0.0000 0.0000 0.0000
# 2 76.3912 155.6033 22.1222 0.0000 0.0000 0.0000
# 3 25.4763 22.1222 37.2513 0.0000 0.0000 0.0000
# 4 0.0000 0.0000 0.0000 15.3569 0.0000 0.0000
# 5 0.0000 0.0000 0.0000 0.0000 14.6344 0.0000
# 6 0.0000 0.0000 0.0000 0.0000 0.0000 31.9935
#
#
#
# Elastic Compliance Matrix: (Units=1/GPa)
#
#
# Indices 1 2 3 4 5 6 
#
# 1 0.008818 -0.003792 -0.003779 0.000000 0.000000 0.000000
# 2 -0.003792 0.008650 -0.002544 0.000000 0.000000 0.000000
# 3 -0.003779 -0.002544 0.030940 0.000000 0.000000 0.000000
# 4 0.000000 0.000000 0.000000 0.065117 0.000000 0.000000
# 5 0.000000 0.000000 0.000000 0.000000 0.068332 0.000000
# 6 0.000000 0.000000 0.000000 0.000000 0.000000 0.031256
#
#
# Mechanical properties :
#
#
# Convention : Reuss Voigt Hill
#
# Bulk Modulus (GPa) = 35.48754 66.44487 50.96620
# Shear Modulus (GPa) = 20.59863 27.46593 24.03228
#
# Velocity S-wave (km/s) = 3.39718 3.92280 3.66941
# Velocity P-wave (km/s) = 5.93889 7.59901 6.81965
#
# Compressibility (1/GPa) = 0.02817891
#
# Stress axis : x y z
#
# Youngs Moduli (GPa) = 113.40297 115.60986 32.32108
#
# Poissons Ratio (x) = 0.43838 0.12214
# Poissons Ratio (y) = 0.43001 0.08221
# Poissons Ratio (z) = 0.42854 0.29406
#
# Static dielectric constant tensor:
#      x y z
#    x 3.493500 0.000000 0.000000 
#    y 0.000000 3.458950 0.000000 
#    z 0.000000 0.000000 2.769710 
# 
# 
# High freq. dielectric constant tensor:
#      x y z
#    x 1.699840 0.000000 0.000000 
#    y 0.000000 1.710110 0.000000 
#    z 0.000000 0.000000 1.629370 
# 
# From -- ./inp_files/26368.got.cif
#   From: 2010.03.12/outbox.cif.g09.slc.cpg/sg53_14_cif.got.tgz:26368.got - 2010.04.16 14:36:59.
