data_PCOD8217184
_publ_section_title
;
Structure prediction by ZEFSAII (Michael W. Deem and Ramdas Pophale) SiO2 
 PCOD8217184
Probable space group: P N N A
;
_chemical_formula_sum "Si O2"
_cell_formula_units_Z 48
_cell_length_a 8.749394
_cell_length_b 9.201111
_cell_length_c 25.296307
_cell_angle_alpha 90.000000
_cell_angle_beta 90.000000
_cell_angle_gamma 90.000000
_cell_volume 2036.457576
_symmetry_space_group_name_H-M "P N N A"
_symmetry_group_IT_number 52
_symmetry_cell_setting 'orthorhombic'
loop_
_space_group_symop_operation_xyz
x,y,z
1/2-x,-y,z
x,1/2-y,1/2-z
1/2-x,1/2+y,1/2-z
-x,-y,-z
1/2+x,y,-z
-x,1/2+y,1/2+z
1/2+x,1/2-y,1/2+z
loop_
_atom_site_type_symbol
_atom_site_label
_atom_site_fract_x
_atom_site_fract_y
_atom_site_fract_z
Si Si1 0.070744 0.462470 0.783340
Si Si2 0.068661 0.843928 0.987066
Si Si3 0.551887 0.816086 0.821300
Si Si4 0.380105 0.787951 0.334460
Si Si5 0.302265 0.659064 0.045962
Si Si6 0.093611 0.946811 0.873570
O O1 0.250000 0.500000 0.786354
O O2 0.040080 0.335146 0.826233
O O3 0.021279 0.409595 0.725890
O O4 0.951947 0.589578 0.797630
O O5 0.139067 0.873594 0.929215
O O6 0.955018 0.706930 0.983936
O O7 0.188310 0.790931 0.030723
O O8 0.000000 0.000000 0.000000
O O9 0.730107 0.786359 0.809204
O O10 0.521531 0.912003 0.874664
O O11 0.327373 0.847333 0.391467
O O12 0.514857 0.671817 0.336954
O O13 0.250000 0.500000 0.025606
O O14 0.250000 0.000000 0.846178
#
# Coordination Sequence:
#
# PCOD8217184 Si02
#       6
#     8   8   8   8   8   8
#     4  11  25  46  68  97 134 177 225 277 338 409
#     4  11  23  40  66  96 131 174 224 281 342 408
#     4  11  24  42  67  97 132 176 224 280 338 405
#     4  11  25  44  69 100 135 178 228 282 342 410
#     4  11  23  43  67  98 136 179 229 286 348 416
#     4  11  23  41  64  96 132 175 222 274 337 402
#
# _framework density 23.570340999999999
#
# number of rings (size 3 to 8) (size 9 to 14) (size 15 to 20)
#    0.000    1.000    0.000    6.500    0.000   10.000 
#    0.000   10.000    0.000    0.000    0.000    0.000 
#    0.000    0.000    0.000    0.000    0.000    0.000 
#
# Total GULP energy -594804.671239 kJ/mol
# GULP energy per Si atom -12391.763984 kJ/mol
# Density = 2.351669 g / cm^3
# Si number density = 23.570341 Si / 1000 Ang^3
#
#
#
# Elastic Constant Matrix: (Units=GPa)
#
#
# Indices 1 2 3 4 5 6 
#
# 1 164.7715 76.5982 46.7040 0.0000 0.0000 0.0000
# 2 76.5982 157.5385 23.2041 0.0000 0.0000 0.0000
# 3 46.7040 23.2041 37.2126 0.0000 0.0000 0.0000
# 4 0.0000 0.0000 0.0000 32.9471 0.0000 0.0000
# 5 0.0000 0.0000 0.0000 0.0000 24.1925 0.0000
# 6 0.0000 0.0000 0.0000 0.0000 0.0000 59.5929
#
#
#
# Elastic Compliance Matrix: (Units=1/GPa)
#
#
# Indices 1 2 3 4 5 6 
#
# 1 0.011062 -0.003671 -0.011594 0.000000 0.000000 0.000000
# 2 -0.003671 0.008208 -0.000511 0.000000 0.000000 0.000000
# 3 -0.011594 -0.000511 0.041743 0.000000 0.000000 0.000000
# 4 0.000000 0.000000 0.000000 0.030352 0.000000 0.000000
# 5 0.000000 0.000000 0.000000 0.000000 0.041335 0.000000
# 6 0.000000 0.000000 0.000000 0.000000 0.000000 0.016781
#
#
# Mechanical properties :
#
#
# Convention : Reuss Voigt Hill
#
# Bulk Modulus (GPa) = 33.94406 72.50392 53.22399
# Shear Modulus (GPa) = 26.19833 37.54758 31.87296
#
# Velocity S-wave (km/s) = 3.33753 3.99557 3.68128
# Velocity P-wave (km/s) = 5.41152 7.21897 6.37958
#
# Compressibility (1/GPa) = 0.02946024
#
# Stress axis : x y z
#
# Youngs Moduli (GPa) = 90.40096 121.83692 23.95622
#
# Poissons Ratio (x) = 0.44723 0.27776
# Poissons Ratio (y) = 0.33184 0.01224
# Poissons Ratio (z) = 1.04814 0.06226
#
# Static dielectric constant tensor:
#      x y z
#    x 4.427650 0.000000 0.000000 
#    y 0.000000 4.684140 0.000000 
#    z 0.000000 0.000000 4.368370 
# 
# 
# High freq. dielectric constant tensor:
#      x y z
#    x 1.943450 0.000000 0.000000 
#    y 0.000000 1.953390 0.000000 
#    z 0.000000 0.000000 1.921660 
# 
# From -- ./inp_files/44367.got.cif
#   From: 2010.06.25/outbox.cif.g09.slc.cpg/sg52_23_cif.got.tgz:44367.got - 2010.06.26 19:32:48.
