data_PCOD8217067
_publ_section_title
;
Structure prediction by ZEFSAII (Michael W. Deem and Ramdas Pophale) SiO2 
 PCOD8217067
Probable space group: P N N A
;
_chemical_formula_sum "Si O2"
_cell_formula_units_Z 40
_cell_length_a 8.538309
_cell_length_b 17.008644
_cell_length_c 10.844932
_cell_angle_alpha 90.000000
_cell_angle_beta 90.000000
_cell_angle_gamma 90.000000
_cell_volume 1574.955880
_symmetry_space_group_name_H-M "P N N A"
_symmetry_group_IT_number 52
_symmetry_cell_setting 'orthorhombic'
loop_
_space_group_symop_operation_xyz
x,y,z
1/2-x,-y,z
x,1/2-y,1/2-z
1/2-x,1/2+y,1/2-z
-x,-y,-z
1/2+x,y,-z
-x,1/2+y,1/2+z
1/2+x,1/2-y,1/2+z
loop_
_atom_site_type_symbol
_atom_site_label
_atom_site_fract_x
_atom_site_fract_y
_atom_site_fract_z
Si Si1 0.092581 0.211616 0.098366
Si Si2 0.397656 0.408734 0.719338
Si Si3 0.954584 0.922752 0.273325
Si Si4 0.172811 0.922625 0.054666
Si Si5 0.405529 0.284103 0.122363
O O1 0.197462 0.143958 0.038053
O O2 0.214998 0.280873 0.132995
O O3 0.000612 0.172522 0.218318
O O4 0.963368 0.239329 0.000088
O O5 0.224821 0.392892 0.770266
O O6 0.469905 0.482876 0.795127
O O7 0.398025 0.441637 0.579162
O O8 0.038252 0.894015 0.147302
O O9 0.040382 0.875652 0.384828
O O10 0.250000 0.000000 0.112647
O O11 0.478787 0.250000 0.250000
#
# Coordination Sequence:
#
# PCOD8217067 Si02
#       5
#     8   8   8   8   8
#     4  12  25  40  69 104 147 187 238 292 376 431
#     4  11  21  38  70 103 130 193 237 296 362 431
#     4  11  23  39  66 103 148 174 237 300 365 422
#     4  12  19  34  64 108 140 173 227 306 354 422
#     4  12  26  45  63 106 150 190 229 307 363 433
#
# _framework density 25.397535000000001
#
# number of rings (size 3 to 8) (size 9 to 14) (size 15 to 20)
#    0.000    0.400    8.000    3.000    0.000    0.000 
#    3.600    0.000    0.000    4.800    0.000    0.000 
#    0.000    0.000    0.000    0.000    0.000    0.000 
#
# Total GULP energy -495746.971106 kJ/mol
# GULP energy per Si atom -12393.674278 kJ/mol
# Density = 2.533973 g / cm^3
# Si number density = 25.397535 Si / 1000 Ang^3
#
#
#
# Elastic Constant Matrix: (Units=GPa)
#
#
# Indices 1 2 3 4 5 6 
#
# 1 160.0674 74.3309 16.8162 0.0000 0.0000 0.0000
# 2 74.3309 130.1230 17.7204 0.0000 0.0000 0.0000
# 3 16.8162 17.7204 30.3035 0.0000 0.0000 0.0000
# 4 0.0000 0.0000 0.0000 36.7312 0.0000 0.0000
# 5 0.0000 0.0000 0.0000 0.0000 14.8754 0.0000
# 6 0.0000 0.0000 0.0000 0.0000 0.0000 45.1455
#
#
#
# Elastic Compliance Matrix: (Units=1/GPa)
#
#
# Indices 1 2 3 4 5 6 
#
# 1 0.008621 -0.004643 -0.002069 0.000000 0.000000 0.000000
# 2 -0.004643 0.010850 -0.003769 0.000000 0.000000 0.000000
# 3 -0.002069 -0.003769 0.036351 0.000000 0.000000 0.000000
# 4 0.000000 0.000000 0.000000 0.027225 0.000000 0.000000
# 5 0.000000 0.000000 0.000000 0.000000 0.067225 0.000000
# 6 0.000000 0.000000 0.000000 0.000000 0.000000 0.022151
#
#
# Mechanical properties :
#
#
# Convention : Reuss Voigt Hill
#
# Bulk Modulus (GPa) = 28.68455 59.80319 44.24387
# Shear Modulus (GPa) = 24.38981 33.45885 28.92433
#
# Velocity S-wave (km/s) = 3.10227 3.63355 3.37837
# Velocity P-wave (km/s) = 4.91435 6.41884 5.71631
#
# Compressibility (1/GPa) = 0.03486197
#
# Stress axis : x y z
#
# Youngs Moduli (GPa) = 116.00044 92.16334 27.50931
#
# Poissons Ratio (x) = 0.42788 0.05692
# Poissons Ratio (y) = 0.53855 0.10367
# Poissons Ratio (z) = 0.24000 0.34732
#
# Static dielectric constant tensor:
#      x y z
#    x 5.059220 0.000000 0.000000 
#    y 0.000000 5.129830 0.000000 
#    z 0.000000 0.000000 3.988920 
# 
# 
# High freq. dielectric constant tensor:
#      x y z
#    x 2.030390 0.000000 0.000000 
#    y 0.000000 2.025590 0.000000 
#    z 0.000000 0.000000 1.954090 
# 
# From -- ./inp_files/16654.got.cif
#   From: 2010.06.25/outbox.cif.g09.slc.cpg/sg52_9_cif.got.tgz:16654.got - 2010.06.26 19:32:48.
