data_PCOD8217702
_publ_section_title
;
Structure prediction by ZEFSAII (Michael W. Deem and Ramdas Pophale) SiO2 
 PCOD8217702
Probable space group: P M N A
;
_chemical_formula_sum "Si O2"
_cell_formula_units_Z 64
_cell_length_a 8.733515
_cell_length_b 18.269868
_cell_length_c 26.172622
_cell_angle_alpha 90.000000
_cell_angle_beta 90.000000
_cell_angle_gamma 90.000000
_cell_volume 4176.107917
_symmetry_space_group_name_H-M "P M N A"
_symmetry_group_IT_number 53
_symmetry_cell_setting 'orthorhombic'
loop_
_space_group_symop_operation_xyz
x,y,z
1/2-x,-y,1/2+z
x,-y,-z
1/2-x,y,1/2-z
-x,-y,-z
1/2+x,y,1/2-z
-x,y,z
1/2+x,-y,1/2+z
loop_
_atom_site_type_symbol
_atom_site_label
_atom_site_fract_x
_atom_site_fract_y
_atom_site_fract_z
Si Si1 0.322341 0.166383 0.510279
Si Si2 0.678214 0.333821 0.502463
Si Si3 0.320877 0.414488 0.605439
Si Si4 0.318757 0.328826 0.804462
Si Si5 0.831211 0.950198 0.549664
Si Si6 0.819765 0.089677 0.605877
Si Si7 0.818993 0.174023 0.804162
Si Si8 0.671948 0.542258 0.946987
O O1 0.500000 0.158746 0.524337
O O2 0.277777 0.249209 0.497219
O O3 0.284322 0.117073 0.460243
O O4 0.223845 0.141405 0.558555
O O5 0.500000 0.348529 0.494757
O O6 0.728139 0.362532 0.558300
O O7 0.764058 0.376343 0.456815
O O8 0.500000 0.408984 0.617257
O O9 0.226025 0.390014 0.654708
O O10 0.276006 0.498571 0.593636
O O11 0.250000 0.352040 0.750000
O O12 0.500000 0.321825 0.799783
O O13 0.250042 0.251251 0.822506
O O14 0.000000 0.918302 0.561894
O O15 0.840783 0.000000 0.500000
O O16 0.775987 0.004482 0.594965
O O17 0.724800 0.111911 0.655502
O O18 0.000000 0.098405 0.615632
O O19 0.750000 0.150357 0.750000
O O20 0.000000 0.181787 0.799675
O O21 0.500000 0.547542 0.925541
O O22 0.678295 0.500000 0.000000
#
# Coordination Sequence:
#
# PCOD8217702 Si02
#       8
#     8   8   8   8   8   8   8   8
#     4  10  18  27  42  64  88 114 147 182 215 255
#     4   9  18  29  41  60  86 115 144 176 214 255
#     4  10  18  30  46  62  85 116 147 178 215 255
#     4  11  21  33  47  64  87 114 146 181 216 252
#     4   8  16  29  42  58  83 113 143 176 215 256
#     4  10  19  31  45  61  84 115 148 180 216 256
#     4  11  21  33  47  64  86 112 144 180 218 255
#     4   9  17  28  42  61  83 109 143 179 213 252
#
# _framework density 15.325274
#
# number of rings (size 3 to 8) (size 9 to 14) (size 15 to 20)
#    0.000    2.250    0.000    6.000    0.000    6.750 
#    0.000    0.000    0.000    0.000    0.000    0.000 
#    0.000    1.000    0.000    6.750    0.000    5.000 
#
# Total GULP energy -793554.321897 kJ/mol
# GULP energy per Si atom -12399.286280 kJ/mol
# Density = 1.529039 g / cm^3
# Si number density = 15.325274 Si / 1000 Ang^3
#
#
#
# Elastic Constant Matrix: (Units=GPa)
#
#
# Indices 1 2 3 4 5 6 
#
# 1 93.6833 38.1181 34.1791 0.0000 0.0000 0.0000
# 2 38.1181 92.3884 43.8236 0.0000 0.0000 0.0000
# 3 34.1791 43.8236 68.3316 0.0000 0.0000 0.0000
# 4 0.0000 0.0000 0.0000 24.7395 0.0000 0.0000
# 5 0.0000 0.0000 0.0000 0.0000 23.8613 0.0000
# 6 0.0000 0.0000 0.0000 0.0000 0.0000 25.7377
#
#
#
# Elastic Compliance Matrix: (Units=1/GPa)
#
#
# Indices 1 2 3 4 5 6 
#
# 1 0.013792 -0.003475 -0.004670 0.000000 0.000000 0.000000
# 2 -0.003475 0.016432 -0.008800 0.000000 0.000000 0.000000
# 3 -0.004670 -0.008800 0.022614 0.000000 0.000000 0.000000
# 4 0.000000 0.000000 0.000000 0.040421 0.000000 0.000000
# 5 0.000000 0.000000 0.000000 0.000000 0.041909 0.000000
# 6 0.000000 0.000000 0.000000 0.000000 0.000000 0.038853
#
#
# Mechanical properties :
#
#
# Convention : Reuss Voigt Hill
#
# Bulk Modulus (GPa) = 52.77693 54.07164 53.42428
# Shear Modulus (GPa) = 23.33959 24.08653 23.71306
#
# Velocity S-wave (km/s) = 3.90673 3.96875 3.93786
# Velocity P-wave (km/s) = 7.40693 7.50737 7.45732
#
# Compressibility (1/GPa) = 0.01894767
#
# Stress axis : x y z
#
# Youngs Moduli (GPa) = 72.50565 60.85691 44.21995
#
# Poissons Ratio (x) = 0.21149 0.20650
# Poissons Ratio (y) = 0.25198 0.38914
# Poissons Ratio (z) = 0.33859 0.53555
#
# Static dielectric constant tensor:
#      x y z
#    x 3.050830 0.000000 0.000000 
#    y 0.000000 3.019500 0.000000 
#    z 0.000000 0.000000 2.798600 
# 
# 
# High freq. dielectric constant tensor:
#      x y z
#    x 1.603730 0.000000 0.000000 
#    y 0.000000 1.574300 0.000000 
#    z 0.000000 0.000000 1.552930 
# 
# From -- ./inp_files/34581.got.cif
#   From: 2010.03.12/outbox.cif.g09.slc.cpg/sg53_18_cif.got.tgz:34581.got - 2010.04.16 14:36:59.
