data_PCOD8217085
_publ_section_title
;
Structure prediction by ZEFSAII (Michael W. Deem and Ramdas Pophale) SiO2 
 PCOD8217085
Probable space group: P N N A
;
_chemical_formula_sum "Si O2"
_cell_formula_units_Z 40
_cell_length_a 8.486759
_cell_length_b 10.017340
_cell_length_c 22.505251
_cell_angle_alpha 90.000000
_cell_angle_beta 90.000000
_cell_angle_gamma 90.000000
_cell_volume 1913.278296
_symmetry_space_group_name_H-M "P N N A"
_symmetry_group_IT_number 52
_symmetry_cell_setting 'orthorhombic'
loop_
_space_group_symop_operation_xyz
x,y,z
1/2-x,-y,z
x,1/2-y,1/2-z
1/2-x,1/2+y,1/2-z
-x,-y,-z
1/2+x,y,-z
-x,1/2+y,1/2+z
1/2+x,1/2-y,1/2+z
loop_
_atom_site_type_symbol
_atom_site_label
_atom_site_fract_x
_atom_site_fract_y
_atom_site_fract_z
Si Si1 0.912627 0.226644 0.448955
Si Si2 0.935391 0.020841 0.121494
Si Si3 0.065306 0.487698 0.134599
Si Si4 0.601659 0.904497 0.250112
Si Si5 0.044282 0.259907 0.923556
O O1 0.989427 0.363493 0.423996
O O2 0.727388 0.232205 0.438294
O O3 0.990833 0.102098 0.416769
O O4 0.941628 0.209558 0.518499
O O5 0.985300 0.061018 0.188232
O O6 0.750000 0.000000 0.120804
O O7 0.014274 0.882893 0.101257
O O8 0.250000 0.500000 0.125893
O O9 0.026357 0.426810 0.198687
O O10 0.991171 0.634442 0.128135
O O11 0.658334 0.750000 0.250000
O O12 0.750000 0.000000 0.261944
#
# Coordination Sequence:
#
# PCOD8217085 Si02
#       5
#     8   8   8   8   8
#     4  11  21  42  65  94 129 167 212 265 318 382
#     4   9  21  39  65  95 127 164 210 258 321 385
#     4  12  26  43  62  94 131 171 214 264 318 375
#     4  11  23  44  72  97 126 167 215 263 317 385
#     4  11  23  40  67  96 126 170 214 264 322 385
#
# _framework density 20.906524999999998
#
# number of rings (size 3 to 8) (size 9 to 14) (size 15 to 20)
#    0.000    1.200    2.000    4.200    5.600    0.000 
#    3.600    3.000    0.000    0.000    0.000    0.000 
#    0.000    0.000    0.000    0.000    0.000    0.000 
#
# Total GULP energy -496161.649669 kJ/mol
# GULP energy per Si atom -12404.041242 kJ/mol
# Density = 2.085894 g / cm^3
# Si number density = 20.906525 Si / 1000 Ang^3
#
#
#
# Elastic Constant Matrix: (Units=GPa)
#
#
# Indices 1 2 3 4 5 6 
#
# 1 69.6178 32.6026 15.6708 0.0000 0.0000 0.0000
# 2 32.6026 147.5879 29.6276 0.0000 0.0000 0.0000
# 3 15.6708 29.6276 102.5319 0.0000 0.0000 0.0000
# 4 0.0000 0.0000 0.0000 43.6809 0.0000 0.0000
# 5 0.0000 0.0000 0.0000 0.0000 34.4981 0.0000
# 6 0.0000 0.0000 0.0000 0.0000 0.0000 18.6620
#
#
#
# Elastic Compliance Matrix: (Units=1/GPa)
#
#
# Indices 1 2 3 4 5 6 
#
# 1 0.016246 -0.003281 -0.001535 0.000000 0.000000 0.000000
# 2 -0.003281 0.007855 -0.001768 0.000000 0.000000 0.000000
# 3 -0.001535 -0.001768 0.010499 0.000000 0.000000 0.000000
# 4 0.000000 0.000000 0.000000 0.022893 0.000000 0.000000
# 5 0.000000 0.000000 0.000000 0.000000 0.028987 0.000000
# 6 0.000000 0.000000 0.000000 0.000000 0.000000 0.053585
#
#
# Mechanical properties :
#
#
# Convention : Reuss Voigt Hill
#
# Bulk Modulus (GPa) = 46.65973 52.83773 49.74873
# Shear Modulus (GPa) = 31.17641 35.49063 33.33352
#
# Velocity S-wave (km/s) = 3.86583 4.12465 3.99734
# Velocity P-wave (km/s) = 6.50330 6.92906 6.71955
#
# Compressibility (1/GPa) = 0.02143176
#
# Stress axis : x y z
#
# Youngs Moduli (GPa) = 61.55346 127.30196 95.24993
#
# Poissons Ratio (x) = 0.41763 0.14621
# Poissons Ratio (y) = 0.20193 0.16845
# Poissons Ratio (z) = 0.09449 0.22513
#
# Static dielectric constant tensor:
#      x y z
#    x 3.412170 0.000000 0.000000 
#    y 0.000000 4.257770 0.000000 
#    z 0.000000 0.000000 3.972260 
# 
# 
# High freq. dielectric constant tensor:
#      x y z
#    x 1.790650 0.000000 0.000000 
#    y 0.000000 1.842980 0.000000 
#    z 0.000000 0.000000 1.830880 
# 
# From -- ./inp_files/39170.got.cif
#   From: 2010.06.25/outbox.cif.g09.slc.cpg/sg52_20_cif.got.tgz:39170.got - 2010.06.26 19:32:48.
