data_PCOD8217692
_publ_section_title
;
Structure prediction by ZEFSAII (Michael W. Deem and Ramdas Pophale) SiO2 
 PCOD8217692
Probable space group: P M N A
;
_chemical_formula_sum "Si O2"
_cell_formula_units_Z 64
_cell_length_a 9.117779
_cell_length_b 17.349569
_cell_length_c 26.301223
_cell_angle_alpha 90.000000
_cell_angle_beta 90.000000
_cell_angle_gamma 90.000000
_cell_volume 4160.578260
_symmetry_space_group_name_H-M "P M N A"
_symmetry_group_IT_number 53
_symmetry_cell_setting 'orthorhombic'
loop_
_space_group_symop_operation_xyz
x,y,z
1/2-x,-y,1/2+z
x,-y,-z
1/2-x,y,1/2-z
-x,-y,-z
1/2+x,y,1/2-z
-x,y,z
1/2+x,-y,1/2+z
loop_
_atom_site_type_symbol
_atom_site_label
_atom_site_fract_x
_atom_site_fract_y
_atom_site_fract_z
Si Si1 0.332412 0.396667 0.952904
Si Si2 0.826910 0.283252 0.881956
Si Si3 0.672658 0.478097 0.392163
Si Si4 0.673603 0.982401 0.944920
Si Si5 0.673463 0.820006 0.965553
Si Si6 0.172761 0.855553 0.418788
Si Si7 0.330631 0.590026 0.302677
Si Si8 0.166795 0.656249 0.565890
O O1 0.500000 0.400225 0.933317
O O2 0.253175 0.322325 0.929563
O O3 0.248226 0.473785 0.937126
O O4 0.327833 0.389639 0.013184
O O5 0.763836 0.196253 0.878678
O O6 0.787788 0.330042 0.830704
O O7 0.000000 0.283438 0.891690
O O8 0.500000 0.477521 0.401973
O O9 0.711231 0.517642 0.338346
O O10 0.736340 0.391181 0.393266
O O11 0.500000 0.982149 0.949940
O O12 0.723494 0.894588 0.930933
O O13 0.717184 0.053986 0.908066
O O14 0.741749 0.000000 0.000000
O O15 0.500000 0.809764 0.965548
O O16 0.738298 0.741626 0.941214
O O17 0.721510 0.832627 0.023976
O O18 0.000000 0.842315 0.410347
O O19 0.250000 0.582136 0.250000
O O20 0.500000 0.589294 0.289756
O O21 0.000000 0.660982 0.586113
#
# Coordination Sequence:
#
# PCOD8217692 Si02
#       8
#     8   8   8   8   8   8   8   8
#     4  10  18  29  43  60  82 111 149 182 203 237
#     4  10  19  29  42  64  90 113 137 171 218 261
#     4  10  21  33  43  61  86 109 135 169 216 265
#     4   7  11  19  36  57  79 109 146 183 211 228
#     4   8  13  23  37  58  85 113 148 187 211 227
#     4   9  14  24  41  61  82 112 151 181 204 239
#     4   9  20  36  50  63  80 104 135 172 215 262
#     4  10  18  27  41  61  85 114 150 182 205 236
#
# _framework density 15.382477
#
# number of rings (size 3 to 8) (size 9 to 14) (size 15 to 20)
#    0.000    2.875    1.250    3.750    0.000    5.500 
#    0.000    0.000    0.000    4.125    0.000    0.000 
#    0.000    1.000    0.000    2.250    0.000    3.500 
#
# Total GULP energy -792855.071010 kJ/mol
# GULP energy per Si atom -12388.360485 kJ/mol
# Density = 1.534747 g / cm^3
# Si number density = 15.382477 Si / 1000 Ang^3
#
#
#
# Elastic Constant Matrix: (Units=GPa)
#
#
# Indices 1 2 3 4 5 6 
#
# 1 59.8899 42.6134 28.9924 0.0000 0.0000 0.0000
# 2 42.6134 146.4111 44.4010 0.0000 0.0000 0.0000
# 3 28.9924 44.4010 51.8243 0.0000 0.0000 0.0000
# 4 0.0000 0.0000 0.0000 10.3216 0.0000 0.0000
# 5 0.0000 0.0000 0.0000 0.0000 17.8591 0.0000
# 6 0.0000 0.0000 0.0000 0.0000 0.0000 -8.4677
#
#
#
# Elastic Compliance Matrix: (Units=1/GPa)
#
#
# Indices 1 2 3 4 5 6 
#
# 1 0.024537 -0.004024 -0.010279 0.000000 0.000000 0.000000
# 2 -0.004024 0.009888 -0.006220 0.000000 0.000000 0.000000
# 3 -0.010279 -0.006220 0.030375 0.000000 0.000000 0.000000
# 4 0.000000 0.000000 0.000000 0.096884 0.000000 0.000000
# 5 0.000000 0.000000 0.000000 0.000000 0.055994 0.000000
# 6 0.000000 0.000000 0.000000 0.000000 0.000000 -0.118096
#
#
# Mechanical properties :
#
#
# Convention : Reuss Voigt Hill
#
# Bulk Modulus (GPa) = 42.09923 54.45987 48.27955
# Shear Modulus (GPa) = 33.65959 13.41717 23.53838
#
# Velocity S-wave (km/s) = 4.68287 2.95657 3.91603
# Velocity P-wave (km/s) = 7.52773 6.86555 7.20425
#
# Compressibility (1/GPa) = 0.02375340
#
# Stress axis : x y z
#
# Youngs Moduli (GPa) = 40.75543 101.13607 32.92140
#
# Poissons Ratio (x) = 0.40700 0.33839
# Poissons Ratio (y) = 0.16401 0.20477
# Poissons Ratio (z) = 0.41892 0.62907
#
# Static dielectric constant tensor:
#      x y z
#    x 2.788400 0.000000 0.000000 
#    y 0.000000 3.502930 0.000000 
#    z 0.000000 0.000000 2.478070 
# 
# 
# High freq. dielectric constant tensor:
#      x y z
#    x 1.574050 0.000000 0.000000 
#    y 0.000000 1.606420 0.000000 
#    z 0.000000 0.000000 1.524870 
# 
# From -- ./inp_files/36510.got.cif
#   From: 2010.03.12/outbox.cif.g09.slc.cpg/sg53_19_cif.got.tgz:36510.got - 2010.04.16 14:36:59.
