data_PCOD8217463
_publ_section_title
;
Structure prediction by ZEFSAII (Michael W. Deem and Ramdas Pophale) SiO2 
 PCOD8217463
Probable space group: P M N A
;
_chemical_formula_sum "Si O2"
_cell_formula_units_Z 64
_cell_length_a 8.895952
_cell_length_b 20.832692
_cell_length_c 18.280948
_cell_angle_alpha 90.000000
_cell_angle_beta 90.000000
_cell_angle_gamma 90.000000
_cell_volume 3387.946451
_symmetry_space_group_name_H-M "P M N A"
_symmetry_group_IT_number 53
_symmetry_cell_setting 'orthorhombic'
loop_
_space_group_symop_operation_xyz
x,y,z
1/2-x,-y,1/2+z
x,-y,-z
1/2-x,y,1/2-z
-x,-y,-z
1/2+x,y,1/2-z
-x,y,z
1/2+x,-y,1/2+z
loop_
_atom_site_type_symbol
_atom_site_label
_atom_site_fract_x
_atom_site_fract_y
_atom_site_fract_z
Si Si1 0.821282 0.996144 0.168692
Si Si2 0.824013 0.621784 0.081103
Si Si3 0.674415 0.873114 0.171837
Si Si4 0.174381 0.119177 0.328140
Si Si5 0.826050 0.261110 0.328546
Si Si6 0.177777 0.498659 0.171496
Si Si7 0.176354 0.373038 0.086984
Si Si8 0.673970 0.268910 0.828546
O O1 0.750000 0.996295 0.250000
O O2 0.759550 0.061084 0.128530
O O3 0.000000 0.996109 0.169891
O O4 0.759403 0.931263 0.128487
O O5 0.768366 0.557974 0.122050
O O6 0.740145 0.683299 0.112274
O O7 0.000000 0.632616 0.092171
O O8 0.781362 0.613395 0.996646
O O9 0.750000 0.867569 0.250000
O O10 0.500000 0.891281 0.179534
O O11 0.696327 0.802637 0.136619
O O12 0.250000 0.125173 0.250000
O O13 0.195756 0.189636 0.363621
O O14 0.000000 0.100932 0.320298
O O15 0.750000 0.269919 0.250000
O O16 0.758557 0.309077 0.387428
O O17 0.000000 0.276353 0.316378
O O18 0.250000 0.506417 0.250000
O O19 0.234654 0.433140 0.134313
O O20 0.000000 0.498202 0.179516
O O21 0.000000 0.362947 0.097140
O O22 0.750000 0.278088 0.750000
O O23 0.500000 0.283808 0.816107
#
# Coordination Sequence:
#
# PCOD8217463 Si02
#       8
#     8   8   8   8   8   8   8   8
#     4  10  16  22  36  60  91 126 163 204 251 301
#     4  10  21  37  56  77 104 138 173 211 255 304
#     4   9  16  26  40  61  92 128 164 204 252 302
#     4   9  16  26  40  61  92 128 164 204 252 302
#     4  10  20  33  51  75 103 136 174 216 259 307
#     4  10  21  37  57  81 107 136 171 208 252 304
#     4  10  21  37  56  77 104 138 173 211 255 304
#     4  10  20  33  51  75 103 136 174 216 259 307
#
# _framework density 18.890498999999998
#
# number of rings (size 3 to 8) (size 9 to 14) (size 15 to 20)
#    0.000    2.250    0.000    5.250    0.000    8.000 
#    0.000    0.000    0.000    2.250    0.000    0.875 
#    0.000    7.000    0.000    0.000    0.000    0.000 
#
# Total GULP energy -793201.595353 kJ/mol
# GULP energy per Si atom -12393.774927 kJ/mol
# Density = 1.884750 g / cm^3
# Si number density = 18.890499 Si / 1000 Ang^3
#
#
#
# Elastic Constant Matrix: (Units=GPa)
#
#
# Indices 1 2 3 4 5 6 
#
# 1 104.1915 60.2570 29.9760 0.0000 0.0000 0.0000
# 2 60.2570 140.8271 27.6122 0.0000 0.0000 0.0000
# 3 29.9760 27.6122 52.6912 0.0000 0.0000 0.0000
# 4 0.0000 0.0000 0.0000 20.0486 0.0000 0.0000
# 5 0.0000 0.0000 0.0000 0.0000 22.1267 0.0000
# 6 0.0000 0.0000 0.0000 0.0000 0.0000 34.9783
#
#
#
# Elastic Compliance Matrix: (Units=1/GPa)
#
#
# Indices 1 2 3 4 5 6 
#
# 1 0.013999 -0.004936 -0.005378 0.000000 0.000000 0.000000
# 2 -0.004936 0.009654 -0.002251 0.000000 0.000000 0.000000
# 3 -0.005378 -0.002251 0.023218 0.000000 0.000000 0.000000
# 4 0.000000 0.000000 0.000000 0.049879 0.000000 0.000000
# 5 0.000000 0.000000 0.000000 0.000000 0.045194 0.000000
# 6 0.000000 0.000000 0.000000 0.000000 0.000000 0.028589
#
#
# Mechanical properties :
#
#
# Convention : Reuss Voigt Hill
#
# Bulk Modulus (GPa) = 45.99423 59.26668 52.63046
# Shear Modulus (GPa) = 24.64148 27.42170 26.03159
#
# Velocity S-wave (km/s) = 3.61562 3.81414 3.71620
# Velocity P-wave (km/s) = 6.46768 7.13013 6.80697
#
# Compressibility (1/GPa) = 0.02174186
#
# Stress axis : x y z
#
# Youngs Moduli (GPa) = 71.43225 103.58237 43.07064
#
# Poissons Ratio (x) = 0.51124 0.23162
# Poissons Ratio (y) = 0.35256 0.09696
# Poissons Ratio (z) = 0.38414 0.23319
#
# Static dielectric constant tensor:
#      x y z
#    x 3.380420 0.000000 0.000000 
#    y 0.000000 4.657370 0.000000 
#    z 0.000000 0.000000 2.969510 
# 
# 
# High freq. dielectric constant tensor:
#      x y z
#    x 1.741590 0.000000 0.000000 
#    y 0.000000 1.767540 0.000000 
#    z 0.000000 0.000000 1.674750 
# 
# From -- ./inp_files/31356.got.cif
#   From: 2010.03.12/outbox.cif.g09.slc.cpg/sg53_16_cif.got.tgz:31356.got - 2010.04.16 14:36:59.
