data_PCOD8217336
_publ_section_title
;
Structure prediction by ZEFSAII (Michael W. Deem and Ramdas Pophale) SiO2 
 PCOD8217336
Probable space group: P N N A
;
_chemical_formula_sum "Si O2"
_cell_formula_units_Z 32
_cell_length_a 16.080260
_cell_length_b 11.752912
_cell_length_c 7.777911
_cell_angle_alpha 90.000000
_cell_angle_beta 90.000000
_cell_angle_gamma 90.000000
_cell_volume 1469.946472
_symmetry_space_group_name_H-M "P N N A"
_symmetry_group_IT_number 52
_symmetry_cell_setting 'orthorhombic'
loop_
_space_group_symop_operation_xyz
x,y,z
1/2-x,-y,z
x,1/2-y,1/2-z
1/2-x,1/2+y,1/2-z
-x,-y,-z
1/2+x,y,-z
-x,1/2+y,1/2+z
1/2+x,1/2-y,1/2+z
loop_
_atom_site_type_symbol
_atom_site_label
_atom_site_fract_x
_atom_site_fract_y
_atom_site_fract_z
Si Si1 0.684805 0.805427 0.916962
Si Si2 0.549027 0.826741 0.418321
Si Si3 0.121666 0.069925 0.544208
Si Si4 0.290131 0.750000 0.750000
Si Si5 0.750000 0.500000 0.771687
O O1 0.729182 0.750000 0.750000
O O2 0.686372 0.936701 0.859359
O O3 0.592266 0.752711 0.936854
O O4 0.733376 0.783506 0.090951
O O5 0.542671 0.750000 0.250000
O O6 0.458950 0.865218 0.476522
O O7 0.604808 0.940750 0.392158
O O8 0.154111 0.140176 0.707849
O O9 0.190874 0.074684 0.394859
#
# Coordination Sequence:
#
# PCOD8217336 Si02
#       5
#     8   8   8   4   4
#     4  12  25  46  74 105 151 189 247 309 372 436
#     4  11  26  47  72 105 153 197 241 312 373 452
#     4  11  26  47  72 108 153 189 255 305 370 443
#     4  12  26  44  76 110 140 200 248 306 364 448
#     4  12  26  46  78 110 148 198 250 320 364 442
#
# _framework density 21.769500000000001
#
# number of rings (size 3 to 8) (size 9 to 14) (size 15 to 20)
#    0.000    0.500    6.250    0.000    8.750    0.000 
#    0.000    2.500    0.000    0.000    0.000    0.000 
#    0.000    0.000    0.000    0.000    0.000    0.000 
#
# Total GULP energy -396523.599752 kJ/mol
# GULP energy per Si atom -12391.362492 kJ/mol
# Density = 2.171995 g / cm^3
# Si number density = 21.769500 Si / 1000 Ang^3
#
#
#
# Elastic Constant Matrix: (Units=GPa)
#
#
# Indices 1 2 3 4 5 6 
#
# 1 131.6279 61.9114 56.2116 0.0000 0.0000 0.0000
# 2 61.9114 126.8111 65.6695 0.0000 0.0000 0.0000
# 3 56.2116 65.6695 155.3913 0.0000 0.0000 0.0000
# 4 0.0000 0.0000 0.0000 49.8132 0.0000 0.0000
# 5 0.0000 0.0000 0.0000 0.0000 12.6354 0.0000
# 6 0.0000 0.0000 0.0000 0.0000 0.0000 40.1159
#
#
#
# Elastic Compliance Matrix: (Units=1/GPa)
#
#
# Indices 1 2 3 4 5 6 
#
# 1 0.010352 -0.003988 -0.002060 0.000000 0.000000 0.000000
# 2 -0.003988 0.011631 -0.003473 0.000000 0.000000 0.000000
# 3 -0.002060 -0.003473 0.008648 0.000000 0.000000 0.000000
# 4 0.000000 0.000000 0.000000 0.020075 0.000000 0.000000
# 5 0.000000 0.000000 0.000000 0.000000 0.079143 0.000000
# 6 0.000000 0.000000 0.000000 0.000000 0.000000 0.024928
#
#
# Mechanical properties :
#
#
# Convention : Reuss Voigt Hill
#
# Bulk Modulus (GPa) = 86.27273 86.82392 86.54832
# Shear Modulus (GPa) = 28.14032 35.84875 31.99454
#
# Velocity S-wave (km/s) = 3.59924 4.06241 3.83782
# Velocity P-wave (km/s) = 7.54910 7.87236 7.71242
#
# Compressibility (1/GPa) = 0.01159115
#
# Stress axis : x y z
#
# Youngs Moduli (GPa) = 96.59667 85.97729 115.63234
#
# Poissons Ratio (x) = 0.34284 0.23817
# Poissons Ratio (y) = 0.38519 0.40158
# Poissons Ratio (z) = 0.19896 0.29859
#
# Static dielectric constant tensor:
#      x y z
#    x 4.040810 0.000000 0.000000 
#    y 0.000000 4.406650 0.000000 
#    z 0.000000 0.000000 4.107400 
# 
# 
# High freq. dielectric constant tensor:
#      x y z
#    x 1.853970 0.000000 0.000000 
#    y 0.000000 1.870000 0.000000 
#    z 0.000000 0.000000 1.861080 
# 
# From -- ./inp_files/9629.got.cif
#   From: 2010.06.25/outbox.cif.g09.slc.cpg/sg52_5_cif.got.tgz:9629.got - 2010.06.26 19:32:48.
