data_PCOD8217798
_publ_section_title
;
Structure prediction by ZEFSAII (Michael W. Deem and Ramdas Pophale) SiO2 
 PCOD8217798
Probable space group: P M N A
;
_chemical_formula_sum "Si O2"
_cell_formula_units_Z 56
_cell_length_a 8.894779
_cell_length_b 16.048029
_cell_length_c 24.543947
_cell_angle_alpha 90.000000
_cell_angle_beta 90.000000
_cell_angle_gamma 90.000000
_cell_volume 3503.493104
_symmetry_space_group_name_H-M "P M N A"
_symmetry_group_IT_number 53
_symmetry_cell_setting 'orthorhombic'
loop_
_space_group_symop_operation_xyz
x,y,z
1/2-x,-y,1/2+z
x,-y,-z
1/2-x,y,1/2-z
-x,-y,-z
1/2+x,y,1/2-z
-x,y,z
1/2+x,-y,1/2+z
loop_
_atom_site_type_symbol
_atom_site_label
_atom_site_fract_x
_atom_site_fract_y
_atom_site_fract_z
Si Si1 0.173192 0.811474 0.983015
Si Si2 0.168661 0.962562 0.559992
Si Si3 0.820967 0.479920 0.580324
Si Si4 0.822984 0.781195 0.305062
Si Si5 0.174099 0.883800 0.100974
Si Si6 0.821481 0.620840 0.985888
Si Si7 0.323750 0.591713 0.195055
O O1 0.267629 0.868594 0.941422
O O2 0.221054 0.716165 0.974281
O O3 0.000000 0.826210 0.968980
O O4 0.206740 0.836214 0.044945
O O5 0.000000 0.960459 0.583433
O O6 0.172595 0.000000 0.500000
O O7 0.271658 0.020357 0.598271
O O8 0.754141 0.406941 0.542511
O O9 0.746748 0.567563 0.563757
O O10 0.775430 0.462529 0.642783
O O11 0.000000 0.482798 0.572311
O O12 0.750000 0.816525 0.250000
O O13 0.770549 0.837336 0.354375
O O14 0.768816 0.686308 0.314944
O O15 0.000000 0.787010 0.299758
O O16 0.000000 0.882032 0.116876
O O17 0.000000 0.607316 0.990098
O O18 0.250000 0.554531 0.250000
O O19 0.500000 0.588583 0.203752
#
# Coordination Sequence:
#
# PCOD8217798 Si02
#       7
#     8   8   8   8   8   8   8
#     4   9  18  30  44  64  90 118 149 182 218 262
#     4   9  17  28  43  64  88 114 145 178 212 254
#     4  10  19  31  45  65  92 120 151 187 228 271
#     4  10  19  31  45  64  89 116 149 184 218 259
#     4  10  18  29  45  64  89 120 148 179 219 259
#     4  10  19  30  45  66  91 122 155 186 223 269
#     4   9  19  32  47  66  89 118 151 188 227 267
#
# _framework density 15.984048
#
# number of rings (size 3 to 8) (size 9 to 14) (size 15 to 20)
#    0.000    2.429    0.000    3.857    0.000    5.143 
#    0.000    0.000    0.000    0.000    0.000    1.000 
#    0.000    4.571    0.000    0.000    0.000    0.000 
#
# Total GULP energy -694412.644541 kJ/mol
# GULP energy per Si atom -12400.225795 kJ/mol
# Density = 1.594767 g / cm^3
# Si number density = 15.984048 Si / 1000 Ang^3
#
#
#
# Elastic Constant Matrix: (Units=GPa)
#
#
# Indices 1 2 3 4 5 6 
#
# 1 72.9266 41.4529 36.4607 0.0000 0.0000 0.0000
# 2 41.4529 110.9586 46.5241 0.0000 0.0000 0.0000
# 3 36.4607 46.5241 83.2138 0.0000 0.0000 0.0000
# 4 0.0000 0.0000 0.0000 8.8794 0.0000 0.0000
# 5 0.0000 0.0000 0.0000 0.0000 27.7981 0.0000
# 6 0.0000 0.0000 0.0000 0.0000 0.0000 25.1436
#
#
#
# Elastic Compliance Matrix: (Units=1/GPa)
#
#
# Indices 1 2 3 4 5 6 
#
# 1 0.019333 -0.004795 -0.005790 0.000000 0.000000 0.000000
# 2 -0.004795 0.012961 -0.005146 0.000000 0.000000 0.000000
# 3 -0.005790 -0.005146 0.017431 0.000000 0.000000 0.000000
# 4 0.000000 0.000000 0.000000 0.112620 0.000000 0.000000
# 5 0.000000 0.000000 0.000000 0.000000 0.035974 0.000000
# 6 0.000000 0.000000 0.000000 0.000000 0.000000 0.039772
#
#
# Mechanical properties :
#
#
# Convention : Reuss Voigt Hill
#
# Bulk Modulus (GPa) = 54.75232 57.33049 56.04140
# Shear Modulus (GPa) = 18.13966 21.87498 20.00732
#
# Velocity S-wave (km/s) = 3.37242 3.70341 3.54178
# Velocity P-wave (km/s) = 7.03513 7.36425 7.20157
#
# Compressibility (1/GPa) = 0.01826407
#
# Stress axis : x y z
#
# Youngs Moduli (GPa) = 51.72597 77.15365 57.36892
#
# Poissons Ratio (x) = 0.36993 0.33217
# Poissons Ratio (y) = 0.24801 0.29520
# Poissons Ratio (z) = 0.29949 0.39700
#
# Static dielectric constant tensor:
#      x y z
#    x 3.154860 0.000000 0.000000 
#    y 0.000000 3.094380 0.000000 
#    z 0.000000 0.000000 2.977420 
# 
# 
# High freq. dielectric constant tensor:
#      x y z
#    x 1.629470 0.000000 0.000000 
#    y 0.000000 1.605580 0.000000 
#    z 0.000000 0.000000 1.587140 
# 
# From -- ./inp_files/34363.got.cif
#   From: 2010.03.12/outbox.cif.g09.slc.cpg/sg53_18_cif.got.tgz:34363.got - 2010.04.16 14:36:59.
