data_PCOD8217115
_publ_section_title
;
Structure prediction by ZEFSAII (Michael W. Deem and Ramdas Pophale) SiO2 
 PCOD8217115
Probable space group: P N N A
;
_chemical_formula_sum "Si O2"
_cell_formula_units_Z 40
_cell_length_a 7.596824
_cell_length_b 15.054181
_cell_length_c 14.443753
_cell_angle_alpha 90.000000
_cell_angle_beta 90.000000
_cell_angle_gamma 90.000000
_cell_volume 1651.844841
_symmetry_space_group_name_H-M "P N N A"
_symmetry_group_IT_number 52
_symmetry_cell_setting 'orthorhombic'
loop_
_space_group_symop_operation_xyz
x,y,z
1/2-x,-y,z
x,1/2-y,1/2-z
1/2-x,1/2+y,1/2-z
-x,-y,-z
1/2+x,y,-z
-x,1/2+y,1/2+z
1/2+x,1/2-y,1/2+z
loop_
_atom_site_type_symbol
_atom_site_label
_atom_site_fract_x
_atom_site_fract_y
_atom_site_fract_z
Si Si1 0.621005 0.250000 0.250000
Si Si2 0.321300 0.595170 0.433950
Si Si3 0.787587 0.403740 0.363338
Si Si4 0.646962 0.726566 0.901270
Si Si5 0.971675 0.625595 0.937929
Si Si6 0.250000 0.000000 0.569461
O O1 0.742872 0.325848 0.292446
O O2 0.500320 0.297880 0.173320
O O3 0.250000 0.500000 0.401835
O O4 0.511910 0.609691 0.391920
O O5 0.336571 0.601800 0.545450
O O6 0.186292 0.668981 0.396633
O O7 0.750000 0.500000 0.316503
O O8 0.579365 0.699797 0.003566
O O9 0.827302 0.673917 0.874173
O O10 0.871954 0.560609 0.006400
O O11 0.114191 0.567062 0.876669
#
# Coordination Sequence:
#
# PCOD8217115 Si02
#       6
#     4   8   8   8   8   4
#     4  12  26  42  62  98 146 182 216 274 360 422
#     4  11  22  43  77 105 126 170 240 301 337 393
#     4  11  23  43  71 103 136 178 230 292 347 411
#     4  11  22  38  65  99 132 172 219 279 339 407
#     4   9  18  36  64  93 122 166 229 269 311 382
#     4   8  16  34  64  90 116 158 220 276 300 356
#
# _framework density 24.215350000000001
#
# number of rings (size 3 to 8) (size 9 to 14) (size 15 to 20)
#    0.000    1.600    0.000    7.200    0.000    2.400 
#    1.800    0.000   52.800    0.000    0.000    0.000 
#    0.000    0.000    0.000    0.000    0.000    0.000 
#
# Total GULP energy -495808.313483 kJ/mol
# GULP energy per Si atom -12395.207837 kJ/mol
# Density = 2.416023 g / cm^3
# Si number density = 24.215350 Si / 1000 Ang^3
#
#
#
# Elastic Constant Matrix: (Units=GPa)
#
#
# Indices 1 2 3 4 5 6 
#
# 1 173.0897 95.3337 49.9413 0.0000 0.0000 0.0000
# 2 95.3337 177.5612 50.9488 0.0000 0.0000 0.0000
# 3 49.9413 50.9488 56.2846 0.0000 0.0000 0.0000
# 4 0.0000 0.0000 0.0000 28.0473 0.0000 0.0000
# 5 0.0000 0.0000 0.0000 0.0000 21.2748 0.0000
# 6 0.0000 0.0000 0.0000 0.0000 0.0000 48.3863
#
#
#
# Elastic Compliance Matrix: (Units=1/GPa)
#
#
# Indices 1 2 3 4 5 6 
#
# 1 0.009119 -0.003478 -0.004943 0.000000 0.000000 0.000000
# 2 -0.003478 0.008934 -0.005001 0.000000 0.000000 0.000000
# 3 -0.004943 -0.005001 0.026680 0.000000 0.000000 0.000000
# 4 0.000000 0.000000 0.000000 0.035654 0.000000 0.000000
# 5 0.000000 0.000000 0.000000 0.000000 0.047004 0.000000
# 6 0.000000 0.000000 0.000000 0.000000 0.000000 0.020667
#
#
# Mechanical properties :
#
#
# Convention : Reuss Voigt Hill
#
# Bulk Modulus (GPa) = 55.90136 88.82034 72.36085
# Shear Modulus (GPa) = 27.64473 33.58915 30.61694
#
# Velocity S-wave (km/s) = 3.38245 3.72842 3.55964
# Velocity P-wave (km/s) = 6.19595 7.43598 6.84411
#
# Compressibility (1/GPa) = 0.01788865
#
# Stress axis : x y z
#
# Youngs Moduli (GPa) = 109.66046 111.93035 37.48072
#
# Poissons Ratio (x) = 0.38925 0.18528
# Poissons Ratio (y) = 0.38136 0.18746
# Poissons Ratio (z) = 0.54209 0.55981
#
# Static dielectric constant tensor:
#      x y z
#    x 4.974680 0.000000 0.000000 
#    y 0.000000 4.946390 0.000000 
#    z 0.000000 0.000000 3.754910 
# 
# 
# High freq. dielectric constant tensor:
#      x y z
#    x 1.993070 0.000000 0.000000 
#    y 0.000000 1.988760 0.000000 
#    z 0.000000 0.000000 1.894280 
# 
# From -- ./inp_files/24492.got.cif
#   From: 2010.06.25/outbox.cif.g09.slc.cpg/sg52_13_cif.got.tgz:24492.got - 2010.06.26 19:32:48.
