data_PCOD8217806
_publ_section_title
;
Structure prediction by ZEFSAII (Michael W. Deem and Ramdas Pophale) SiO2 
 PCOD8217806
Probable space group: P M N A
;
_chemical_formula_sum "Si O2"
_cell_formula_units_Z 56
_cell_length_a 9.043743
_cell_length_b 20.734953
_cell_length_c 18.281364
_cell_angle_alpha 90.000000
_cell_angle_beta 90.000000
_cell_angle_gamma 90.000000
_cell_volume 3428.150372
_symmetry_space_group_name_H-M "P M N A"
_symmetry_group_IT_number 53
_symmetry_cell_setting 'orthorhombic'
loop_
_space_group_symop_operation_xyz
x,y,z
1/2-x,-y,1/2+z
x,-y,-z
1/2-x,y,1/2-z
-x,-y,-z
1/2+x,y,1/2-z
-x,y,z
1/2+x,-y,1/2+z
loop_
_atom_site_type_symbol
_atom_site_label
_atom_site_fract_x
_atom_site_fract_y
_atom_site_fract_z
Si Si1 0.825293 0.061342 0.460090
Si Si2 0.172166 0.616001 0.097862
Si Si3 0.172793 0.141002 0.589084
Si Si4 0.674737 0.518125 0.672323
Si Si5 0.326145 0.251693 0.673200
Si Si6 0.171437 0.989857 0.325516
Si Si7 0.332236 0.569284 0.962930
O O1 0.780250 0.126536 0.503790
O O2 0.000000 0.055230 0.468228
O O3 0.752264 0.000000 0.500000
O O4 0.780663 0.052570 0.374948
O O5 0.214139 0.554265 0.146916
O O6 0.218914 0.677754 0.144984
O O7 0.000000 0.615636 0.078017
O O8 0.259177 0.618422 0.020850
O O9 0.271747 0.200250 0.614183
O O10 0.211936 0.077835 0.636477
O O11 0.000000 0.158989 0.596277
O O12 0.750000 0.531654 0.750000
O O13 0.500000 0.529077 0.678835
O O14 0.740854 0.568208 0.612895
O O15 0.250000 0.237417 0.750000
O O16 0.500000 0.244889 0.683967
O O17 0.250000 0.997561 0.250000
O O18 0.000000 0.991929 0.309367
O O19 0.500000 0.590907 0.946469
O O20 0.326450 0.500000 0.000000
#
# Coordination Sequence:
#
# PCOD8217806 Si02
#       7
#     8   8   8   8   8   8   8
#     4   7  12  25  43  60  80 110 145 177 213 261
#     4   9  19  33  46  62  88 122 153 183 219 258
#     4   9  17  30  46  62  84 116 151 183 216 256
#     4  10  18  29  46  67  92 119 148 182 221 263
#     4  11  22  33  45  64  91 121 153 184 215 253
#     4   9  16  26  42  64  88 113 142 178 220 264
#     4   9  17  29  46  67  89 114 146 183 223 268
#
# _framework density 16.335339000000001
#
# number of rings (size 3 to 8) (size 9 to 14) (size 15 to 20)
#    0.000    2.857    0.000    3.857    0.000    5.143 
#    0.000    0.714    0.000    2.571    0.000    1.000 
#    0.000    4.571    0.000    0.000    0.000    0.000 
#
# Total GULP energy -693913.200521 kJ/mol
# GULP energy per Si atom -12391.307152 kJ/mol
# Density = 1.629816 g / cm^3
# Si number density = 16.335339 Si / 1000 Ang^3
#
#
#
# Elastic Constant Matrix: (Units=GPa)
#
#
# Indices 1 2 3 4 5 6 
#
# 1 59.2480 16.7317 37.2252 0.0000 0.0000 0.0000
# 2 16.7317 32.7753 11.7177 0.0000 0.0000 0.0000
# 3 37.2252 11.7177 81.5882 0.0000 0.0000 0.0000
# 4 0.0000 0.0000 0.0000 25.3094 0.0000 0.0000
# 5 0.0000 0.0000 0.0000 0.0000 30.3208 0.0000
# 6 0.0000 0.0000 0.0000 0.0000 0.0000 27.3936
#
#
#
# Elastic Compliance Matrix: (Units=1/GPa)
#
#
# Indices 1 2 3 4 5 6 
#
# 1 0.026250 -0.009612 -0.010596 0.000000 0.000000 0.000000
# 2 -0.009612 0.035682 -0.000739 0.000000 0.000000 0.000000
# 3 -0.010596 -0.000739 0.017197 0.000000 0.000000 0.000000
# 4 0.000000 0.000000 0.000000 0.039511 0.000000 0.000000
# 5 0.000000 0.000000 0.000000 0.000000 0.032981 0.000000
# 6 0.000000 0.000000 0.000000 0.000000 0.000000 0.036505
#
#
# Mechanical properties :
#
#
# Convention : Reuss Voigt Hill
#
# Bulk Modulus (GPa) = 26.85683 33.88453 30.37068
# Shear Modulus (GPa) = 20.62422 23.80055 22.21239
#
# Velocity S-wave (km/s) = 3.55710 3.82121 3.69151
# Velocity P-wave (km/s) = 5.77470 6.34483 6.06647
#
# Compressibility (1/GPa) = 0.03723448
#
# Stress axis : x y z
#
# Youngs Moduli (GPa) = 38.09463 28.02530 58.14809
#
# Poissons Ratio (x) = 0.26939 0.61616
# Poissons Ratio (y) = 0.36618 0.04297
# Poissons Ratio (z) = 0.40367 0.02071
#
# Static dielectric constant tensor:
#      x y z
#    x 2.998940 0.000000 0.000000 
#    y 0.000000 2.890970 0.000000 
#    z 0.000000 0.000000 3.276370 
# 
# 
# High freq. dielectric constant tensor:
#      x y z
#    x 1.622660 0.000000 0.000000 
#    y 0.000000 1.588410 0.000000 
#    z 0.000000 0.000000 1.634720 
# 
# From -- ./inp_files/26654.got.cif
#   From: 2010.03.12/outbox.cif.g09.slc.cpg/sg53_14_cif.got.tgz:26654.got - 2010.04.16 14:36:59.
