data_PCOD8217276
_publ_section_title
;
Structure prediction by ZEFSAII (Michael W. Deem and Ramdas Pophale) SiO2 
 PCOD8217276
Probable space group: P N N A
;
_chemical_formula_sum "Si O2"
_cell_formula_units_Z 36
_cell_length_a 9.823075
_cell_length_b 7.686718
_cell_length_c 20.704301
_cell_angle_alpha 90.000000
_cell_angle_beta 90.000000
_cell_angle_gamma 90.000000
_cell_volume 1563.323950
_symmetry_space_group_name_H-M "P N N A"
_symmetry_group_IT_number 52
_symmetry_cell_setting 'orthorhombic'
loop_
_space_group_symop_operation_xyz
x,y,z
1/2-x,-y,z
x,1/2-y,1/2-z
1/2-x,1/2+y,1/2-z
-x,-y,-z
1/2+x,y,-z
-x,1/2+y,1/2+z
1/2+x,1/2-y,1/2+z
loop_
_atom_site_type_symbol
_atom_site_label
_atom_site_fract_x
_atom_site_fract_y
_atom_site_fract_z
Si Si1 0.004379 0.806024 0.901304
Si Si2 0.250000 0.500000 0.444611
Si Si3 0.250000 0.000000 0.840678
Si Si4 0.903283 0.478229 0.842726
Si Si5 0.582816 0.250000 0.250000
Si Si6 0.354156 0.350003 0.015396
O O1 0.966855 0.671023 0.845307
O O2 0.143868 0.902978 0.886757
O O3 0.020054 0.681033 0.965810
O O4 0.885508 0.951590 0.903846
O O5 0.275012 0.332484 0.488372
O O6 0.177567 0.141328 0.796812
O O7 0.750000 0.500000 0.817794
O O8 0.905957 0.381259 0.911969
O O9 0.987380 0.374530 0.790774
O O10 0.250000 0.500000 0.991800
#
# Coordination Sequence:
#
# PCOD8217276 Si02
#       6
#     8   4   4   8   4   8
#     4  12  26  46  79 109 159 195 255 317 390 456
#     4  12  23  44  72 110 156 198 253 294 378 470
#     4  12  29  48  76 114 148 208 247 330 380 462
#     4  11  25  49  77 109 150 202 256 320 373 454
#     4  12  28  50  74 106 154 198 272 302 390 454
#     4  11  24  44  74 118 154 199 245 320 390 448
#
# _framework density 23.027854999999999
#
# number of rings (size 3 to 8) (size 9 to 14) (size 15 to 20)
#    0.000    0.444    4.444    4.667    3.111    1.778 
#    2.000    0.000    0.000    0.000    0.000    0.000 
#    0.000    0.000    0.000    0.000    0.000    0.000 
#
# Total GULP energy -446346.954382 kJ/mol
# GULP energy per Si atom -12398.526511 kJ/mol
# Density = 2.297544 g / cm^3
# Si number density = 23.027855 Si / 1000 Ang^3
#
#
#
# Elastic Constant Matrix: (Units=GPa)
#
#
# Indices 1 2 3 4 5 6 
#
# 1 162.6141 62.4617 52.6014 0.0000 0.0000 0.0000
# 2 62.4617 147.8009 23.0932 0.0000 0.0000 0.0000
# 3 52.6014 23.0932 65.8293 0.0000 0.0000 0.0000
# 4 0.0000 0.0000 0.0000 39.9916 0.0000 0.0000
# 5 0.0000 0.0000 0.0000 0.0000 0.5822 0.0000
# 6 0.0000 0.0000 0.0000 0.0000 0.0000 41.1348
#
#
#
# Elastic Compliance Matrix: (Units=1/GPa)
#
#
# Indices 1 2 3 4 5 6 
#
# 1 0.009370 -0.002952 -0.006452 0.000000 0.000000 0.000000
# 2 -0.002952 0.008088 -0.000479 0.000000 0.000000 0.000000
# 3 -0.006452 -0.000479 0.020514 0.000000 0.000000 0.000000
# 4 0.000000 0.000000 0.000000 0.025005 0.000000 0.000000
# 5 0.000000 0.000000 0.000000 0.000000 1.717641 0.000000
# 6 0.000000 0.000000 0.000000 0.000000 0.000000 0.024310
#
#
# Mechanical properties :
#
#
# Convention : Reuss Voigt Hill
#
# Bulk Modulus (GPa) = 54.92154 72.50632 63.71393
# Shear Modulus (GPa) = 2.73110 32.21426 17.47268
#
# Velocity S-wave (km/s) = 1.09022 3.74428 2.75755
# Velocity P-wave (km/s) = 5.04842 7.08855 6.15362
#
# Compressibility (1/GPa) = 0.01820779
#
# Stress axis : x y z
#
# Youngs Moduli (GPa) = 106.71875 123.63782 48.74673
#
# Poissons Ratio (x) = 0.36497 0.31451
# Poissons Ratio (y) = 0.31502 0.02333
# Poissons Ratio (z) = 0.68855 0.05917
#
# Static dielectric constant tensor:
#      x y z
#    x 4.359250 0.000000 0.000000 
#    y 0.000000 4.499260 0.000000 
#    z 0.000000 0.000000 3.925860 
# 
# 
# High freq. dielectric constant tensor:
#      x y z
#    x 1.927520 0.000000 0.000000 
#    y 0.000000 1.939560 0.000000 
#    z 0.000000 0.000000 1.887390 
# 
# From -- ./inp_files/35627.got.cif
#   From: 2010.06.25/outbox.cif.g09.slc.cpg/sg52_18_cif.got.tgz:35627.got - 2010.06.26 19:32:48.
