data_PCOD8217698
_publ_section_title
;
Structure prediction by ZEFSAII (Michael W. Deem and Ramdas Pophale) SiO2 
 PCOD8217698
Probable space group: P M N A
;
_chemical_formula_sum "Si O2"
_cell_formula_units_Z 64
_cell_length_a 8.921954
_cell_length_b 18.281826
_cell_length_c 26.279578
_cell_angle_alpha 90.000000
_cell_angle_beta 90.000000
_cell_angle_gamma 90.000000
_cell_volume 4286.451735
_symmetry_space_group_name_H-M "P M N A"
_symmetry_group_IT_number 53
_symmetry_cell_setting 'orthorhombic'
loop_
_space_group_symop_operation_xyz
x,y,z
1/2-x,-y,1/2+z
x,-y,-z
1/2-x,y,1/2-z
-x,-y,-z
1/2+x,y,1/2-z
-x,y,z
1/2+x,-y,1/2+z
loop_
_atom_site_type_symbol
_atom_site_label
_atom_site_fract_x
_atom_site_fract_y
_atom_site_fract_z
Si Si1 0.325274 0.668743 0.007613
Si Si2 0.334760 0.462592 0.054502
Si Si3 0.322790 0.093446 0.603242
Si Si4 0.824040 0.336874 0.696824
Si Si5 0.675358 0.831550 0.197233
Si Si6 0.834899 0.951803 0.949706
Si Si7 0.323548 0.591320 0.398802
Si Si8 0.173696 0.835856 0.492783
O O1 0.500000 0.656417 0.021349
O O2 0.281585 0.620737 0.957477
O O3 0.230693 0.645146 0.056688
O O4 0.291135 0.752172 0.993572
O O5 0.500000 0.463505 0.080162
O O6 0.219328 0.506596 0.089982
O O7 0.343651 0.500000 0.000000
O O8 0.500000 0.104639 0.607461
O O9 0.243373 0.116710 0.654606
O O10 0.266141 0.143436 0.557087
O O11 0.281705 0.007547 0.594593
O O12 0.750000 0.359440 0.750000
O O13 0.788678 0.252505 0.683752
O O14 0.753387 0.386893 0.653633
O O15 0.000000 0.351464 0.700228
O O16 0.750000 0.854408 0.250000
O O17 0.500000 0.845699 0.201341
O O18 0.000000 0.919944 0.937384
O O19 0.721517 0.884442 0.958241
O O20 0.843367 0.000000 0.000000
O O21 0.500000 0.598175 0.393112
O O22 0.000000 0.849207 0.481114
#
# Coordination Sequence:
#
# PCOD8217698 Si02
#       8
#     8   8   8   8   8   8   8   8
#     4   9  18  30  42  59  84 113 142 172 209 249
#     4   8  15  29  44  56  78 111 140 169 207 247
#     4  10  19  30  43  59  83 114 144 172 206 248
#     4  10  20  33  46  61  83 110 140 174 210 245
#     4  10  20  32  46  63  83 108 140 176 210 244
#     4   8  16  29  41  56  81 111 139 169 207 247
#     4  11  20  28  42  63  84 109 142 175 207 245
#     4  10  18  27  42  63  84 108 142 178 208 245
#
# _framework density 14.930763000000001
#
# number of rings (size 3 to 8) (size 9 to 14) (size 15 to 20)
#    0.000    2.500    0.000    4.875    0.000   10.500 
#    0.000    0.000    0.000    0.000    0.000    0.000 
#    0.000    1.000    0.000    5.250    0.000    4.500 
#
# Total GULP energy -793390.872309 kJ/mol
# GULP energy per Si atom -12396.732380 kJ/mol
# Density = 1.489678 g / cm^3
# Si number density = 14.930763 Si / 1000 Ang^3
#
#
#
# Elastic Constant Matrix: (Units=GPa)
#
#
# Indices 1 2 3 4 5 6 
#
# 1 79.8856 43.1838 45.4511 0.0000 0.0000 0.0000
# 2 43.1838 98.3455 51.9002 0.0000 0.0000 0.0000
# 3 45.4511 51.9002 84.1262 0.0000 0.0000 0.0000
# 4 0.0000 0.0000 0.0000 28.0414 0.0000 0.0000
# 5 0.0000 0.0000 0.0000 0.0000 24.5037 0.0000
# 6 0.0000 0.0000 0.0000 0.0000 0.0000 -2.2557
#
#
#
# Elastic Compliance Matrix: (Units=1/GPa)
#
#
# Indices 1 2 3 4 5 6 
#
# 1 0.019278 -0.004402 -0.007700 0.000000 0.000000 0.000000
# 2 -0.004402 0.016082 -0.007543 0.000000 0.000000 0.000000
# 3 -0.007700 -0.007543 0.020701 0.000000 0.000000 0.000000
# 4 0.000000 0.000000 0.000000 0.035662 0.000000 0.000000
# 5 0.000000 0.000000 0.000000 0.000000 0.040810 0.000000
# 6 0.000000 0.000000 0.000000 0.000000 0.000000 -0.443320
#
#
# Mechanical properties :
#
#
# Convention : Reuss Voigt Hill
#
# Bulk Modulus (GPa) = 59.62704 60.38082 60.00393
# Shear Modulus (GPa) = -18.80353 18.17935 -0.31209
#
# Velocity S-wave (km/s) = -3.55263 3.49317 -0.45769
# Velocity P-wave (km/s) = 4.81603 7.53644 6.32424
#
# Compressibility (1/GPa) = 0.01677091
#
# Stress axis : x y z
#
# Youngs Moduli (GPa) = 51.87210 62.18179 48.30741
#
# Poissons Ratio (x) = 0.27370 0.37197
# Poissons Ratio (y) = 0.22832 0.36440
# Poissons Ratio (z) = 0.39942 0.46906
#
# Static dielectric constant tensor:
#      x y z
#    x 2.987000 0.000000 0.000000 
#    y 0.000000 3.179930 0.000000 
#    z 0.000000 0.000000 2.668400 
# 
# 
# High freq. dielectric constant tensor:
#      x y z
#    x 1.583860 0.000000 0.000000 
#    y 0.000000 1.562380 0.000000 
#    z 0.000000 0.000000 1.537550 
# 
# From -- ./inp_files/34513.got.cif
#   From: 2010.03.12/outbox.cif.g09.slc.cpg/sg53_18_cif.got.tgz:34513.got - 2010.04.16 14:36:59.
