data_PCOD8217889
_publ_section_title
;
Structure prediction by ZEFSAII (Michael W. Deem and Ramdas Pophale) SiO2 
 PCOD8217889
Probable space group: P M N A
;
_chemical_formula_sum "Si O2"
_cell_formula_units_Z 56
_cell_length_a 8.926133
_cell_length_b 13.833367
_cell_length_c 28.060178
_cell_angle_alpha 90.000000
_cell_angle_beta 90.000000
_cell_angle_gamma 90.000000
_cell_volume 3464.827951
_symmetry_space_group_name_H-M "P M N A"
_symmetry_group_IT_number 53
_symmetry_cell_setting 'orthorhombic'
loop_
_space_group_symop_operation_xyz
x,y,z
1/2-x,-y,1/2+z
x,-y,-z
1/2-x,y,1/2-z
-x,-y,-z
1/2+x,y,1/2-z
-x,y,z
1/2+x,-y,1/2+z
loop_
_atom_site_type_symbol
_atom_site_label
_atom_site_fract_x
_atom_site_fract_y
_atom_site_fract_z
Si Si1 0.178638 0.891190 0.010453
Si Si2 0.168001 0.390131 0.954757
Si Si3 0.676045 0.576699 0.604021
Si Si4 0.176167 0.283873 0.462342
Si Si5 0.832109 0.796190 0.103915
Si Si6 0.822940 0.485123 0.797845
Si Si7 0.821686 0.736321 0.202346
O O1 0.244846 0.862078 0.062901
O O2 0.000000 0.876924 0.008984
O O3 0.249187 0.820843 0.970972
O O4 0.228289 0.000000 0.000000
O O5 0.215550 0.493433 0.934255
O O6 0.169679 0.315762 0.911103
O O7 0.000000 0.393656 0.976916
O O8 0.282528 0.357909 0.995437
O O9 0.500000 0.597008 0.605042
O O10 0.762580 0.673298 0.587565
O O11 0.733021 0.546156 0.656480
O O12 0.000000 0.270350 0.459378
O O13 0.758893 0.798100 0.156817
O O14 0.000000 0.835268 0.108951
O O15 0.750000 0.529822 0.750000
O O16 0.769235 0.374445 0.803679
O O17 0.000000 0.490913 0.793176
O O18 0.750000 0.781639 0.250000
O O19 0.000000 0.742982 0.204987
#
# Coordination Sequence:
#
# PCOD8217889 Si02
#       7
#     8   8   8   8   8   8   8
#     4   9  18  34  55  72  85 110 152 195 232 280
#     4   9  16  29  46  62  86 123 161 189 215 256
#     4  10  18  30  47  64  87 125 165 192 219 261
#     4  11  22  31  42  66  96 121 146 184 234 278
#     4   8  13  25  45  66  88 114 146 184 223 263
#     4   9  17  28  43  63  88 122 159 191 223 262
#     4   9  15  25  40  61  89 120 150 179 214 258
#
# _framework density 16.162417999999999
#
# number of rings (size 3 to 8) (size 9 to 14) (size 15 to 20)
#    0.000    2.714    1.429    2.571    0.000    3.143 
#    0.000    2.857    0.000    0.000    0.000    1.000 
#    0.000    2.286    0.000    0.000    0.000    0.000 
#
# Total GULP energy -694013.136473 kJ/mol
# GULP energy per Si atom -12393.091723 kJ/mol
# Density = 1.612563 g / cm^3
# Si number density = 16.162418 Si / 1000 Ang^3
#
#
#
# Elastic Constant Matrix: (Units=GPa)
#
#
# Indices 1 2 3 4 5 6 
#
# 1 40.7774 27.4773 28.3744 0.0000 0.0000 0.0000
# 2 27.4773 91.3110 52.7600 0.0000 0.0000 0.0000
# 3 28.3744 52.7600 98.5874 0.0000 0.0000 0.0000
# 4 0.0000 0.0000 0.0000 16.6710 0.0000 0.0000
# 5 0.0000 0.0000 0.0000 0.0000 24.2461 0.0000
# 6 0.0000 0.0000 0.0000 0.0000 0.0000 9.6795
#
#
#
# Elastic Compliance Matrix: (Units=1/GPa)
#
#
# Indices 1 2 3 4 5 6 
#
# 1 0.033096 -0.006450 -0.006074 0.000000 0.000000 0.000000
# 2 -0.006450 0.017111 -0.007301 0.000000 0.000000 0.000000
# 3 -0.006074 -0.007301 0.015798 0.000000 0.000000 0.000000
# 4 0.000000 0.000000 0.000000 0.059984 0.000000 0.000000
# 5 0.000000 0.000000 0.000000 0.000000 0.041244 0.000000
# 6 0.000000 0.000000 0.000000 0.000000 0.000000 0.103311
#
#
# Mechanical properties :
#
#
# Convention : Reuss Voigt Hill
#
# Bulk Modulus (GPa) = 37.94099 49.76658 43.85378
# Shear Modulus (GPa) = 15.67506 18.25693 16.96600
#
# Velocity S-wave (km/s) = 3.11761 3.36459 3.24345
# Velocity P-wave (km/s) = 6.04029 6.77881 6.42018
#
# Compressibility (1/GPa) = 0.02635672
#
# Stress axis : x y z
#
# Youngs Moduli (GPa) = 30.21538 58.44244 63.29758
#
# Poissons Ratio (x) = 0.37694 0.38444
# Poissons Ratio (y) = 0.19488 0.46212
# Poissons Ratio (z) = 0.18352 0.42667
#
# Static dielectric constant tensor:
#      x y z
#    x 2.782280 0.000000 0.000000 
#    y 0.000000 2.828240 0.000000 
#    z 0.000000 0.000000 3.283840 
# 
# 
# High freq. dielectric constant tensor:
#      x y z
#    x 1.596440 0.000000 0.000000 
#    y 0.000000 1.580790 0.000000 
#    z 0.000000 0.000000 1.625950 
# 
# From -- ./inp_files/38374.got.cif
#   From: 2010.03.12/outbox.cif.g09.slc.cpg/sg53_20_cif.got.tgz:38374.got - 2010.04.16 14:36:59.
