data_PCOD8217454
_publ_section_title
;
Structure prediction by ZEFSAII (Michael W. Deem and Ramdas Pophale) SiO2 
 PCOD8217454
Probable space group: P N N A
;
_chemical_formula_sum "Si O2"
_cell_formula_units_Z 64
_cell_length_a 18.000000
_cell_length_b 9.000000
_cell_length_c 21.000000
_cell_angle_alpha 90.000000
_cell_angle_beta 90.000000
_cell_angle_gamma 90.000000
_cell_volume 3402.000000
_symmetry_space_group_name_H-M "P N N A"
_symmetry_group_IT_number 52
_symmetry_cell_setting 'orthorhombic'
loop_
_space_group_symop_operation_xyz
x,y,z
1/2-x,-y,z
x,1/2-y,1/2-z
1/2-x,1/2+y,1/2-z
-x,-y,-z
1/2+x,y,-z
-x,1/2+y,1/2+z
1/2+x,1/2-y,1/2+z
loop_
_atom_site_type_symbol
_atom_site_label
_atom_site_fract_x
_atom_site_fract_y
_atom_site_fract_z
Si Si1 0.976478 0.724326 0.089780
Si Si2 0.795560 0.358281 0.190113
Si Si3 0.770710 0.328385 0.050889
Si Si4 0.040931 0.342139 0.378534
Si Si5 0.860054 0.661883 0.506175
Si Si6 0.413764 0.335637 0.515762
Si Si7 0.517665 0.610086 0.710111
Si Si8 0.036975 0.557276 0.830736
O O1 0.966181 0.814316 0.156218
O O2 0.905140 0.743339 0.045911
O O3 0.983261 0.551085 0.109978
O O4 0.048013 0.781304 0.050019
O O5 0.750000 0.500000 0.214283
O O6 0.796531 0.250000 0.250000
O O7 0.755791 0.293324 0.126188
O O8 0.877807 0.396221 0.166315
O O9 0.750000 0.500000 0.035792
O O10 0.723827 0.217943 0.005093
O O11 0.857543 0.294961 0.036256
O O12 0.113460 0.303469 0.421277
O O13 0.061716 0.482312 0.331280
O O14 0.974374 0.374852 0.429423
O O15 0.017213 0.200114 0.336144
O O16 0.867840 0.486056 0.495445
O O17 0.558793 0.750000 0.750000
O O18 0.471392 0.519800 0.762004
#
# Coordination Sequence:
#
# PCOD8217454 Si02
#       8
#     8   8   8   8   8   8   8   8
#     4  10  20  37  59  91 117 156 201 252 311 353
#     4  11  24  41  54  82 124 173 208 242 284 357
#     4  11  25  40  57  88 122 159 208 249 301 368
#     4  11  20  38  59  91 118 154 204 254 307 363
#     4  11  22  37  62  84 120 159 202 256 304 360
#     4  11  21  38  62  82 122 158 200 255 306 364
#     4  10  20  36  58  87 122 150 194 251 294 367
#     4  11  23  35  61  88 123 161 200 255 303 355
#
# _framework density 18.812463000000001
#
# number of rings (size 3 to 8) (size 9 to 14) (size 15 to 20)
#    0.000    1.250    3.750    3.750    1.750    4.500 
#    0.000    0.000    0.000    0.000    0.000    8.750 
#    0.000    0.000    0.000    0.000    0.000    0.000 
#
# Total GULP energy -792951.902832 kJ/mol
# GULP energy per Si atom -12389.873482 kJ/mol
# Density = 1.876965 g / cm^3
# Si number density = 18.812463 Si / 1000 Ang^3
#
#
#
# Elastic Constant Matrix: (Units=GPa)
#
#
# Indices 1 2 3 4 5 6 
#
# 1 64.4393 29.7499 37.3764 0.0000 0.0000 0.0000
# 2 29.7499 123.2324 55.7254 0.0000 0.0000 0.0000
# 3 37.3764 55.7254 128.3387 0.0000 0.0000 0.0000
# 4 0.0000 0.0000 0.0000 50.2560 0.0000 0.0000
# 5 0.0000 0.0000 0.0000 0.0000 21.7513 0.0000
# 6 0.0000 0.0000 0.0000 0.0000 0.0000 32.0160
#
#
#
# Elastic Compliance Matrix: (Units=1/GPa)
#
#
# Indices 1 2 3 4 5 6 
#
# 1 0.019339 -0.002640 -0.004486 0.000000 0.000000 0.000000
# 2 -0.002640 0.010458 -0.003772 0.000000 0.000000 0.000000
# 3 -0.004486 -0.003772 0.010736 0.000000 0.000000 0.000000
# 4 0.000000 0.000000 0.000000 0.019898 0.000000 0.000000
# 5 0.000000 0.000000 0.000000 0.000000 0.045974 0.000000
# 6 0.000000 0.000000 0.000000 0.000000 0.000000 0.031234
#
#
# Mechanical properties :
#
#
# Convention : Reuss Voigt Hill
#
# Bulk Modulus (GPa) = 53.36979 62.41265 57.89122
# Shear Modulus (GPa) = 30.17835 33.68190 31.93013
#
# Velocity S-wave (km/s) = 4.00955 4.23591 4.12428
# Velocity P-wave (km/s) = 7.06161 7.56122 7.31568
#
# Compressibility (1/GPa) = 0.01873719
#
# Stress axis : x y z
#
# Youngs Moduli (GPa) = 51.70814 95.62251 93.14396
#
# Poissons Ratio (x) = 0.25247 0.41783
# Poissons Ratio (y) = 0.13652 0.35133
# Poissons Ratio (z) = 0.23195 0.36068
#
# Static dielectric constant tensor:
#      x y z
#    x 3.213230 0.000000 0.000000 
#    y 0.000000 3.850710 0.000000 
#    z 0.000000 0.000000 3.826680 
# 
# 
# High freq. dielectric constant tensor:
#      x y z
#    x 1.690370 0.000000 0.000000 
#    y 0.000000 1.760980 0.000000 
#    z 0.000000 0.000000 1.754870 
# 
# From -- ./inp_files/37689.got.cif
#   From: 2010.06.25/outbox.ucp.g09.slc.cvg/sg52_19_cif.got.tgz:37689.got - 2010.06.28 15:43:51.
