data_PCOD8217827
_publ_section_title
;
Structure prediction by ZEFSAII (Michael W. Deem and Ramdas Pophale) SiO2 
 PCOD8217827
Probable space group: P M N A
;
_chemical_formula_sum "Si O2"
_cell_formula_units_Z 64
_cell_length_a 8.992256
_cell_length_b 16.899991
_cell_length_c 25.785025
_cell_angle_alpha 90.000000
_cell_angle_beta 90.000000
_cell_angle_gamma 90.000000
_cell_volume 3918.525637
_symmetry_space_group_name_H-M "P M N A"
_symmetry_group_IT_number 53
_symmetry_cell_setting 'orthorhombic'
loop_
_space_group_symop_operation_xyz
x,y,z
1/2-x,-y,1/2+z
x,-y,-z
1/2-x,y,1/2-z
-x,-y,-z
1/2+x,y,1/2-z
-x,y,z
1/2+x,-y,1/2+z
loop_
_atom_site_type_symbol
_atom_site_label
_atom_site_fract_x
_atom_site_fract_y
_atom_site_fract_z
Si Si1 0.667641 0.500000 0.938442
Si Si2 0.325171 0.909998 0.802442
Si Si3 0.825171 0.909998 0.302442
Si Si4 0.675133 0.341353 0.560174
Si Si5 0.823455 0.911766 0.500000
Si Si6 0.676304 0.812004 0.902113
Si Si7 0.176304 0.812004 0.402113
Si Si8 0.824867 0.658647 0.939826
O O1 0.500000 0.500000 0.916277
O O2 0.753766 0.422479 0.918648
O O3 0.753766 0.577521 0.918648
O O4 0.666560 0.500000 0.000000
O O5 0.250000 0.878448 0.750000
O O6 0.500000 0.905534 0.794882
O O7 0.273279 0.854322 0.849313
O O8 0.274917 1.000000 0.814556
O O9 0.750000 0.878448 0.250000
O O10 0.773279 0.854322 0.349313
O O11 0.000000 0.905534 0.294882
O O12 0.500000 0.346124 0.568185
O O13 0.742737 0.271899 0.594971
O O14 0.717036 0.326862 0.500000
O O15 0.766600 0.866402 0.550787
O O16 0.766600 0.866402 0.449213
O O17 0.000000 0.916724 0.500000
O O18 0.755461 0.000000 0.500000
O O19 0.500000 0.798953 0.904942
O O20 0.757263 0.728101 0.905029
O O21 0.000000 0.798953 0.404942
O O22 0.000000 0.653876 0.931815
#
# Coordination Sequence:
#
# PCOD8217827 Si02
#       8
#     8   8   8   8   8   8   8   8
#     4   9  17  29  47  67  90 123 162 195 227 270
#     4   9  18  32  49  69  92 121 161 206 246 282
#     4   9  18  32  49  69  92 121 161 206 246 282
#     4  10  19  30  44  66  98 129 156 189 234 284
#     4   9  16  26  43  66  91 120 155 195 234 273
#     4  10  18  29  47  69  93 123 161 198 234 280
#     4  10  18  29  47  69  93 123 161 198 234 280
#     4  10  19  30  44  66  98 129 156 189 234 284
#
# _framework density 16.332673
#
# number of rings (size 3 to 8) (size 9 to 14) (size 15 to 20)
#    0.000    2.500    1.250    1.875    0.000    6.500 
#    0.000    0.000    0.000    3.000    0.000    0.875 
#    0.000    0.000    0.000    0.000    0.000    0.000 
#
# Total GULP energy -793681.116201 kJ/mol
# GULP energy per Si atom -12401.267441 kJ/mol
# Density = 1.629550 g / cm^3
# Si number density = 16.332673 Si / 1000 Ang^3
#
#
#
# Elastic Constant Matrix: (Units=GPa)
#
#
# Indices 1 2 3 4 5 6 
#
# 1 54.8943 49.6854 37.8851 0.0000 0.0000 0.0000
# 2 49.6854 151.9303 70.4241 0.0000 0.0000 0.0000
# 3 37.8851 70.4241 110.5523 0.0000 0.0000 0.0000
# 4 0.0000 0.0000 0.0000 19.6429 0.0000 0.0000
# 5 0.0000 0.0000 0.0000 0.0000 21.9409 0.0000
# 6 0.0000 0.0000 0.0000 0.0000 0.0000 21.8498
#
#
#
# Elastic Compliance Matrix: (Units=1/GPa)
#
#
# Indices 1 2 3 4 5 6 
#
# 1 0.027922 -0.006664 -0.005324 0.000000 0.000000 0.000000
# 2 -0.006664 0.010930 -0.004679 0.000000 0.000000 0.000000
# 3 -0.005324 -0.004679 0.013851 0.000000 0.000000 0.000000
# 4 0.000000 0.000000 0.000000 0.050909 0.000000 0.000000
# 5 0.000000 0.000000 0.000000 0.000000 0.045577 0.000000
# 6 0.000000 0.000000 0.000000 0.000000 0.000000 0.045767
#
#
# Mechanical properties :
#
#
# Convention : Reuss Voigt Hill
#
# Bulk Modulus (GPa) = 51.62653 70.37400 61.00027
# Shear Modulus (GPa) = 21.29965 23.31221 22.30593
#
# Velocity S-wave (km/s) = 3.61517 3.78211 3.69958
# Velocity P-wave (km/s) = 7.00742 7.89011 7.46183
#
# Compressibility (1/GPa) = 0.01936988
#
# Stress axis : x y z
#
# Youngs Moduli (GPa) = 35.81359 91.49070 72.19900
#
# Poissons Ratio (x) = 0.60966 0.38437
# Poissons Ratio (y) = 0.23865 0.33783
# Poissons Ratio (z) = 0.19066 0.42810
#
# Static dielectric constant tensor:
#      x y z
#    x 2.944670 0.000000 0.000000 
#    y 0.000000 3.195680 0.000000 
#    z 0.000000 0.000000 2.890840 
# 
# 
# High freq. dielectric constant tensor:
#      x y z
#    x 1.619790 0.000000 0.000000 
#    y 0.000000 1.634570 0.000000 
#    z 0.000000 0.000000 1.594710 
# 
# From -- ./inp_files/34476.got.cif
#   From: 2010.03.12/outbox.cif.g09.slc.cpg/sg53_18_cif.got.tgz:34476.got - 2010.04.16 14:36:59.
