data_PCOD8217289
_publ_section_title
;
Structure prediction by ZEFSAII (Michael W. Deem and Ramdas Pophale) SiO2 
 PCOD8217289
Probable space group: P N N A
;
_chemical_formula_sum "Si O2"
_cell_formula_units_Z 60
_cell_length_a 9.639755
_cell_length_b 16.814942
_cell_length_c 15.872991
_cell_angle_alpha 90.000000
_cell_angle_beta 90.000000
_cell_angle_gamma 90.000000
_cell_volume 2572.883607
_symmetry_space_group_name_H-M "P N N A"
_symmetry_group_IT_number 52
_symmetry_cell_setting 'orthorhombic'
loop_
_space_group_symop_operation_xyz
x,y,z
1/2-x,-y,z
x,1/2-y,1/2-z
1/2-x,1/2+y,1/2-z
-x,-y,-z
1/2+x,y,-z
-x,1/2+y,1/2+z
1/2+x,1/2-y,1/2+z
loop_
_atom_site_type_symbol
_atom_site_label
_atom_site_fract_x
_atom_site_fract_y
_atom_site_fract_z
Si Si1 0.250000 0.000000 0.519449
Si Si2 0.026090 0.424449 0.213073
Si Si3 0.406577 0.020020 0.873205
Si Si4 0.737656 0.276314 0.505545
Si Si5 0.061974 0.089713 0.650088
Si Si6 0.522074 0.617953 0.531967
Si Si7 0.307088 0.195999 0.671172
Si Si8 0.277176 0.370431 0.109200
O O1 0.367067 0.951350 0.569154
O O2 0.178102 0.937119 0.458271
O O3 0.988947 0.417313 0.312244
O O4 0.991597 0.517540 0.205978
O O5 0.930087 0.367676 0.155369
O O6 0.183683 0.404479 0.186396
O O7 0.250000 0.000000 0.841709
O O8 0.487412 0.936213 0.886770
O O9 0.401114 0.064326 0.962187
O O10 0.866692 0.314913 0.555297
O O11 0.614812 0.339264 0.502871
O O12 0.781450 0.247766 0.412143
O O13 0.695947 0.201571 0.564028
O O14 0.173197 0.144545 0.697435
O O15 0.933063 0.150873 0.638101
O O16 0.349469 0.250000 0.750000
#
# Coordination Sequence:
#
# PCOD8217289 Si02
#       8
#     4   8   8   8   8   8   8   8
#     4  12  22  42  72 100 140 188 244 278 344 438
#     4  12  25  46  71 100 144 188 245 300 355 438
#     4  11  24  49  78 106 138 194 252 303 359 433
#     4  12  24  45  69 109 150 187 235 304 371 438
#     4  12  23  44  68 102 137 191 239 294 346 431
#     4  11  25  46  77 106 142 187 250 302 364 437
#     4  12  26  42  71 103 142 193 240 297 372 436
#     4  12  26  43  70 107 146 185 236 292 365 424
#
# _framework density 23.320138
#
# number of rings (size 3 to 8) (size 9 to 14) (size 15 to 20)
#    0.000    0.267    5.333    3.600    3.733    0.000 
#    4.800    0.667    0.000    0.000    0.000    0.000 
#    0.000    0.000    0.000    0.000    0.000    0.000 
#
# Total GULP energy -743670.569315 kJ/mol
# GULP energy per Si atom -12394.509489 kJ/mol
# Density = 2.326706 g / cm^3
# Si number density = 23.320138 Si / 1000 Ang^3
#
#
#
# Elastic Constant Matrix: (Units=GPa)
#
#
# Indices 1 2 3 4 5 6 
#
# 1 141.5598 28.5711 25.7984 0.0000 0.0000 0.0000
# 2 28.5711 94.2327 16.6078 0.0000 0.0000 0.0000
# 3 25.7984 16.6078 66.5545 0.0000 0.0000 0.0000
# 4 0.0000 0.0000 0.0000 38.1708 0.0000 0.0000
# 5 0.0000 0.0000 0.0000 0.0000 19.2299 0.0000
# 6 0.0000 0.0000 0.0000 0.0000 0.0000 42.2772
#
#
#
# Elastic Compliance Matrix: (Units=1/GPa)
#
#
# Indices 1 2 3 4 5 6 
#
# 1 0.007929 -0.001948 -0.002587 0.000000 0.000000 0.000000
# 2 -0.001948 0.011579 -0.002134 0.000000 0.000000 0.000000
# 3 -0.002587 -0.002134 0.016561 0.000000 0.000000 0.000000
# 4 0.000000 0.000000 0.000000 0.026198 0.000000 0.000000
# 5 0.000000 0.000000 0.000000 0.000000 0.052002 0.000000
# 6 0.000000 0.000000 0.000000 0.000000 0.000000 0.023653
#
#
# Mechanical properties :
#
#
# Convention : Reuss Voigt Hill
#
# Bulk Modulus (GPa) = 43.99616 49.36684 46.68150
# Shear Modulus (GPa) = 31.47864 35.36024 33.41944
#
# Velocity S-wave (km/s) = 3.67801 3.89819 3.78970
# Velocity P-wave (km/s) = 6.07817 6.44021 6.26181
#
# Compressibility (1/GPa) = 0.02272925
#
# Stress axis : x y z
#
# Youngs Moduli (GPa) = 126.12176 86.36472 60.38365
#
# Poissons Ratio (x) = 0.16824 0.15623
# Poissons Ratio (y) = 0.24569 0.12887
# Poissons Ratio (z) = 0.32632 0.18432
#
# Static dielectric constant tensor:
#      x y z
#    x 4.406730 0.000000 0.000000 
#    y 0.000000 4.563520 0.000000 
#    z 0.000000 0.000000 4.112660 
# 
# 
# High freq. dielectric constant tensor:
#      x y z
#    x 1.926360 0.000000 0.000000 
#    y 0.000000 1.936610 0.000000 
#    z 0.000000 0.000000 1.900590 
# 
# From -- ./inp_files/31484.got.cif
#   From: 2010.06.25/outbox.cif.g09.slc.cpg/sg52_16_cif.got.tgz:31484.got - 2010.06.26 19:32:48.
