data_PCOD8217348
_publ_section_title
;
Structure prediction by ZEFSAII (Michael W. Deem and Ramdas Pophale) SiO2 
 PCOD8217348
Probable space group: P N N A
;
_chemical_formula_sum "Si O2"
_cell_formula_units_Z 56
_cell_length_a 14.313122
_cell_length_b 11.943447
_cell_length_c 14.178041
_cell_angle_alpha 90.000000
_cell_angle_beta 90.000000
_cell_angle_gamma 90.000000
_cell_volume 2423.707952
_symmetry_space_group_name_H-M "P N N A"
_symmetry_group_IT_number 52
_symmetry_cell_setting 'orthorhombic'
loop_
_space_group_symop_operation_xyz
x,y,z
1/2-x,-y,z
x,1/2-y,1/2-z
1/2-x,1/2+y,1/2-z
-x,-y,-z
1/2+x,y,-z
-x,1/2+y,1/2+z
1/2+x,1/2-y,1/2+z
loop_
_atom_site_type_symbol
_atom_site_label
_atom_site_fract_x
_atom_site_fract_y
_atom_site_fract_z
Si Si1 0.188673 0.899598 0.901555
Si Si2 0.250000 0.000000 0.549935
Si Si3 0.488093 0.987772 0.862831
Si Si4 0.516192 0.747653 0.953531
Si Si5 0.604960 0.084322 0.329574
Si Si6 0.586698 0.206124 0.852951
Si Si7 0.734125 0.770411 0.548874
Si Si8 0.744420 0.750000 0.250000
O O1 0.172878 0.811757 0.818514
O O2 0.250000 0.000000 0.861042
O O3 0.086371 0.944899 0.930060
O O4 0.247993 0.837777 0.981989
O O5 0.345243 0.015800 0.611582
O O6 0.268771 0.889183 0.489266
O O7 0.504913 0.870181 0.910195
O O8 0.445408 0.969054 0.759626
O O9 0.577690 0.069648 0.854280
O O10 0.466667 0.653474 0.892471
O O11 0.624128 0.718467 0.935377
O O12 0.477529 0.742561 0.061470
O O13 0.689889 0.165958 0.305896
O O14 0.553607 0.250000 0.750000
O O15 0.696159 0.240686 0.864834
#
# Coordination Sequence:
#
# PCOD8217348 Si02
#       8
#     8   4   8   8   8   8   8   4
#     4  12  23  39  73 109 154 192 250 320 396 451
#     4  12  26  48  78 112 154 198 256 334 406 474
#     4  12  26  44  79 116 155 200 264 331 391 469
#     4  12  26  51  78 110 156 212 264 318 404 480
#     4  12  23  44  75 114 155 197 259 325 398 478
#     4  12  29  51  74 115 159 202 270 322 387 478
#     4  12  29  48  78 106 153 210 261 320 398 471
#     4  12  20  38  66 116 148 186 238 320 390 462
#
# _framework density 23.105094000000001
#
# number of rings (size 3 to 8) (size 9 to 14) (size 15 to 20)
#    0.000    0.000    7.143    2.143    5.000    2.857 
#    0.000    0.000    0.000    0.000    0.000    0.000 
#    0.000    0.000    0.000    0.000    0.000    0.000 
#
# Total GULP energy -693922.962364 kJ/mol
# GULP energy per Si atom -12391.481471 kJ/mol
# Density = 2.305251 g / cm^3
# Si number density = 23.105094 Si / 1000 Ang^3
#
#
#
# Elastic Constant Matrix: (Units=GPa)
#
#
# Indices 1 2 3 4 5 6 
#
# 1 114.5116 27.1771 36.8481 0.0000 0.0000 0.0000
# 2 27.1771 91.0341 39.2480 0.0000 0.0000 0.0000
# 3 36.8481 39.2480 101.7330 0.0000 0.0000 0.0000
# 4 0.0000 0.0000 0.0000 23.1512 0.0000 0.0000
# 5 0.0000 0.0000 0.0000 0.0000 26.7092 0.0000
# 6 0.0000 0.0000 0.0000 0.0000 0.0000 31.7050
#
#
#
# Elastic Compliance Matrix: (Units=1/GPa)
#
#
# Indices 1 2 3 4 5 6 
#
# 1 0.010106 -0.001726 -0.002995 0.000000 0.000000 0.000000
# 2 -0.001726 0.013471 -0.004572 0.000000 0.000000 0.000000
# 3 -0.002995 -0.004572 0.012678 0.000000 0.000000 0.000000
# 4 0.000000 0.000000 0.000000 0.043194 0.000000 0.000000
# 5 0.000000 0.000000 0.000000 0.000000 0.037440 0.000000
# 6 0.000000 0.000000 0.000000 0.000000 0.000000 0.031541
#
#
# Mechanical properties :
#
#
# Convention : Reuss Voigt Hill
#
# Bulk Modulus (GPa) = 56.59183 57.09166 56.84175
# Shear Modulus (GPa) = 28.91747 29.91345 29.41546
#
# Velocity S-wave (km/s) = 3.54158 3.60205 3.57195
# Velocity P-wave (km/s) = 6.42418 6.48559 6.45496
#
# Compressibility (1/GPa) = 0.01767039
#
# Stress axis : x y z
#
# Youngs Moduli (GPa) = 98.95144 74.23186 78.87585
#
# Poissons Ratio (x) = 0.12812 0.23620
# Poissons Ratio (y) = 0.17078 0.36062
# Poissons Ratio (z) = 0.29632 0.33939
#
# Static dielectric constant tensor:
#      x y z
#    x 4.233840 0.000000 0.000000 
#    y 0.000000 4.075400 0.000000 
#    z 0.000000 0.000000 4.221040 
# 
# 
# High freq. dielectric constant tensor:
#      x y z
#    x 1.913610 0.000000 0.000000 
#    y 0.000000 1.929210 0.000000 
#    z 0.000000 0.000000 1.907730 
# 
# From -- ./inp_files/27315.got.cif
#   From: 2010.06.25/outbox.cif.g09.slc.cpg/sg52_14_cif.got.tgz:27315.got - 2010.06.26 19:32:48.
