data_PCOD8217124
_publ_section_title
;
Structure prediction by ZEFSAII (Michael W. Deem and Ramdas Pophale) SiO2 
 PCOD8217124
Probable space group: P N N A
;
_chemical_formula_sum "Si O2"
_cell_formula_units_Z 24
_cell_length_a 18.579513
_cell_length_b 10.838287
_cell_length_c 4.788158
_cell_angle_alpha 90.000000
_cell_angle_beta 90.000000
_cell_angle_gamma 90.000000
_cell_volume 964.191828
_symmetry_space_group_name_H-M "P N N A"
_symmetry_group_IT_number 52
_symmetry_cell_setting 'orthorhombic'
loop_
_space_group_symop_operation_xyz
x,y,z
1/2-x,-y,z
x,1/2-y,1/2-z
1/2-x,1/2+y,1/2-z
-x,-y,-z
1/2+x,y,-z
-x,1/2+y,1/2+z
1/2+x,1/2-y,1/2+z
loop_
_atom_site_type_symbol
_atom_site_label
_atom_site_fract_x
_atom_site_fract_y
_atom_site_fract_z
Si Si1 0.397423 0.947713 0.752094
Si Si2 0.305621 0.890004 0.240215
Si Si3 0.537493 0.825691 0.995795
O O1 0.376144 0.920586 0.431521
O O2 0.474888 0.890262 0.816511
O O3 0.331876 0.890475 0.922708
O O4 0.403601 0.089937 0.847400
O O5 0.273886 0.750000 0.250000
O O6 0.250000 0.000000 0.306029
O O7 0.578865 0.750000 0.750000
O O8 0.501505 0.750000 0.250000
#
# Coordination Sequence:
#
# PCOD8217124 Si02
#       3
#     8   8   8
#     4  11  24  42  66  97 132 173 219 273 341 404
#     4  12  26  45  68  94 132 180 228 278 333 398
#     4  11  22  39  67  99 132 169 214 274 338 406
#
# _framework density 24.891314000000001
#
# number of rings (size 3 to 8) (size 9 to 14) (size 15 to 20)
#    0.000    0.667    0.000    9.000    0.000    9.333 
#    0.000    0.000    0.000    0.000    0.000    0.000 
#    0.000    0.000    0.000    0.000    0.000    0.000 
#
# Total GULP energy -297356.122508 kJ/mol
# GULP energy per Si atom -12389.838438 kJ/mol
# Density = 2.483466 g / cm^3
# Si number density = 24.891314 Si / 1000 Ang^3
#
#
#
# Elastic Constant Matrix: (Units=GPa)
#
#
# Indices 1 2 3 4 5 6 
#
# 1 56.9521 36.4367 -1.0110 0.0000 0.0000 0.0000
# 2 36.4367 168.8107 24.1172 0.0000 0.0000 0.0000
# 3 -1.0110 24.1172 98.2775 0.0000 0.0000 0.0000
# 4 0.0000 0.0000 0.0000 39.1976 0.0000 0.0000
# 5 0.0000 0.0000 0.0000 0.0000 -36.7605 0.0000
# 6 0.0000 0.0000 0.0000 0.0000 0.0000 17.4868
#
#
#
# Elastic Compliance Matrix: (Units=1/GPa)
#
#
# Indices 1 2 3 4 5 6 
#
# 1 0.020542 -0.004626 0.001347 0.000000 0.000000 0.000000
# 2 -0.004626 0.007181 -0.001810 0.000000 0.000000 0.000000
# 3 0.001347 -0.001810 0.010633 0.000000 0.000000 0.000000
# 4 0.000000 0.000000 0.000000 0.025512 0.000000 0.000000
# 5 0.000000 0.000000 0.000000 0.000000 -0.027203 0.000000
# 6 0.000000 0.000000 0.000000 0.000000 0.000000 0.057186
#
#
# Mechanical properties :
#
#
# Convention : Reuss Voigt Hill
#
# Bulk Modulus (GPa) = 35.48930 49.23624 42.36277
# Shear Modulus (GPa) = 44.08288 21.61793 32.85041
#
# Velocity S-wave (km/s) = 4.21291 2.95022 3.63678
# Velocity P-wave (km/s) = 6.16064 5.60611 5.88990
#
# Compressibility (1/GPa) = 0.02817751
#
# Stress axis : x y z
#
# Youngs Moduli (GPa) = 48.67998 139.25805 94.04474
#
# Poissons Ratio (x) = 0.64425 -0.12664
# Poissons Ratio (y) = 0.22521 0.17020
# Poissons Ratio (z) = -0.06555 0.25203
#
# Static dielectric constant tensor:
#      x y z
#    x 3.809600 0.000000 0.000000 
#    y 0.000000 5.255430 0.000000 
#    z 0.000000 0.000000 4.689240 
# 
# 
# High freq. dielectric constant tensor:
#      x y z
#    x 1.945350 0.000000 0.000000 
#    y 0.000000 2.011880 0.000000 
#    z 0.000000 0.000000 2.014800 
# 
# From -- ./inp_files/2811.got.cif
#   From: 2010.06.25/outbox.cif.g09.slc.cpg/sg52_2_cif.got.tgz:2811.got - 2010.06.26 19:32:48.
