data_PCOD8217950
_publ_section_title
;
Structure prediction by ZEFSAII (Michael W. Deem and Ramdas Pophale) SiO2 
 PCOD8217950
Probable space group: P M N A
;
_chemical_formula_sum "Si O2"
_cell_formula_units_Z 64
_cell_length_a 9.226465
_cell_length_b 19.789015
_cell_length_c 19.318630
_cell_angle_alpha 90.000000
_cell_angle_beta 90.000000
_cell_angle_gamma 90.000000
_cell_volume 3527.246742
_symmetry_space_group_name_H-M "P M N A"
_symmetry_group_IT_number 53
_symmetry_cell_setting 'orthorhombic'
loop_
_space_group_symop_operation_xyz
x,y,z
1/2-x,-y,1/2+z
x,-y,-z
1/2-x,y,1/2-z
-x,-y,-z
1/2+x,y,1/2-z
-x,y,z
1/2+x,-y,1/2+z
loop_
_atom_site_type_symbol
_atom_site_label
_atom_site_fract_x
_atom_site_fract_y
_atom_site_fract_z
Si Si1 0.830569 0.100253 0.322126
Si Si2 0.334154 0.607853 0.396649
Si Si3 0.332260 0.258498 0.680438
Si Si4 0.834662 0.782036 0.573442
Si Si5 0.829931 0.647538 0.948862
Si Si6 0.665379 0.166289 0.922641
Si Si7 0.663945 0.518790 0.919898
Si Si8 0.330401 0.987061 0.075461
O O1 0.750000 0.102917 0.250000
O O2 0.800399 0.169998 0.362044
O O3 0.000000 0.089952 0.308055
O O4 0.765801 0.037917 0.367158
O O5 0.500000 0.583433 0.399538
O O6 0.307664 0.662872 0.337167
O O7 0.291460 0.641258 0.470028
O O8 0.236101 0.543164 0.378105
O O9 0.250000 0.239243 0.750000
O O10 0.500000 0.241743 0.690572
O O11 0.274159 0.213998 0.617844
O O12 0.729136 0.718307 0.578876
O O13 0.806831 0.825152 0.504167
O O14 0.000000 0.755793 0.575079
O O15 0.752969 0.587252 0.906365
O O16 0.000000 0.643493 0.934652
O O17 0.500000 0.185461 0.903709
O O18 0.699475 0.089492 0.901072
O O19 0.500000 0.528603 0.893772
O O20 0.670411 0.500000 0.000000
O O21 0.500000 0.003040 0.069123
O O22 0.258884 0.000000 0.000000
#
# Coordination Sequence:
#
# PCOD8217950 Si02
#       8
#     8   8   8   8   8   8   8   8
#     4  10  21  37  57  82 112 145 182 224 272 329
#     4   9  18  32  49  71 103 140 176 219 271 322
#     4  11  23  38  53  75 109 148 188 228 275 330
#     4  10  19  32  54  81 108 141 183 226 271 326
#     4  10  18  30  50  77 108 140 174 220 275 321
#     4  10  19  33  57  83 106 139 183 231 276 324
#     4   9  17  28  46  75 106 135 172 217 262 315
#     4   9  16  32  58  84 108 141 185 226 269 324
#
# _framework density 18.144462999999998
#
# number of rings (size 3 to 8) (size 9 to 14) (size 15 to 20)
#    0.000    2.250    2.500    1.125    0.000    4.000 
#    0.000    1.875    0.000    1.500    0.000    5.250 
#    0.000    0.000    0.000    0.000    0.000    0.000 
#
# Total GULP energy -793694.311705 kJ/mol
# GULP energy per Si atom -12401.473620 kJ/mol
# Density = 1.810317 g / cm^3
# Si number density = 18.144463 Si / 1000 Ang^3
#
#
#
# Elastic Constant Matrix: (Units=GPa)
#
#
# Indices 1 2 3 4 5 6 
#
# 1 96.8943 62.4257 43.3088 0.0000 0.0000 0.0000
# 2 62.4257 115.8562 39.5051 0.0000 0.0000 0.0000
# 3 43.3088 39.5051 88.2894 0.0000 0.0000 0.0000
# 4 0.0000 0.0000 0.0000 18.3178 0.0000 0.0000
# 5 0.0000 0.0000 0.0000 0.0000 22.8233 0.0000
# 6 0.0000 0.0000 0.0000 0.0000 0.0000 22.2977
#
#
#
# Elastic Compliance Matrix: (Units=1/GPa)
#
#
# Indices 1 2 3 4 5 6 
#
# 1 0.017613 -0.007723 -0.005184 0.000000 0.000000 0.000000
# 2 -0.007723 0.013571 -0.002284 0.000000 0.000000 0.000000
# 3 -0.005184 -0.002284 0.014892 0.000000 0.000000 0.000000
# 4 0.000000 0.000000 0.000000 0.054592 0.000000 0.000000
# 5 0.000000 0.000000 0.000000 0.000000 0.043815 0.000000
# 6 0.000000 0.000000 0.000000 0.000000 0.000000 0.044848
#
#
# Mechanical properties :
#
#
# Convention : Reuss Voigt Hill
#
# Bulk Modulus (GPa) = 63.72017 65.72435 64.72226
# Shear Modulus (GPa) = 22.22774 23.07444 22.65109
#
# Velocity S-wave (km/s) = 3.50386 3.56997 3.53707
# Velocity P-wave (km/s) = 7.18080 7.30030 7.24079
#
# Compressibility (1/GPa) = 0.01569362
#
# Stress axis : x y z
#
# Youngs Moduli (GPa) = 56.77566 73.68441 67.15186
#
# Poissons Ratio (x) = 0.56903 0.34814
# Poissons Ratio (y) = 0.43845 0.15340
# Poissons Ratio (z) = 0.29435 0.16832
#
# Static dielectric constant tensor:
#      x y z
#    x 3.246330 0.000000 0.000000 
#    y 0.000000 3.417330 0.000000 
#    z 0.000000 0.000000 3.073960 
# 
# 
# High freq. dielectric constant tensor:
#      x y z
#    x 1.692100 0.000000 0.000000 
#    y 0.000000 1.714100 0.000000 
#    z 0.000000 0.000000 1.672020 
# 
# From -- ./inp_files/26916.got.cif
#   From: 2010.03.12/outbox.cif.g09.slc.cpg/sg53_14_cif.got.tgz:26916.got - 2010.04.16 14:36:59.
