data_PCOD8217111
_publ_section_title
;
Structure prediction by ZEFSAII (Michael W. Deem and Ramdas Pophale) SiO2 
 PCOD8217111
Probable space group: P N N A
;
_chemical_formula_sum "Si O2"
_cell_formula_units_Z 24
_cell_length_a 19.248744
_cell_length_b 4.823196
_cell_length_c 12.051878
_cell_angle_alpha 90.000000
_cell_angle_beta 90.000000
_cell_angle_gamma 90.000000
_cell_volume 1118.901958
_symmetry_space_group_name_H-M "P N N A"
_symmetry_group_IT_number 52
_symmetry_cell_setting 'orthorhombic'
loop_
_space_group_symop_operation_xyz
x,y,z
1/2-x,-y,z
x,1/2-y,1/2-z
1/2-x,1/2+y,1/2-z
-x,-y,-z
1/2+x,y,-z
-x,1/2+y,1/2+z
1/2+x,1/2-y,1/2+z
loop_
_atom_site_type_symbol
_atom_site_label
_atom_site_fract_x
_atom_site_fract_y
_atom_site_fract_z
Si Si1 0.606169 0.845169 0.967562
Si Si2 0.678902 0.166566 0.623411
Si Si3 0.526632 0.503240 0.325864
O O1 0.620643 0.529538 0.931682
O O2 0.673033 0.040641 0.940883
O O3 0.539228 0.923961 0.897713
O O4 0.589610 0.882129 0.097636
O O5 0.664993 0.250000 0.750000
O O6 0.750000 0.000000 0.609241
O O7 0.500123 0.750000 0.250000
O O8 0.553777 0.250000 0.250000
#
# Coordination Sequence:
#
# PCOD8217111 Si02
#       3
#     8   8   8
#     4  11  23  38  60  88 118 152 191 240 292 346
#     4  12  23  38  60  87 119 153 191 238 293 349
#     4  11  22  38  61  87 117 152 191 239 292 346
#
# _framework density 21.449598999999999
#
# number of rings (size 3 to 8) (size 9 to 14) (size 15 to 20)
#    0.000    0.667    0.000   11.000    0.000    5.333 
#    0.000    0.000    0.000   20.000    0.000    0.000 
#    0.000    0.000    0.000    0.000    0.000    0.000 
#
# Total GULP energy -297514.055109 kJ/mol
# GULP energy per Si atom -12396.418963 kJ/mol
# Density = 2.140078 g / cm^3
# Si number density = 21.449599 Si / 1000 Ang^3
#
#
#
# Elastic Constant Matrix: (Units=GPa)
#
#
# Indices 1 2 3 4 5 6 
#
# 1 48.2813 3.9118 27.1240 0.0000 0.0000 0.0000
# 2 3.9118 96.9489 21.0804 0.0000 0.0000 0.0000
# 3 27.1240 21.0804 97.4859 0.0000 0.0000 0.0000
# 4 0.0000 0.0000 0.0000 40.0726 0.0000 0.0000
# 5 0.0000 0.0000 0.0000 0.0000 -44.7156 0.0000
# 6 0.0000 0.0000 0.0000 0.0000 0.0000 50.1990
#
#
#
# Elastic Compliance Matrix: (Units=1/GPa)
#
#
# Indices 1 2 3 4 5 6 
#
# 1 0.024574 0.000520 -0.006950 0.000000 0.000000 0.000000
# 2 0.000520 0.010835 -0.002487 0.000000 0.000000 0.000000
# 3 -0.006950 -0.002487 0.012729 0.000000 0.000000 0.000000
# 4 0.000000 0.000000 0.000000 0.024955 0.000000 0.000000
# 5 0.000000 0.000000 0.000000 0.000000 -0.022364 0.000000
# 6 0.000000 0.000000 0.000000 0.000000 0.000000 0.019921
#
#
# Mechanical properties :
#
#
# Convention : Reuss Voigt Hill
#
# Bulk Modulus (GPa) = 33.00002 38.54983 35.77493
# Shear Modulus (GPa) = 50.71699 21.81785 36.26742
#
# Velocity S-wave (km/s) = 4.86786 3.19277 4.11642
# Velocity P-wave (km/s) = 6.85661 5.62165 6.26961
#
# Compressibility (1/GPa) = 0.03030301
#
# Stress axis : x y z
#
# Youngs Moduli (GPa) = 40.69318 92.29673 78.55799
#
# Poissons Ratio (x) = -0.04796 0.54596
# Poissons Ratio (y) = -0.02114 0.19541
# Poissons Ratio (z) = 0.28281 0.22958
#
# Static dielectric constant tensor:
#      x y z
#    x 3.722480 0.000000 0.000000 
#    y 0.000000 4.896730 0.000000 
#    z 0.000000 0.000000 4.249590 
# 
# 
# High freq. dielectric constant tensor:
#      x y z
#    x 1.821240 0.000000 0.000000 
#    y 0.000000 1.870280 0.000000 
#    z 0.000000 0.000000 1.835410 
# 
# From -- ./inp_files/20005.got.cif
#   From: 2010.06.25/outbox.cif.g09.slc.cpg/sg52_11_cif.got.tgz:20005.got - 2010.06.26 19:32:48.
