data_PCOD8217216
_publ_section_title
;
Structure prediction by ZEFSAII (Michael W. Deem and Ramdas Pophale) SiO2 
 PCOD8217216
Probable space group: P N N A
;
_chemical_formula_sum "Si O2"
_cell_formula_units_Z 28
_cell_length_a 20.499039
_cell_length_b 7.811446
_cell_length_c 7.643680
_cell_angle_alpha 90.000000
_cell_angle_beta 90.000000
_cell_angle_gamma 90.000000
_cell_volume 1223.960588
_symmetry_space_group_name_H-M "P N N A"
_symmetry_group_IT_number 52
_symmetry_cell_setting 'orthorhombic'
loop_
_space_group_symop_operation_xyz
x,y,z
1/2-x,-y,z
x,1/2-y,1/2-z
1/2-x,1/2+y,1/2-z
-x,-y,-z
1/2+x,y,-z
-x,1/2+y,1/2+z
1/2+x,1/2-y,1/2+z
loop_
_atom_site_type_symbol
_atom_site_label
_atom_site_fract_x
_atom_site_fract_y
_atom_site_fract_z
Si Si1 0.695568 0.366436 0.902293
Si Si2 0.850497 0.750000 0.250000
Si Si3 0.425124 0.049395 0.213356
Si Si4 0.067869 0.563070 0.693321
O O1 0.750000 0.500000 0.958364
O O2 0.725575 0.250000 0.750000
O O3 0.629300 0.454871 0.829397
O O4 0.689496 0.239480 0.069585
O O5 0.891845 0.580453 0.205314
O O6 0.427921 0.250000 0.250000
O O7 0.493555 0.958433 0.256737
O O8 0.415528 0.025569 0.007550
O O9 0.092666 0.750000 0.750000
#
# Coordination Sequence:
#
# PCOD8217216 Si02
#       4
#     8   4   8   8
#     4  12  27  49  74 102 144 197 248 300 365 437
#     4  12  26  50  74 108 146 188 248 304 362 432
#     4  11  23  43  71 108 147 192 238 294 372 434
#     4  11  24  41  74 111 148 185 237 305 365 437
#
# _framework density 22.876550999999999
#
# number of rings (size 3 to 8) (size 9 to 14) (size 15 to 20)
#    0.000    0.571    4.286    3.429    4.000    3.429 
#    7.714    0.000    0.000    0.000    0.000    0.000 
#    0.000    0.000    0.000    0.000    0.000    0.000 
#
# Total GULP energy -347122.961257 kJ/mol
# GULP energy per Si atom -12397.248616 kJ/mol
# Density = 2.282448 g / cm^3
# Si number density = 22.876551 Si / 1000 Ang^3
#
#
#
# Elastic Constant Matrix: (Units=GPa)
#
#
# Indices 1 2 3 4 5 6 
#
# 1 90.4311 29.1415 42.4643 0.0000 0.0000 0.0000
# 2 29.1415 118.9419 -0.0763 0.0000 0.0000 0.0000
# 3 42.4643 -0.0763 109.6918 0.0000 0.0000 0.0000
# 4 0.0000 0.0000 0.0000 43.2835 0.0000 0.0000
# 5 0.0000 0.0000 0.0000 0.0000 23.4994 0.0000
# 6 0.0000 0.0000 0.0000 0.0000 0.0000 23.4426
#
#
#
# Elastic Compliance Matrix: (Units=1/GPa)
#
#
# Indices 1 2 3 4 5 6 
#
# 1 0.014962 -0.003669 -0.005795 0.000000 0.000000 0.000000
# 2 -0.003669 0.009307 0.001427 0.000000 0.000000 0.000000
# 3 -0.005795 0.001427 0.011361 0.000000 0.000000 0.000000
# 4 0.000000 0.000000 0.000000 0.023103 0.000000 0.000000
# 5 0.000000 0.000000 0.000000 0.000000 0.042554 0.000000
# 6 0.000000 0.000000 0.000000 0.000000 0.000000 0.042657
#
#
# Mechanical properties :
#
#
# Convention : Reuss Voigt Hill
#
# Bulk Modulus (GPa) = 51.13587 51.34708 51.24147
# Shear Modulus (GPa) = 30.02330 34.54745 32.28537
#
# Velocity S-wave (km/s) = 3.62664 3.89030 3.76079
# Velocity P-wave (km/s) = 6.31967 6.53248 6.42696
#
# Compressibility (1/GPa) = 0.01955574
#
# Stress axis : x y z
#
# Youngs Moduli (GPa) = 66.83786 107.44132 88.02308
#
# Poissons Ratio (x) = 0.39424 0.51005
# Poissons Ratio (y) = 0.24525 -0.12561
# Poissons Ratio (z) = 0.38729 -0.15332
#
# Static dielectric constant tensor:
#      x y z
#    x 3.886340 0.000000 0.000000 
#    y 0.000000 4.517910 0.000000 
#    z 0.000000 0.000000 4.282060 
# 
# 
# High freq. dielectric constant tensor:
#      x y z
#    x 1.884590 0.000000 0.000000 
#    y 0.000000 1.917940 0.000000 
#    z 0.000000 0.000000 1.923410 
# 
# From -- ./inp_files/11360.got.cif
#   From: 2010.06.25/outbox.cif.g09.slc.cpg/sg52_6_cif.got.tgz:11360.got - 2010.06.26 19:32:48.
