data_PCOD8217016
_publ_section_title
;
Structure prediction by ZEFSAII (Michael W. Deem and Ramdas Pophale) SiO2 
 PCOD8217016
Probable space group: P N N A
;
_chemical_formula_sum "Si O2"
_cell_formula_units_Z 56
_cell_length_a 15.035961
_cell_length_b 14.913065
_cell_length_c 12.275075
_cell_angle_alpha 90.000000
_cell_angle_beta 90.000000
_cell_angle_gamma 90.000000
_cell_volume 2752.467855
_symmetry_space_group_name_H-M "P N N A"
_symmetry_group_IT_number 52
_symmetry_cell_setting 'orthorhombic'
loop_
_space_group_symop_operation_xyz
x,y,z
1/2-x,-y,z
x,1/2-y,1/2-z
1/2-x,1/2+y,1/2-z
-x,-y,-z
1/2+x,y,-z
-x,1/2+y,1/2+z
1/2+x,1/2-y,1/2+z
loop_
_atom_site_type_symbol
_atom_site_label
_atom_site_fract_x
_atom_site_fract_y
_atom_site_fract_z
Si Si1 0.743139 0.726980 0.989924
Si Si2 0.502487 0.937116 0.103322
Si Si3 0.530682 0.483235 0.174314
Si Si4 0.793207 0.095489 0.102740
Si Si5 0.583287 0.244299 0.876533
Si Si6 0.942007 0.132026 0.493273
Si Si7 0.211965 0.406778 0.827554
O O1 0.813851 0.723114 0.889976
O O2 0.645557 0.686415 0.968382
O O3 0.738061 0.831862 0.016097
O O4 0.788104 0.672121 0.086421
O O5 0.601455 0.900326 0.109749
O O6 0.431274 0.858050 0.085904
O O7 0.477919 0.986785 0.217132
O O8 0.500000 0.000000 0.000000
O O9 0.464415 0.428129 0.097836
O O10 0.611014 0.420308 0.212339
O O11 0.574860 0.567136 0.109570
O O12 0.765584 0.125172 0.222914
O O13 0.750000 0.000000 0.070077
O O14 0.555320 0.250000 0.750000
O O15 0.521278 0.303225 0.955821
O O16 0.250000 0.500000 0.877147
#
# Coordination Sequence:
#
# PCOD8217016 Si02
#       7
#     8   8   8   8   8   8   8
#     4  12  24  42  66  99 136 174 228 281 342 402
#     4  12  24  43  68  99 138 182 219 285 355 415
#     4  11  22  42  69 102 135 170 234 284 343 410
#     4  11  22  39  66  97 130 174 229 280 340 401
#     4  12  26  44  67  99 139 186 230 278 347 421
#     4  11  23  43  73  98 130 184 232 283 334 413
#     4  11  20  35  67 104 128 159 222 295 338 388
#
# _framework density 20.345378
#
# number of rings (size 3 to 8) (size 9 to 14) (size 15 to 20)
#    0.000    0.571    8.571    1.286    0.000    0.000 
#    2.571    0.714    0.000    0.000    0.000    0.000 
#    0.000    0.000    0.000    0.000    0.000    0.000 
#
# Total GULP energy -694241.063824 kJ/mol
# GULP energy per Si atom -12397.161854 kJ/mol
# Density = 2.029907 g / cm^3
# Si number density = 20.345378 Si / 1000 Ang^3
#
#
#
# Elastic Constant Matrix: (Units=GPa)
#
#
# Indices 1 2 3 4 5 6 
#
# 1 113.0513 34.3204 38.8031 0.0000 0.0000 0.0000
# 2 34.3204 99.2234 39.8140 0.0000 0.0000 0.0000
# 3 38.8031 39.8140 92.2080 0.0000 0.0000 0.0000
# 4 0.0000 0.0000 0.0000 52.0593 0.0000 0.0000
# 5 0.0000 0.0000 0.0000 0.0000 31.5155 0.0000
# 6 0.0000 0.0000 0.0000 0.0000 0.0000 14.7777
#
#
#
# Elastic Compliance Matrix: (Units=1/GPa)
#
#
# Indices 1 2 3 4 5 6 
#
# 1 0.010757 -0.002303 -0.003532 0.000000 0.000000 0.000000
# 2 -0.002303 0.012684 -0.004507 0.000000 0.000000 0.000000
# 3 -0.003532 -0.004507 0.014278 0.000000 0.000000 0.000000
# 4 0.000000 0.000000 0.000000 0.019209 0.000000 0.000000
# 5 0.000000 0.000000 0.000000 0.000000 0.031730 0.000000
# 6 0.000000 0.000000 0.000000 0.000000 0.000000 0.067669
#
#
# Mechanical properties :
#
#
# Convention : Reuss Voigt Hill
#
# Bulk Modulus (GPa) = 58.71121 58.92863 58.81992
# Shear Modulus (GPa) = 27.36870 32.44018 29.90444
#
# Velocity S-wave (km/s) = 3.67168 3.99742 3.83801
# Velocity P-wave (km/s) = 6.84799 7.09456 6.97236
#
# Compressibility (1/GPa) = 0.01703252
#
# Stress axis : x y z
#
# Youngs Moduli (GPa) = 92.96065 78.84217 70.03957
#
# Poissons Ratio (x) = 0.18161 0.24740
# Poissons Ratio (y) = 0.21413 0.31568
# Poissons Ratio (z) = 0.32836 0.35536
#
# Static dielectric constant tensor:
#      x y z
#    x 4.096360 0.000000 0.000000 
#    y 0.000000 3.799020 0.000000 
#    z 0.000000 0.000000 2.650910 
# 
# 
# High freq. dielectric constant tensor:
#      x y z
#    x 1.799410 0.000000 0.000000 
#    y 0.000000 1.802270 0.000000 
#    z 0.000000 0.000000 1.779080 
# 
# From -- ./inp_files/19605.got.cif
#   From: 2010.06.25/outbox.cif.g09.slc.cpg/sg52_10_cif.got.tgz:19605.got - 2010.06.26 19:32:48.
