data_PCOD8217469
_publ_section_title
;
Structure prediction by ZEFSAII (Michael W. Deem and Ramdas Pophale) SiO2 
 PCOD8217469
Probable space group: P M N A
;
_chemical_formula_sum "Si O2"
_cell_formula_units_Z 64
_cell_length_a 9.053786
_cell_length_b 16.991175
_cell_length_c 26.942933
_cell_angle_alpha 90.000000
_cell_angle_beta 90.000000
_cell_angle_gamma 90.000000
_cell_volume 4144.751612
_symmetry_space_group_name_H-M "P M N A"
_symmetry_group_IT_number 53
_symmetry_cell_setting 'orthorhombic'
loop_
_space_group_symop_operation_xyz
x,y,z
1/2-x,-y,1/2+z
x,-y,-z
1/2-x,y,1/2-z
-x,-y,-z
1/2+x,y,1/2-z
-x,y,z
1/2+x,-y,1/2+z
loop_
_atom_site_type_symbol
_atom_site_label
_atom_site_fract_x
_atom_site_fract_y
_atom_site_fract_z
Si Si1 0.326164 0.170293 0.959435
Si Si2 0.666109 0.984299 0.441984
Si Si3 0.673110 0.860820 0.927001
Si Si4 0.834528 0.727549 0.875427
Si Si5 0.174557 0.672521 0.061253
Si Si6 0.674567 0.591911 0.697381
Si Si7 0.834955 0.603478 0.961286
Si Si8 0.825903 0.519878 0.112949
O O1 0.500000 0.167683 0.951380
O O2 0.255825 0.095472 0.931661
O O3 0.260336 0.246234 0.931477
O O4 0.284983 0.170797 0.017956
O O5 0.500000 0.976243 0.420981
O O6 0.663642 0.000000 0.500000
O O7 0.747307 0.056742 0.415279
O O8 0.500000 0.874495 0.922461
O O9 0.724887 0.800336 0.884413
O O10 0.779932 0.673709 0.829477
O O11 0.834586 0.676905 0.924899
O O12 0.000000 0.759480 0.865262
O O13 0.208007 0.612987 0.107413
O O14 0.000000 0.690399 0.056406
O O15 0.242447 0.629780 0.012371
O O16 0.750000 0.586734 0.750000
O O17 0.500000 0.588316 0.704462
O O18 0.732492 0.517117 0.664636
O O19 0.757535 0.528732 0.934118
O O20 0.000000 0.579096 0.976577
O O21 0.000000 0.502492 0.111403
#
# Coordination Sequence:
#
# PCOD8217469 Si02
#       8
#     8   8   8   8   8   8   8   8
#     4  10  19  28  37  55  87 119 145 176 215 252
#     4   9  17  28  42  57  76 109 152 185 207 238
#     4  10  18  27  40  59  85 114 143 176 215 254
#     4   9  16  27  43  63  84 109 145 182 212 252
#     4  10  16  24  42  61  80 110 148 181 211 250
#     4   9  18  32  48  65  86 111 141 181 225 263
#     4   8  13  22  38  59  81 105 138 178 213 243
#     4   8  15  26  41  63  83 104 141 184 217 251
#
# _framework density 15.441216000000001
#
# number of rings (size 3 to 8) (size 9 to 14) (size 15 to 20)
#    0.000    2.875    1.250    3.000    0.000    4.500 
#    0.000    0.625    0.000    2.250    0.000    0.000 
#    0.000    1.000    0.000    6.250    0.000    4.250 
#
# Total GULP energy -793086.058899 kJ/mol
# GULP energy per Si atom -12391.969670 kJ/mol
# Density = 1.540607 g / cm^3
# Si number density = 15.441216 Si / 1000 Ang^3
#
#
#
# Elastic Constant Matrix: (Units=GPa)
#
#
# Indices 1 2 3 4 5 6 
#
# 1 62.5064 52.6409 23.0841 0.0000 0.0000 0.0000
# 2 52.6409 133.3811 44.1457 0.0000 0.0000 0.0000
# 3 23.0841 44.1457 56.7177 0.0000 0.0000 0.0000
# 4 0.0000 0.0000 0.0000 13.4229 0.0000 0.0000
# 5 0.0000 0.0000 0.0000 0.0000 16.8755 0.0000
# 6 0.0000 0.0000 0.0000 0.0000 0.0000 14.3625
#
#
#
# Elastic Compliance Matrix: (Units=1/GPa)
#
#
# Indices 1 2 3 4 5 6 
#
# 1 0.024408 -0.008547 -0.003282 0.000000 0.000000 0.000000
# 2 -0.008547 0.013092 -0.006711 0.000000 0.000000 0.000000
# 3 -0.003282 -0.006711 0.024190 0.000000 0.000000 0.000000
# 4 0.000000 0.000000 0.000000 0.074499 0.000000 0.000000
# 5 0.000000 0.000000 0.000000 0.000000 0.059258 0.000000
# 6 0.000000 0.000000 0.000000 0.000000 0.000000 0.069626
#
#
# Mechanical properties :
#
#
# Convention : Reuss Voigt Hill
#
# Bulk Modulus (GPa) = 40.63274 54.70516 47.66895
# Shear Modulus (GPa) = 16.11050 17.78115 16.94583
#
# Velocity S-wave (km/s) = 3.23359 3.39711 3.31636
# Velocity P-wave (km/s) = 6.34926 7.13387 6.75297
#
# Compressibility (1/GPa) = 0.02461069
#
# Stress axis : x y z
#
# Youngs Moduli (GPa) = 40.96971 76.38414 41.33859
#
# Poissons Ratio (x) = 0.65285 0.13566
# Poissons Ratio (y) = 0.35017 0.27743
# Poissons Ratio (z) = 0.13445 0.51263
#
# Static dielectric constant tensor:
#      x y z
#    x 2.762190 0.000000 0.000000 
#    y 0.000000 3.065230 0.000000 
#    z 0.000000 0.000000 2.634840 
# 
# 
# High freq. dielectric constant tensor:
#      x y z
#    x 1.572620 0.000000 0.000000 
#    y 0.000000 1.598310 0.000000 
#    z 0.000000 0.000000 1.536570 
# 
# From -- ./inp_files/36501.got.cif
#   From: 2010.03.12/outbox.cif.g09.slc.cpg/sg53_19_cif.got.tgz:36501.got - 2010.04.16 14:36:59.
