data_PCOD8217464
_publ_section_title
;
Structure prediction by ZEFSAII (Michael W. Deem and Ramdas Pophale) SiO2 
 PCOD8217464
Probable space group: P M N A
;
_chemical_formula_sum "Si O2"
_cell_formula_units_Z 64
_cell_length_a 17.819295
_cell_length_b 13.615622
_cell_length_c 17.979227
_cell_angle_alpha 90.000000
_cell_angle_beta 90.000000
_cell_angle_gamma 90.000000
_cell_volume 4362.134169
_symmetry_space_group_name_H-M "P M N A"
_symmetry_group_IT_number 53
_symmetry_cell_setting 'orthorhombic'
loop_
_space_group_symop_operation_xyz
x,y,z
1/2-x,-y,1/2+z
x,-y,-z
1/2-x,y,1/2-z
-x,-y,-z
1/2+x,y,1/2-z
-x,y,z
1/2+x,-y,1/2+z
loop_
_atom_site_type_symbol
_atom_site_label
_atom_site_fract_x
_atom_site_fract_y
_atom_site_fract_z
Si Si1 0.582724 0.923016 0.335202
Si Si2 0.280386 0.109274 0.473407
Si Si3 0.585979 0.430309 0.567900
Si Si4 0.915669 0.230575 0.710037
Si Si5 0.312598 0.358896 0.692485
Si Si6 0.270463 0.021797 0.328840
Si Si7 0.281242 0.814457 0.118984
Si Si8 0.083213 0.792931 0.024910
O O1 0.500000 0.964801 0.351793
O O2 0.584580 0.870705 0.255501
O O3 0.606834 0.843371 0.397233
O O4 0.639372 0.014262 0.336577
O O5 0.241024 0.096805 0.392705
O O6 0.225636 0.165338 0.530760
O O7 0.357288 0.170657 0.463827
O O8 0.301582 0.000000 0.500000
O O9 0.611285 0.500000 0.500000
O O10 0.500000 0.455462 0.594292
O O11 0.647494 0.437019 0.635672
O O12 0.587724 0.322255 0.534686
O O13 0.881167 0.317183 0.759462
O O14 0.867101 0.215314 0.635256
O O15 0.000000 0.260530 0.687193
O O16 0.250000 0.405309 0.750000
O O17 0.273462 0.272210 0.645518
O O18 0.250000 0.069168 0.250000
O O19 0.236772 0.912456 0.334346
O O20 0.000000 0.824905 0.999843
#
# Coordination Sequence:
#
# PCOD8217464 Si02
#       8
#     8   8   8   8   8   8   8   8
#     4  10  16  23  38  57  84 112 136 171 208 250
#     4  10  18  26  40  58  81 113 143 178 210 245
#     4  10  18  28  44  66  95 125 139 159 211 273
#     4  10  16  23  40  60  84 113 137 168 214 261
#     4  10  16  26  45  65  89 114 137 174 214 254
#     4  11  17  27  38  55  79 109 149 178 209 252
#     4  10  16  27  40  59  83 110 138 175 221 251
#     4  10  17  27  40  61  90 113 138 167 204 256
#
# _framework density 14.671718
#
# number of rings (size 3 to 8) (size 9 to 14) (size 15 to 20)
#    0.000    1.875    7.500    0.750    0.000    0.750 
#    0.000    0.000    0.000    4.875    0.000    0.000 
#    0.000   12.500    0.000    0.000    0.000    0.000 
#
# Total GULP energy -793037.883084 kJ/mol
# GULP energy per Si atom -12391.216923 kJ/mol
# Density = 1.463832 g / cm^3
# Si number density = 14.671718 Si / 1000 Ang^3
#
#
#
# Elastic Constant Matrix: (Units=GPa)
#
#
# Indices 1 2 3 4 5 6 
#
# 1 95.3861 20.8839 47.3083 0.0000 0.0000 0.0000
# 2 20.8839 25.7452 31.3171 0.0000 0.0000 0.0000
# 3 47.3083 31.3171 106.9601 0.0000 0.0000 0.0000
# 4 0.0000 0.0000 0.0000 21.5772 0.0000 0.0000
# 5 0.0000 0.0000 0.0000 0.0000 21.4264 0.0000
# 6 0.0000 0.0000 0.0000 0.0000 0.0000 11.3454
#
#
#
# Elastic Compliance Matrix: (Units=1/GPa)
#
#
# Indices 1 2 3 4 5 6 
#
# 1 0.013990 -0.005935 -0.004450 0.000000 0.000000 0.000000
# 2 -0.005935 0.062847 -0.015776 0.000000 0.000000 0.000000
# 3 -0.004450 -0.015776 0.015937 0.000000 0.000000 0.000000
# 4 0.000000 0.000000 0.000000 0.046345 0.000000 0.000000
# 5 0.000000 0.000000 0.000000 0.000000 0.046671 0.000000
# 6 0.000000 0.000000 0.000000 0.000000 0.000000 0.088141
#
#
# Mechanical properties :
#
#
# Convention : Reuss Voigt Hill
#
# Bulk Modulus (GPa) = 24.72115 47.45668 36.08892
# Shear Modulus (GPa) = 14.71720 19.44194 17.07957
#
# Velocity S-wave (km/s) = 3.17061 3.64418 3.41561
# Velocity P-wave (km/s) = 5.50362 7.07974 6.34084
#
# Compressibility (1/GPa) = 0.04045119
#
# Stress axis : x y z
#
# Youngs Moduli (GPa) = 71.47820 15.91165 62.74869
#
# Poissons Ratio (x) = 0.09444 0.27923
# Poissons Ratio (y) = 0.42425 0.98992
# Poissons Ratio (z) = 0.31808 0.25102
#
# Static dielectric constant tensor:
#      x y z
#    x 3.045590 0.000000 0.000000 
#    y 0.000000 2.481710 0.000000 
#    z 0.000000 0.000000 2.960610 
# 
# 
# High freq. dielectric constant tensor:
#      x y z
#    x 1.562790 0.000000 0.000000 
#    y 0.000000 1.508350 0.000000 
#    z 0.000000 0.000000 1.545340 
# 
# From -- ./inp_files/32874.got.cif
#   From: 2010.03.12/outbox.cif.g09.slc.cpg/sg53_17_cif.got.tgz:32874.got - 2010.04.16 14:36:59.
