data_PCOD8218875
_publ_section_title
;
Structure prediction by ZEFSAII (Michael W. Deem and Ramdas Pophale) SiO2 
 PCOD8218875
Probable space group: P M N A
;
_chemical_formula_sum "Si O2"
_cell_formula_units_Z 48
_cell_length_a 8.831783
_cell_length_b 18.365474
_cell_length_c 15.266040
_cell_angle_alpha 90.000000
_cell_angle_beta 90.000000
_cell_angle_gamma 90.000000
_cell_volume 2476.149872
_symmetry_space_group_name_H-M "P M N A"
_symmetry_group_IT_number 53
_symmetry_cell_setting 'orthorhombic'
loop_
_space_group_symop_operation_xyz
x,y,z
1/2-x,-y,1/2+z
x,-y,-z
1/2-x,y,1/2-z
-x,-y,-z
1/2+x,y,1/2-z
-x,y,z
1/2+x,-y,1/2+z
loop_
_atom_site_type_symbol
_atom_site_label
_atom_site_fract_x
_atom_site_fract_y
_atom_site_fract_z
Si Si1 0.176109 0.166188 0.516707
Si Si2 0.177287 0.902184 0.663709
Si Si3 0.820138 0.405056 0.158207
Si Si4 0.176087 0.331956 0.503143
Si Si5 0.179358 0.439702 0.659106
Si Si6 0.169449 0.036442 0.905562
O O1 0.231819 0.145117 0.419176
O O2 0.212748 0.250288 0.534040
O O3 0.262908 0.117921 0.588927
O O4 0.000000 0.148146 0.526322
O O5 0.250000 0.865986 0.750000
O O6 0.000000 0.900372 0.674281
O O7 0.231028 0.986107 0.657744
O O8 0.750000 0.377584 0.250000
O O9 0.751913 0.483386 0.133074
O O10 0.000000 0.410369 0.167176
O O11 0.775559 0.349184 0.082016
O O12 0.222522 0.383555 0.583182
O O13 0.000000 0.341093 0.478328
O O14 0.250000 0.410821 0.750000
O O15 0.000000 0.448960 0.669820
O O16 0.000000 0.041262 0.867936
O O17 0.173025 0.000000 0.000000
#
# Coordination Sequence:
#
# PCOD8218875 Si02
#       6
#     8   8   8   8   8   8
#     4   9  19  35  53  74 104 140 173 210 261 317
#     4  10  19  32  52  76 102 133 171 214 260 311
#     4  11  22  36  56  81 110 143 182 227 272 324
#     4  10  21  37  56  80 111 147 183 222 274 329
#     4  10  20  36  58  80 106 140 181 229 275 323
#     4   9  17  31  51  73  97 127 166 207 246 295
#
# _framework density 19.384934000000001
#
# number of rings (size 3 to 8) (size 9 to 14) (size 15 to 20)
#    0.000    2.167    0.000    4.500    0.000    7.333 
#    0.000    2.500    0.000    2.000    0.000    0.000 
#    0.000    0.000    0.000    0.000    0.000    0.000 
#
# Total GULP energy -595273.383375 kJ/mol
# GULP energy per Si atom -12401.528820 kJ/mol
# Density = 1.934081 g / cm^3
# Si number density = 19.384934 Si / 1000 Ang^3
#
#
#
# Elastic Constant Matrix: (Units=GPa)
#
#
# Indices 1 2 3 4 5 6 
#
# 1 82.6355 17.9890 16.9182 0.0000 0.0000 0.0000
# 2 17.9890 63.9874 9.5632 0.0000 0.0000 0.0000
# 3 16.9182 9.5632 46.3641 0.0000 0.0000 0.0000
# 4 0.0000 0.0000 0.0000 16.1711 0.0000 0.0000
# 5 0.0000 0.0000 0.0000 0.0000 32.1721 0.0000
# 6 0.0000 0.0000 0.0000 0.0000 0.0000 25.4360
#
#
#
# Elastic Compliance Matrix: (Units=1/GPa)
#
#
# Indices 1 2 3 4 5 6 
#
# 1 0.013685 -0.003200 -0.004334 0.000000 0.000000 0.000000
# 2 -0.003200 0.016873 -0.002313 0.000000 0.000000 0.000000
# 3 -0.004334 -0.002313 0.023627 0.000000 0.000000 0.000000
# 4 0.000000 0.000000 0.000000 0.061839 0.000000 0.000000
# 5 0.000000 0.000000 0.000000 0.000000 0.031083 0.000000
# 6 0.000000 0.000000 0.000000 0.000000 0.000000 0.039314
#
#
# Mechanical properties :
#
#
# Convention : Reuss Voigt Hill
#
# Bulk Modulus (GPa) = 28.99146 31.32531 30.15838
# Shear Modulus (GPa) = 22.97679 24.65696 23.81687
#
# Velocity S-wave (km/s) = 3.44654 3.57033 3.50898
# Velocity P-wave (km/s) = 5.55215 5.76117 5.65762
#
# Compressibility (1/GPa) = 0.03449292
#
# Stress axis : x y z
#
# Youngs Moduli (GPa) = 73.07205 59.26537 42.32478
#
# Poissons Ratio (x) = 0.18963 0.18342
# Poissons Ratio (y) = 0.23381 0.09789
# Poissons Ratio (z) = 0.31667 0.13707
#
# Static dielectric constant tensor:
#      x y z
#    x 3.590710 0.000000 0.000000 
#    y 0.000000 3.476940 0.000000 
#    z 0.000000 0.000000 3.535340 
# 
# 
# High freq. dielectric constant tensor:
#      x y z
#    x 1.760070 0.000000 0.000000 
#    y 0.000000 1.744850 0.000000 
#    z 0.000000 0.000000 1.747220 
# 
# From -- ./inp_files/20187.got.cif
#   From: 2010.03.12/outbox.cif.g09.slc.cpg/sg53_11_cif.got.tgz:20187.got - 2010.04.16 14:36:59.
