data_PCOD8218242
_publ_section_title
;
Structure prediction by ZEFSAII (Michael W. Deem and Ramdas Pophale) SiO2 
 PCOD8218242
Probable space group: P M N A
;
_chemical_formula_sum "Si O2"
_cell_formula_units_Z 64
_cell_length_a 9.052673
_cell_length_b 15.429730
_cell_length_c 23.620803
_cell_angle_alpha 90.000000
_cell_angle_beta 90.000000
_cell_angle_gamma 90.000000
_cell_volume 3299.360853
_symmetry_space_group_name_H-M "P M N A"
_symmetry_group_IT_number 53
_symmetry_cell_setting 'orthorhombic'
loop_
_space_group_symop_operation_xyz
x,y,z
1/2-x,-y,1/2+z
x,-y,-z
1/2-x,y,1/2-z
-x,-y,-z
1/2+x,y,1/2-z
-x,y,z
1/2+x,-y,1/2+z
loop_
_atom_site_type_symbol
_atom_site_label
_atom_site_fract_x
_atom_site_fract_y
_atom_site_fract_z
Si Si1 0.669734 0.173168 0.999379
Si Si2 0.673820 0.413162 0.112590
Si Si3 0.824945 0.905682 0.615721
Si Si4 0.174155 0.747504 0.690372
Si Si5 0.168756 0.416662 0.878599
Si Si6 0.175226 0.751987 0.189553
Si Si7 0.169698 0.351746 0.002658
Si Si8 0.329943 0.901604 0.122285
O O1 0.500000 0.202383 0.009385
O O2 0.768499 0.256996 0.990665
O O3 0.684919 0.113384 0.944606
O O4 0.731479 0.120091 0.053171
O O5 0.500000 0.420610 0.106720
O O6 0.721313 0.332420 0.151053
O O7 0.735225 0.501015 0.141063
O O8 0.741012 0.401406 0.050648
O O9 0.767215 0.835723 0.661213
O O10 0.000000 0.906595 0.613887
O O11 0.769671 0.001103 0.633529
O O12 0.250000 0.735391 0.750000
O O13 0.000000 0.750382 0.699279
O O14 0.226668 0.331091 0.846691
O O15 0.186380 0.406506 0.945655
O O16 0.000000 0.434522 0.861716
O O17 0.250000 0.745004 0.250000
O O18 0.228236 0.838122 0.158085
O O19 0.000000 0.756448 0.196094
O O20 0.000000 0.344556 0.021415
O O21 0.500000 0.889978 0.141644
#
# Coordination Sequence:
#
# PCOD8218242 Si02
#       8
#     8   8   8   8   8   8   8   8
#     4  10  18  33  59  89 121 154 192 236 288 349
#     4  11  23  39  61  89 117 150 193 243 289 344
#     4   9  18  36  59  87 122 154 191 238 288 344
#     4  10  22  40  59  81 114 151 193 241 287 337
#     4  10  23  41  60  85 119 155 187 234 296 350
#     4  11  24  43  62  83 117 156 199 248 294 344
#     4  11  21  36  59  87 121 157 189 230 292 351
#     4  10  20  35  62  92 118 155 194 236 293 351
#
# _framework density 19.397694999999999
#
# number of rings (size 3 to 8) (size 9 to 14) (size 15 to 20)
#    0.000    1.750    2.500    1.875    0.000    7.000 
#    0.000    5.000    0.000    1.500    0.000    0.000 
#    0.000    0.000    0.000    0.000    0.000    0.000 
#
# Total GULP energy -793798.237835 kJ/mol
# GULP energy per Si atom -12403.097466 kJ/mol
# Density = 1.935355 g / cm^3
# Si number density = 19.397695 Si / 1000 Ang^3
#
#
#
# Elastic Constant Matrix: (Units=GPa)
#
#
# Indices 1 2 3 4 5 6 
#
# 1 62.7285 54.4578 40.1439 0.0000 0.0000 0.0000
# 2 54.4578 161.3532 42.7085 0.0000 0.0000 0.0000
# 3 40.1439 42.7085 101.3339 0.0000 0.0000 0.0000
# 4 0.0000 0.0000 0.0000 7.6540 0.0000 0.0000
# 5 0.0000 0.0000 0.0000 0.0000 4.8572 0.0000
# 6 0.0000 0.0000 0.0000 0.0000 0.0000 26.3618
#
#
#
# Elastic Compliance Matrix: (Units=1/GPa)
#
#
# Indices 1 2 3 4 5 6 
#
# 1 0.027030 -0.007078 -0.007725 0.000000 0.000000 0.000000
# 2 -0.007078 0.008829 -0.000917 0.000000 0.000000 0.000000
# 3 -0.007725 -0.000917 0.013315 0.000000 0.000000 0.000000
# 4 0.000000 0.000000 0.000000 0.130650 0.000000 0.000000
# 5 0.000000 0.000000 0.000000 0.000000 0.205879 0.000000
# 6 0.000000 0.000000 0.000000 0.000000 0.000000 0.037934
#
#
# Mechanical properties :
#
#
# Convention : Reuss Voigt Hill
#
# Bulk Modulus (GPa) = 56.38844 66.67067 61.52955
# Shear Modulus (GPa) = 10.84623 20.31498 15.58060
#
# Velocity S-wave (km/s) = 2.36720 3.23969 2.83719
# Velocity P-wave (km/s) = 6.05015 6.95983 6.52087
#
# Compressibility (1/GPa) = 0.01773413
#
# Stress axis : x y z
#
# Youngs Moduli (GPa) = 36.99543 113.25935 75.10211
#
# Poissons Ratio (x) = 0.80167 0.58016
# Poissons Ratio (y) = 0.26186 0.06888
# Poissons Ratio (z) = 0.28579 0.10388
#
# Static dielectric constant tensor:
#      x y z
#    x 3.426120 0.000000 0.000000 
#    y 0.000000 3.832390 0.000000 
#    z 0.000000 0.000000 3.527360 
# 
# 
# High freq. dielectric constant tensor:
#      x y z
#    x 1.739400 0.000000 0.000000 
#    y 0.000000 1.771260 0.000000 
#    z 0.000000 0.000000 1.754130 
# 
# From -- ./inp_files/34237.got.cif
#   From: 2010.03.12/outbox.cif.g09.slc.cpg/sg53_18_cif.got.tgz:34237.got - 2010.04.16 14:36:59.
