data_PCOD8218806
_publ_section_title
;
Structure prediction by ZEFSAII (Michael W. Deem and Ramdas Pophale) SiO2 
 PCOD8218806
Probable space group: P M N A
;
_chemical_formula_sum "Si O2"
_cell_formula_units_Z 64
_cell_length_a 8.425894
_cell_length_b 18.330046
_cell_length_c 23.032281
_cell_angle_alpha 90.000000
_cell_angle_beta 90.000000
_cell_angle_gamma 90.000000
_cell_volume 3557.267270
_symmetry_space_group_name_H-M "P M N A"
_symmetry_group_IT_number 53
_symmetry_cell_setting 'orthorhombic'
loop_
_space_group_symop_operation_xyz
x,y,z
1/2-x,-y,1/2+z
x,-y,-z
1/2-x,y,1/2-z
-x,-y,-z
1/2+x,y,1/2-z
-x,y,z
1/2+x,-y,1/2+z
loop_
_atom_site_type_symbol
_atom_site_label
_atom_site_fract_x
_atom_site_fract_y
_atom_site_fract_z
Si Si1 0.813151 0.081900 0.685742
Si Si2 0.317021 0.374186 0.615830
Si Si3 0.183650 0.366199 0.119727
Si Si4 0.311525 0.230413 0.184609
Si Si5 0.811490 0.240395 0.684682
Si Si6 0.815379 0.502921 0.688165
Si Si7 0.684314 0.416527 0.000527
Si Si8 0.686707 0.071883 0.185762
O O1 0.750000 0.079611 0.750000
O O2 0.760634 0.160015 0.658958
O O3 0.000000 0.082856 0.688765
O O4 0.757136 0.005024 0.654174
O O5 0.500000 0.391673 0.628091
O O6 0.272886 0.296771 0.642581
O O7 0.210455 0.438055 0.642826
O O8 0.283044 0.371434 0.547182
O O9 0.224456 0.286338 0.142664
O O10 0.223137 0.424517 0.169527
O O11 0.000000 0.371262 0.103211
O O12 0.287400 0.381596 0.063075
O O13 0.250000 0.240316 0.250000
O O14 0.500000 0.243332 0.183694
O O15 0.262639 0.149927 0.158491
O O16 0.750000 0.251546 0.750000
O O17 0.000000 0.252486 0.683853
O O18 0.750000 0.476487 0.750000
O O19 0.000000 0.521483 0.691775
O O20 0.500000 0.411546 0.984773
O O21 0.743508 0.500000 0.000000
O O22 0.750000 0.070365 0.250000
O O23 0.500000 0.071436 0.189316
#
# Coordination Sequence:
#
# PCOD8218806 Si02
#       8
#     8   8   8   8   8   8   8   8
#     4   8  14  25  43  68  99 136 174 210 250 299
#     4  12  24  38  56  78 104 135 172 213 258 308
#     4  12  24  38  56  78 104 135 172 213 258 308
#     4  10  19  32  50  75 109 143 176 215 259 308
#     4  10  19  32  50  75 109 143 176 215 259 308
#     4  12  24  39  56  77 104 136 172 210 256 308
#     4  11  23  41  63  81  99 128 169 218 262 307
#     4   8  14  25  43  68  99 136 174 210 250 299
#
# _framework density 17.991337999999999
#
# number of rings (size 3 to 8) (size 9 to 14) (size 15 to 20)
#    0.000    1.625    1.250    5.250    0.000    1.500 
#    0.000    0.000    0.000    0.000    0.000    0.875 
#    0.000    7.000    0.000    0.000    0.000    0.000 
#
# Total GULP energy -793032.268652 kJ/mol
# GULP energy per Si atom -12391.129198 kJ/mol
# Density = 1.795039 g / cm^3
# Si number density = 17.991338 Si / 1000 Ang^3
#
#
#
# Elastic Constant Matrix: (Units=GPa)
#
#
# Indices 1 2 3 4 5 6 
#
# 1 56.2548 28.2688 15.0948 0.0000 0.0000 0.0000
# 2 28.2688 154.5124 36.6117 0.0000 0.0000 0.0000
# 3 15.0948 36.6117 67.3866 0.0000 0.0000 0.0000
# 4 0.0000 0.0000 0.0000 5.6884 0.0000 0.0000
# 5 0.0000 0.0000 0.0000 0.0000 25.6036 0.0000
# 6 0.0000 0.0000 0.0000 0.0000 0.0000 13.5896
#
#
#
# Elastic Compliance Matrix: (Units=1/GPa)
#
#
# Indices 1 2 3 4 5 6 
#
# 1 0.020047 -0.002988 -0.002867 0.000000 0.000000 0.000000
# 2 -0.002988 0.007874 -0.003608 0.000000 0.000000 0.000000
# 3 -0.002867 -0.003608 0.017442 0.000000 0.000000 0.000000
# 4 0.000000 0.000000 0.000000 0.175795 0.000000 0.000000
# 5 0.000000 0.000000 0.000000 0.000000 0.039057 0.000000
# 6 0.000000 0.000000 0.000000 0.000000 0.000000 0.073586
#
#
# Mechanical properties :
#
#
# Convention : Reuss Voigt Hill
#
# Bulk Modulus (GPa) = 37.82763 48.67827 43.25295
# Shear Modulus (GPa) = 13.82970 22.18824 18.00897
#
# Velocity S-wave (km/s) = 2.77553 3.51561 3.16726
# Velocity P-wave (km/s) = 5.59844 6.60262 6.12116
#
# Compressibility (1/GPa) = 0.02643570
#
# Stress axis : x y z
#
# Youngs Moduli (GPa) = 49.88211 127.00442 57.33134
#
# Poissons Ratio (x) = 0.37954 0.16437
# Poissons Ratio (y) = 0.14907 0.20688
# Poissons Ratio (z) = 0.14301 0.45829
#
# Static dielectric constant tensor:
#      x y z
#    x 4.306640 0.000000 0.000000 
#    y 0.000000 4.159440 0.000000 
#    z 0.000000 0.000000 2.972880 
# 
# 
# High freq. dielectric constant tensor:
#      x y z
#    x 1.708390 0.000000 0.000000 
#    y 0.000000 1.719410 0.000000 
#    z 0.000000 0.000000 1.647140 
# 
# From -- ./inp_files/31266.got.cif
#   From: 2010.03.12/outbox.cif.g09.slc.cpg/sg53_16_cif.got.tgz:31266.got - 2010.04.16 14:36:59.
