data_PCOD8218566
_publ_section_title
;
Structure prediction by ZEFSAII (Michael W. Deem and Ramdas Pophale) SiO2 
 PCOD8218566
Probable space group: P M N A
;
_chemical_formula_sum "Si O2"
_cell_formula_units_Z 64
_cell_length_a 8.805648
_cell_length_b 12.632066
_cell_length_c 33.913426
_cell_angle_alpha 90.000000
_cell_angle_beta 90.000000
_cell_angle_gamma 90.000000
_cell_volume 3772.309977
_symmetry_space_group_name_H-M "P M N A"
_symmetry_group_IT_number 53
_symmetry_cell_setting 'orthorhombic'
loop_
_space_group_symop_operation_xyz
x,y,z
1/2-x,-y,1/2+z
x,-y,-z
1/2-x,y,1/2-z
-x,-y,-z
1/2+x,y,1/2-z
-x,y,z
1/2+x,-y,1/2+z
loop_
_atom_site_type_symbol
_atom_site_label
_atom_site_fract_x
_atom_site_fract_y
_atom_site_fract_z
Si Si1 0.175572 0.386735 0.417686
Si Si2 0.322034 0.677424 0.662186
Si Si3 0.678767 0.306337 0.655546
Si Si4 0.180027 0.487802 0.707609
Si Si5 0.324390 0.363560 0.922710
Si Si6 0.828639 0.625665 0.997472
Si Si7 0.178154 0.114848 0.790703
Si Si8 0.177026 0.878868 0.790371
O O1 0.267676 0.334370 0.382356
O O2 0.199309 0.512075 0.416006
O O3 0.241013 0.338355 0.458141
O O4 0.000000 0.356090 0.414129
O O5 0.500000 0.651702 0.665053
O O6 0.234036 0.601028 0.691998
O O7 0.283651 0.797655 0.674696
O O8 0.500000 0.329156 0.658613
O O9 0.769025 0.399374 0.676866
O O10 0.730063 0.300912 0.610248
O O11 0.725322 0.194315 0.674561
O O12 0.250000 0.462473 0.750000
O O13 0.000000 0.487648 0.710985
O O14 0.500000 0.331874 0.920412
O O15 0.259416 0.327259 0.964934
O O16 0.000000 0.670066 0.996589
O O17 0.829033 0.500000 0.000000
O O18 0.250000 0.155463 0.750000
O O19 0.000000 0.115904 0.784394
O O20 0.237208 0.996627 0.801568
O O21 0.250000 0.837628 0.750000
O O22 0.000000 0.883084 0.782465
#
# Coordination Sequence:
#
# PCOD8218566 Si02
#       8
#     8   8   8   8   8   8   8   8
#     4  10  19  31  47  70 101 134 165 202 242 290
#     4  11  21  33  51  73  99 131 166 204 245 295
#     4  11  21  33  51  73  99 131 166 204 245 295
#     4  12  24  36  48  67  98 133 166 202 244 296
#     4  10  19  31  47  70 101 134 165 202 242 290
#     4   9  17  29  47  69  96 131 168 203 238 288
#     4   9  19  35  53  73  96 125 164 210 254 293
#     4   9  19  35  53  73  96 125 164 210 254 293
#
# _framework density 16.965731000000002
#
# number of rings (size 3 to 8) (size 9 to 14) (size 15 to 20)
#    0.000    1.875    1.250    3.750    0.000    6.500 
#    0.000    0.000    0.000    0.000    0.000    0.875 
#    0.000    7.000    0.000    0.000    0.000    0.000 
#
# Total GULP energy -793743.569136 kJ/mol
# GULP energy per Si atom -12402.243268 kJ/mol
# Density = 1.692712 g / cm^3
# Si number density = 16.965731 Si / 1000 Ang^3
#
#
#
# Elastic Constant Matrix: (Units=GPa)
#
#
# Indices 1 2 3 4 5 6 
#
# 1 91.1464 30.1883 37.4173 0.0000 0.0000 0.0000
# 2 30.1883 57.6070 28.8577 0.0000 0.0000 0.0000
# 3 37.4173 28.8577 107.3202 0.0000 0.0000 0.0000
# 4 0.0000 0.0000 0.0000 14.8018 0.0000 0.0000
# 5 0.0000 0.0000 0.0000 0.0000 35.5217 0.0000
# 6 0.0000 0.0000 0.0000 0.0000 0.0000 11.5184
#
#
#
# Elastic Compliance Matrix: (Units=1/GPa)
#
#
# Indices 1 2 3 4 5 6 
#
# 1 0.014291 -0.005770 -0.003431 0.000000 0.000000 0.000000
# 2 -0.005770 0.022391 -0.004009 0.000000 0.000000 0.000000
# 3 -0.003431 -0.004009 0.011592 0.000000 0.000000 0.000000
# 4 0.000000 0.000000 0.000000 0.067559 0.000000 0.000000
# 5 0.000000 0.000000 0.000000 0.000000 0.028152 0.000000
# 6 0.000000 0.000000 0.000000 0.000000 0.000000 0.086818
#
#
# Mechanical properties :
#
#
# Convention : Reuss Voigt Hill
#
# Bulk Modulus (GPa) = 45.75892 49.88892 47.82392
# Shear Modulus (GPa) = 18.90300 23.00907 20.95604
#
# Velocity S-wave (km/s) = 3.34157 3.68667 3.51835
# Velocity P-wave (km/s) = 6.47441 6.89866 6.68990
#
# Compressibility (1/GPa) = 0.02185366
#
# Stress axis : x y z
#
# Youngs Moduli (GPa) = 69.97403 44.66052 86.26547
#
# Poissons Ratio (x) = 0.25771 0.29598
# Poissons Ratio (y) = 0.40377 0.34584
# Poissons Ratio (z) = 0.24008 0.17904
#
# Static dielectric constant tensor:
#      x y z
#    x 3.304850 0.000000 0.000000 
#    y 0.000000 3.130260 0.000000 
#    z 0.000000 0.000000 3.329750 
# 
# 
# High freq. dielectric constant tensor:
#      x y z
#    x 1.669560 0.000000 0.000000 
#    y 0.000000 1.616240 0.000000 
#    z 0.000000 0.000000 1.660290 
# 
# From -- ./inp_files/38192.got.cif
#   From: 2010.03.12/outbox.cif.g09.slc.cpg/sg53_20_cif.got.tgz:38192.got - 2010.04.16 14:36:59.
