data_PCOD8218813
_publ_section_title
;
Structure prediction by ZEFSAII (Michael W. Deem and Ramdas Pophale) SiO2 
 PCOD8218813
Probable space group: P M N A
;
_chemical_formula_sum "Si O2"
_cell_formula_units_Z 64
_cell_length_a 8.913070
_cell_length_b 14.562593
_cell_length_c 28.133438
_cell_angle_alpha 90.000000
_cell_angle_beta 90.000000
_cell_angle_gamma 90.000000
_cell_volume 3651.647409
_symmetry_space_group_name_H-M "P M N A"
_symmetry_group_IT_number 53
_symmetry_cell_setting 'orthorhombic'
loop_
_space_group_symop_operation_xyz
x,y,z
1/2-x,-y,1/2+z
x,-y,-z
1/2-x,y,1/2-z
-x,-y,-z
1/2+x,y,1/2-z
-x,y,z
1/2+x,-y,1/2+z
loop_
_atom_site_type_symbol
_atom_site_label
_atom_site_fract_x
_atom_site_fract_y
_atom_site_fract_z
Si Si1 0.671676 0.851635 0.472806
Si Si2 0.327803 0.643910 0.476894
Si Si3 0.676733 0.643507 0.298847
Si Si4 0.322835 0.146848 0.701435
Si Si5 0.177366 0.651426 0.577189
Si Si6 0.177528 0.033538 0.887092
Si Si7 0.177773 0.523732 0.112171
Si Si8 0.322602 0.839990 0.578090
O O1 0.500000 0.881979 0.476350
O O2 0.689028 0.746410 0.456266
O O3 0.749927 0.916738 0.433510
O O4 0.740516 0.864752 0.525415
O O5 0.500000 0.624330 0.491393
O O6 0.228819 0.629198 0.523602
O O7 0.272583 0.576222 0.435743
O O8 0.750000 0.608063 0.250000
O O9 0.500000 0.635947 0.293080
O O10 0.725081 0.748397 0.309582
O O11 0.734213 0.580679 0.342157
O O12 0.250000 0.111718 0.750000
O O13 0.500000 0.137811 0.706088
O O14 0.257434 0.081103 0.660103
O O15 0.240936 0.574381 0.612778
O O16 0.240072 0.748748 0.596211
O O17 0.000000 0.652807 0.579529
O O18 0.000000 0.049391 0.888226
O O19 0.216427 0.925170 0.887405
O O20 0.000000 0.510560 0.113634
O O21 0.500000 0.819353 0.575918
#
# Coordination Sequence:
#
# PCOD8218813 Si02
#       8
#     8   8   8   8   8   8   8   8
#     4   8  13  23  43  72  97 115 145 190 231 267
#     4   9  17  30  49  71  96 126 159 194 231 275
#     4   9  18  32  51  75 102 127 151 186 233 284
#     4   9  17  30  48  72 100 125 149 181 225 276
#     4  11  22  33  45  65  96 130 161 197 240 281
#     4   9  15  25  47  74  94 117 155 196 228 265
#     4  10  19  32  51  72  93 123 163 199 231 274
#     4   9  17  30  48  68  91 122 159 196 232 272
#
# _framework density 17.526337000000002
#
# number of rings (size 3 to 8) (size 9 to 14) (size 15 to 20)
#    0.000    2.750    0.000    3.375    0.000    7.000 
#    0.000    0.625    0.000   14.250    0.000    1.750 
#    0.000    0.000    0.000    0.000    0.000    0.000 
#
# Total GULP energy -793431.338298 kJ/mol
# GULP energy per Si atom -12397.364661 kJ/mol
# Density = 1.748645 g / cm^3
# Si number density = 17.526337 Si / 1000 Ang^3
#
#
#
# Elastic Constant Matrix: (Units=GPa)
#
#
# Indices 1 2 3 4 5 6 
#
# 1 39.5497 34.3671 28.2358 0.0000 0.0000 0.0000
# 2 34.3671 126.9753 74.9639 0.0000 0.0000 0.0000
# 3 28.2358 74.9639 98.2136 0.0000 0.0000 0.0000
# 4 0.0000 0.0000 0.0000 31.0073 0.0000 0.0000
# 5 0.0000 0.0000 0.0000 0.0000 21.3196 0.0000
# 6 0.0000 0.0000 0.0000 0.0000 0.0000 12.5729
#
#
#
# Elastic Compliance Matrix: (Units=1/GPa)
#
#
# Indices 1 2 3 4 5 6 
#
# 1 0.034391 -0.006318 -0.005065 0.000000 0.000000 0.000000
# 2 -0.006318 0.015496 -0.010011 0.000000 0.000000 0.000000
# 3 -0.005065 -0.010011 0.019279 0.000000 0.000000 0.000000
# 4 0.000000 0.000000 0.000000 0.032250 0.000000 0.000000
# 5 0.000000 0.000000 0.000000 0.000000 0.046905 0.000000
# 6 0.000000 0.000000 0.000000 0.000000 0.000000 0.079536
#
#
# Mechanical properties :
#
#
# Convention : Reuss Voigt Hill
#
# Bulk Modulus (GPa) = 37.91055 59.98580 48.94818
# Shear Modulus (GPa) = 17.89299 21.45808 19.67553
#
# Velocity S-wave (km/s) = 3.19865 3.50284 3.35420
# Velocity P-wave (km/s) = 5.94301 7.11760 6.55666
#
# Compressibility (1/GPa) = 0.02637788
#
# Stress axis : x y z
#
# Youngs Moduli (GPa) = 29.07768 64.53227 51.86889
#
# Poissons Ratio (x) = 0.40772 0.26270
# Poissons Ratio (y) = 0.18371 0.51928
# Poissons Ratio (z) = 0.14727 0.64606
#
# Static dielectric constant tensor:
#      x y z
#    x 2.865290 0.000000 0.000000 
#    y 0.000000 3.383610 0.000000 
#    z 0.000000 0.000000 3.246460 
# 
# 
# High freq. dielectric constant tensor:
#      x y z
#    x 1.637820 0.000000 0.000000 
#    y 0.000000 1.682870 0.000000 
#    z 0.000000 0.000000 1.659500 
# 
# From -- ./inp_files/38439.got.cif
#   From: 2010.03.12/outbox.cif.g09.slc.cpg/sg53_20_cif.got.tgz:38439.got - 2010.04.16 14:36:59.
