data_PCOD8218943
_publ_section_title
;
Structure prediction by ZEFSAII (Michael W. Deem and Ramdas Pophale) SiO2 
 PCOD8218943
Probable space group: P M N A
;
_chemical_formula_sum "Si O2"
_cell_formula_units_Z 48
_cell_length_a 16.615766
_cell_length_b 15.408881
_cell_length_c 9.208334
_cell_angle_alpha 90.000000
_cell_angle_beta 90.000000
_cell_angle_gamma 90.000000
_cell_volume 2357.613078
_symmetry_space_group_name_H-M "P M N A"
_symmetry_group_IT_number 53
_symmetry_cell_setting 'orthorhombic'
loop_
_space_group_symop_operation_xyz
x,y,z
1/2-x,-y,1/2+z
x,-y,-z
1/2-x,y,1/2-z
-x,-y,-z
1/2+x,y,1/2-z
-x,y,z
1/2+x,-y,1/2+z
loop_
_atom_site_type_symbol
_atom_site_label
_atom_site_fract_x
_atom_site_fract_y
_atom_site_fract_z
Si Si1 0.592664 0.666385 0.148274
Si Si2 0.406520 0.813471 0.615311
Si Si3 0.095681 0.662108 0.673875
Si Si4 0.671845 0.014949 0.334882
Si Si5 0.339760 0.822744 0.303362
Si Si6 0.596023 0.508336 0.336986
O O1 0.500000 0.642470 0.130071
O O2 0.600567 0.762627 0.212258
O O3 0.631030 0.594388 0.256833
O O4 0.632854 0.664131 0.988353
O O5 0.500000 0.798573 0.575063
O O6 0.374916 0.745258 0.734335
O O7 0.396124 0.910979 0.678310
O O8 0.351471 0.800997 0.473158
O O9 0.127143 0.574887 0.749199
O O10 0.000000 0.664143 0.667694
O O11 0.750000 0.047558 0.250000
O O12 0.698834 0.000000 0.500000
O O13 0.638490 0.923629 0.271277
O O14 0.250000 0.801477 0.250000
O O15 0.630654 0.500000 0.500000
O O16 0.500000 0.512109 0.342905
#
# Coordination Sequence:
#
# PCOD8218943 Si02
#       6
#     8   8   8   8   8   8
#     4  10  19  32  53  78 106 139 176 223 271 319
#     4  10  20  35  57  83 110 143 187 235 277 327
#     4   9  18  31  49  79 110 134 170 219 272 324
#     4   9  20  36  55  77 105 143 183 225 275 332
#     4  10  21  36  53  76 106 141 180 223 273 331
#     4   9  16  28  50  78 105 136 174 217 267 323
#
# _framework density 20.359575
#
# number of rings (size 3 to 8) (size 9 to 14) (size 15 to 20)
#    0.000    2.500    0.000    2.000    0.000   12.333 
#    0.000    0.000    0.000   10.500    0.000    0.000 
#    0.000    0.000    0.000    0.000    0.000    0.000 
#
# Total GULP energy -595078.839292 kJ/mol
# GULP energy per Si atom -12397.475819 kJ/mol
# Density = 2.031324 g / cm^3
# Si number density = 20.359575 Si / 1000 Ang^3
#
#
#
# Elastic Constant Matrix: (Units=GPa)
#
#
# Indices 1 2 3 4 5 6 
#
# 1 30.1334 22.8816 26.9857 0.0000 0.0000 0.0000
# 2 22.8816 152.0049 89.2392 0.0000 0.0000 0.0000
# 3 26.9857 89.2392 157.8587 0.0000 0.0000 0.0000
# 4 0.0000 0.0000 0.0000 34.4114 0.0000 0.0000
# 5 0.0000 0.0000 0.0000 0.0000 25.7681 0.0000
# 6 0.0000 0.0000 0.0000 0.0000 0.0000 4.3087
#
#
#
# Elastic Compliance Matrix: (Units=1/GPa)
#
#
# Indices 1 2 3 4 5 6 
#
# 1 0.040084 -0.003010 -0.005151 0.000000 0.000000 0.000000
# 2 -0.003010 0.010073 -0.005180 0.000000 0.000000 0.000000
# 3 -0.005151 -0.005180 0.010143 0.000000 0.000000 0.000000
# 4 0.000000 0.000000 0.000000 0.029060 0.000000 0.000000
# 5 0.000000 0.000000 0.000000 0.000000 0.038808 0.000000
# 6 0.000000 0.000000 0.000000 0.000000 0.000000 0.232087
#
#
# Mechanical properties :
#
#
# Convention : Reuss Voigt Hill
#
# Bulk Modulus (GPa) = 29.74472 68.69001 49.21736
# Shear Modulus (GPa) = 12.55831 26.29034 19.42433
#
# Velocity S-wave (km/s) = 2.48629 3.59737 3.09214
# Velocity P-wave (km/s) = 4.78368 7.14608 6.08071
#
# Compressibility (1/GPa) = 0.03361941
#
# Stress axis : x y z
#
# Youngs Moduli (GPa) = 24.94752 99.27801 98.58627
#
# Poissons Ratio (x) = 0.29883 0.50779
# Poissons Ratio (y) = 0.07509 0.51064
# Poissons Ratio (z) = 0.12850 0.51423
#
# Static dielectric constant tensor:
#      x y z
#    x 3.120630 0.000000 0.000000 
#    y 0.000000 3.943170 0.000000 
#    z 0.000000 0.000000 3.944230 
# 
# 
# High freq. dielectric constant tensor:
#      x y z
#    x 1.740650 0.000000 0.000000 
#    y 0.000000 1.812110 0.000000 
#    z 0.000000 0.000000 1.804890 
# 
# From -- ./inp_files/10015.got.cif
#   From: 2010.03.12/outbox.cif.g09.slc.cpg/sg53_6_cif.got.tgz:10015.got - 2010.04.16 14:36:59.
