data_PCOD8218883
_publ_section_title
;
Structure prediction by ZEFSAII (Michael W. Deem and Ramdas Pophale) SiO2 
 PCOD8218883
Probable space group: P M N A
;
_chemical_formula_sum "Si O2"
_cell_formula_units_Z 48
_cell_length_a 24.637398
_cell_length_b 15.720896
_cell_length_c 6.474115
_cell_angle_alpha 90.000000
_cell_angle_beta 90.000000
_cell_angle_gamma 90.000000
_cell_volume 2507.566987
_symmetry_space_group_name_H-M "P M N A"
_symmetry_group_IT_number 53
_symmetry_cell_setting 'orthorhombic'
loop_
_space_group_symop_operation_xyz
x,y,z
1/2-x,-y,1/2+z
x,-y,-z
1/2-x,y,1/2-z
-x,-y,-z
1/2+x,y,1/2-z
-x,y,z
1/2+x,-y,1/2+z
loop_
_atom_site_type_symbol
_atom_site_label
_atom_site_fract_x
_atom_site_fract_y
_atom_site_fract_z
Si Si1 0.121899 0.850652 0.735934
Si Si2 0.650245 0.594309 0.520512
Si Si3 0.304976 0.299386 0.133249
Si Si4 0.750000 0.361915 0.750000
Si Si5 0.107769 0.000000 0.000000
Si Si6 0.562371 0.266019 0.542957
Si Si7 0.060418 0.885354 0.340109
O O1 0.171890 0.793862 0.668114
O O2 0.076425 0.790983 0.842432
O O3 0.099160 0.897345 0.534817
O O4 0.143009 0.924570 0.893534
O O5 0.625434 0.500000 0.500000
O O6 0.659101 0.625149 0.759410
O O7 0.708349 0.587724 0.398684
O O8 0.604722 0.656692 0.424343
O O9 0.250000 0.300802 0.250000
O O10 0.292753 0.309415 0.890279
O O11 0.069772 0.041342 0.827059
O O12 0.500000 0.298603 0.519647
O O13 0.569055 0.208594 0.746076
O O14 0.000000 0.895697 0.423619
#
# Coordination Sequence:
#
# PCOD8218883 Si02
#       7
#     8   8   8   4   4   8   8
#     4  10  19  34  55  76 105 141 180 225 274 322
#     4  10  21  33  54  83 112 143 178 227 281 325
#     4   9  20  37  56  79 101 138 181 220 272 329
#     4  10  20  34  56  80 110 136 180 238 274 320
#     4  10  21  32  50  78 110 134 174 226 267 320
#     4   9  19  35  52  77 110 147 189 223 265 334
#     4  10  19  32  52  76 105 143 179 219 269 318
#
# _framework density 19.142059
#
# number of rings (size 3 to 8) (size 9 to 14) (size 15 to 20)
#    0.000    2.333    0.000    2.250    3.500    4.333 
#    0.000    0.000    3.667    0.000    0.000    9.333 
#    0.000    0.000    0.000    0.000    0.000    0.000 
#
# Total GULP energy -594673.836241 kJ/mol
# GULP energy per Si atom -12389.038255 kJ/mol
# Density = 1.909849 g / cm^3
# Si number density = 19.142059 Si / 1000 Ang^3
#
#
#
# Elastic Constant Matrix: (Units=GPa)
#
#
# Indices 1 2 3 4 5 6 
#
# 1 29.7684 32.8298 -7.4224 0.0000 0.0000 0.0000
# 2 32.8298 129.2700 42.4143 0.0000 0.0000 0.0000
# 3 -7.4224 42.4143 72.6094 0.0000 0.0000 0.0000
# 4 0.0000 0.0000 0.0000 36.6237 0.0000 0.0000
# 5 0.0000 0.0000 0.0000 0.0000 -38.5893 0.0000
# 6 0.0000 0.0000 0.0000 0.0000 0.0000 17.3888
#
#
#
# Elastic Compliance Matrix: (Units=1/GPa)
#
#
# Indices 1 2 3 4 5 6 
#
# 1 0.063328 -0.022524 0.019631 0.000000 0.000000 0.000000
# 2 -0.022524 0.017581 -0.012572 0.000000 0.000000 0.000000
# 3 0.019631 -0.012572 0.023123 0.000000 0.000000 0.000000
# 4 0.000000 0.000000 0.000000 0.027305 0.000000 0.000000
# 5 0.000000 0.000000 0.000000 0.000000 -0.025914 0.000000
# 6 0.000000 0.000000 0.000000 0.000000 0.000000 0.057508
#
#
# Mechanical properties :
#
#
# Convention : Reuss Voigt Hill
#
# Bulk Modulus (GPa) = 13.67975 40.81014 27.24495
# Shear Modulus (GPa) = 22.91176 14.00637 18.45907
#
# Velocity S-wave (km/s) = 3.46343 2.70794 3.10872
# Velocity P-wave (km/s) = 4.81204 5.58061 5.21051
#
# Compressibility (1/GPa) = 0.07310073
#
# Stress axis : x y z
#
# Youngs Moduli (GPa) = 15.79091 56.87954 43.24694
#
# Poissons Ratio (x) = 1.28114 -0.84897
# Poissons Ratio (y) = 0.35567 0.54371
# Poissons Ratio (z) = -0.30999 0.71511
#
# Static dielectric constant tensor:
#      x y z
#    x 2.832420 0.000000 0.000000 
#    y 0.000000 3.791730 0.000000 
#    z 0.000000 0.000000 2.021600 
# 
# 
# High freq. dielectric constant tensor:
#      x y z
#    x 1.722290 0.000000 0.000000 
#    y 0.000000 1.737910 0.000000 
#    z 0.000000 0.000000 1.753250 
# 
# From -- ./inp_files/4513.got.cif
#   From: 2010.03.12/outbox.cif.g09.slc.cpg/sg53_3_cif.got.tgz:4513.got - 2010.04.16 14:36:59.
