data_PCOD8218086
_publ_section_title
;
Structure prediction by ZEFSAII (Michael W. Deem and Ramdas Pophale) SiO2 
 PCOD8218086
Probable space group: P M N A
;
_chemical_formula_sum "Si O2"
_cell_formula_units_Z 64
_cell_length_a 16.729340
_cell_length_b 23.464255
_cell_length_c 8.531529
_cell_angle_alpha 90.000000
_cell_angle_beta 90.000000
_cell_angle_gamma 90.000000
_cell_volume 3348.979189
_symmetry_space_group_name_H-M "P M N A"
_symmetry_group_IT_number 53
_symmetry_cell_setting 'orthorhombic'
loop_
_space_group_symop_operation_xyz
x,y,z
1/2-x,-y,1/2+z
x,-y,-z
1/2-x,y,1/2-z
-x,-y,-z
1/2+x,y,1/2-z
-x,y,z
1/2+x,-y,1/2+z
loop_
_atom_site_type_symbol
_atom_site_label
_atom_site_fract_x
_atom_site_fract_y
_atom_site_fract_z
Si Si1 0.091699 0.676117 0.441589
Si Si2 0.732299 0.869810 0.571399
Si Si3 0.675339 0.652408 0.355365
Si Si4 0.405452 0.555826 0.914045
Si Si5 0.762066 0.262528 0.427561
Si Si6 0.820816 0.954945 0.365388
Si Si7 0.910272 0.562789 0.935188
Si Si8 0.908586 0.061628 0.934239
O O1 0.104435 0.676622 0.254516
O O2 0.118786 0.613060 0.495600
O O3 0.146441 0.723812 0.524351
O O4 0.000000 0.689696 0.483904
O O5 0.750000 0.887764 0.750000
O O6 0.741200 0.802989 0.547299
O O7 0.795571 0.897630 0.453650
O O8 0.643779 0.890674 0.522630
O O9 0.750000 0.632588 0.250000
O O10 0.699375 0.703551 0.468261
O O11 0.646686 0.599064 0.454724
O O12 0.500000 0.548082 0.906562
O O13 0.372004 0.561069 0.738006
O O14 0.368295 0.500000 0.000000
O O15 0.750000 0.281606 0.250000
O O16 0.750000 0.977555 0.250000
O O17 0.895751 0.939805 0.254266
O O18 0.843633 0.000000 0.500000
O O19 0.000000 0.589262 0.932617
O O20 0.914350 0.500000 0.000000
O O21 0.000000 0.076498 0.970648
O O22 0.883677 0.000000 0.000000
#
# Coordination Sequence:
#
# PCOD8218086 Si02
#       8
#     8   8   8   8   8   8   8   8
#     4  10  20  36  58  82 110 142 181 229 278 327
#     4  10  20  38  60  80 108 149 191 228 269 325
#     4  10  21  36  53  77 108 143 179 222 274 330
#     4   9  17  30  52  81 109 136 169 216 272 327
#     4  10  22  40  58  79 109 147 188 228 274 328
#     4  10  18  31  55  84 112 149 191 224 265 325
#     4  10  19  33  55  80 105 135 177 224 271 328
#     4  10  21  36  56  86 121 149 180 228 277 319
#
# _framework density 19.110302000000001
#
# number of rings (size 3 to 8) (size 9 to 14) (size 15 to 20)
#    0.000    2.125    0.000    4.500    0.000    6.750 
#    0.000   12.500    0.000    0.000    0.000    0.000 
#    0.000    0.000    0.000    0.000    0.000    0.125 
#
# Total GULP energy -793577.808037 kJ/mol
# GULP energy per Si atom -12399.653251 kJ/mol
# Density = 1.906681 g / cm^3
# Si number density = 19.110302 Si / 1000 Ang^3
#
#
#
# Elastic Constant Matrix: (Units=GPa)
#
#
# Indices 1 2 3 4 5 6 
#
# 1 81.1114 60.0847 49.2246 0.0000 0.0000 0.0000
# 2 60.0847 105.1520 64.4041 0.0000 0.0000 0.0000
# 3 49.2246 64.4041 160.0661 0.0000 0.0000 0.0000
# 4 0.0000 0.0000 0.0000 36.4054 0.0000 0.0000
# 5 0.0000 0.0000 0.0000 0.0000 33.8459 0.0000
# 6 0.0000 0.0000 0.0000 0.0000 0.0000 27.5031
#
#
#
# Elastic Compliance Matrix: (Units=1/GPa)
#
#
# Indices 1 2 3 4 5 6 
#
# 1 0.021979 -0.011172 -0.002264 0.000000 0.000000 0.000000
# 2 -0.011172 0.018299 -0.003927 0.000000 0.000000 0.000000
# 3 -0.002264 -0.003927 0.008524 0.000000 0.000000 0.000000
# 4 0.000000 0.000000 0.000000 0.027468 0.000000 0.000000
# 5 0.000000 0.000000 0.000000 0.000000 0.029546 0.000000
# 6 0.000000 0.000000 0.000000 0.000000 0.000000 0.036360
#
#
# Mechanical properties :
#
#
# Convention : Reuss Voigt Hill
#
# Bulk Modulus (GPa) = 71.04628 77.08403 74.06515
# Shear Modulus (GPa) = 27.53409 31.05862 29.29636
#
# Velocity S-wave (km/s) = 3.79990 4.03579 3.91962
# Velocity P-wave (km/s) = 7.51731 7.88294 7.70230
#
# Compressibility (1/GPa) = 0.01407533
#
# Stress axis : x y z
#
# Youngs Moduli (GPa) = 45.49890 54.64707 117.32010
#
# Poissons Ratio (x) = 0.61053 0.26558
# Poissons Ratio (y) = 0.50832 0.46073
# Poissons Ratio (z) = 0.10300 0.21461
#
# Static dielectric constant tensor:
#      x y z
#    x 3.389320 0.000000 0.000000 
#    y 0.000000 3.432940 0.000000 
#    z 0.000000 0.000000 3.871610 
# 
# 
# High freq. dielectric constant tensor:
#      x y z
#    x 1.725240 0.000000 0.000000 
#    y 0.000000 1.733110 0.000000 
#    z 0.000000 0.000000 1.766080 
# 
# From -- ./inp_files/10275.got.cif
#   From: 2010.03.12/outbox.cif.g09.slc.cpg/sg53_6_cif.got.tgz:10275.got - 2010.04.16 14:36:59.
