data_PCOD8218368
_publ_section_title
;
Structure prediction by ZEFSAII (Michael W. Deem and Ramdas Pophale) SiO2 
 PCOD8218368
Probable space group: P M N A
;
_chemical_formula_sum "Si O2"
_cell_formula_units_Z 64
_cell_length_a 24.847626
_cell_length_b 9.130041
_cell_length_c 17.914848
_cell_angle_alpha 90.000000
_cell_angle_beta 90.000000
_cell_angle_gamma 90.000000
_cell_volume 4064.159625
_symmetry_space_group_name_H-M "P M N A"
_symmetry_group_IT_number 53
_symmetry_cell_setting 'orthorhombic'
loop_
_space_group_symop_operation_xyz
x,y,z
1/2-x,-y,1/2+z
x,-y,-z
1/2-x,y,1/2-z
-x,-y,-z
1/2+x,y,1/2-z
-x,y,z
1/2+x,-y,1/2+z
loop_
_atom_site_type_symbol
_atom_site_label
_atom_site_fract_x
_atom_site_fract_y
_atom_site_fract_z
Si Si1 0.151466 0.962993 0.341915
Si Si2 0.738991 0.938109 0.420749
Si Si3 0.806216 0.882361 0.791775
Si Si4 0.440781 0.649390 0.039939
Si Si5 0.692464 0.448257 0.289194
Si Si6 0.742755 0.407988 0.576093
Si Si7 0.558139 0.894804 0.934898
Si Si8 0.850701 0.373983 0.658966
O O1 0.201271 0.992128 0.397676
O O2 0.156290 0.794236 0.317606
O O3 0.150991 0.053128 0.265676
O O4 0.096945 0.017242 0.379844
O O5 0.732503 0.764602 0.429758
O O6 0.723828 0.000000 0.500000
O O7 0.696694 0.010691 0.363148
O O8 0.750000 0.880065 0.750000
O O9 0.824883 0.717061 0.810322
O O10 0.500000 0.711880 0.063362
O O11 0.406176 0.621273 0.113849
O O12 0.449848 0.500000 0.000000
O O13 0.413692 0.755503 0.976741
O O14 0.750000 0.452515 0.250000
O O15 0.697403 0.534867 0.366735
O O16 0.648847 0.525964 0.234037
O O17 0.736477 0.500000 0.500000
O O18 0.803190 0.433362 0.605804
O O19 0.500000 0.851712 0.896291
O O20 0.542206 0.000000 0.000000
#
# Coordination Sequence:
#
# PCOD8218368 Si02
#       8
#     8   8   8   8   8   8   8   8
#     4  10  19  29  46  64  89 119 157 187 227 272
#     4  10  19  29  45  65  90 117 151 191 227 267
#     4   9  18  31  44  63  86 115 148 190 228 270
#     4  10  21  33  45  65  93 122 156 195 229 263
#     4   9  18  31  44  61  87 115 150 187 229 271
#     4  10  19  30  45  65  89 118 152 189 226 273
#     4  10  19  32  47  65  91 122 156 194 229 263
#     4  10  19  30  45  64  88 123 154 188 227 272
#
# _framework density 15.747412000000001
#
# number of rings (size 3 to 8) (size 9 to 14) (size 15 to 20)
#    0.000    2.250    1.250    2.250    3.500    4.000 
#    0.000    0.000    0.000    0.000    0.000    0.000 
#    0.000    1.000    0.000    2.500    0.000    2.750 
#
# Total GULP energy -792888.099974 kJ/mol
# GULP energy per Si atom -12388.876562 kJ/mol
# Density = 1.571157 g / cm^3
# Si number density = 15.747412 Si / 1000 Ang^3
#
#
#
# Elastic Constant Matrix: (Units=GPa)
#
#
# Indices 1 2 3 4 5 6 
#
# 1 42.9571 22.2066 31.6545 0.0000 0.0000 0.0000
# 2 22.2066 105.8037 55.6364 0.0000 0.0000 0.0000
# 3 31.6545 55.6364 104.1474 0.0000 0.0000 0.0000
# 4 0.0000 0.0000 0.0000 35.1957 0.0000 0.0000
# 5 0.0000 0.0000 0.0000 0.0000 -58.8593 0.0000
# 6 0.0000 0.0000 0.0000 0.0000 0.0000 17.0722
#
#
#
# Elastic Compliance Matrix: (Units=1/GPa)
#
#
# Indices 1 2 3 4 5 6 
#
# 1 0.030333 -0.002112 -0.008091 0.000000 0.000000 0.000000
# 2 -0.002112 0.013291 -0.006458 0.000000 0.000000 0.000000
# 3 -0.008091 -0.006458 0.015511 0.000000 0.000000 0.000000
# 4 0.000000 0.000000 0.000000 0.028413 0.000000 0.000000
# 5 0.000000 0.000000 0.000000 0.000000 -0.016990 0.000000
# 6 0.000000 0.000000 0.000000 0.000000 0.000000 0.058575
#
#
# Mechanical properties :
#
#
# Convention : Reuss Voigt Hill
#
# Bulk Modulus (GPa) = 38.74101 52.43369 45.58735
# Shear Modulus (GPa) = 29.22970 8.24243 18.73607
#
# Velocity S-wave (km/s) = 4.31299 2.29031 3.45307
# Velocity P-wave (km/s) = 7.03260 6.35319 6.70151
#
# Compressibility (1/GPa) = 0.02581244
#
# Stress axis : x y z
#
# Youngs Moduli (GPa) = 32.96737 75.24072 64.47004
#
# Poissons Ratio (x) = 0.15888 0.52165
# Poissons Ratio (y) = 0.06961 0.41636
# Poissons Ratio (z) = 0.26675 0.48592
#
# Static dielectric constant tensor:
#      x y z
#    x 2.769520 0.000000 0.000000 
#    y 0.000000 3.415500 0.000000 
#    z 0.000000 0.000000 2.902020 
# 
# 
# High freq. dielectric constant tensor:
#      x y z
#    x 1.557780 0.000000 0.000000 
#    y 0.000000 1.629430 0.000000 
#    z 0.000000 0.000000 1.590100 
# 
# From -- ./inp_files/29732.got.cif
#   From: 2010.03.12/outbox.cif.g09.slc.cpg/sg53_15_cif.got.tgz:29732.got - 2010.04.16 14:36:59.
