data_PCOD8218011
_publ_section_title
;
Structure prediction by ZEFSAII (Michael W. Deem and Ramdas Pophale) SiO2 
 PCOD8218011
Probable space group: P M N A
;
_chemical_formula_sum "Si O2"
_cell_formula_units_Z 64
_cell_length_a 8.984467
_cell_length_b 19.031192
_cell_length_c 21.310695
_cell_angle_alpha 90.000000
_cell_angle_beta 90.000000
_cell_angle_gamma 90.000000
_cell_volume 3643.811667
_symmetry_space_group_name_H-M "P M N A"
_symmetry_group_IT_number 53
_symmetry_cell_setting 'orthorhombic'
loop_
_space_group_symop_operation_xyz
x,y,z
1/2-x,-y,1/2+z
x,-y,-z
1/2-x,y,1/2-z
-x,-y,-z
1/2+x,y,1/2-z
-x,y,z
1/2+x,-y,1/2+z
loop_
_atom_site_type_symbol
_atom_site_label
_atom_site_fract_x
_atom_site_fract_y
_atom_site_fract_z
Si Si1 0.823908 0.844695 0.640324
Si Si2 0.322868 0.289118 0.310213
Si Si3 0.666599 0.534166 0.068859
Si Si4 0.666224 0.662870 0.467027
Si Si5 0.326539 0.057386 0.552469
Si Si6 0.836274 0.593486 0.900247
Si Si7 0.324038 0.808656 0.001404
Si Si8 0.675011 0.986494 0.684864
O O1 0.761281 0.784136 0.683854
O O2 0.776079 0.828166 0.569107
O O3 0.745798 0.913303 0.665961
O O4 0.000000 0.852232 0.647503
O O5 0.250000 0.325923 0.250000
O O6 0.500000 0.278409 0.306786
O O7 0.269513 0.338764 0.366276
O O8 0.500000 0.546856 0.091433
O O9 0.746576 0.609781 0.079083
O O10 0.740960 0.476018 0.113738
O O11 0.671801 0.500000 0.000000
O O12 0.500000 0.679798 0.441994
O O13 0.656268 0.614919 0.527992
O O14 0.751723 0.735570 0.477237
O O15 0.500000 0.072829 0.541209
O O16 0.233971 0.128714 0.545068
O O17 0.273325 0.000000 0.500000
O O18 0.294937 0.035761 0.624512
O O19 0.000000 0.576847 0.873780
O O20 0.500000 0.800962 0.008239
O O21 0.750000 0.014875 0.750000
O O22 0.500000 0.977894 0.697071
#
# Coordination Sequence:
#
# PCOD8218011 Si02
#       8
#     8   8   8   8   8   8   8   8
#     4  11  22  35  52  75 105 141 179 220 266 316
#     4  11  22  35  49  69  99 138 182 223 261 308
#     4   9  17  28  45  70  98 126 160 203 249 295
#     4  10  18  31  50  71 100 134 169 206 252 311
#     4  10  21  38  58  79 106 141 180 220 268 326
#     4   9  18  31  47  67  94 132 172 209 253 304
#     4  11  22  33  52  80 109 139 175 221 270 317
#     4  11  23  39  59  80 106 140 180 225 269 321
#
# _framework density 17.564024
#
# number of rings (size 3 to 8) (size 9 to 14) (size 15 to 20)
#    0.000    1.750    2.500    2.625    0.000    5.250 
#    0.000    0.000    0.000    0.000    0.000    0.875 
#    0.000    0.000    0.000    0.000    0.000    0.000 
#
# Total GULP energy -793232.738279 kJ/mol
# GULP energy per Si atom -12394.261536 kJ/mol
# Density = 1.752405 g / cm^3
# Si number density = 17.564024 Si / 1000 Ang^3
#
#
#
# Elastic Constant Matrix: (Units=GPa)
#
#
# Indices 1 2 3 4 5 6 
#
# 1 96.7978 50.3211 39.1238 0.0000 0.0000 0.0000
# 2 50.3211 91.7100 32.6740 0.0000 0.0000 0.0000
# 3 39.1238 32.6740 52.1972 0.0000 0.0000 0.0000
# 4 0.0000 0.0000 0.0000 1.2927 0.0000 0.0000
# 5 0.0000 0.0000 0.0000 0.0000 23.1432 0.0000
# 6 0.0000 0.0000 0.0000 0.0000 0.0000 27.4709
#
#
#
# Elastic Compliance Matrix: (Units=1/GPa)
#
#
# Indices 1 2 3 4 5 6 
#
# 1 0.017209 -0.006238 -0.008994 0.000000 0.000000 0.000000
# 2 -0.006238 0.016295 -0.005524 0.000000 0.000000 0.000000
# 3 -0.008994 -0.005524 0.029357 0.000000 0.000000 0.000000
# 4 0.000000 0.000000 0.000000 0.773578 0.000000 0.000000
# 5 0.000000 0.000000 0.000000 0.000000 0.043209 0.000000
# 6 0.000000 0.000000 0.000000 0.000000 0.000000 0.036402
#
#
# Mechanical properties :
#
#
# Convention : Reuss Voigt Hill
#
# Bulk Modulus (GPa) = 46.84174 53.88254 50.36214
# Shear Modulus (GPa) = 5.18307 18.28710 11.73508
#
# Velocity S-wave (km/s) = 1.71970 3.23021 2.58763
# Velocity P-wave (km/s) = 5.53807 6.68257 6.13706
#
# Compressibility (1/GPa) = 0.02134848
#
# Stress axis : x y z
#
# Youngs Moduli (GPa) = 58.10936 61.36814 34.06287
#
# Poissons Ratio (x) = 0.38283 0.30635
# Poissons Ratio (y) = 0.36250 0.18818
# Poissons Ratio (z) = 0.52262 0.33903
#
# Static dielectric constant tensor:
#      x y z
#    x 3.461900 0.000000 0.000000 
#    y 0.000000 3.272410 0.000000 
#    z 0.000000 0.000000 3.399340 
# 
# 
# High freq. dielectric constant tensor:
#      x y z
#    x 1.693980 0.000000 0.000000 
#    y 0.000000 1.677770 0.000000 
#    z 0.000000 0.000000 1.642810 
# 
# From -- ./inp_files/31190.got.cif
#   From: 2010.03.12/outbox.cif.g09.slc.cpg/sg53_16_cif.got.tgz:31190.got - 2010.04.16 14:36:59.
