data_PCOD8218288
_publ_section_title
;
Structure prediction by ZEFSAII (Michael W. Deem and Ramdas Pophale) SiO2 
 PCOD8218288
Probable space group: P M N A
;
_chemical_formula_sum "Si O2"
_cell_formula_units_Z 52
_cell_length_a 11.241286
_cell_length_b 9.999213
_cell_length_c 26.217399
_cell_angle_alpha 90.000000
_cell_angle_beta 90.000000
_cell_angle_gamma 90.000000
_cell_volume 2946.940861
_symmetry_space_group_name_H-M "P M N A"
_symmetry_group_IT_number 53
_symmetry_cell_setting 'orthorhombic'
loop_
_space_group_symop_operation_xyz
x,y,z
1/2-x,-y,1/2+z
x,-y,-z
1/2-x,y,1/2-z
-x,-y,-z
1/2+x,y,1/2-z
-x,y,z
1/2+x,-y,1/2+z
loop_
_atom_site_type_symbol
_atom_site_label
_atom_site_fract_x
_atom_site_fract_y
_atom_site_fract_z
Si Si1 0.255744 0.047737 0.444595
Si Si2 0.500000 0.826258 0.177432
Si Si3 0.127463 0.059756 0.762613
Si Si4 0.758922 0.401366 0.932734
Si Si5 0.000000 0.970632 0.421977
Si Si6 0.641468 0.674226 0.540834
Si Si7 0.134749 0.828137 0.126954
Si Si8 0.500000 0.671465 0.081592
O O1 0.310201 0.192573 0.432340
O O2 0.300259 0.000000 0.500000
O O3 0.113020 0.052839 0.442208
O O4 0.301113 0.949025 0.401318
O O5 0.384443 0.837064 0.214531
O O6 0.500000 0.956182 0.139529
O O7 0.500000 0.691127 0.143695
O O8 0.250000 0.976575 0.750000
O O9 0.140765 0.146564 0.813162
O O10 0.000000 0.976275 0.765222
O O11 0.812293 0.549037 0.925958
O O12 0.796300 0.309413 0.885068
O O13 0.615811 0.410850 0.935697
O O14 0.808467 0.332832 0.983740
O O15 0.000000 0.818634 0.444966
O O16 0.500000 0.673389 0.539532
O O17 0.000000 0.816330 0.107174
#
# Coordination Sequence:
#
# PCOD8218288 Si02
#       8
#     8   4   8   8   4   8   8   4
#     4  12  22  34  55  80 116 154 188 237 274 334
#     4   8  18  33  55  84 120 132 174 255 289 338
#     4   9  17  29  50  79 112 134 177 234 296 332
#     4  11  21  36  56  76 112 154 184 236 273 332
#     4  10  19  35  54  83 116 141 184 233 296 327
#     4  11  24  38  51  77 115 153 195 226 273 330
#     4  11  20  33  55  83 109 146 190 228 284 333
#     4  10  18  35  57  84 110 138 186 234 287 329
#
# _framework density 17.645416999999998
#
# number of rings (size 3 to 8) (size 9 to 14) (size 15 to 20)
#    0.923    0.615    3.077    4.385    0.000    3.077 
#    0.000    0.000    0.000    0.000    0.000   11.846 
#    0.000    0.000    0.000    0.000    0.000    0.000 
#
# Total GULP energy -644250.389436 kJ/mol
# GULP energy per Si atom -12389.430566 kJ/mol
# Density = 1.760526 g / cm^3
# Si number density = 17.645417 Si / 1000 Ang^3
#
#
#
# Elastic Constant Matrix: (Units=GPa)
#
#
# Indices 1 2 3 4 5 6 
#
# 1 171.9671 34.0669 21.6925 0.0000 0.0000 0.0000
# 2 34.0669 81.7582 30.1113 0.0000 0.0000 0.0000
# 3 21.6925 30.1113 68.7155 0.0000 0.0000 0.0000
# 4 0.0000 0.0000 0.0000 4.4566 0.0000 0.0000
# 5 0.0000 0.0000 0.0000 0.0000 103.3643 0.0000
# 6 0.0000 0.0000 0.0000 0.0000 0.0000 28.6795
#
#
#
# Elastic Compliance Matrix: (Units=1/GPa)
#
#
# Indices 1 2 3 4 5 6 
#
# 1 0.006397 -0.002292 -0.001015 0.000000 0.000000 0.000000
# 2 -0.002292 0.015406 -0.006027 0.000000 0.000000 0.000000
# 3 -0.001015 -0.006027 0.017515 0.000000 0.000000 0.000000
# 4 0.000000 0.000000 0.000000 0.224388 0.000000 0.000000
# 5 0.000000 0.000000 0.000000 0.000000 0.009675 0.000000
# 6 0.000000 0.000000 0.000000 0.000000 0.000000 0.034868
#
#
# Mechanical properties :
#
#
# Convention : Reuss Voigt Hill
#
# Bulk Modulus (GPa) = 48.42891 54.90911 51.66901
# Shear Modulus (GPa) = 14.97903 43.07142 29.02523
#
# Velocity S-wave (km/s) = 2.91673 4.94595 4.06016
# Velocity P-wave (km/s) = 6.23284 7.98762 7.16416
#
# Compressibility (1/GPa) = 0.02064882
#
# Stress axis : x y z
#
# Youngs Moduli (GPa) = 156.32064 64.90991 57.09542
#
# Poissons Ratio (x) = 0.14875 0.05797
# Poissons Ratio (y) = 0.35823 0.34414
# Poissons Ratio (z) = 0.15871 0.39124
#
# Static dielectric constant tensor:
#      x y z
#    x 3.646020 0.000000 0.000000 
#    y 0.000000 3.142290 0.000000 
#    z 0.000000 0.000000 3.270740 
# 
# 
# High freq. dielectric constant tensor:
#      x y z
#    x 1.714250 0.000000 0.000000 
#    y 0.000000 1.632130 0.000000 
#    z 0.000000 0.000000 1.674680 
# 
# From -- ./inp_files/38652.got.cif
#   From: 2010.03.12/outbox.cif.g09.slc.cpg/sg53_20_cif.got.tgz:38652.got - 2010.04.16 14:36:59.
