data_PCOD8218668
_publ_section_title
;
Structure prediction by ZEFSAII (Michael W. Deem and Ramdas Pophale) SiO2 
 PCOD8218668
Probable space group: P M N A
;
_chemical_formula_sum "Si O2"
_cell_formula_units_Z 56
_cell_length_a 9.099282
_cell_length_b 18.883826
_cell_length_c 17.216401
_cell_angle_alpha 90.000000
_cell_angle_beta 90.000000
_cell_angle_gamma 90.000000
_cell_volume 2958.281409
_symmetry_space_group_name_H-M "P M N A"
_symmetry_group_IT_number 53
_symmetry_cell_setting 'orthorhombic'
loop_
_space_group_symop_operation_xyz
x,y,z
1/2-x,-y,1/2+z
x,-y,-z
1/2-x,y,1/2-z
-x,-y,-z
1/2+x,y,1/2-z
-x,y,z
1/2+x,-y,1/2+z
loop_
_atom_site_type_symbol
_atom_site_label
_atom_site_fract_x
_atom_site_fract_y
_atom_site_fract_z
Si Si1 0.328951 0.338147 0.667406
Si Si2 0.174257 0.151198 0.172599
Si Si3 0.168642 0.729132 0.591456
Si Si4 0.169079 0.780928 0.053670
Si Si5 0.665034 0.590465 0.824299
Si Si6 0.172273 0.923702 0.983827
Si Si7 0.673528 0.459903 0.921619
O O1 0.250000 0.346723 0.750000
O O2 0.500000 0.356836 0.678424
O O3 0.309927 0.256417 0.637569
O O4 0.261388 0.388626 0.600262
O O5 0.250000 0.120374 0.250000
O O6 0.235210 0.229639 0.155608
O O7 0.000000 0.153544 0.183410
O O8 0.225426 0.102762 0.100381
O O9 0.226487 0.740143 0.505243
O O10 0.185239 0.645552 0.605472
O O11 0.000000 0.754244 0.598057
O O12 0.211665 0.864975 0.050621
O O13 0.000000 0.773232 0.025428
O O14 0.750000 0.617255 0.750000
O O15 0.500000 0.587766 0.795846
O O16 0.713425 0.513075 0.851886
O O17 0.000000 0.935076 0.981196
O O18 0.248682 0.000000 0.000000
O O19 0.500000 0.442637 0.927535
O O20 0.726412 0.500000 0.000000
#
# Coordination Sequence:
#
# PCOD8218668 Si02
#       7
#     8   8   8   8   8   8   8
#     4  11  23  38  56  79 108 142 183 229 274 321
#     4  10  19  31  49  75 106 138 173 212 256 310
#     4  10  19  32  52  76 102 134 170 207 254 310
#     4   9  19  35  55  79 104 133 172 214 257 311
#     4  10  21  33  47  70  98 129 163 203 251 301
#     4   8  15  31  55  78 101 134 173 212 258 313
#     4  10  21  38  57  76 101 134 175 222 272 323
#
# _framework density 18.92991
#
# number of rings (size 3 to 8) (size 9 to 14) (size 15 to 20)
#    0.000    2.286    0.000    3.857    0.000    6.571 
#    0.000    0.714    0.000   10.714    0.000    0.000 
#    0.000    0.000    0.000    0.000    0.000    0.000 
#
# Total GULP energy -694056.848949 kJ/mol
# GULP energy per Si atom -12393.872303 kJ/mol
# Density = 1.888682 g / cm^3
# Si number density = 18.929910 Si / 1000 Ang^3
#
#
#
# Elastic Constant Matrix: (Units=GPa)
#
#
# Indices 1 2 3 4 5 6 
#
# 1 73.9775 38.2983 37.7428 0.0000 0.0000 0.0000
# 2 38.2983 115.6828 41.0267 0.0000 0.0000 0.0000
# 3 37.7428 41.0267 88.7359 0.0000 0.0000 0.0000
# 4 0.0000 0.0000 0.0000 12.1728 0.0000 0.0000
# 5 0.0000 0.0000 0.0000 0.0000 27.9036 0.0000
# 6 0.0000 0.0000 0.0000 0.0000 0.0000 23.0525
#
#
#
# Elastic Compliance Matrix: (Units=1/GPa)
#
#
# Indices 1 2 3 4 5 6 
#
# 1 0.018716 -0.004035 -0.006095 0.000000 0.000000 0.000000
# 2 -0.004035 0.011209 -0.003467 0.000000 0.000000 0.000000
# 3 -0.006095 -0.003467 0.015465 0.000000 0.000000 0.000000
# 4 0.000000 0.000000 0.000000 0.082150 0.000000 0.000000
# 5 0.000000 0.000000 0.000000 0.000000 0.035838 0.000000
# 6 0.000000 0.000000 0.000000 0.000000 0.000000 0.043379
#
#
# Mechanical properties :
#
#
# Convention : Reuss Voigt Hill
#
# Bulk Modulus (GPa) = 54.95298 56.94797 55.95047
# Shear Modulus (GPa) = 20.83193 23.38101 22.10647
#
# Velocity S-wave (km/s) = 3.32094 3.51826 3.42103
# Velocity P-wave (km/s) = 6.61798 6.83031 6.72498
#
# Compressibility (1/GPa) = 0.01819738
#
# Stress axis : x y z
#
# Youngs Moduli (GPa) = 53.42998 89.21061 64.66320
#
# Poissons Ratio (x) = 0.35992 0.39414
# Poissons Ratio (y) = 0.21556 0.22416
# Poissons Ratio (z) = 0.32567 0.30926
#
# Static dielectric constant tensor:
#      x y z
#    x 3.358880 0.000000 0.000000 
#    y 0.000000 3.795520 0.000000 
#    z 0.000000 0.000000 2.752850 
# 
# 
# High freq. dielectric constant tensor:
#      x y z
#    x 1.724630 0.000000 0.000000 
#    y 0.000000 1.733070 0.000000 
#    z 0.000000 0.000000 1.727840 
# 
# From -- ./inp_files/20530.got.cif
#   From: 2010.03.12/outbox.cif.g09.slc.cpg/sg53_11_cif.got.tgz:20530.got - 2010.04.16 14:36:59.
