data_PCOD8218934
_publ_section_title
;
Structure prediction by ZEFSAII (Michael W. Deem and Ramdas Pophale) SiO2 
 PCOD8218934
Probable space group: P M N A
;
_chemical_formula_sum "Si O2"
_cell_formula_units_Z 48
_cell_length_a 24.419721
_cell_length_b 10.984458
_cell_length_c 9.051402
_cell_angle_alpha 90.000000
_cell_angle_beta 90.000000
_cell_angle_gamma 90.000000
_cell_volume 2427.924536
_symmetry_space_group_name_H-M "P M N A"
_symmetry_group_IT_number 53
_symmetry_cell_setting 'orthorhombic'
loop_
_space_group_symop_operation_xyz
x,y,z
1/2-x,-y,1/2+z
x,-y,-z
1/2-x,y,1/2-z
-x,-y,-z
1/2+x,y,1/2-z
-x,y,z
1/2+x,-y,1/2+z
loop_
_atom_site_type_symbol
_atom_site_label
_atom_site_fract_x
_atom_site_fract_y
_atom_site_fract_z
Si Si1 0.879868 0.914217 0.815303
Si Si2 0.664501 0.765705 0.944706
Si Si3 0.189737 0.436329 0.225013
Si Si4 0.642835 0.306812 0.730839
Si Si5 0.789700 0.213951 0.018090
Si Si6 0.436854 0.151443 0.595206
O O1 0.874019 0.859463 0.649239
O O2 0.898229 0.054689 0.815283
O O3 0.821442 0.894257 0.896900
O O4 0.926327 0.849829 0.918286
O O5 0.667964 0.636242 0.865833
O O6 0.638332 0.738155 0.101634
O O7 0.726023 0.818156 0.963573
O O8 0.250000 0.492259 0.250000
O O9 0.149787 0.549749 0.205846
O O10 0.192686 0.344573 0.087382
O O11 0.691252 0.228104 0.651440
O O12 0.583626 0.280456 0.656930
O O13 0.500000 0.127199 0.629473
#
# Coordination Sequence:
#
# PCOD8218934 Si02
#       6
#     8   8   8   8   8   8
#     4   9  18  36  58  76  97 137 180 219 267 317
#     4  10  19  32  52  84 118 142 166 207 262 322
#     4   9  17  31  52  78 113 151 178 202 243 314
#     4  11  20  31  52  82 111 145 179 211 260 315
#     4   9  18  32  53  80 116 148 172 202 246 319
#     4  10  22  41  59  72  94 134 188 239 275 315
#
# _framework density 19.769971999999999
#
# number of rings (size 3 to 8) (size 9 to 14) (size 15 to 20)
#    0.000    2.333    0.000    5.000    0.000    3.333 
#    0.000   15.833    0.000   24.000    0.000    0.000 
#    0.000    0.000    0.000    0.000    0.000    0.000 
#
# Total GULP energy -594725.815608 kJ/mol
# GULP energy per Si atom -12390.121158 kJ/mol
# Density = 1.972497 g / cm^3
# Si number density = 19.769972 Si / 1000 Ang^3
#
#
#
# Elastic Constant Matrix: (Units=GPa)
#
#
# Indices 1 2 3 4 5 6 
#
# 1 95.8960 52.2341 17.8643 0.0000 0.0000 0.0000
# 2 52.2341 69.5290 22.4948 0.0000 0.0000 0.0000
# 3 17.8643 22.4948 111.8191 0.0000 0.0000 0.0000
# 4 0.0000 0.0000 0.0000 16.3258 0.0000 0.0000
# 5 0.0000 0.0000 0.0000 0.0000 17.2590 0.0000
# 6 0.0000 0.0000 0.0000 0.0000 0.0000 21.5325
#
#
#
# Elastic Compliance Matrix: (Units=1/GPa)
#
#
# Indices 1 2 3 4 5 6 
#
# 1 0.017654 -0.013210 -0.000163 0.000000 0.000000 0.000000
# 2 -0.013210 0.025268 -0.002973 0.000000 0.000000 0.000000
# 3 -0.000163 -0.002973 0.009567 0.000000 0.000000 0.000000
# 4 0.000000 0.000000 0.000000 0.061253 0.000000 0.000000
# 5 0.000000 0.000000 0.000000 0.000000 0.057941 0.000000
# 6 0.000000 0.000000 0.000000 0.000000 0.000000 0.046441
#
#
# Mechanical properties :
#
#
# Convention : Reuss Voigt Hill
#
# Bulk Modulus (GPa) = 50.51033 51.38118 50.94575
# Shear Modulus (GPa) = 19.42395 23.33350 21.37873
#
# Velocity S-wave (km/s) = 3.13788 3.43920 3.29199
# Velocity P-wave (km/s) = 6.22357 6.46659 6.34624
#
# Compressibility (1/GPa) = 0.01979793
#
# Stress axis : x y z
#
# Youngs Moduli (GPa) = 56.64588 39.57555 104.52491
#
# Poissons Ratio (x) = 0.52278 0.01703
# Poissons Ratio (y) = 0.74827 0.31074
# Poissons Ratio (z) = 0.00923 0.11765
#
# Static dielectric constant tensor:
#      x y z
#    x 3.333230 0.000000 0.000000 
#    y 0.000000 3.518820 0.000000 
#    z 0.000000 0.000000 3.748580 
# 
# 
# High freq. dielectric constant tensor:
#      x y z
#    x 1.729610 0.000000 0.000000 
#    y 0.000000 1.764910 0.000000 
#    z 0.000000 0.000000 1.777330 
# 
# From -- ./inp_files/11790.got.cif
#   From: 2010.03.12/outbox.cif.g09.slc.cpg/sg53_6_cif.got.tgz:11790.got - 2010.04.16 14:36:59.
