data_PCOD8218097
_publ_section_title
;
Structure prediction by ZEFSAII (Michael W. Deem and Ramdas Pophale) SiO2 
 PCOD8218097
Probable space group: P M N A
;
_chemical_formula_sum "Si O2"
_cell_formula_units_Z 64
_cell_length_a 8.764814
_cell_length_b 20.814452
_cell_length_c 19.657363
_cell_angle_alpha 90.000000
_cell_angle_beta 90.000000
_cell_angle_gamma 90.000000
_cell_volume 3586.187093
_symmetry_space_group_name_H-M "P M N A"
_symmetry_group_IT_number 53
_symmetry_cell_setting 'orthorhombic'
loop_
_space_group_symop_operation_xyz
x,y,z
1/2-x,-y,1/2+z
x,-y,-z
1/2-x,y,1/2-z
-x,-y,-z
1/2+x,y,1/2-z
-x,y,z
1/2+x,-y,1/2+z
loop_
_atom_site_type_symbol
_atom_site_label
_atom_site_fract_x
_atom_site_fract_y
_atom_site_fract_z
Si Si1 0.318787 0.375700 0.318814
Si Si2 0.179126 0.678934 0.958895
Si Si3 0.820302 0.980422 0.319960
Si Si4 0.679187 0.178507 0.452887
Si Si5 0.319663 0.561170 0.453638
Si Si6 0.320590 0.127227 0.180318
Si Si7 0.681199 0.484256 0.819518
Si Si8 0.180019 0.939466 0.044383
O O1 0.250000 0.344987 0.250000
O O2 0.500000 0.380935 0.312501
O O3 0.264237 0.331851 0.381619
O O4 0.251778 0.445911 0.331285
O O5 0.223548 0.751095 0.981907
O O6 0.000000 0.668587 0.959317
O O7 0.245703 0.625385 0.009806
O O8 0.750000 0.953212 0.250000
O O9 0.759233 0.938511 0.382451
O O10 0.000000 0.974055 0.315652
O O11 0.766543 0.053815 0.331175
O O12 0.500000 0.172470 0.438881
O O13 0.762919 0.169800 0.381609
O O14 0.733095 0.125556 0.507058
O O15 0.277841 0.500000 0.500000
O O16 0.500000 0.563628 0.439683
O O17 0.230946 0.559722 0.382501
O O18 0.250000 0.154485 0.250000
O O19 0.500000 0.132100 0.185890
O O20 0.750000 0.454337 0.750000
O O21 0.500000 0.488400 0.813973
O O22 0.000000 0.942576 0.055142
O O23 0.237307 0.000000 0.000000
#
# Coordination Sequence:
#
# PCOD8218097 Si02
#       8
#     8   8   8   8   8   8   8   8
#     4  10  18  32  50  73 103 139 177 210 252 302
#     4   9  19  34  53  75 103 140 175 208 256 309
#     4  10  20  33  53  78 106 135 172 218 263 308
#     4  10  20  35  53  75 106 140 175 212 254 309
#     4  10  18  34  57  78 103 136 172 212 259 307
#     4  10  20  33  50  74 104 140 177 215 256 304
#     4  11  21  33  52  80 108 135 171 214 262 305
#     4  10  19  32  53  79 105 137 173 213 258 304
#
# _framework density 17.846253000000001
#
# number of rings (size 3 to 8) (size 9 to 14) (size 15 to 20)
#    0.000    2.000    2.500    3.000    0.000    2.500 
#    0.000    3.125    0.000    0.750    0.000    0.000 
#    0.000    0.000    0.000    0.000    0.000    0.000 
#
# Total GULP energy -793646.375683 kJ/mol
# GULP energy per Si atom -12400.724620 kJ/mol
# Density = 1.780563 g / cm^3
# Si number density = 17.846253 Si / 1000 Ang^3
#
#
#
# Elastic Constant Matrix: (Units=GPa)
#
#
# Indices 1 2 3 4 5 6 
#
# 1 64.5537 28.3068 41.5339 0.0000 0.0000 0.0000
# 2 28.3068 104.8529 63.2684 0.0000 0.0000 0.0000
# 3 41.5339 63.2684 139.5928 0.0000 0.0000 0.0000
# 4 0.0000 0.0000 0.0000 24.2841 0.0000 0.0000
# 5 0.0000 0.0000 0.0000 0.0000 34.7106 0.0000
# 6 0.0000 0.0000 0.0000 0.0000 0.0000 10.3943
#
#
#
# Elastic Compliance Matrix: (Units=1/GPa)
#
#
# Indices 1 2 3 4 5 6 
#
# 1 0.019602 -0.002440 -0.004726 0.000000 0.000000 0.000000
# 2 -0.002440 0.013431 -0.005361 0.000000 0.000000 0.000000
# 3 -0.004726 -0.005361 0.011000 0.000000 0.000000 0.000000
# 4 0.000000 0.000000 0.000000 0.041179 0.000000 0.000000
# 5 0.000000 0.000000 0.000000 0.000000 0.028810 0.000000
# 6 0.000000 0.000000 0.000000 0.000000 0.000000 0.096206
#
#
# Mechanical properties :
#
#
# Convention : Reuss Voigt Hill
#
# Bulk Modulus (GPa) = 52.69462 63.91306 58.30384
# Shear Modulus (GPa) = 20.69458 25.60383 23.14920
#
# Velocity S-wave (km/s) = 3.40899 3.79184 3.60550
# Velocity P-wave (km/s) = 6.71461 7.42035 7.07629
#
# Compressibility (1/GPa) = 0.01897727
#
# Stress axis : x y z
#
# Youngs Moduli (GPa) = 51.01559 74.45489 90.90960
#
# Poissons Ratio (x) = 0.18167 0.42967
# Poissons Ratio (y) = 0.12447 0.48740
# Poissons Ratio (z) = 0.24112 0.39918
#
# Static dielectric constant tensor:
#      x y z
#    x 3.150640 0.000000 0.000000 
#    y 0.000000 3.245480 0.000000 
#    z 0.000000 0.000000 3.550180 
# 
# 
# High freq. dielectric constant tensor:
#      x y z
#    x 1.682840 0.000000 0.000000 
#    y 0.000000 1.664750 0.000000 
#    z 0.000000 0.000000 1.697450 
# 
# From -- ./inp_files/31154.got.cif
#   From: 2010.03.12/outbox.cif.g09.slc.cpg/sg53_16_cif.got.tgz:31154.got - 2010.04.16 14:36:59.
