data_PCOD8218472
_publ_section_title
;
Structure prediction by ZEFSAII (Michael W. Deem and Ramdas Pophale) SiO2 
 PCOD8218472
Probable space group: P M N A
;
_chemical_formula_sum "Si O2"
_cell_formula_units_Z 48
_cell_length_a 18.544264
_cell_length_b 27.168031
_cell_length_c 5.084338
_cell_angle_alpha 90.000000
_cell_angle_beta 90.000000
_cell_angle_gamma 90.000000
_cell_volume 2561.546120
_symmetry_space_group_name_H-M "P M N A"
_symmetry_group_IT_number 53
_symmetry_cell_setting 'orthorhombic'
loop_
_space_group_symop_operation_xyz
x,y,z
1/2-x,-y,1/2+z
x,-y,-z
1/2-x,y,1/2-z
-x,-y,-z
1/2+x,y,1/2-z
-x,y,z
1/2+x,-y,1/2+z
loop_
_atom_site_type_symbol
_atom_site_label
_atom_site_fract_x
_atom_site_fract_y
_atom_site_fract_z
Si Si1 0.082293 0.868219 0.238160
Si Si2 0.699906 0.447385 0.506548
Si Si3 0.335271 0.650868 0.280264
Si Si4 0.336019 0.706341 0.772994
Si Si5 0.164936 0.969373 0.248723
Si Si6 0.082346 0.804876 0.747928
O O1 0.130324 0.916227 0.233581
O O2 0.090280 0.845462 0.524568
O O3 0.000000 0.882783 0.174704
O O4 0.109457 0.829211 0.019751
O O5 0.656989 0.500000 0.500000
O O6 0.750000 0.433452 0.250000
O O7 0.645928 0.403139 0.596302
O O8 0.750000 0.458101 0.750000
O O9 0.250000 0.653154 0.250000
O O10 0.366431 0.689530 0.490764
O O11 0.364655 0.666930 0.993569
O O12 0.250000 0.708978 0.750000
O O13 0.367158 0.759727 0.834544
O O14 0.250000 0.961499 0.250000
O O15 0.138275 0.000000 0.500000
O O16 0.138449 0.000000 0.000000
O O17 0.000000 0.786251 0.773348
#
# Coordination Sequence:
#
# PCOD8218472 Si02
#       6
#     8   8   8   8   8   8
#     4  10  21  36  54  74  97 127 160 196 236 277
#     4   9  15  23  37  58  88 126 158 187 234 290
#     4   9  16  27  41  63  93 121 154 195 234 280
#     4  10  19  30  47  68  92 123 157 193 237 283
#     4  10  21  36  54  78 105 130 157 192 233 277
#     4  10  21  36  51  71  98 125 159 201 239 278
#
# _framework density 18.738681
#
# number of rings (size 3 to 8) (size 9 to 14) (size 15 to 20)
#    0.000    2.333    0.000    4.500    0.000    2.000 
#    0.000    0.000    0.000    0.000    0.000    0.000 
#    0.000    4.000    0.000    0.000    0.000   28.333 
#
# Total GULP energy -594679.221968 kJ/mol
# GULP energy per Si atom -12389.150458 kJ/mol
# Density = 1.869603 g / cm^3
# Si number density = 18.738681 Si / 1000 Ang^3
#
#
#
# Elastic Constant Matrix: (Units=GPa)
#
#
# Indices 1 2 3 4 5 6 
#
# 1 21.6011 31.8523 20.9921 0.0000 0.0000 0.0000
# 2 31.8523 128.1056 37.5597 0.0000 0.0000 0.0000
# 3 20.9921 37.5597 120.3736 0.0000 0.0000 0.0000
# 4 0.0000 0.0000 0.0000 34.1128 0.0000 0.0000
# 5 0.0000 0.0000 0.0000 0.0000 56.4279 0.0000
# 6 0.0000 0.0000 0.0000 0.0000 0.0000 -11.7132
#
#
#
# Elastic Compliance Matrix: (Units=1/GPa)
#
#
# Indices 1 2 3 4 5 6 
#
# 1 0.080389 -0.017476 -0.008566 0.000000 0.000000 0.000000
# 2 -0.017476 0.012391 -0.000819 0.000000 0.000000 0.000000
# 3 -0.008566 -0.000819 0.010057 0.000000 0.000000 0.000000
# 4 0.000000 0.000000 0.000000 0.029315 0.000000 0.000000
# 5 0.000000 0.000000 0.000000 0.000000 0.017722 0.000000
# 6 0.000000 0.000000 0.000000 0.000000 0.000000 -0.085374
#
#
# Mechanical properties :
#
#
# Convention : Reuss Voigt Hill
#
# Bulk Modulus (GPa) = 20.36053 50.09873 35.22963
# Shear Modulus (GPa) = 37.14901 27.74390 32.44646
#
# Velocity S-wave (km/s) = 4.45733 3.85199 4.16567
# Velocity P-wave (km/s) = 6.11388 6.82475 6.47907
#
# Compressibility (1/GPa) = 0.04911464
#
# Stress axis : x y z
#
# Youngs Moduli (GPa) = 12.43955 80.70070 99.43553
#
# Poissons Ratio (x) = 1.41036 0.85176
# Poissons Ratio (y) = 0.21740 0.08141
# Poissons Ratio (z) = 0.10656 0.06607
#
# Static dielectric constant tensor:
#      x y z
#    x 2.949960 0.000000 0.000000 
#    y 0.000000 3.688160 0.000000 
#    z 0.000000 0.000000 3.797910 
# 
# 
# High freq. dielectric constant tensor:
#      x y z
#    x 1.660040 0.000000 0.000000 
#    y 0.000000 1.743370 0.000000 
#    z 0.000000 0.000000 1.757290 
# 
# From -- ./inp_files/2232.got.cif
#   From: 2010.03.12/outbox.cif.g09.slc.cpg/sg53_2_cif.got.tgz:2232.got - 2010.04.16 14:36:59.
