data_PCOD8218378
_publ_section_title
;
Structure prediction by ZEFSAII (Michael W. Deem and Ramdas Pophale) SiO2 
 PCOD8218378
Probable space group: P M N A
;
_chemical_formula_sum "Si O2"
_cell_formula_units_Z 64
_cell_length_a 8.909066
_cell_length_b 13.727707
_cell_length_c 29.482894
_cell_angle_alpha 90.000000
_cell_angle_beta 90.000000
_cell_angle_gamma 90.000000
_cell_volume 3605.788825
_symmetry_space_group_name_H-M "P M N A"
_symmetry_group_IT_number 53
_symmetry_cell_setting 'orthorhombic'
loop_
_space_group_symop_operation_xyz
x,y,z
1/2-x,-y,1/2+z
x,-y,-z
1/2-x,y,1/2-z
-x,-y,-z
1/2+x,y,1/2-z
-x,y,z
1/2+x,-y,1/2+z
loop_
_atom_site_type_symbol
_atom_site_label
_atom_site_fract_x
_atom_site_fract_y
_atom_site_fract_z
Si Si1 0.169784 0.026464 0.940061
Si Si2 0.330238 0.816754 0.007871
Si Si3 0.174759 0.285382 0.073555
Si Si4 0.821283 0.991856 0.798138
Si Si5 0.822658 0.876722 0.621440
Si Si6 0.834563 0.319430 0.594284
Si Si7 0.333407 0.168756 0.645191
Si Si8 0.326051 0.497817 0.550720
O O1 0.246134 0.079542 0.983643
O O2 0.166075 0.101979 0.899094
O O3 0.000000 0.993426 0.952060
O O4 0.268472 0.933478 0.924244
O O5 0.500000 0.834482 0.989264
O O6 0.338237 0.758152 0.054301
O O7 0.231786 0.751499 0.974831
O O8 0.270431 0.234795 0.113780
O O9 0.202907 0.400633 0.076197
O O10 0.000000 0.259759 0.078991
O O11 0.750000 0.968177 0.750000
O O12 0.774209 0.101309 0.813408
O O13 0.000000 0.980626 0.796811
O O14 0.756862 0.914210 0.833499
O O15 0.000000 0.886056 0.627013
O O16 0.767087 0.264714 0.638398
O O17 0.742486 0.414641 0.581814
O O18 0.000000 0.354581 0.607310
O O19 0.500000 0.206282 0.655812
O O20 0.254054 0.500000 0.500000
O O21 0.500000 0.473255 0.545607
#
# Coordination Sequence:
#
# PCOD8218378 Si02
#       8
#     8   8   8   8   8   8   8   8
#     4   9  17  31  49  68  94 131 172 210 250 301
#     4  10  19  30  45  69  97 130 171 215 261 304
#     4  11  22  35  50  68  95 133 178 222 260 305
#     4  10  20  36  59  86 111 138 167 202 248 304
#     4  11  22  36  52  73 103 134 167 211 258 308
#     4  10  19  29  47  72 101 133 169 216 263 303
#     4   8  16  30  49  73 103 134 165 200 244 301
#     4  10  20  34  51  70  94 133 181 224 265 307
#
# _framework density 17.749236
#
# number of rings (size 3 to 8) (size 9 to 14) (size 15 to 20)
#    0.000    2.125    1.250    3.750    0.000    6.250 
#    0.000    2.500    0.000    0.000    0.000    0.875 
#    0.000    4.000    0.000    0.000    0.000    0.000 
#
# Total GULP energy -793585.484415 kJ/mol
# GULP energy per Si atom -12399.773194 kJ/mol
# Density = 1.770884 g / cm^3
# Si number density = 17.749236 Si / 1000 Ang^3
#
#
#
# Elastic Constant Matrix: (Units=GPa)
#
#
# Indices 1 2 3 4 5 6 
#
# 1 104.0654 56.2184 27.1203 0.0000 0.0000 0.0000
# 2 56.2184 88.4078 18.7402 0.0000 0.0000 0.0000
# 3 27.1203 18.7402 58.2280 0.0000 0.0000 0.0000
# 4 0.0000 0.0000 0.0000 15.0283 0.0000 0.0000
# 5 0.0000 0.0000 0.0000 0.0000 21.7350 0.0000
# 6 0.0000 0.0000 0.0000 0.0000 0.0000 25.8289
#
#
#
# Elastic Compliance Matrix: (Units=1/GPa)
#
#
# Indices 1 2 3 4 5 6 
#
# 1 0.015611 -0.009000 -0.004375 0.000000 0.000000 0.000000
# 2 -0.009000 0.017328 -0.001385 0.000000 0.000000 0.000000
# 3 -0.004375 -0.001385 0.019657 0.000000 0.000000 0.000000
# 4 0.000000 0.000000 0.000000 0.066541 0.000000 0.000000
# 5 0.000000 0.000000 0.000000 0.000000 0.046009 0.000000
# 6 0.000000 0.000000 0.000000 0.000000 0.000000 0.038716
#
#
# Mechanical properties :
#
#
# Convention : Reuss Voigt Hill
#
# Bulk Modulus (GPa) = 43.33270 50.53988 46.93629
# Shear Modulus (GPa) = 20.74053 22.42662 21.58358
#
# Velocity S-wave (km/s) = 3.42209 3.55847 3.49094
# Velocity P-wave (km/s) = 6.33096 6.73942 6.53838
#
# Compressibility (1/GPa) = 0.02307726
#
# Stress axis : x y z
#
# Youngs Moduli (GPa) = 64.05590 57.71048 50.87217
#
# Poissons Ratio (x) = 0.51939 0.22254
# Poissons Ratio (y) = 0.57650 0.07046
# Poissons Ratio (z) = 0.28022 0.07993
#
# Static dielectric constant tensor:
#      x y z
#    x 3.486890 0.000000 0.000000 
#    y 0.000000 3.304580 0.000000 
#    z 0.000000 0.000000 3.059460 
# 
# 
# High freq. dielectric constant tensor:
#      x y z
#    x 1.700100 0.000000 0.000000 
#    y 0.000000 1.680880 0.000000 
#    z 0.000000 0.000000 1.647910 
# 
# From -- ./inp_files/38453.got.cif
#   From: 2010.03.12/outbox.cif.g09.slc.cpg/sg53_20_cif.got.tgz:38453.got - 2010.04.16 14:36:59.
