data_PCOD8218884
_publ_section_title
;
Structure prediction by ZEFSAII (Michael W. Deem and Ramdas Pophale) SiO2 
 PCOD8218884
Probable space group: P M N A
;
_chemical_formula_sum "Si O2"
_cell_formula_units_Z 56
_cell_length_a 9.133063
_cell_length_b 18.968291
_cell_length_c 18.409153
_cell_angle_alpha 90.000000
_cell_angle_beta 90.000000
_cell_angle_gamma 90.000000
_cell_volume 3189.175832
_symmetry_space_group_name_H-M "P M N A"
_symmetry_group_IT_number 53
_symmetry_cell_setting 'orthorhombic'
loop_
_space_group_symop_operation_xyz
x,y,z
1/2-x,-y,1/2+z
x,-y,-z
1/2-x,y,1/2-z
-x,-y,-z
1/2+x,y,1/2-z
-x,y,z
1/2+x,-y,1/2+z
loop_
_atom_site_type_symbol
_atom_site_label
_atom_site_fract_x
_atom_site_fract_y
_atom_site_fract_z
Si Si1 0.831869 0.708024 0.984720
Si Si2 0.329570 0.969221 0.673517
Si Si3 0.673135 0.576496 0.022393
Si Si4 0.837340 0.757492 0.382124
Si Si5 0.168737 0.141606 0.053751
Si Si6 0.836445 0.382669 0.682100
Si Si7 0.668255 0.909482 0.088047
O O1 0.739172 0.636895 0.968997
O O2 0.792468 0.737537 0.063857
O O3 0.000000 0.685744 0.981408
O O4 0.797368 0.774914 0.932057
O O5 0.250000 0.963181 0.750000
O O6 0.500000 0.984282 0.687262
O O7 0.303621 0.896693 0.630158
O O8 0.265668 0.031788 0.625231
O O9 0.500000 0.580848 0.014989
O O10 0.726262 0.590379 0.104973
O O11 0.733113 0.500000 0.000000
O O12 0.827748 0.703219 0.314690
O O13 0.820533 0.839518 0.360728
O O14 0.000000 0.746685 0.418614
O O15 0.000000 0.132313 0.028194
O O16 0.272785 0.107600 0.992560
O O17 0.750000 0.415013 0.750000
O O18 0.000000 0.410829 0.690951
O O19 0.500000 0.934889 0.081490
#
# Coordination Sequence:
#
# PCOD8218884 Si02
#       7
#     8   8   8   8   8   8   8
#     4   9  16  28  49  75  96 116 150 194 238 281
#     4  11  23  37  50  67  96 131 168 211 260 305
#     4   9  18  33  51  71  98 130 160 192 234 284
#     4   8  16  30  45  65  95 127 156 186 225 280
#     4   9  19  35  53  72  97 129 162 203 253 299
#     4   9  17  29  45  66  93 125 157 187 224 274
#     4  10  19  32  52  76  99 126 165 207 245 294
#
# _framework density 17.559396
#
# number of rings (size 3 to 8) (size 9 to 14) (size 15 to 20)
#    0.000    2.714    0.000    2.571    0.000    7.143 
#    0.000    1.429    0.000    0.857    0.000    6.000 
#    0.000    0.000    0.000    0.000    0.000    0.000 
#
# Total GULP energy -693852.578845 kJ/mol
# GULP energy per Si atom -12390.224622 kJ/mol
# Density = 1.751943 g / cm^3
# Si number density = 17.559396 Si / 1000 Ang^3
#
#
#
# Elastic Constant Matrix: (Units=GPa)
#
#
# Indices 1 2 3 4 5 6 
#
# 1 75.2619 48.7117 33.5968 0.0000 0.0000 0.0000
# 2 48.7117 134.0868 42.1532 0.0000 0.0000 0.0000
# 3 33.5968 42.1532 56.5408 0.0000 0.0000 0.0000
# 4 0.0000 0.0000 0.0000 13.6076 0.0000 0.0000
# 5 0.0000 0.0000 0.0000 0.0000 22.8650 0.0000
# 6 0.0000 0.0000 0.0000 0.0000 0.0000 25.3235
#
#
#
# Elastic Compliance Matrix: (Units=1/GPa)
#
#
# Indices 1 2 3 4 5 6 
#
# 1 0.020063 -0.004625 -0.008474 0.000000 0.000000 0.000000
# 2 -0.004625 0.010807 -0.005309 0.000000 0.000000 0.000000
# 3 -0.008474 -0.005309 0.026679 0.000000 0.000000 0.000000
# 4 0.000000 0.000000 0.000000 0.073489 0.000000 0.000000
# 5 0.000000 0.000000 0.000000 0.000000 0.043735 0.000000
# 6 0.000000 0.000000 0.000000 0.000000 0.000000 0.039489
#
#
# Mechanical properties :
#
#
# Convention : Reuss Voigt Hill
#
# Bulk Modulus (GPa) = 48.22823 57.20146 52.71484
# Shear Modulus (GPa) = 19.38079 21.78772 20.58425
#
# Velocity S-wave (km/s) = 3.32584 3.52632 3.42755
# Velocity P-wave (km/s) = 6.50182 7.01617 6.76389
#
# Compressibility (1/GPa) = 0.02073475
#
# Stress axis : x y z
#
# Youngs Moduli (GPa) = 49.84369 92.53341 37.48213
#
# Poissons Ratio (x) = 0.42793 0.31761
# Poissons Ratio (y) = 0.23051 0.19899
# Poissons Ratio (z) = 0.42235 0.49126
#
# Static dielectric constant tensor:
#      x y z
#    x 3.335930 0.000000 0.000000 
#    y 0.000000 3.588010 0.000000 
#    z 0.000000 0.000000 2.969120 
# 
# 
# High freq. dielectric constant tensor:
#      x y z
#    x 1.686330 0.000000 0.000000 
#    y 0.000000 1.682310 0.000000 
#    z 0.000000 0.000000 1.632940 
# 
# From -- ./inp_files/30987.got.cif
#   From: 2010.03.12/outbox.cif.g09.slc.cpg/sg53_16_cif.got.tgz:30987.got - 2010.04.16 14:36:59.
