data_PCOD8218106
_publ_section_title
;
Structure prediction by ZEFSAII (Michael W. Deem and Ramdas Pophale) SiO2 
 PCOD8218106
Probable space group: P M N A
;
_chemical_formula_sum "Si O2"
_cell_formula_units_Z 64
_cell_length_a 9.329320
_cell_length_b 9.923936
_cell_length_c 37.441975
_cell_angle_alpha 90.000000
_cell_angle_beta 90.000000
_cell_angle_gamma 90.000000
_cell_volume 3466.511886
_symmetry_space_group_name_H-M "P M N A"
_symmetry_group_IT_number 53
_symmetry_cell_setting 'orthorhombic'
loop_
_space_group_symop_operation_xyz
x,y,z
1/2-x,-y,1/2+z
x,-y,-z
1/2-x,y,1/2-z
-x,-y,-z
1/2+x,y,1/2-z
-x,y,z
1/2+x,-y,1/2+z
loop_
_atom_site_type_symbol
_atom_site_label
_atom_site_fract_x
_atom_site_fract_y
_atom_site_fract_z
Si Si1 0.831171 0.251318 0.326851
Si Si2 0.661826 0.504353 0.783283
Si Si3 0.170292 0.662021 0.596038
Si Si4 0.170127 0.018395 0.712576
Si Si5 0.335298 0.161152 0.539456
Si Si6 0.829039 0.351575 0.590787
Si Si7 0.664853 0.144202 0.455985
Si Si8 0.662370 0.740911 0.165867
O O1 0.769976 0.356352 0.297640
O O2 0.769178 0.281580 0.366198
O O3 0.000000 0.275087 0.328646
O O4 0.789501 0.104002 0.313509
O O5 0.750000 0.448143 0.750000
O O6 0.500000 0.522792 0.769885
O O7 0.671048 0.403283 0.816014
O O8 0.219868 0.507556 0.590497
O O9 0.235287 0.754361 0.565339
O O10 0.000000 0.674269 0.593989
O O11 0.250000 0.003759 0.750000
O O12 0.234746 0.147298 0.691378
O O13 0.000000 0.027725 0.720133
O O14 0.500000 0.190092 0.549301
O O15 0.236386 0.273832 0.557343
O O16 0.310828 0.174038 0.497445
O O17 0.292435 0.010832 0.552470
O O18 0.768987 0.277245 0.626610
O O19 0.000000 0.343547 0.589335
O O20 0.500000 0.169003 0.445452
O O21 0.500000 0.789779 0.160775
#
# Coordination Sequence:
#
# PCOD8218106 Si02
#       8
#     8   8   8   8   8   8   8   8
#     4   9  18  33  52  74 102 137 173 213 263 317
#     4  10  18  32  52  72  99 134 171 211 258 309
#     4  10  20  35  56  83 112 142 181 226 268 315
#     4  10  20  34  52  74 101 134 175 219 266 317
#     4   9  20  39  59  80 110 146 180 217 266 321
#     4  10  20  35  56  83 112 142 181 226 268 315
#     4   9  20  39  59  80 110 146 180 217 266 321
#     4   9  18  33  52  74 102 137 173 213 263 317
#
# _framework density 18.462363
#
# number of rings (size 3 to 8) (size 9 to 14) (size 15 to 20)
#    0.000    2.500    1.250    1.500    1.750    2.000 
#    0.000    6.250    0.000    0.000    0.000    0.000 
#    0.000    0.000    0.000    0.000    0.000    0.000 
#
# Total GULP energy -793414.305800 kJ/mol
# GULP energy per Si atom -12397.098528 kJ/mol
# Density = 1.842034 g / cm^3
# Si number density = 18.462363 Si / 1000 Ang^3
#
#
#
# Elastic Constant Matrix: (Units=GPa)
#
#
# Indices 1 2 3 4 5 6 
#
# 1 35.9062 36.4696 35.3165 0.0000 0.0000 0.0000
# 2 36.4696 124.4342 57.0205 0.0000 0.0000 0.0000
# 3 35.3165 57.0205 97.6785 0.0000 0.0000 0.0000
# 4 0.0000 0.0000 0.0000 33.4783 0.0000 0.0000
# 5 0.0000 0.0000 0.0000 0.0000 25.3577 0.0000
# 6 0.0000 0.0000 0.0000 0.0000 0.0000 23.7621
#
#
#
# Elastic Compliance Matrix: (Units=1/GPa)
#
#
# Indices 1 2 3 4 5 6 
#
# 1 0.049068 -0.008534 -0.012759 0.000000 0.000000 0.000000
# 2 -0.008534 0.012456 -0.004185 0.000000 0.000000 0.000000
# 3 -0.012759 -0.004185 0.017294 0.000000 0.000000 0.000000
# 4 0.000000 0.000000 0.000000 0.029870 0.000000 0.000000
# 5 0.000000 0.000000 0.000000 0.000000 0.039436 0.000000
# 6 0.000000 0.000000 0.000000 0.000000 0.000000 0.042084
#
#
# Mechanical properties :
#
#
# Convention : Reuss Voigt Hill
#
# Bulk Modulus (GPa) = 35.89342 57.29247 46.59294
# Shear Modulus (GPa) = 19.96393 25.13376 22.54884
#
# Velocity S-wave (km/s) = 3.29193 3.69365 3.49856
# Velocity P-wave (km/s) = 5.82517 7.02070 6.45069
#
# Compressibility (1/GPa) = 0.02786026
#
# Stress axis : x y z
#
# Youngs Moduli (GPa) = 20.37979 80.28559 57.82354
#
# Poissons Ratio (x) = 0.68519 0.73777
# Poissons Ratio (y) = 0.17393 0.24201
# Poissons Ratio (z) = 0.26003 0.33602
#
# Static dielectric constant tensor:
#      x y z
#    x 3.062830 0.000000 0.000000 
#    y 0.000000 3.516410 0.000000 
#    z 0.000000 0.000000 3.418870 
# 
# 
# High freq. dielectric constant tensor:
#      x y z
#    x 1.677810 0.000000 0.000000 
#    y 0.000000 1.730040 0.000000 
#    z 0.000000 0.000000 1.724810 
# 
# From -- ./inp_files/38735.got.cif
#   From: 2010.03.12/outbox.cif.g09.slc.cpg/sg53_20_cif.got.tgz:38735.got - 2010.04.16 14:36:59.
