data_PCOD8218181
_publ_section_title
;
Structure prediction by ZEFSAII (Michael W. Deem and Ramdas Pophale) SiO2 
 PCOD8218181
Probable space group: P M N A
;
_chemical_formula_sum "Si O2"
_cell_formula_units_Z 48
_cell_length_a 16.770915
_cell_length_b 9.685273
_cell_length_c 14.801845
_cell_angle_alpha 90.000000
_cell_angle_beta 90.000000
_cell_angle_gamma 90.000000
_cell_volume 2404.276860
_symmetry_space_group_name_H-M "P M N A"
_symmetry_group_IT_number 53
_symmetry_cell_setting 'orthorhombic'
loop_
_space_group_symop_operation_xyz
x,y,z
1/2-x,-y,1/2+z
x,-y,-z
1/2-x,y,1/2-z
-x,-y,-z
1/2+x,y,1/2-z
-x,y,z
1/2+x,-y,1/2+z
loop_
_atom_site_type_symbol
_atom_site_label
_atom_site_fract_x
_atom_site_fract_y
_atom_site_fract_z
Si Si1 0.592735 0.966129 0.286843
Si Si2 0.179574 0.251362 0.678691
Si Si3 0.345666 0.269198 0.249378
Si Si4 0.163483 0.612077 0.934077
Si Si5 0.156177 0.470571 0.401871
Si Si6 0.200135 0.866164 0.050193
O O1 0.500000 0.966321 0.308084
O O2 0.612859 0.858420 0.207463
O O3 0.636991 0.913984 0.375700
O O4 0.619577 0.116504 0.254597
O O5 0.250000 0.266307 0.750000
O O6 0.138771 0.398471 0.662240
O O7 0.219609 0.203671 0.585792
O O8 0.250000 0.258659 0.250000
O O9 0.375645 0.362173 0.335142
O O10 0.376550 0.339046 0.155406
O O11 0.250286 0.549209 0.917108
O O12 0.118637 0.500000 0.000000
O O13 0.159133 0.760430 0.981691
O O14 0.114752 0.500000 0.500000
O O15 0.231569 0.000000 0.000000
#
# Coordination Sequence:
#
# PCOD8218181 Si02
#       6
#     8   8   8   8   8   8
#     4  11  25  40  55  83 127 171 201 239 298 370
#     4  10  20  35  60  88 116 150 197 247 299 351
#     4  10  20  36  60  88 119 154 203 251 299 358
#     4  10  18  32  57  97 123 144 186 253 313 355
#     4  10  19  33  59  94 115 144 191 262 309 347
#     4  11  20  35  62  94 119 151 200 253 305 365
#
# _framework density 19.964423
#
# number of rings (size 3 to 8) (size 9 to 14) (size 15 to 20)
#    0.000    1.667    5.000    3.000    4.667    0.333 
#    0.000    0.833    0.000    6.500    0.000    0.000 
#    0.000    0.000    0.000    0.000    0.000    0.000 
#
# Total GULP energy -594869.153723 kJ/mol
# GULP energy per Si atom -12393.107369 kJ/mol
# Density = 1.991898 g / cm^3
# Si number density = 19.964423 Si / 1000 Ang^3
#
#
#
# Elastic Constant Matrix: (Units=GPa)
#
#
# Indices 1 2 3 4 5 6 
#
# 1 32.9093 4.0573 2.2301 0.0000 0.0000 0.0000
# 2 4.0573 127.8049 38.6256 0.0000 0.0000 0.0000
# 3 2.2301 38.6256 97.1171 0.0000 0.0000 0.0000
# 4 0.0000 0.0000 0.0000 46.0326 0.0000 0.0000
# 5 0.0000 0.0000 0.0000 0.0000 17.8157 0.0000
# 6 0.0000 0.0000 0.0000 0.0000 0.0000 1.0005
#
#
#
# Elastic Compliance Matrix: (Units=1/GPa)
#
#
# Indices 1 2 3 4 5 6 
#
# 1 0.030517 -0.000860 -0.000359 0.000000 0.000000 0.000000
# 2 -0.000860 0.008918 -0.003527 0.000000 0.000000 0.000000
# 3 -0.000359 -0.003527 0.011708 0.000000 0.000000 0.000000
# 4 0.000000 0.000000 0.000000 0.021724 0.000000 0.000000
# 5 0.000000 0.000000 0.000000 0.000000 0.056130 0.000000
# 6 0.000000 0.000000 0.000000 0.000000 0.000000 0.999542
#
#
# Mechanical properties :
#
#
# Convention : Reuss Voigt Hill
#
# Bulk Modulus (GPa) = 24.00933 38.62859 31.31896
# Shear Modulus (GPa) = 4.34060 27.16430 15.75245
#
# Velocity S-wave (km/s) = 1.47611 3.69268 2.81201
# Velocity P-wave (km/s) = 3.86747 6.12959 5.12490
#
# Compressibility (1/GPa) = 0.04165047
#
# Stress axis : x y z
#
# Youngs Moduli (GPa) = 32.76873 112.13671 85.41280
#
# Poissons Ratio (x) = 0.09649 0.03063
# Poissons Ratio (y) = 0.02820 0.30125
# Poissons Ratio (z) = 0.01175 0.39551
#
# Static dielectric constant tensor:
#      x y z
#    x 2.993260 0.000000 0.000000 
#    y 0.000000 3.889490 0.000000 
#    z 0.000000 0.000000 4.122070 
# 
# 
# High freq. dielectric constant tensor:
#      x y z
#    x 1.701050 0.000000 0.000000 
#    y 0.000000 1.803190 0.000000 
#    z 0.000000 0.000000 1.799480 
# 
# From -- ./inp_files/23655.got.cif
#   From: 2010.03.12/outbox.cif.g09.slc.cpg/sg53_12_cif.got.tgz:23655.got - 2010.04.16 14:36:59.
