data_PCOD8218084
_publ_section_title
;
Structure prediction by ZEFSAII (Michael W. Deem and Ramdas Pophale) SiO2 
 PCOD8218084
Probable space group: P M N A
;
_chemical_formula_sum "Si O2"
_cell_formula_units_Z 64
_cell_length_a 8.748273
_cell_length_b 23.974347
_cell_length_c 15.233565
_cell_angle_alpha 90.000000
_cell_angle_beta 90.000000
_cell_angle_gamma 90.000000
_cell_volume 3194.998541
_symmetry_space_group_name_H-M "P M N A"
_symmetry_group_IT_number 53
_symmetry_cell_setting 'orthorhombic'
loop_
_space_group_symop_operation_xyz
x,y,z
1/2-x,-y,1/2+z
x,-y,-z
1/2-x,y,1/2-z
-x,-y,-z
1/2+x,y,1/2-z
-x,y,z
1/2+x,-y,1/2+z
loop_
_atom_site_type_symbol
_atom_site_label
_atom_site_fract_x
_atom_site_fract_y
_atom_site_fract_z
Si Si1 0.679238 0.813826 0.003238
Si Si2 0.679439 0.390228 0.345308
Si Si3 0.181781 0.502301 0.346636
Si Si4 0.680427 0.115106 0.160334
Si Si5 0.175469 0.994335 0.396890
Si Si6 0.679173 0.614375 0.345079
Si Si7 0.679037 0.118824 0.658976
Si Si8 0.676254 0.696112 0.502610
O O1 0.500000 0.823822 0.014931
O O2 0.741947 0.846350 0.918066
O O3 0.763173 0.838444 0.086768
O O4 0.714200 0.748965 0.993030
O O5 0.750000 0.375958 0.250000
O O6 0.500000 0.400580 0.333490
O O7 0.754545 0.445515 0.389943
O O8 0.714749 0.340425 0.411961
O O9 0.250000 0.502294 0.250000
O O10 0.245097 0.559210 0.389648
O O11 0.000000 0.502185 0.348690
O O12 0.750000 0.138726 0.250000
O O13 0.500000 0.118508 0.164906
O O14 0.734472 0.051489 0.146362
O O15 0.000000 0.981457 0.372412
O O16 0.195280 0.000000 0.500000
O O17 0.278316 0.944874 0.360935
O O18 0.750000 0.629180 0.250000
O O19 0.500000 0.603517 0.332715
O O20 0.712502 0.664195 0.412197
O O21 0.750000 0.138781 0.750000
O O22 0.500000 0.123712 0.665780
O O23 0.500000 0.714930 0.504282
#
# Coordination Sequence:
#
# PCOD8218084 Si02
#       8
#     8   8   8   8   8   8   8   8
#     4  11  24  44  64  85 117 158 202 251 304 350
#     4  10  20  37  59  84 117 154 194 240 294 351
#     4  10  18  31  54  85 118 150 189 234 288 348
#     4  10  22  39  62  90 121 159 197 241 296 352
#     4  10  19  38  64  91 129 162 194 242 298 355
#     4  10  20  37  59  84 116 151 189 233 290 349
#     4  12  25  41  64  93 124 159 203 246 298 358
#     4  10  24  42  60  84 115 154 198 245 295 353
#
# _framework density 20.031307000000002
#
# number of rings (size 3 to 8) (size 9 to 14) (size 15 to 20)
#    0.000    1.625    1.250    5.250    0.000    6.250 
#    0.000    6.250    0.000    0.000    0.000    0.000 
#    0.000    0.000    0.000    0.000    0.000    0.000 
#
# Total GULP energy -793695.686992 kJ/mol
# GULP energy per Si atom -12401.495109 kJ/mol
# Density = 1.998572 g / cm^3
# Si number density = 20.031307 Si / 1000 Ang^3
#
#
#
# Elastic Constant Matrix: (Units=GPa)
#
#
# Indices 1 2 3 4 5 6 
#
# 1 112.9640 42.5757 38.2333 0.0000 0.0000 0.0000
# 2 42.5757 105.4830 41.3623 0.0000 0.0000 0.0000
# 3 38.2333 41.3623 99.3316 0.0000 0.0000 0.0000
# 4 0.0000 0.0000 0.0000 -35.2065 0.0000 0.0000
# 5 0.0000 0.0000 0.0000 0.0000 29.6257 0.0000
# 6 0.0000 0.0000 0.0000 0.0000 0.0000 42.5637
#
#
#
# Elastic Compliance Matrix: (Units=1/GPa)
#
#
# Indices 1 2 3 4 5 6 
#
# 1 0.011087 -0.003348 -0.002873 0.000000 0.000000 0.000000
# 2 -0.003348 0.012341 -0.003850 0.000000 0.000000 0.000000
# 3 -0.002873 -0.003850 0.012776 0.000000 0.000000 0.000000
# 4 0.000000 0.000000 0.000000 -0.028404 0.000000 0.000000
# 5 0.000000 0.000000 0.000000 0.000000 0.033754 0.000000
# 6 0.000000 0.000000 0.000000 0.000000 0.000000 0.023494
#
#
# Mechanical properties :
#
#
# Convention : Reuss Voigt Hill
#
# Bulk Modulus (GPa) = 62.26151 62.45792 62.35972
# Shear Modulus (GPa) = 55.22021 20.43707 37.82864
#
# Velocity S-wave (km/s) = 5.25612 3.19761 4.35037
# Velocity P-wave (km/s) = 8.24532 6.69931 7.51219
#
# Compressibility (1/GPa) = 0.01606129
#
# Stress axis : x y z
#
# Youngs Moduli (GPa) = 90.19767 81.02776 78.26901
#
# Poissons Ratio (x) = 0.27130 0.22488
# Poissons Ratio (y) = 0.30201 0.30136
# Poissons Ratio (z) = 0.25915 0.31198
#
# Static dielectric constant tensor:
#      x y z
#    x 3.626720 0.000000 0.000000 
#    y 0.000000 3.916260 0.000000 
#    z 0.000000 0.000000 3.762710 
# 
# 
# High freq. dielectric constant tensor:
#      x y z
#    x 1.785690 0.000000 0.000000 
#    y 0.000000 1.784550 0.000000 
#    z 0.000000 0.000000 1.785990 
# 
# From -- ./inp_files/20842.got.cif
#   From: 2010.03.12/outbox.cif.g09.slc.cpg/sg53_11_cif.got.tgz:20842.got - 2010.04.16 14:36:59.
