data_PCOD8218905
_publ_section_title
;
Structure prediction by ZEFSAII (Michael W. Deem and Ramdas Pophale) SiO2 
 PCOD8218905
Probable space group: P M N A
;
_chemical_formula_sum "Si O2"
_cell_formula_units_Z 48
_cell_length_a 8.762253
_cell_length_b 16.243942
_cell_length_c 18.725078
_cell_angle_alpha 90.000000
_cell_angle_beta 90.000000
_cell_angle_gamma 90.000000
_cell_volume 2665.206442
_symmetry_space_group_name_H-M "P M N A"
_symmetry_group_IT_number 53
_symmetry_cell_setting 'orthorhombic'
loop_
_space_group_symop_operation_xyz
x,y,z
1/2-x,-y,1/2+z
x,-y,-z
1/2-x,y,1/2-z
-x,-y,-z
1/2+x,y,1/2-z
-x,y,z
1/2+x,-y,1/2+z
loop_
_atom_site_type_symbol
_atom_site_label
_atom_site_fract_x
_atom_site_fract_y
_atom_site_fract_z
Si Si1 0.181549 0.159195 0.173437
Si Si2 0.318892 0.517125 0.675175
Si Si3 0.679363 0.235098 0.539204
Si Si4 0.178482 0.323858 0.100652
Si Si5 0.179059 0.914860 0.536364
Si Si6 0.180408 0.333307 0.824745
O O1 0.250000 0.134298 0.250000
O O2 0.242610 0.250180 0.150912
O O3 0.236075 0.095393 0.112358
O O4 0.000000 0.155087 0.177429
O O5 0.250000 0.543972 0.750000
O O6 0.500000 0.518169 0.679875
O O7 0.255202 0.585894 0.619919
O O8 0.262318 0.425377 0.654273
O O9 0.500000 0.213959 0.538072
O O10 0.717363 0.306033 0.481550
O O11 0.773374 0.154077 0.520865
O O12 0.735226 0.269333 0.615283
O O13 0.000000 0.325817 0.113813
O O14 0.000000 0.910319 0.551005
O O15 0.228175 0.000000 0.500000
O O16 0.250000 0.304057 0.750000
O O17 0.000000 0.332563 0.817978
#
# Coordination Sequence:
#
# PCOD8218905 Si02
#       6
#     8   8   8   8   8   8
#     4  10  19  32  52  78 107 136 166 200 241 291
#     4   9  16  27  43  65  95 130 165 201 238 277
#     4   9  18  33  51  72  96 125 162 201 247 298
#     4   8  15  27  45  70  98 128 162 199 239 285
#     4  10  21  37  56  77 100 127 161 202 250 302
#     4   9  18  31  48  69  95 129 167 205 243 285
#
# _framework density 18.009861999999998
#
# number of rings (size 3 to 8) (size 9 to 14) (size 15 to 20)
#    0.000    2.833    0.000    2.500    0.000    2.667 
#    0.000    7.500    0.000    2.000    0.000    9.333 
#    0.000    0.000    0.000    0.000    0.000    0.000 
#
# Total GULP energy -594971.509317 kJ/mol
# GULP energy per Si atom -12395.239777 kJ/mol
# Density = 1.796887 g / cm^3
# Si number density = 18.009862 Si / 1000 Ang^3
#
#
#
# Elastic Constant Matrix: (Units=GPa)
#
#
# Indices 1 2 3 4 5 6 
#
# 1 35.4189 20.7888 31.5313 0.0000 0.0000 0.0000
# 2 20.7888 88.1725 71.6519 0.0000 0.0000 0.0000
# 3 31.5313 71.6519 144.4354 0.0000 0.0000 0.0000
# 4 0.0000 0.0000 0.0000 26.3112 0.0000 0.0000
# 5 0.0000 0.0000 0.0000 0.0000 29.9676 0.0000
# 6 0.0000 0.0000 0.0000 0.0000 0.0000 20.1350
#
#
#
# Elastic Compliance Matrix: (Units=1/GPa)
#
#
# Indices 1 2 3 4 5 6 
#
# 1 0.035673 -0.003489 -0.006057 0.000000 0.000000 0.000000
# 2 -0.003489 0.019343 -0.008834 0.000000 0.000000 0.000000
# 3 -0.006057 -0.008834 0.012628 0.000000 0.000000 0.000000
# 4 0.000000 0.000000 0.000000 0.038007 0.000000 0.000000
# 5 0.000000 0.000000 0.000000 0.000000 0.033369 0.000000
# 6 0.000000 0.000000 0.000000 0.000000 0.000000 0.049665
#
#
# Mechanical properties :
#
#
# Convention : Reuss Voigt Hill
#
# Bulk Modulus (GPa) = 32.37836 57.33010 44.85423
# Shear Modulus (GPa) = 21.20984 24.88641 23.04813
#
# Velocity S-wave (km/s) = 3.43546 3.72132 3.58124
# Velocity P-wave (km/s) = 5.80979 7.09690 6.48535
#
# Compressibility (1/GPa) = 0.03088482
#
# Stress axis : x y z
#
# Youngs Moduli (GPa) = 28.03208 51.69898 79.18783
#
# Poissons Ratio (x) = 0.18036 0.47965
# Poissons Ratio (y) = 0.09780 0.69954
# Poissons Ratio (z) = 0.16979 0.45671
#
# Static dielectric constant tensor:
#      x y z
#    x 3.125030 0.000000 0.000000 
#    y 0.000000 3.501780 0.000000 
#    z 0.000000 0.000000 3.357600 
# 
# 
# High freq. dielectric constant tensor:
#      x y z
#    x 1.679560 0.000000 0.000000 
#    y 0.000000 1.689840 0.000000 
#    z 0.000000 0.000000 1.696800 
# 
# From -- ./inp_files/26202.got.cif
#   From: 2010.03.12/outbox.cif.g09.slc.cpg/sg53_14_cif.got.tgz:26202.got - 2010.04.16 14:36:59.
