data_PCOD8218598
_publ_section_title
;
Structure prediction by ZEFSAII (Michael W. Deem and Ramdas Pophale) SiO2 
 PCOD8218598
Probable space group: P M N A
;
_chemical_formula_sum "Si O2"
_cell_formula_units_Z 64
_cell_length_a 9.041540
_cell_length_b 14.890020
_cell_length_c 29.413564
_cell_angle_alpha 90.000000
_cell_angle_beta 90.000000
_cell_angle_gamma 90.000000
_cell_volume 3959.910220
_symmetry_space_group_name_H-M "P M N A"
_symmetry_group_IT_number 53
_symmetry_cell_setting 'orthorhombic'
loop_
_space_group_symop_operation_xyz
x,y,z
1/2-x,-y,1/2+z
x,-y,-z
1/2-x,y,1/2-z
-x,-y,-z
1/2+x,y,1/2-z
-x,y,z
1/2+x,-y,1/2+z
loop_
_atom_site_type_symbol
_atom_site_label
_atom_site_fract_x
_atom_site_fract_y
_atom_site_fract_z
Si Si1 0.673739 0.313801 0.458521
Si Si2 0.826327 0.364772 0.943435
Si Si3 0.326084 0.491538 0.796812
Si Si4 0.329373 0.868531 0.967012
Si Si5 0.828405 0.939499 0.434669
Si Si6 0.826985 0.798914 0.120325
Si Si7 0.327382 0.283383 0.795635
Si Si8 0.325161 0.465173 0.387712
O O1 0.500000 0.302982 0.464294
O O2 0.738521 0.357086 0.505337
O O3 0.737950 0.215634 0.448773
O O4 0.714476 0.376555 0.416197
O O5 0.783769 0.273774 0.917719
O O6 0.760632 0.449908 0.916126
O O7 0.000000 0.380241 0.946216
O O8 0.250000 0.524390 0.750000
O O9 0.500000 0.511037 0.793560
O O10 0.290483 0.387168 0.805236
O O11 0.256371 0.544391 0.839369
O O12 0.500000 0.841561 0.966281
O O13 0.299526 0.953730 0.934377
O O14 0.280520 0.896094 0.017525
O O15 0.725166 0.896587 0.396181
O O16 0.000000 0.918867 0.424818
O O17 0.738126 0.777785 0.165347
O O18 0.000000 0.798751 0.130968
O O19 0.250000 0.250618 0.750000
O O20 0.500000 0.266347 0.791221
O O21 0.500000 0.475151 0.378971
#
# Coordination Sequence:
#
# PCOD8218598 Si02
#       8
#     8   8   8   8   8   8   8   8
#     4  10  19  31  48  70  96 131 170 206 242 281
#     4   9  17  29  44  66  97 132 167 197 231 279
#     4  10  20  33  50  70  94 123 161 203 245 287
#     4   9  18  32  48  66  93 127 162 203 246 285
#     4   9  18  32  48  67  93 127 162 198 245 291
#     4  11  19  29  49  73  97 129 165 201 240 287
#     4  10  20  33  49  70  97 128 161 200 243 290
#     4  10  19  32  49  68  97 133 166 200 241 288
#
# _framework density 16.161982999999999
#
# number of rings (size 3 to 8) (size 9 to 14) (size 15 to 20)
#    0.000    2.250    2.500    2.250    0.000    3.500 
#    0.000    1.875    0.000    1.500    0.000    0.875 
#    0.000    2.000    0.000    0.000    0.000    0.000 
#
# Total GULP energy -793628.796902 kJ/mol
# GULP energy per Si atom -12400.449952 kJ/mol
# Density = 1.612520 g / cm^3
# Si number density = 16.161983 Si / 1000 Ang^3
#
#
#
# Elastic Constant Matrix: (Units=GPa)
#
#
# Indices 1 2 3 4 5 6 
#
# 1 56.3115 34.8295 48.6882 0.0000 0.0000 0.0000
# 2 34.8295 81.4822 45.8604 0.0000 0.0000 0.0000
# 3 48.6882 45.8604 119.1566 0.0000 0.0000 0.0000
# 4 0.0000 0.0000 0.0000 24.4233 0.0000 0.0000
# 5 0.0000 0.0000 0.0000 0.0000 27.4508 0.0000
# 6 0.0000 0.0000 0.0000 0.0000 0.0000 24.9984
#
#
#
# Elastic Compliance Matrix: (Units=1/GPa)
#
#
# Indices 1 2 3 4 5 6 
#
# 1 0.030901 -0.007790 -0.009628 0.000000 0.000000 0.000000
# 2 -0.007790 0.017630 -0.003602 0.000000 0.000000 0.000000
# 3 -0.009628 -0.003602 0.013713 0.000000 0.000000 0.000000
# 4 0.000000 0.000000 0.000000 0.040945 0.000000 0.000000
# 5 0.000000 0.000000 0.000000 0.000000 0.036429 0.000000
# 6 0.000000 0.000000 0.000000 0.000000 0.000000 0.040003
#
#
# Mechanical properties :
#
#
# Convention : Reuss Voigt Hill
#
# Bulk Modulus (GPa) = 49.49697 57.30073 53.39885
# Shear Modulus (GPa) = 21.89187 23.87932 22.88560
#
# Velocity S-wave (km/s) = 3.68439 3.84800 3.76708
# Velocity P-wave (km/s) = 6.98510 7.43463 7.21337
#
# Compressibility (1/GPa) = 0.02020326
#
# Stress axis : x y z
#
# Youngs Moduli (GPa) = 32.36111 56.72217 72.92331
#
# Poissons Ratio (x) = 0.44184 0.70214
# Poissons Ratio (y) = 0.25208 0.26270
# Poissons Ratio (z) = 0.31159 0.20434
#
# Static dielectric constant tensor:
#      x y z
#    x 2.923630 0.000000 0.000000 
#    y 0.000000 2.919540 0.000000 
#    z 0.000000 0.000000 2.939520 
# 
# 
# High freq. dielectric constant tensor:
#      x y z
#    x 1.615360 0.000000 0.000000 
#    y 0.000000 1.601860 0.000000 
#    z 0.000000 0.000000 1.612160 
# 
# From -- ./inp_files/38493.got.cif
#   From: 2010.03.12/outbox.cif.g09.slc.cpg/sg53_20_cif.got.tgz:38493.got - 2010.04.16 14:36:59.
