data_PCOD8218440
_publ_section_title
;
Structure prediction by ZEFSAII (Michael W. Deem and Ramdas Pophale) SiO2 
 PCOD8218440
Probable space group: P M N A
;
_chemical_formula_sum "Si O2"
_cell_formula_units_Z 64
_cell_length_a 8.348610
_cell_length_b 21.670686
_cell_length_c 19.224830
_cell_angle_alpha 90.000000
_cell_angle_beta 90.000000
_cell_angle_gamma 90.000000
_cell_volume 3478.158278
_symmetry_space_group_name_H-M "P M N A"
_symmetry_group_IT_number 53
_symmetry_cell_setting 'orthorhombic'
loop_
_space_group_symop_operation_xyz
x,y,z
1/2-x,-y,1/2+z
x,-y,-z
1/2-x,y,1/2-z
-x,-y,-z
1/2+x,y,1/2-z
-x,y,z
1/2+x,-y,1/2+z
loop_
_atom_site_type_symbol
_atom_site_label
_atom_site_fract_x
_atom_site_fract_y
_atom_site_fract_z
Si Si1 0.813353 0.400804 0.326919
Si Si2 0.191700 0.063722 0.969800
Si Si3 0.315235 0.531756 0.324137
Si Si4 0.182460 0.361044 0.590361
Si Si5 0.311080 0.888053 0.321022
Si Si6 0.183820 0.773299 0.381229
Si Si7 0.188501 0.682806 0.945836
Si Si8 0.680523 0.811674 0.520584
O O1 0.750000 0.388821 0.250000
O O2 0.778878 0.471051 0.349653
O O3 0.719552 0.354040 0.376035
O O4 0.000000 0.386789 0.331963
O O5 0.246524 0.073631 0.889460
O O6 0.000000 0.063844 0.972707
O O7 0.259957 0.119525 0.019910
O O8 0.262659 0.000000 0.000000
O O9 0.250000 0.555106 0.250000
O O10 0.500000 0.513658 0.316491
O O11 0.295679 0.585502 0.380407
O O12 0.208812 0.299047 0.636649
O O13 0.221369 0.349658 0.509612
O O14 0.000000 0.383782 0.596100
O O15 0.250000 0.921413 0.250000
O O16 0.500000 0.881746 0.320103
O O17 0.228236 0.819881 0.319048
O O18 0.311034 0.789741 0.440895
O O19 0.000000 0.783291 0.405840
O O20 0.255031 0.754105 0.935596
O O21 0.000000 0.684934 0.962675
O O22 0.500000 0.820412 0.545532
#
# Coordination Sequence:
#
# PCOD8218440 Si02
#       8
#     8   8   8   8   8   8   8   8
#     4  11  22  38  57  76  98 127 165 209 258 310
#     4   8  14  27  49  75  99 129 168 203 239 287
#     4  11  22  37  54  72  97 131 167 207 254 305
#     4  10  20  34  51  75 103 133 168 206 249 295
#     4  10  19  30  46  68  96 129 166 207 246 288
#     4   9  17  29  46  67  95 127 159 196 238 284
#     4  10  19  33  53  78 104 131 165 206 252 299
#     4   8  15  28  48  73 100 127 157 195 237 285
#
# _framework density 18.400542999999999
#
# number of rings (size 3 to 8) (size 9 to 14) (size 15 to 20)
#    0.000    2.375    0.000    5.250    0.000    3.000 
#    0.000    2.500    0.000   10.125    0.000    1.750 
#    0.000    0.000    0.000    0.000    0.000    0.000 
#
# Total GULP energy -792924.048678 kJ/mol
# GULP energy per Si atom -12389.438261 kJ/mol
# Density = 1.835866 g / cm^3
# Si number density = 18.400543 Si / 1000 Ang^3
#
#
#
# Elastic Constant Matrix: (Units=GPa)
#
#
# Indices 1 2 3 4 5 6 
#
# 1 49.0166 10.2791 9.7634 0.0000 0.0000 0.0000
# 2 10.2791 140.6752 66.7334 0.0000 0.0000 0.0000
# 3 9.7634 66.7334 78.1649 0.0000 0.0000 0.0000
# 4 0.0000 0.0000 0.0000 21.9993 0.0000 0.0000
# 5 0.0000 0.0000 0.0000 0.0000 25.0229 0.0000
# 6 0.0000 0.0000 0.0000 0.0000 0.0000 16.4395
#
#
#
# Elastic Compliance Matrix: (Units=1/GPa)
#
#
# Indices 1 2 3 4 5 6 
#
# 1 0.020942 -0.000486 -0.002201 0.000000 0.000000 0.000000
# 2 -0.000486 0.011959 -0.010149 0.000000 0.000000 0.000000
# 3 -0.002201 -0.010149 0.021733 0.000000 0.000000 0.000000
# 4 0.000000 0.000000 0.000000 0.045456 0.000000 0.000000
# 5 0.000000 0.000000 0.000000 0.000000 0.039963 0.000000
# 6 0.000000 0.000000 0.000000 0.000000 0.000000 0.060829
#
#
# Mechanical properties :
#
#
# Convention : Reuss Voigt Hill
#
# Bulk Modulus (GPa) = 34.52855 49.04539 41.78697
# Shear Modulus (GPa) = 21.16790 24.76440 22.96615
#
# Velocity S-wave (km/s) = 3.39543 3.67257 3.53671
# Velocity P-wave (km/s) = 5.84616 6.68549 6.27987
#
# Compressibility (1/GPa) = 0.02896154
#
# Stress axis : x y z
#
# Youngs Moduli (GPa) = 47.75197 83.62238 46.01309
#
# Poissons Ratio (x) = 0.04066 0.10126
# Poissons Ratio (y) = 0.02322 0.46698
# Poissons Ratio (z) = 0.10508 0.84867
#
# Static dielectric constant tensor:
#      x y z
#    x 3.288430 0.000000 0.000000 
#    y 0.000000 3.707710 0.000000 
#    z 0.000000 0.000000 3.231360 
# 
# 
# High freq. dielectric constant tensor:
#      x y z
#    x 1.710190 0.000000 0.000000 
#    y 0.000000 1.713250 0.000000 
#    z 0.000000 0.000000 1.681790 
# 
# From -- ./inp_files/31376.got.cif
#   From: 2010.03.12/outbox.cif.g09.slc.cpg/sg53_16_cif.got.tgz:31376.got - 2010.04.16 14:36:59.
