data_PCOD8218107
_publ_section_title
;
Structure prediction by ZEFSAII (Michael W. Deem and Ramdas Pophale) SiO2 
 PCOD8218107
Probable space group: P M N A
;
_chemical_formula_sum "Si O2"
_cell_formula_units_Z 32
_cell_length_a 9.990989
_cell_length_b 19.414920
_cell_length_c 8.726618
_cell_angle_alpha 90.000000
_cell_angle_beta 90.000000
_cell_angle_gamma 90.000000
_cell_volume 1692.739200
_symmetry_space_group_name_H-M "P M N A"
_symmetry_group_IT_number 53
_symmetry_cell_setting 'orthorhombic'
loop_
_space_group_symop_operation_xyz
x,y,z
1/2-x,-y,1/2+z
x,-y,-z
1/2-x,y,1/2-z
-x,-y,-z
1/2+x,y,1/2-z
-x,y,z
1/2+x,-y,1/2+z
loop_
_atom_site_type_symbol
_atom_site_label
_atom_site_fract_x
_atom_site_fract_y
_atom_site_fract_z
Si Si1 0.500000 0.422437 0.562396
Si Si2 0.842928 0.805368 0.395608
Si Si3 0.000000 0.426688 0.573051
Si Si4 0.847162 0.936780 0.606766
Si Si5 0.245068 0.659410 0.432004
O O1 0.500000 0.500000 0.500000
O O2 0.500000 0.429784 0.744267
O O3 0.377093 0.376499 0.500654
O O4 0.750000 0.823121 0.250000
O O5 0.830444 0.866792 0.513963
O O6 0.782171 0.738201 0.482406
O O7 0.000000 0.793460 0.347148
O O8 0.000000 0.500000 0.500000
O O9 0.873112 0.387590 0.506007
O O10 0.750000 0.935096 0.750000
O O11 0.000000 0.946043 0.663635
O O12 0.804244 0.000000 0.500000
O O13 0.250000 0.660208 0.250000
#
# Coordination Sequence:
#
# PCOD8218107 Si02
#       5
#     4   8   4   8   8
#     4  10  20  34  50  76 103 134 181 228 271 332
#     4  10  20  35  58  86 112 146 190 235 280 334
#     4  10  18  32  52  72  99 138 173 218 277 326
#     4  10  22  40  60  87 121 153 189 231 275 329
#     4   9  18  32  52  75 103 136 179 226 269 331
#
# _framework density 18.904271000000001
#
# number of rings (size 3 to 8) (size 9 to 14) (size 15 to 20)
#    0.000    2.250    1.250    1.500    5.250    1.500 
#    0.000    2.500    0.000    0.000    0.000    0.000 
#    0.000    0.000    0.000    0.000    0.000    0.000 
#
# Total GULP energy -396635.433668 kJ/mol
# GULP energy per Si atom -12394.857302 kJ/mol
# Density = 1.886124 g / cm^3
# Si number density = 18.904271 Si / 1000 Ang^3
#
#
#
# Elastic Constant Matrix: (Units=GPa)
#
#
# Indices 1 2 3 4 5 6 
#
# 1 165.4918 77.4872 51.6506 0.0000 0.0000 0.0000
# 2 77.4872 167.1636 40.5852 0.0000 0.0000 0.0000
# 3 51.6506 40.5852 55.8029 0.0000 0.0000 0.0000
# 4 0.0000 0.0000 0.0000 28.5596 0.0000 0.0000
# 5 0.0000 0.0000 0.0000 0.0000 21.3244 0.0000
# 6 0.0000 0.0000 0.0000 0.0000 0.0000 41.4074
#
#
#
# Elastic Compliance Matrix: (Units=1/GPa)
#
#
# Indices 1 2 3 4 5 6 
#
# 1 0.009425 -0.002733 -0.006735 0.000000 0.000000 0.000000
# 2 -0.002733 0.008058 -0.003330 0.000000 0.000000 0.000000
# 3 -0.006735 -0.003330 0.026576 0.000000 0.000000 0.000000
# 4 0.000000 0.000000 0.000000 0.035015 0.000000 0.000000
# 5 0.000000 0.000000 0.000000 0.000000 0.046895 0.000000
# 6 0.000000 0.000000 0.000000 0.000000 0.000000 0.024150
#
#
# Mechanical properties :
#
#
# Convention : Reuss Voigt Hill
#
# Bulk Modulus (GPa) = 54.16908 80.87825 67.52367
# Shear Modulus (GPa) = 27.49217 32.84063 30.16640
#
# Velocity S-wave (km/s) = 3.81764 4.17250 3.99901
# Velocity P-wave (km/s) = 6.93896 8.12951 7.55772
#
# Compressibility (1/GPa) = 0.01846071
#
# Stress axis : x y z
#
# Youngs Moduli (GPa) = 106.10580 124.10351 37.62726
#
# Poissons Ratio (x) = 0.33923 0.25343
# Poissons Ratio (y) = 0.29003 0.12531
# Poissons Ratio (z) = 0.71465 0.41331
#
# Static dielectric constant tensor:
#      x y z
#    x 3.852650 0.000000 0.000000 
#    y 0.000000 3.777530 0.000000 
#    z 0.000000 0.000000 2.993910 
# 
# 
# High freq. dielectric constant tensor:
#      x y z
#    x 1.753160 0.000000 0.000000 
#    y 0.000000 1.760260 0.000000 
#    z 0.000000 0.000000 1.689860 
# 
# From -- ./inp_files/6038.got.cif
#   From: 2010.03.12/outbox.cif.g09.slc.cpg/sg53_4_cif.got.tgz:6038.got - 2010.04.16 14:36:59.
