data_PCOD8218639
_publ_section_title
;
Structure prediction by ZEFSAII (Michael W. Deem and Ramdas Pophale) SiO2 
 PCOD8218639
Probable space group: P M N A
;
_chemical_formula_sum "Si O2"
_cell_formula_units_Z 64
_cell_length_a 9.445731
_cell_length_b 16.978704
_cell_length_c 21.605190
_cell_angle_alpha 90.000000
_cell_angle_beta 90.000000
_cell_angle_gamma 90.000000
_cell_volume 3464.959800
_symmetry_space_group_name_H-M "P M N A"
_symmetry_group_IT_number 53
_symmetry_cell_setting 'orthorhombic'
loop_
_space_group_symop_operation_xyz
x,y,z
1/2-x,-y,1/2+z
x,-y,-z
1/2-x,y,1/2-z
-x,-y,-z
1/2+x,y,1/2-z
-x,y,z
1/2+x,-y,1/2+z
loop_
_atom_site_type_symbol
_atom_site_label
_atom_site_fract_x
_atom_site_fract_y
_atom_site_fract_z
Si Si1 0.845721 0.776800 0.613441
Si Si2 0.164086 0.620104 0.688211
Si Si3 0.338491 0.373304 0.530501
Si Si4 0.661888 0.536616 0.593092
Si Si5 0.668031 0.065606 0.552436
Si Si6 0.846129 0.144116 0.196827
Si Si7 0.845051 0.962152 0.193984
Si Si8 0.161156 0.775026 0.470367
O O1 0.809885 0.697800 0.648935
O O2 0.728351 0.842057 0.630685
O O3 0.841339 0.758067 0.542318
O O4 0.000000 0.809938 0.632840
O O5 0.250000 0.630878 0.750000
O O6 0.232130 0.548569 0.649958
O O7 0.000000 0.602195 0.701245
O O8 0.500000 0.342714 0.527871
O O9 0.292338 0.406559 0.463511
O O10 0.323457 0.444831 0.577881
O O11 0.241474 0.301654 0.556455
O O12 0.500000 0.555954 0.611547
O O13 0.500000 0.080261 0.547861
O O14 0.712978 0.042962 0.623193
O O15 0.753469 0.145134 0.540735
O O16 0.711429 0.000000 0.500000
O O17 0.750000 0.184296 0.250000
O O18 0.000000 0.185170 0.197320
O O19 0.863150 0.052933 0.210123
O O20 0.750000 0.924357 0.250000
O O21 0.000000 0.921234 0.197546
O O22 0.000000 0.781490 0.444028
#
# Coordination Sequence:
#
# PCOD8218639 Si02
#       8
#     8   8   8   8   8   8   8   8
#     4  10  21  34  46  69 105 142 180 219 261 317
#     4  11  22  35  50  73 108 148 185 222 265 321
#     4   9  18  34  57  82 107 137 175 220 270 324
#     4   9  18  34  56  81 106 136 178 222 265 318
#     4  10  21  38  58  82 113 150 192 237 288 345
#     4  10  19  31  49  71  96 133 177 222 268 319
#     4   9  19  35  55  78 104 137 182 230 280 340
#     4  11  22  35  53  81 113 142 180 228 279 330
#
# _framework density 18.470631999999998
#
# number of rings (size 3 to 8) (size 9 to 14) (size 15 to 20)
#    0.000    2.125    1.250    3.000    0.000    5.750 
#    0.000    1.250    0.000    0.750    0.000    3.500 
#    0.000    0.000    0.000    0.000    0.000    0.000 
#
# Total GULP energy -793106.692587 kJ/mol
# GULP energy per Si atom -12392.292072 kJ/mol
# Density = 1.842859 g / cm^3
# Si number density = 18.470632 Si / 1000 Ang^3
#
#
#
# Elastic Constant Matrix: (Units=GPa)
#
#
# Indices 1 2 3 4 5 6 
#
# 1 111.9178 46.6559 43.6314 0.0000 0.0000 0.0000
# 2 46.6559 75.6227 20.1505 0.0000 0.0000 0.0000
# 3 43.6314 20.1505 97.2697 0.0000 0.0000 0.0000
# 4 0.0000 0.0000 0.0000 26.0093 0.0000 0.0000
# 5 0.0000 0.0000 0.0000 0.0000 30.6735 0.0000
# 6 0.0000 0.0000 0.0000 0.0000 0.0000 26.3335
#
#
#
# Elastic Compliance Matrix: (Units=1/GPa)
#
#
# Indices 1 2 3 4 5 6 
#
# 1 0.013785 -0.007258 -0.004680 0.000000 0.000000 0.000000
# 2 -0.007258 0.017817 -0.000435 0.000000 0.000000 0.000000
# 3 -0.004680 -0.000435 0.012470 0.000000 0.000000 0.000000
# 4 0.000000 0.000000 0.000000 0.038448 0.000000 0.000000
# 5 0.000000 0.000000 0.000000 0.000000 0.032601 0.000000
# 6 0.000000 0.000000 0.000000 0.000000 0.000000 0.037975
#
#
# Mechanical properties :
#
#
# Convention : Reuss Voigt Hill
#
# Bulk Modulus (GPa) = 51.74337 56.18733 53.96535
# Shear Modulus (GPa) = 27.13183 28.22806 27.67995
#
# Velocity S-wave (km/s) = 3.83680 3.91355 3.87537
# Velocity P-wave (km/s) = 6.90672 7.13491 7.02174
#
# Compressibility (1/GPa) = 0.01932615
#
# Stress axis : x y z
#
# Youngs Moduli (GPa) = 72.54115 56.12495 80.19142
#
# Poissons Ratio (x) = 0.40735 0.37529
# Poissons Ratio (y) = 0.52650 0.03492
# Poissons Ratio (z) = 0.33949 0.02444
#
# Static dielectric constant tensor:
#      x y z
#    x 3.795300 0.000000 0.000000 
#    y 0.000000 3.131190 0.000000 
#    z 0.000000 0.000000 3.467890 
# 
# 
# High freq. dielectric constant tensor:
#      x y z
#    x 1.726520 0.000000 0.000000 
#    y 0.000000 1.693080 0.000000 
#    z 0.000000 0.000000 1.703260 
# 
# From -- ./inp_files/31161.got.cif
#   From: 2010.03.12/outbox.cif.g09.slc.cpg/sg53_16_cif.got.tgz:31161.got - 2010.04.16 14:36:59.
