data_PCOD8218492
_publ_section_title
;
Structure prediction by ZEFSAII (Michael W. Deem and Ramdas Pophale) SiO2 
 PCOD8218492
Probable space group: P M N A
;
_chemical_formula_sum "Si O2"
_cell_formula_units_Z 48
_cell_length_a 8.969205
_cell_length_b 14.941533
_cell_length_c 20.361531
_cell_angle_alpha 90.000000
_cell_angle_beta 90.000000
_cell_angle_gamma 90.000000
_cell_volume 2728.723547
_symmetry_space_group_name_H-M "P M N A"
_symmetry_group_IT_number 53
_symmetry_cell_setting 'orthorhombic'
loop_
_space_group_symop_operation_xyz
x,y,z
1/2-x,-y,1/2+z
x,-y,-z
1/2-x,y,1/2-z
-x,-y,-z
1/2+x,y,1/2-z
-x,y,z
1/2+x,-y,1/2+z
loop_
_atom_site_type_symbol
_atom_site_label
_atom_site_fract_x
_atom_site_fract_y
_atom_site_fract_z
Si Si1 0.326574 0.377667 0.186007
Si Si2 0.167054 0.202553 0.156629
Si Si3 0.676633 0.930080 0.055444
Si Si4 0.175077 0.411591 0.460124
Si Si5 0.828751 0.232344 0.007162
Si Si6 0.326793 0.999337 0.685214
O O1 0.250000 0.423704 0.250000
O O2 0.500000 0.389557 0.195816
O O3 0.285590 0.272436 0.185475
O O4 0.274665 0.421573 0.116586
O O5 0.195938 0.107108 0.188572
O O6 0.000000 0.238268 0.171705
O O7 0.189198 0.190933 0.079114
O O8 0.500000 0.926776 0.060174
O O9 0.737339 0.831036 0.041433
O O10 0.743021 0.959893 0.123928
O O11 0.730144 0.000000 0.000000
O O12 0.217775 0.500000 0.500000
O O13 0.261944 0.331801 0.495542
O O14 0.000000 0.390469 0.463123
O O15 0.000000 0.236155 0.984509
O O16 0.250000 0.040331 0.750000
O O17 0.500000 0.025705 0.682323
#
# Coordination Sequence:
#
# PCOD8218492 Si02
#       6
#     8   8   8   8   8   8
#     4  10  19  30  48  73 103 136 167 206 256 314
#     4   9  18  31  48  72 103 138 171 208 256 312
#     4  11  22  35  54  78 105 141 184 222 261 315
#     4   9  19  36  56  78 105 137 175 218 266 317
#     4  10  19  33  54  80 107 136 174 220 268 314
#     4  11  22  35  50  72 105 143 182 224 270 315
#
# _framework density 17.590641000000002
#
# number of rings (size 3 to 8) (size 9 to 14) (size 15 to 20)
#    0.000    2.000    1.667    2.500    0.000    5.000 
#    0.000    0.000    0.000    1.000    0.000    4.667 
#    0.000    0.000    0.000    0.000    0.000    0.000 
#
# Total GULP energy -595228.889376 kJ/mol
# GULP energy per Si atom -12400.601862 kJ/mol
# Density = 1.755060 g / cm^3
# Si number density = 17.590641 Si / 1000 Ang^3
#
#
#
# Elastic Constant Matrix: (Units=GPa)
#
#
# Indices 1 2 3 4 5 6 
#
# 1 81.5602 46.1500 52.3956 0.0000 0.0000 0.0000
# 2 46.1500 71.0844 52.6771 0.0000 0.0000 0.0000
# 3 52.3956 52.6771 127.6664 0.0000 0.0000 0.0000
# 4 0.0000 0.0000 0.0000 19.8096 0.0000 0.0000
# 5 0.0000 0.0000 0.0000 0.0000 32.2413 0.0000
# 6 0.0000 0.0000 0.0000 0.0000 0.0000 24.6249
#
#
#
# Elastic Compliance Matrix: (Units=1/GPa)
#
#
# Indices 1 2 3 4 5 6 
#
# 1 0.020893 -0.010386 -0.004289 0.000000 0.000000 0.000000
# 2 -0.010386 0.025426 -0.006229 0.000000 0.000000 0.000000
# 3 -0.004289 -0.006229 0.012164 0.000000 0.000000 0.000000
# 4 0.000000 0.000000 0.000000 0.050481 0.000000 0.000000
# 5 0.000000 0.000000 0.000000 0.000000 0.031016 0.000000
# 6 0.000000 0.000000 0.000000 0.000000 0.000000 0.040609
#
#
# Mechanical properties :
#
#
# Convention : Reuss Voigt Hill
#
# Bulk Modulus (GPa) = 59.97048 64.75072 62.36060
# Shear Modulus (GPa) = 21.93409 23.94104 22.93756
#
# Velocity S-wave (km/s) = 3.53500 3.69319 3.61496
# Velocity P-wave (km/s) = 7.12937 7.42131 7.27681
#
# Compressibility (1/GPa) = 0.01667487
#
# Stress axis : x y z
#
# Youngs Moduli (GPa) = 47.86251 39.32911 82.21315
#
# Poissons Ratio (x) = 0.40846 0.35265
# Poissons Ratio (y) = 0.49709 0.51210
# Poissons Ratio (z) = 0.20530 0.24498
#
# Static dielectric constant tensor:
#      x y z
#    x 3.333120 0.000000 0.000000 
#    y 0.000000 2.987140 0.000000 
#    z 0.000000 0.000000 3.402920 
# 
# 
# High freq. dielectric constant tensor:
#      x y z
#    x 1.691470 0.000000 0.000000 
#    y 0.000000 1.643790 0.000000 
#    z 0.000000 0.000000 1.684740 
# 
# From -- ./inp_files/26168.got.cif
#   From: 2010.03.12/outbox.cif.g09.slc.cpg/sg53_14_cif.got.tgz:26168.got - 2010.04.16 14:36:59.
