data_PCOD8218526
_publ_section_title
;
Structure prediction by ZEFSAII (Michael W. Deem and Ramdas Pophale) SiO2 
 PCOD8218526
Probable space group: P M N A
;
_chemical_formula_sum "Si O2"
_cell_formula_units_Z 64
_cell_length_a 8.774337
_cell_length_b 23.441647
_cell_length_c 17.641148
_cell_angle_alpha 90.000000
_cell_angle_beta 90.000000
_cell_angle_gamma 90.000000
_cell_volume 3628.517949
_symmetry_space_group_name_H-M "P M N A"
_symmetry_group_IT_number 53
_symmetry_cell_setting 'orthorhombic'
loop_
_space_group_symop_operation_xyz
x,y,z
1/2-x,-y,1/2+z
x,-y,-z
1/2-x,y,1/2-z
-x,-y,-z
1/2+x,y,1/2-z
-x,y,z
1/2+x,-y,1/2+z
loop_
_atom_site_type_symbol
_atom_site_label
_atom_site_fract_x
_atom_site_fract_y
_atom_site_fract_z
Si Si1 0.318056 0.435872 0.168265
Si Si2 0.320168 0.930558 0.601168
Si Si3 0.333898 0.462428 0.925652
Si Si4 0.175521 0.875810 0.459403
Si Si5 0.817051 0.634988 0.523947
Si Si6 0.675917 0.040379 0.831154
Si Si7 0.679897 0.175395 0.173904
Si Si8 0.821096 0.760845 0.525156
O O1 0.250000 0.420638 0.250000
O O2 0.500000 0.437813 0.173785
O O3 0.253783 0.498095 0.138947
O O4 0.266475 0.387873 0.107120
O O5 0.500000 0.929689 0.610371
O O6 0.275740 0.913851 0.515850
O O7 0.246893 0.887634 0.661690
O O8 0.259213 0.993247 0.618744
O O9 0.500000 0.445434 0.893599
O O10 0.355735 0.500000 0.000000
O O11 0.249275 0.404491 0.954798
O O12 0.194894 0.899191 0.374564
O O13 0.226080 0.808867 0.462745
O O14 0.000000 0.880374 0.487488
O O15 0.748348 0.698536 0.510522
O O16 0.000000 0.632753 0.519683
O O17 0.750000 0.048042 0.750000
O O18 0.500000 0.023447 0.821797
O O19 0.750000 0.201773 0.250000
O O20 0.500000 0.171104 0.180031
O O21 0.734135 0.216516 0.106558
O O22 0.000000 0.751739 0.525815
#
# Coordination Sequence:
#
# PCOD8218526 Si02
#       8
#     8   8   8   8   8   8   8   8
#     4   9  16  25  40  65  94 120 144 178 223 265
#     4  11  21  33  51  73  95 120 152 187 226 276
#     4   7  11  21  38  60  84 111 146 182 211 243
#     4   9  19  35  52  70  94 122 151 187 231 276
#     4   8  13  24  44  66  85 111 153 194 218 250
#     4  11  22  35  51  71  95 120 148 187 234 280
#     4  10  19  31  45  64  93 124 153 185 225 273
#     4   8  15  28  46  66  86 113 151 191 226 260
#
# _framework density 17.638055999999999
#
# number of rings (size 3 to 8) (size 9 to 14) (size 15 to 20)
#    0.000    2.875    0.000    4.875    0.000    3.000 
#    0.000    0.000    0.000    7.125    0.000    0.000 
#    0.000    0.000    0.000    0.000    0.000    0.000 
#
# Total GULP energy -792910.288746 kJ/mol
# GULP energy per Si atom -12389.223262 kJ/mol
# Density = 1.759791 g / cm^3
# Si number density = 17.638056 Si / 1000 Ang^3
#
#
#
# Elastic Constant Matrix: (Units=GPa)
#
#
# Indices 1 2 3 4 5 6 
#
# 1 51.6968 21.4581 13.9234 0.0000 0.0000 0.0000
# 2 21.4581 144.5279 46.5619 0.0000 0.0000 0.0000
# 3 13.9234 46.5619 56.2993 0.0000 0.0000 0.0000
# 4 0.0000 0.0000 0.0000 16.9986 0.0000 0.0000
# 5 0.0000 0.0000 0.0000 0.0000 22.7301 0.0000
# 6 0.0000 0.0000 0.0000 0.0000 0.0000 8.4536
#
#
#
# Elastic Compliance Matrix: (Units=1/GPa)
#
#
# Indices 1 2 3 4 5 6 
#
# 1 0.021132 -0.001982 -0.003587 0.000000 0.000000 0.000000
# 2 -0.001982 0.009618 -0.007464 0.000000 0.000000 0.000000
# 3 -0.003587 -0.007464 0.024823 0.000000 0.000000 0.000000
# 4 0.000000 0.000000 0.000000 0.058828 0.000000 0.000000
# 5 0.000000 0.000000 0.000000 0.000000 0.043995 0.000000
# 6 0.000000 0.000000 0.000000 0.000000 0.000000 0.118293
#
#
# Mechanical properties :
#
#
# Convention : Reuss Voigt Hill
#
# Bulk Modulus (GPa) = 33.89110 46.26787 40.07948
# Shear Modulus (GPa) = 15.99530 21.00848 18.50189
#
# Velocity S-wave (km/s) = 3.01468 3.45496 3.24230
# Velocity P-wave (km/s) = 5.60127 6.49649 6.06542
#
# Compressibility (1/GPa) = 0.02950627
#
# Stress axis : x y z
#
# Youngs Moduli (GPa) = 47.32090 103.97041 40.28559
#
# Poissons Ratio (x) = 0.20606 0.14451
# Poissons Ratio (y) = 0.09378 0.30071
# Poissons Ratio (z) = 0.16975 0.77608
#
# Static dielectric constant tensor:
#      x y z
#    x 2.947570 0.000000 0.000000 
#    y 0.000000 3.670170 0.000000 
#    z 0.000000 0.000000 3.245990 
# 
# 
# High freq. dielectric constant tensor:
#      x y z
#    x 1.646920 0.000000 0.000000 
#    y 0.000000 1.681330 0.000000 
#    z 0.000000 0.000000 1.664710 
# 
# From -- ./inp_files/27042.got.cif
#   From: 2010.03.12/outbox.cif.g09.slc.cpg/sg53_14_cif.got.tgz:27042.got - 2010.04.16 14:36:59.
