data_PCOD8218161
_publ_section_title
;
Structure prediction by ZEFSAII (Michael W. Deem and Ramdas Pophale) SiO2 
 PCOD8218161
Probable space group: P M N A
;
_chemical_formula_sum "Si O2"
_cell_formula_units_Z 48
_cell_length_a 8.695113
_cell_length_b 16.489101
_cell_length_c 18.175526
_cell_angle_alpha 90.000000
_cell_angle_beta 90.000000
_cell_angle_gamma 90.000000
_cell_volume 2605.908706
_symmetry_space_group_name_H-M "P M N A"
_symmetry_group_IT_number 53
_symmetry_cell_setting 'orthorhombic'
loop_
_space_group_symop_operation_xyz
x,y,z
1/2-x,-y,1/2+z
x,-y,-z
1/2-x,y,1/2-z
-x,-y,-z
1/2+x,y,1/2-z
-x,y,z
1/2+x,-y,1/2+z
loop_
_atom_site_type_symbol
_atom_site_label
_atom_site_fract_x
_atom_site_fract_y
_atom_site_fract_z
Si Si1 0.182814 0.848826 0.169583
Si Si2 0.680504 0.584375 0.972612
Si Si3 0.819743 0.996793 0.918268
Si Si4 0.681884 0.668157 0.826573
Si Si5 0.179807 0.183393 0.099343
Si Si6 0.318833 0.748911 0.045657
O O1 0.250000 0.841419 0.250000
O O2 0.246026 0.772475 0.123550
O O3 0.000000 0.845943 0.172617
O O4 0.247470 0.931796 0.132850
O O5 0.500000 0.572057 0.963738
O O6 0.745269 0.610853 0.892454
O O7 0.757100 0.500000 0.000000
O O8 0.717574 0.654040 0.031973
O O9 0.785341 0.910143 0.880286
O O10 0.000000 0.011835 0.926529
O O11 0.745226 0.000000 0.000000
O O12 0.750000 0.636064 0.750000
O O13 0.500000 0.666536 0.822542
O O14 0.733818 0.760487 0.841693
O O15 0.000000 0.203122 0.102226
O O16 0.239589 0.197299 0.016976
O O17 0.500000 0.765498 0.043972
#
# Coordination Sequence:
#
# PCOD8218161 Si02
#       6
#     8   8   8   8   8   8
#     4  11  22  37  54  74 105 141 181 224 269 312
#     4   8  16  33  57  81 105 136 173 214 260 315
#     4   9  17  32  53  76 101 138 181 220 262 309
#     4  10  20  34  53  79 110 140 175 217 268 322
#     4  10  18  32  55  78 104 139 177 216 260 311
#     4  10  19  33  54  80 106 135 174 213 257 316
#
# _framework density 18.419677
#
# number of rings (size 3 to 8) (size 9 to 14) (size 15 to 20)
#    0.000    2.333    1.667    3.000    0.000    0.667 
#    0.000    6.667    0.000   20.000    0.000    0.000 
#    0.000    0.000    0.000    0.000    0.000    0.000 
#
# Total GULP energy -595124.565901 kJ/mol
# GULP energy per Si atom -12398.428456 kJ/mol
# Density = 1.837775 g / cm^3
# Si number density = 18.419677 Si / 1000 Ang^3
#
#
#
# Elastic Constant Matrix: (Units=GPa)
#
#
# Indices 1 2 3 4 5 6 
#
# 1 54.4736 34.1712 25.7170 0.0000 0.0000 0.0000
# 2 34.1712 128.2093 71.7849 0.0000 0.0000 0.0000
# 3 25.7170 71.7849 137.8499 0.0000 0.0000 0.0000
# 4 0.0000 0.0000 0.0000 23.4009 0.0000 0.0000
# 5 0.0000 0.0000 0.0000 0.0000 31.1096 0.0000
# 6 0.0000 0.0000 0.0000 0.0000 0.0000 17.8885
#
#
#
# Elastic Compliance Matrix: (Units=1/GPa)
#
#
# Indices 1 2 3 4 5 6 
#
# 1 0.022261 -0.005093 -0.001501 0.000000 0.000000 0.000000
# 2 -0.005093 0.012175 -0.005390 0.000000 0.000000 0.000000
# 3 -0.001501 -0.005390 0.010341 0.000000 0.000000 0.000000
# 4 0.000000 0.000000 0.000000 0.042733 0.000000 0.000000
# 5 0.000000 0.000000 0.000000 0.000000 0.032144 0.000000
# 6 0.000000 0.000000 0.000000 0.000000 0.000000 0.055902
#
#
# Mechanical properties :
#
#
# Convention : Reuss Voigt Hill
#
# Bulk Modulus (GPa) = 48.05480 64.87545 56.46513
# Shear Modulus (GPa) = 24.21775 27.07045 25.64410
#
# Velocity S-wave (km/s) = 3.62992 3.83776 3.73528
# Velocity P-wave (km/s) = 6.61165 7.41182 7.02314
#
# Compressibility (1/GPa) = 0.02080957
#
# Stress axis : x y z
#
# Youngs Moduli (GPa) = 44.92216 82.13570 96.70159
#
# Poissons Ratio (x) = 0.41829 0.14514
# Poissons Ratio (y) = 0.22878 0.52122
# Poissons Ratio (z) = 0.06742 0.44271
#
# Static dielectric constant tensor:
#      x y z
#    x 3.200020 0.000000 0.000000 
#    y 0.000000 3.614490 0.000000 
#    z 0.000000 0.000000 3.435360 
# 
# 
# High freq. dielectric constant tensor:
#      x y z
#    x 1.697590 0.000000 0.000000 
#    y 0.000000 1.710240 0.000000 
#    z 0.000000 0.000000 1.708740 
# 
# From -- ./inp_files/26437.got.cif
#   From: 2010.03.12/outbox.cif.g09.slc.cpg/sg53_14_cif.got.tgz:26437.got - 2010.04.16 14:36:59.
