data_PCOD8218743
_publ_section_title
;
Structure prediction by ZEFSAII (Michael W. Deem and Ramdas Pophale) SiO2 
 PCOD8218743
Probable space group: P M N A
;
_chemical_formula_sum "Si O2"
_cell_formula_units_Z 64
_cell_length_a 18.437395
_cell_length_b 11.076599
_cell_length_c 17.890919
_cell_angle_alpha 90.000000
_cell_angle_beta 90.000000
_cell_angle_gamma 90.000000
_cell_volume 3653.748440
_symmetry_space_group_name_H-M "P M N A"
_symmetry_group_IT_number 53
_symmetry_cell_setting 'orthorhombic'
loop_
_space_group_symop_operation_xyz
x,y,z
1/2-x,-y,1/2+z
x,-y,-z
1/2-x,y,1/2-z
-x,-y,-z
1/2+x,y,1/2-z
-x,y,z
1/2+x,-y,1/2+z
loop_
_atom_site_type_symbol
_atom_site_label
_atom_site_fract_x
_atom_site_fract_y
_atom_site_fract_z
Si Si1 0.335484 0.712607 0.759501
Si Si2 0.816077 0.101465 0.555267
Si Si3 0.345251 0.864641 0.475573
Si Si4 0.675687 0.975921 0.790942
Si Si5 0.081929 0.938230 0.166582
Si Si6 0.415426 0.569630 0.883164
Si Si7 0.584042 0.677845 0.040839
Si Si8 0.417300 0.214727 0.382492
O O1 0.250000 0.690416 0.750000
O O2 0.367780 0.608216 0.812192
O O3 0.372786 0.706107 0.677581
O O4 0.357036 0.840604 0.798669
O O5 0.740812 0.158310 0.526119
O O6 0.802338 0.033397 0.631791
O O7 0.873404 0.205743 0.568019
O O8 0.847593 0.000000 0.500000
O O9 0.380820 0.848081 0.393470
O O10 0.380619 0.772086 0.535325
O O11 0.362868 0.000000 0.500000
O O12 0.750000 0.952982 0.750000
O O13 0.623267 0.067339 0.745944
O O14 0.000000 0.894087 0.178641
O O15 0.085831 0.075448 0.139785
O O16 0.500000 0.587521 0.864144
O O17 0.398179 0.430563 0.902243
O O18 0.393738 0.646976 0.956021
O O19 0.500000 0.709442 0.044303
O O20 0.500000 0.261433 0.386166
#
# Coordination Sequence:
#
# PCOD8218743 Si02
#       8
#     8   8   8   8   8   8   8   8
#     4  10  20  29  52  78 108 136 171 222 270 316
#     4  11  21  31  52  76 108 140 170 211 266 324
#     4   9  17  27  45  69  99 137 172 206 252 309
#     4  10  19  32  44  72 108 142 170 210 265 320
#     4   9  16  28  45  64  94 138 178 207 244 303
#     4   9  18  37  57  73  98 133 175 222 271 310
#     4   9  20  36  55  75  99 136 178 217 257 320
#     4   9  17  28  43  71 104 132 168 212 260 310
#
# _framework density 17.516259000000002
#
# number of rings (size 3 to 8) (size 9 to 14) (size 15 to 20)
#    0.000    2.500    1.250    2.250    7.000    2.750 
#    0.000    0.625    0.000    0.000    0.000    0.000 
#    0.000    1.000    0.000    0.000    0.000    0.000 
#
# Total GULP energy -793454.258323 kJ/mol
# GULP energy per Si atom -12397.722786 kJ/mol
# Density = 1.747639 g / cm^3
# Si number density = 17.516259 Si / 1000 Ang^3
#
#
#
# Elastic Constant Matrix: (Units=GPa)
#
#
# Indices 1 2 3 4 5 6 
#
# 1 91.9449 36.8583 48.7773 0.0000 0.0000 0.0000
# 2 36.8583 54.5303 34.2277 0.0000 0.0000 0.0000
# 3 48.7773 34.2277 104.9106 0.0000 0.0000 0.0000
# 4 0.0000 0.0000 0.0000 21.6046 0.0000 0.0000
# 5 0.0000 0.0000 0.0000 0.0000 33.5327 0.0000
# 6 0.0000 0.0000 0.0000 0.0000 0.0000 21.2190
#
#
#
# Elastic Compliance Matrix: (Units=1/GPa)
#
#
# Indices 1 2 3 4 5 6 
#
# 1 0.016906 -0.008166 -0.005196 0.000000 0.000000 0.000000
# 2 -0.008166 0.027005 -0.005014 0.000000 0.000000 0.000000
# 3 -0.005196 -0.005014 0.013584 0.000000 0.000000 0.000000
# 4 0.000000 0.000000 0.000000 0.046287 0.000000 0.000000
# 5 0.000000 0.000000 0.000000 0.000000 0.029822 0.000000
# 6 0.000000 0.000000 0.000000 0.000000 0.000000 0.047128
#
#
# Mechanical properties :
#
#
# Convention : Reuss Voigt Hill
#
# Bulk Modulus (GPa) = 48.20894 54.56802 51.38848
# Shear Modulus (GPa) = 22.28196 24.03941 23.16069
#
# Velocity S-wave (km/s) = 3.57048 3.70862 3.64021
# Velocity P-wave (km/s) = 6.67682 7.03981 6.86071
#
# Compressibility (1/GPa) = 0.02074304
#
# Stress axis : x y z
#
# Youngs Moduli (GPa) = 59.15012 37.03019 73.61749
#
# Poissons Ratio (x) = 0.30238 0.38254
# Poissons Ratio (y) = 0.48300 0.36912
# Poissons Ratio (z) = 0.30736 0.18567
#
# Static dielectric constant tensor:
#      x y z
#    x 3.306180 0.000000 0.000000 
#    y 0.000000 2.786580 0.000000 
#    z 0.000000 0.000000 3.220220 
# 
# 
# High freq. dielectric constant tensor:
#      x y z
#    x 1.684430 0.000000 0.000000 
#    y 0.000000 1.619750 0.000000 
#    z 0.000000 0.000000 1.683580 
# 
# From -- ./inp_files/29114.got.cif
#   From: 2010.03.12/outbox.cif.g09.slc.cpg/sg53_15_cif.got.tgz:29114.got - 2010.04.16 14:36:59.
