data_PCOD8218544
_publ_section_title
;
Structure prediction by ZEFSAII (Michael W. Deem and Ramdas Pophale) SiO2 
 PCOD8218544
Probable space group: P M N A
;
_chemical_formula_sum "Si O2"
_cell_formula_units_Z 64
_cell_length_a 8.856593
_cell_length_b 13.896217
_cell_length_c 31.743513
_cell_angle_alpha 90.000000
_cell_angle_beta 90.000000
_cell_angle_gamma 90.000000
_cell_volume 3906.773763
_symmetry_space_group_name_H-M "P M N A"
_symmetry_group_IT_number 53
_symmetry_cell_setting 'orthorhombic'
loop_
_space_group_symop_operation_xyz
x,y,z
1/2-x,-y,1/2+z
x,-y,-z
1/2-x,y,1/2-z
-x,-y,-z
1/2+x,y,1/2-z
-x,y,z
1/2+x,-y,1/2+z
loop_
_atom_site_type_symbol
_atom_site_label
_atom_site_fract_x
_atom_site_fract_y
_atom_site_fract_z
Si Si1 0.680451 0.000046 0.383369
Si Si2 0.829721 0.538989 0.452669
Si Si3 0.823508 0.202915 0.375550
Si Si4 0.334326 0.017646 0.709265
Si Si5 0.668720 0.279793 0.521696
Si Si6 0.678945 0.080380 0.966113
Si Si7 0.331584 0.789637 0.709386
Si Si8 0.167876 0.358071 0.071264
O O1 0.500000 0.999550 0.384864
O O2 0.737217 0.960698 0.337239
O O3 0.747948 0.935467 0.420330
O O4 0.734725 0.108665 0.390528
O O5 0.831915 0.500000 0.500000
O O6 0.754514 0.644434 0.448236
O O7 0.732143 0.466007 0.424169
O O8 0.000000 0.545564 0.435098
O O9 0.770321 0.239044 0.330070
O O10 0.787328 0.287627 0.407492
O O11 0.000000 0.179451 0.375478
O O12 0.250000 0.062546 0.750000
O O13 0.500000 0.063539 0.710776
O O14 0.342356 0.903660 0.714114
O O15 0.500000 0.258152 0.539258
O O16 0.764281 0.182537 0.517311
O O17 0.655540 0.329093 0.476883
O O18 0.500000 0.080406 0.961319
O O19 0.730974 0.000000 0.000000
O O20 0.250000 0.744267 0.750000
O O21 0.500000 0.746388 0.704676
O O22 0.000000 0.352896 0.091832
#
# Coordination Sequence:
#
# PCOD8218544 Si02
#       8
#     8   8   8   8   8   8   8   8
#     4  10  20  33  46  63  89 121 157 193 229 272
#     4   9  17  30  48  68  89 112 141 181 225 266
#     4  11  20  29  43  64  90 120 152 187 227 267
#     4   8  15  26  42  62  83 109 142 181 224 269
#     4  10  20  33  49  66  87 118 152 187 228 271
#     4  11  23  35  47  65  90 122 160 197 231 270
#     4   9  16  27  41  59  84 115 149 182 219 265
#     4  10  19  31  47  67  90 116 149 186 225 269
#
# _framework density 16.381803999999999
#
# number of rings (size 3 to 8) (size 9 to 14) (size 15 to 20)
#    0.000    2.250    0.000    4.875    0.000    9.500 
#    0.000    0.000    0.000    0.000    0.000    0.000 
#    0.000    1.000    0.000    8.500    0.000    5.750 
#
# Total GULP energy -793358.558056 kJ/mol
# GULP energy per Si atom -12396.227470 kJ/mol
# Density = 1.634452 g / cm^3
# Si number density = 16.381804 Si / 1000 Ang^3
#
#
#
# Elastic Constant Matrix: (Units=GPa)
#
#
# Indices 1 2 3 4 5 6 
#
# 1 99.9748 26.7948 28.7564 0.0000 0.0000 0.0000
# 2 26.7948 68.5403 12.3604 0.0000 0.0000 0.0000
# 3 28.7564 12.3604 57.1515 0.0000 0.0000 0.0000
# 4 0.0000 0.0000 0.0000 8.4474 0.0000 0.0000
# 5 0.0000 0.0000 0.0000 0.0000 26.8034 0.0000
# 6 0.0000 0.0000 0.0000 0.0000 0.0000 21.8804
#
#
#
# Elastic Compliance Matrix: (Units=1/GPa)
#
#
# Indices 1 2 3 4 5 6 
#
# 1 0.012646 -0.003950 -0.005508 0.000000 0.000000 0.000000
# 2 -0.003950 0.016416 -0.001563 0.000000 0.000000 0.000000
# 3 -0.005508 -0.001563 0.020607 0.000000 0.000000 0.000000
# 4 0.000000 0.000000 0.000000 0.118380 0.000000 0.000000
# 5 0.000000 0.000000 0.000000 0.000000 0.037309 0.000000
# 6 0.000000 0.000000 0.000000 0.000000 0.000000 0.045703
#
#
# Mechanical properties :
#
#
# Convention : Reuss Voigt Hill
#
# Bulk Modulus (GPa) = 36.19810 40.16554 38.18182
# Shear Modulus (GPa) = 17.71092 21.94325 19.82709
#
# Velocity S-wave (km/s) = 3.29163 3.66387 3.48273
# Velocity P-wave (km/s) = 6.04904 6.51692 6.28733
#
# Compressibility (1/GPa) = 0.02762576
#
# Stress axis : x y z
#
# Youngs Moduli (GPa) = 79.07834 60.91593 48.52719
#
# Poissons Ratio (x) = 0.24063 0.26731
# Poissons Ratio (y) = 0.31238 0.07584
# Poissons Ratio (z) = 0.43560 0.09520
#
# Static dielectric constant tensor:
#      x y z
#    x 3.431910 0.000000 0.000000 
#    y 0.000000 2.792620 0.000000 
#    z 0.000000 0.000000 3.162730 
# 
# 
# High freq. dielectric constant tensor:
#      x y z
#    x 1.650350 0.000000 0.000000 
#    y 0.000000 1.587420 0.000000 
#    z 0.000000 0.000000 1.611920 
# 
# From -- ./inp_files/38260.got.cif
#   From: 2010.03.12/outbox.cif.g09.slc.cpg/sg53_20_cif.got.tgz:38260.got - 2010.04.16 14:36:59.
