data_PCOD8218063
_publ_section_title
;
Structure prediction by ZEFSAII (Michael W. Deem and Ramdas Pophale) SiO2 
 PCOD8218063
Probable space group: P M N A
;
_chemical_formula_sum "Si O2"
_cell_formula_units_Z 32
_cell_length_a 8.596346
_cell_length_b 20.798962
_cell_length_c 9.191441
_cell_angle_alpha 90.000000
_cell_angle_beta 90.000000
_cell_angle_gamma 90.000000
_cell_volume 1643.384372
_symmetry_space_group_name_H-M "P M N A"
_symmetry_group_IT_number 53
_symmetry_cell_setting 'orthorhombic'
loop_
_space_group_symop_operation_xyz
x,y,z
1/2-x,-y,1/2+z
x,-y,-z
1/2-x,y,1/2-z
-x,-y,-z
1/2+x,y,1/2-z
-x,y,z
1/2+x,-y,1/2+z
loop_
_atom_site_type_symbol
_atom_site_label
_atom_site_fract_x
_atom_site_fract_y
_atom_site_fract_z
Si Si1 0.183009 0.822231 0.589744
Si Si2 0.680221 0.936226 0.407535
Si Si3 0.184175 0.308757 0.088191
Si Si4 0.683726 0.561688 0.910056
O O1 0.250000 0.835689 0.750000
O O2 0.225358 0.879464 0.482787
O O3 0.251252 0.756821 0.516729
O O4 0.000000 0.815540 0.604729
O O5 0.750000 0.949529 0.250000
O O6 0.500000 0.916929 0.396366
O O7 0.704537 0.000000 0.500000
O O8 0.250000 0.309978 0.250000
O O9 0.246774 0.374032 0.011987
O O10 0.000000 0.307967 0.086505
O O11 0.750000 0.553058 0.750000
O O12 0.500000 0.568330 0.903211
O O13 0.738480 0.500000 0.000000
#
# Coordination Sequence:
#
# PCOD8218063 Si02
#       4
#     8   8   8   8
#     4  11  21  36  59  85 114 146 185 230 277 329
#     4  11  24  41  61  86 116 149 186 227 274 327
#     4  10  18  31  53  79 108 142 183 226 273 328
#     4  10  20  34  53  78 108 142 182 226 274 327
#
# _framework density 19.472011999999999
#
# number of rings (size 3 to 8) (size 9 to 14) (size 15 to 20)
#    0.000    1.500    0.000    9.750    0.000    6.000 
#    0.000    1.250    0.000    3.000    0.000    0.000 
#    0.000    0.000    0.000    0.000    0.000    0.000 
#
# Total GULP energy -396784.065437 kJ/mol
# GULP energy per Si atom -12399.502045 kJ/mol
# Density = 1.942769 g / cm^3
# Si number density = 19.472012 Si / 1000 Ang^3
#
#
#
# Elastic Constant Matrix: (Units=GPa)
#
#
# Indices 1 2 3 4 5 6 
#
# 1 140.4207 59.5372 27.1706 0.0000 0.0000 0.0000
# 2 59.5372 147.4745 39.2515 0.0000 0.0000 0.0000
# 3 27.1706 39.2515 69.5798 0.0000 0.0000 0.0000
# 4 0.0000 0.0000 0.0000 -75.4377 0.0000 0.0000
# 5 0.0000 0.0000 0.0000 0.0000 24.8877 0.0000
# 6 0.0000 0.0000 0.0000 0.0000 0.0000 94.2212
#
#
#
# Elastic Compliance Matrix: (Units=1/GPa)
#
#
# Indices 1 2 3 4 5 6 
#
# 1 0.008755 -0.003088 -0.001677 0.000000 0.000000 0.000000
# 2 -0.003088 0.009068 -0.003910 0.000000 0.000000 0.000000
# 3 -0.001677 -0.003910 0.017232 0.000000 0.000000 0.000000
# 4 0.000000 0.000000 0.000000 -0.013256 0.000000 0.000000
# 5 0.000000 0.000000 0.000000 0.000000 0.040181 0.000000
# 6 0.000000 0.000000 0.000000 0.000000 0.000000 0.010613
#
#
# Mechanical properties :
#
#
# Convention : Reuss Voigt Hill
#
# Bulk Modulus (GPa) = 56.47658 67.71041 62.09349
# Shear Modulus (GPa) = 52.16748 24.16860 38.16804
#
# Velocity S-wave (km/s) = 5.18162 3.52688 4.43216
# Velocity P-wave (km/s) = 8.05393 7.17174 7.62561
#
# Compressibility (1/GPa) = 0.01770645
#
# Stress axis : x y z
#
# Youngs Moduli (GPa) = 114.21613 110.27527 58.03080
#
# Poissons Ratio (x) = 0.34057 0.09730
# Poissons Ratio (y) = 0.35274 0.22688
# Poissons Ratio (z) = 0.19151 0.43113
#
# Static dielectric constant tensor:
#      x y z
#    x 3.721910 0.000000 0.000000 
#    y 0.000000 4.548890 0.000000 
#    z 0.000000 0.000000 3.239470 
# 
# 
# High freq. dielectric constant tensor:
#      x y z
#    x 1.781100 0.000000 0.000000 
#    y 0.000000 1.788490 0.000000 
#    z 0.000000 0.000000 1.717480 
# 
# From -- ./inp_files/6025.got.cif
#   From: 2010.03.12/outbox.cif.g09.slc.cpg/sg53_4_cif.got.tgz:6025.got - 2010.04.16 14:36:59.
