data_PCOD8218923
_publ_section_title
;
Structure prediction by ZEFSAII (Michael W. Deem and Ramdas Pophale) SiO2 
 PCOD8218923
Probable space group: P M N A
;
_chemical_formula_sum "Si O2"
_cell_formula_units_Z 64
_cell_length_a 8.859484
_cell_length_b 11.122802
_cell_length_c 33.530807
_cell_angle_alpha 90.000000
_cell_angle_beta 90.000000
_cell_angle_gamma 90.000000
_cell_volume 3304.202385
_symmetry_space_group_name_H-M "P M N A"
_symmetry_group_IT_number 53
_symmetry_cell_setting 'orthorhombic'
loop_
_space_group_symop_operation_xyz
x,y,z
1/2-x,-y,1/2+z
x,-y,-z
1/2-x,y,1/2-z
-x,-y,-z
1/2+x,y,1/2-z
-x,y,z
1/2+x,-y,1/2+z
loop_
_atom_site_type_symbol
_atom_site_label
_atom_site_fract_x
_atom_site_fract_y
_atom_site_fract_z
Si Si1 0.676329 0.289228 0.445921
Si Si2 0.171926 0.347067 0.868048
Si Si3 0.176362 0.786412 0.478374
Si Si4 0.177410 0.149838 0.132602
Si Si5 0.675856 0.098722 0.594428
Si Si6 0.174888 0.481625 0.789889
Si Si7 0.324996 0.536790 0.062473
Si Si8 0.320180 0.734292 0.792322
O O1 0.500000 0.283910 0.453353
O O2 0.751686 0.198419 0.477846
O O3 0.717386 0.248196 0.401154
O O4 0.734788 0.423236 0.453918
O O5 0.214595 0.208740 0.875873
O O6 0.194711 0.375552 0.821719
O O7 0.280365 0.436696 0.892005
O O8 0.000000 0.373165 0.881546
O O9 0.241354 0.884925 0.447868
O O10 0.218441 0.652805 0.463407
O O11 0.000000 0.807726 0.481315
O O12 0.268916 0.175563 0.172874
O O13 0.000000 0.150354 0.142458
O O14 0.232423 0.020926 0.116328
O O15 0.500000 0.089409 0.584808
O O16 0.250000 0.430040 0.750000
O O17 0.259704 0.602207 0.803688
O O18 0.000000 0.514157 0.782723
O O19 0.500000 0.504985 0.059466
O O20 0.250000 0.776012 0.750000
O O21 0.500000 0.733686 0.789055
#
# Coordination Sequence:
#
# PCOD8218923 Si02
#       8
#     8   8   8   8   8   8   8   8
#     4  11  22  34  52  78 107 141 179 219 265 318
#     4   9  18  33  54  77 101 135 175 213 258 314
#     4  10  21  36  53  76 107 139 175 222 271 317
#     4  10  22  39  57  79 108 141 181 225 263 308
#     4   9  19  38  59  75 100 141 183 220 261 311
#     4  10  19  32  52  80 111 137 166 206 256 314
#     4  10  20  33  51  76 105 136 171 217 271 320
#     4  11  22  37  59  84 111 142 174 211 260 314
#
# _framework density 19.369274000000001
#
# number of rings (size 3 to 8) (size 9 to 14) (size 15 to 20)
#    0.000    2.000    0.000    4.500    0.000    9.000 
#    0.000    3.125    0.000    1.500    0.000    0.000 
#    0.000    0.000    0.000    0.000    0.000    0.000 
#
# Total GULP energy -793746.854879 kJ/mol
# GULP energy per Si atom -12402.294607 kJ/mol
# Density = 1.932519 g / cm^3
# Si number density = 19.369274 Si / 1000 Ang^3
#
#
#
# Elastic Constant Matrix: (Units=GPa)
#
#
# Indices 1 2 3 4 5 6 
#
# 1 91.4909 26.9739 48.3950 0.0000 0.0000 0.0000
# 2 26.9739 48.6969 16.9005 0.0000 0.0000 0.0000
# 3 48.3950 16.9005 97.5639 0.0000 0.0000 0.0000
# 4 0.0000 0.0000 0.0000 22.0711 0.0000 0.0000
# 5 0.0000 0.0000 0.0000 0.0000 36.0031 0.0000
# 6 0.0000 0.0000 0.0000 0.0000 0.0000 21.0216
#
#
#
# Elastic Compliance Matrix: (Units=1/GPa)
#
#
# Indices 1 2 3 4 5 6 
#
# 1 0.016685 -0.006777 -0.007102 0.000000 0.000000 0.000000
# 2 -0.006777 0.024601 -0.000900 0.000000 0.000000 0.000000
# 3 -0.007102 -0.000900 0.013929 0.000000 0.000000 0.000000
# 4 0.000000 0.000000 0.000000 0.045308 0.000000 0.000000
# 5 0.000000 0.000000 0.000000 0.000000 0.027775 0.000000
# 6 0.000000 0.000000 0.000000 0.000000 0.000000 0.047570
#
#
# Mechanical properties :
#
#
# Convention : Reuss Voigt Hill
#
# Bulk Modulus (GPa) = 38.97684 46.92117 42.94901
# Shear Modulus (GPa) = 23.36671 25.51796 24.44233
#
# Velocity S-wave (km/s) = 3.47707 3.63360 3.55619
# Velocity P-wave (km/s) = 6.02384 6.47157 6.25172
#
# Compressibility (1/GPa) = 0.02565626
#
# Stress axis : x y z
#
# Youngs Moduli (GPa) = 59.93409 40.64797 71.79477
#
# Poissons Ratio (x) = 0.27548 0.50991
# Poissons Ratio (y) = 0.40618 0.06461
# Poissons Ratio (z) = 0.42567 0.03658
#
# Static dielectric constant tensor:
#      x y z
#    x 3.532800 0.000000 0.000000 
#    y 0.000000 3.460030 0.000000 
#    z 0.000000 0.000000 3.604680 
# 
# 
# High freq. dielectric constant tensor:
#      x y z
#    x 1.757520 0.000000 0.000000 
#    y 0.000000 1.740130 0.000000 
#    z 0.000000 0.000000 1.759460 
# 
# From -- ./inp_files/38162.got.cif
#   From: 2010.03.12/outbox.cif.g09.slc.cpg/sg53_20_cif.got.tgz:38162.got - 2010.04.16 14:36:59.
