data_PCOD8218188
_publ_section_title
;
Structure prediction by ZEFSAII (Michael W. Deem and Ramdas Pophale) SiO2 
 PCOD8218188
Probable space group: P M N A
;
_chemical_formula_sum "Si O2"
_cell_formula_units_Z 64
_cell_length_a 17.902331
_cell_length_b 16.793435
_cell_length_c 11.148506
_cell_angle_alpha 90.000000
_cell_angle_beta 90.000000
_cell_angle_gamma 90.000000
_cell_volume 3351.705038
_symmetry_space_group_name_H-M "P M N A"
_symmetry_group_IT_number 53
_symmetry_cell_setting 'orthorhombic'
loop_
_space_group_symop_operation_xyz
x,y,z
1/2-x,-y,1/2+z
x,-y,-z
1/2-x,y,1/2-z
-x,-y,-z
1/2+x,y,1/2-z
-x,y,z
1/2+x,-y,1/2+z
loop_
_atom_site_type_symbol
_atom_site_label
_atom_site_fract_x
_atom_site_fract_y
_atom_site_fract_z
Si Si1 0.088785 0.601357 0.879539
Si Si2 0.149303 0.151175 0.579487
Si Si3 0.913565 0.733042 0.251200
Si Si4 0.678485 0.833035 0.439247
Si Si5 0.912754 0.883724 0.671939
Si Si6 0.165386 0.972665 0.220947
Si Si7 0.167373 0.242870 0.194499
Si Si8 0.587084 0.572145 0.352208
O O1 0.139849 0.667427 0.817711
O O2 0.114766 0.517037 0.819435
O O3 0.000000 0.619159 0.864056
O O4 0.115127 0.600945 0.017801
O O5 0.102149 0.230468 0.616580
O O6 0.234106 0.179745 0.581185
O O7 0.125247 0.107855 0.457818
O O8 0.132643 0.086582 0.680463
O O9 0.865193 0.775983 0.150209
O O10 0.891956 0.638570 0.247945
O O11 0.000000 0.743567 0.216750
O O12 0.659402 0.926402 0.407884
O O13 0.660013 0.809981 0.574491
O O14 0.891464 0.795890 0.714738
O O15 0.000000 0.894456 0.657937
O O16 0.882760 0.947156 0.770097
O O17 0.250000 0.997170 0.250000
O O18 0.250000 0.240255 0.250000
O O19 0.500000 0.561697 0.367440
#
# Coordination Sequence:
#
# PCOD8218188 Si02
#       8
#     8   8   8   8   8   8   8   8
#     4   9  17  33  56  84 114 146 189 244 292 341
#     4  10  21  39  58  85 116 155 193 231 285 354
#     4  10  18  32  60  91 116 147 189 245 295 339
#     4  10  21  39  59  82 114 151 195 240 291 345
#     4  12  25  39  57  86 117 152 192 238 287 343
#     4   9  21  39  61  81 106 146 191 237 289 337
#     4  12  23  38  58  80 116 158 195 234 290 357
#     4   8  15  29  56  87 112 143 186 237 298 346
#
# _framework density 19.094759
#
# number of rings (size 3 to 8) (size 9 to 14) (size 15 to 20)
#    0.000    2.000    2.500    3.375    0.000    4.000 
#    0.000    1.875    0.000    0.750    0.000    3.500 
#    0.000    0.000    0.000    0.000    0.000    0.000 
#
# Total GULP energy -793099.070372 kJ/mol
# GULP energy per Si atom -12392.172975 kJ/mol
# Density = 1.905130 g / cm^3
# Si number density = 19.094759 Si / 1000 Ang^3
#
#
#
# Elastic Constant Matrix: (Units=GPa)
#
#
# Indices 1 2 3 4 5 6 
#
# 1 86.5630 50.7493 30.4690 0.0000 0.0000 0.0000
# 2 50.7493 124.8857 37.4095 0.0000 0.0000 0.0000
# 3 30.4690 37.4095 55.9257 0.0000 0.0000 0.0000
# 4 0.0000 0.0000 0.0000 24.1298 0.0000 0.0000
# 5 0.0000 0.0000 0.0000 0.0000 22.1865 0.0000
# 6 0.0000 0.0000 0.0000 0.0000 0.0000 40.3147
#
#
#
# Elastic Compliance Matrix: (Units=1/GPa)
#
#
# Indices 1 2 3 4 5 6 
#
# 1 0.016467 -0.005008 -0.005622 0.000000 0.000000 0.000000
# 2 -0.005008 0.011537 -0.004989 0.000000 0.000000 0.000000
# 3 -0.005622 -0.004989 0.024281 0.000000 0.000000 0.000000
# 4 0.000000 0.000000 0.000000 0.041442 0.000000 0.000000
# 5 0.000000 0.000000 0.000000 0.000000 0.045072 0.000000
# 6 0.000000 0.000000 0.000000 0.000000 0.000000 0.024805
#
#
# Mechanical properties :
#
#
# Convention : Reuss Voigt Hill
#
# Bulk Modulus (GPa) = 47.51046 56.07001 51.79023
# Shear Modulus (GPa) = 24.77012 27.24266 26.00639
#
# Velocity S-wave (km/s) = 3.60560 3.78128 3.69448
# Velocity P-wave (km/s) = 6.50148 6.96361 6.73651
#
# Compressibility (1/GPa) = 0.02104800
#
# Stress axis : x y z
#
# Youngs Moduli (GPa) = 60.72816 86.68033 41.18493
#
# Poissons Ratio (x) = 0.43406 0.23153
# Poissons Ratio (y) = 0.30410 0.20546
# Poissons Ratio (z) = 0.34139 0.43243
#
# Static dielectric constant tensor:
#      x y z
#    x 3.352900 0.000000 0.000000 
#    y 0.000000 3.810860 0.000000 
#    z 0.000000 0.000000 3.587360 
# 
# 
# High freq. dielectric constant tensor:
#      x y z
#    x 1.729200 0.000000 0.000000 
#    y 0.000000 1.751820 0.000000 
#    z 0.000000 0.000000 1.725040 
# 
# From -- ./inp_files/16246.got.cif
#   From: 2010.03.12/outbox.cif.g09.slc.cpg/sg53_9_cif.got.tgz:16246.got - 2010.04.16 14:36:59.
