data_PCOD8218948
_publ_section_title
;
Structure prediction by ZEFSAII (Michael W. Deem and Ramdas Pophale) SiO2 
 PCOD8218948
Probable space group: P M N A
;
_chemical_formula_sum "Si O2"
_cell_formula_units_Z 64
_cell_length_a 9.175660
_cell_length_b 21.484626
_cell_length_c 17.911950
_cell_angle_alpha 90.000000
_cell_angle_beta 90.000000
_cell_angle_gamma 90.000000
_cell_volume 3531.083430
_symmetry_space_group_name_H-M "P M N A"
_symmetry_group_IT_number 53
_symmetry_cell_setting 'orthorhombic'
loop_
_space_group_symop_operation_xyz
x,y,z
1/2-x,-y,1/2+z
x,-y,-z
1/2-x,y,1/2-z
-x,-y,-z
1/2+x,y,1/2-z
-x,y,z
1/2+x,-y,1/2+z
loop_
_atom_site_type_symbol
_atom_site_label
_atom_site_fract_x
_atom_site_fract_y
_atom_site_fract_z
Si Si1 0.835394 0.002712 0.588857
Si Si2 0.669205 0.620210 0.326071
Si Si3 0.667642 0.564123 0.036914
Si Si4 0.168269 0.882924 0.906942
Si Si5 0.831970 0.689043 0.545677
Si Si6 0.666673 0.742704 0.410227
Si Si7 0.172832 0.755735 0.828134
Si Si8 0.834240 0.120699 0.920020
O O1 0.763903 0.067122 0.617356
O O2 0.000000 0.001851 0.617077
O O3 0.821236 0.000000 0.500000
O O4 0.756058 0.942694 0.623564
O O5 0.750000 0.603605 0.250000
O O6 0.500000 0.604369 0.316887
O O7 0.732862 0.577460 0.391587
O O8 0.694009 0.693295 0.344308
O O9 0.500000 0.560810 0.063610
O O10 0.719619 0.500000 0.000000
O O11 0.688235 0.616750 0.974199
O O12 0.217074 0.823170 0.859910
O O13 0.000000 0.898157 0.895114
O O14 0.204308 0.869385 0.993072
O O15 0.777247 0.730852 0.477260
O O16 0.734804 0.702294 0.618015
O O17 0.000000 0.705907 0.561361
O O18 0.500000 0.737345 0.440543
O O19 0.694214 0.812803 0.379641
O O20 0.250000 0.746134 0.750000
O O21 0.000000 0.747987 0.820652
O O22 0.000000 0.098608 0.910789
#
# Coordination Sequence:
#
# PCOD8218948 Si02
#       8
#     8   8   8   8   8   8   8   8
#     4   9  17  26  39  65  96 122 156 207 259 304
#     4  10  20  34  55  82 114 145 179 218 261 311
#     4   9  19  37  60  85 113 144 179 217 258 307
#     4   9  17  30  47  64  90 128 166 209 260 316
#     4  10  19  32  53  79 105 134 168 212 261 307
#     4   9  17  31  51  75 102 137 173 212 258 310
#     4  11  22  36  52  73 101 136 178 222 268 318
#     4   9  15  27  46  68  94 126 166 207 258 314
#
# _framework density 18.124749000000001
#
# number of rings (size 3 to 8) (size 9 to 14) (size 15 to 20)
#    0.000    2.500    1.250    1.500    0.000    4.250 
#    0.000    0.625    0.000    0.750    0.000    1.750 
#    0.000    0.000    0.000    0.000    0.000    0.000 
#
# Total GULP energy -793615.108279 kJ/mol
# GULP energy per Si atom -12400.236067 kJ/mol
# Density = 1.808350 g / cm^3
# Si number density = 18.124749 Si / 1000 Ang^3
#
#
#
# Elastic Constant Matrix: (Units=GPa)
#
#
# Indices 1 2 3 4 5 6 
#
# 1 107.8017 61.3805 52.1834 0.0000 0.0000 0.0000
# 2 61.3805 125.6898 41.4179 0.0000 0.0000 0.0000
# 3 52.1834 41.4179 79.5101 0.0000 0.0000 0.0000
# 4 0.0000 0.0000 0.0000 16.6997 0.0000 0.0000
# 5 0.0000 0.0000 0.0000 0.0000 25.5659 0.0000
# 6 0.0000 0.0000 0.0000 0.0000 0.0000 27.5890
#
#
#
# Elastic Compliance Matrix: (Units=1/GPa)
#
#
# Indices 1 2 3 4 5 6 
#
# 1 0.016046 -0.005270 -0.007786 0.000000 0.000000 0.000000
# 2 -0.005270 0.011336 -0.002446 0.000000 0.000000 0.000000
# 3 -0.007786 -0.002446 0.018961 0.000000 0.000000 0.000000
# 4 0.000000 0.000000 0.000000 0.059881 0.000000 0.000000
# 5 0.000000 0.000000 0.000000 0.000000 0.039115 0.000000
# 6 0.000000 0.000000 0.000000 0.000000 0.000000 0.036246
#
#
# Mechanical properties :
#
#
# Convention : Reuss Voigt Hill
#
# Bulk Modulus (GPa) = 65.19484 69.21835 67.20660
# Shear Modulus (GPa) = 22.96712 24.50558 23.73635
#
# Velocity S-wave (km/s) = 3.56359 3.68101 3.62278
# Velocity P-wave (km/s) = 7.27876 7.50595 7.39323
#
# Compressibility (1/GPa) = 0.01533864
#
# Stress axis : x y z
#
# Youngs Moduli (GPa) = 62.32067 88.21509 52.73977
#
# Poissons Ratio (x) = 0.46494 0.41062
# Poissons Ratio (y) = 0.32846 0.12900
# Poissons Ratio (z) = 0.48521 0.21577
#
# Static dielectric constant tensor:
#      x y z
#    x 3.416690 0.000000 0.000000 
#    y 0.000000 3.466250 0.000000 
#    z 0.000000 0.000000 2.961270 
# 
# 
# High freq. dielectric constant tensor:
#      x y z
#    x 1.709700 0.000000 0.000000 
#    y 0.000000 1.705160 0.000000 
#    z 0.000000 0.000000 1.661520 
# 
# From -- ./inp_files/26954.got.cif
#   From: 2010.03.12/outbox.cif.g09.slc.cpg/sg53_14_cif.got.tgz:26954.got - 2010.04.16 14:36:59.
