data_PCOD8218093
_publ_section_title
;
Structure prediction by ZEFSAII (Michael W. Deem and Ramdas Pophale) SiO2 
 PCOD8218093
Probable space group: P M N A
;
_chemical_formula_sum "Si O2"
_cell_formula_units_Z 60
_cell_length_a 9.552831
_cell_length_b 11.909439
_cell_length_c 29.717786
_cell_angle_alpha 90.000000
_cell_angle_beta 90.000000
_cell_angle_gamma 90.000000
_cell_volume 3380.958578
_symmetry_space_group_name_H-M "P M N A"
_symmetry_group_IT_number 53
_symmetry_cell_setting 'orthorhombic'
loop_
_space_group_symop_operation_xyz
x,y,z
1/2-x,-y,1/2+z
x,-y,-z
1/2-x,y,1/2-z
-x,-y,-z
1/2+x,y,1/2-z
-x,y,z
1/2+x,-y,1/2+z
loop_
_atom_site_type_symbol
_atom_site_label
_atom_site_fract_x
_atom_site_fract_y
_atom_site_fract_z
Si Si1 0.161118 0.618436 0.977522
Si Si2 0.733881 0.000000 0.000000
Si Si3 0.334657 0.172833 0.619277
Si Si4 0.159882 0.067866 0.092998
Si Si5 0.343732 0.773688 0.037052
Si Si6 0.835695 0.564812 0.793830
Si Si7 0.835945 0.306902 0.119036
Si Si8 0.661026 0.694045 0.292285
O O1 0.192513 0.613351 0.924105
O O2 0.000000 0.655266 0.986178
O O3 0.193529 0.500000 0.000000
O O4 0.266909 0.708188 0.997542
O O5 0.828609 0.945630 0.960826
O O6 0.639686 0.096667 0.977857
O O7 0.500000 0.183157 0.608286
O O8 0.249498 0.241022 0.581650
O O9 0.295567 0.226607 0.666664
O O10 0.283228 0.042820 0.618848
O O11 0.233378 0.183022 0.110623
O O12 0.000000 0.081491 0.105515
O O13 0.500000 0.726128 0.045416
O O14 0.750000 0.603517 0.750000
O O15 0.774636 0.635383 0.836055
O O16 0.806505 0.434566 0.804912
O O17 0.000000 0.586117 0.785258
O O18 0.000000 0.294925 0.126374
O O19 0.750000 0.734988 0.250000
O O20 0.500000 0.710133 0.279526
#
# Coordination Sequence:
#
# PCOD8218093 Si02
#       8
#     8   4   8   8   8   8   8   8
#     4  10  21  35  54  77 103 138 180 218 258 308
#     4  10  18  32  50  70 103 144 181 208 253 310
#     4   9  19  33  52  76 101 132 173 214 252 303
#     4   9  16  28  50  77 100 129 174 220 254 295
#     4  11  22  34  50  74 108 143 174 212 258 307
#     4   9  18  33  54  75  99 128 166 209 255 308
#     4   9  17  31  52  76 101 132 170 215 259 300
#     4   9  18  33  54  77 100 128 165 210 260 311
#
# _framework density 17.746445999999999
#
# number of rings (size 3 to 8) (size 9 to 14) (size 15 to 20)
#    0.000    2.533    1.333    0.800    1.867    1.867 
#    0.000    1.333    0.000    0.000    0.000    0.000 
#    0.000    0.000    0.000    0.000    0.000    0.000 
#
# Total GULP energy -743715.535693 kJ/mol
# GULP energy per Si atom -12395.258928 kJ/mol
# Density = 1.770605 g / cm^3
# Si number density = 17.746446 Si / 1000 Ang^3
#
#
#
# Elastic Constant Matrix: (Units=GPa)
#
#
# Indices 1 2 3 4 5 6 
#
# 1 56.0696 28.0455 45.8770 0.0000 0.0000 0.0000
# 2 28.0455 88.2204 75.6207 0.0000 0.0000 0.0000
# 3 45.8770 75.6207 159.9590 0.0000 0.0000 0.0000
# 4 0.0000 0.0000 0.0000 35.3197 0.0000 0.0000
# 5 0.0000 0.0000 0.0000 0.0000 22.0032 0.0000
# 6 0.0000 0.0000 0.0000 0.0000 0.0000 7.2339
#
#
#
# Elastic Compliance Matrix: (Units=1/GPa)
#
#
# Indices 1 2 3 4 5 6 
#
# 1 0.023729 -0.002875 -0.005447 0.000000 0.000000 0.000000
# 2 -0.002875 0.019407 -0.008350 0.000000 0.000000 0.000000
# 3 -0.005447 -0.008350 0.011761 0.000000 0.000000 0.000000
# 4 0.000000 0.000000 0.000000 0.028313 0.000000 0.000000
# 5 0.000000 0.000000 0.000000 0.000000 0.045448 0.000000
# 6 0.000000 0.000000 0.000000 0.000000 0.000000 0.138237
#
#
# Mechanical properties :
#
#
# Convention : Reuss Voigt Hill
#
# Bulk Modulus (GPa) = 46.39455 67.03728 56.71591
# Shear Modulus (GPa) = 16.26424 23.22510 19.74467
#
# Velocity S-wave (km/s) = 3.03062 3.62155 3.33918
# Velocity P-wave (km/s) = 6.20048 7.43939 6.84801
#
# Compressibility (1/GPa) = 0.02155426
#
# Stress axis : x y z
#
# Youngs Moduli (GPa) = 42.14168 51.52888 85.02579
#
# Poissons Ratio (x) = 0.14814 0.46310
# Poissons Ratio (y) = 0.12116 0.70996
# Poissons Ratio (z) = 0.22953 0.43026
#
# Static dielectric constant tensor:
#      x y z
#    x 2.987880 0.000000 0.000000 
#    y 0.000000 3.580970 0.000000 
#    z 0.000000 0.000000 3.325270 
# 
# 
# High freq. dielectric constant tensor:
#      x y z
#    x 1.655360 0.000000 0.000000 
#    y 0.000000 1.688350 0.000000 
#    z 0.000000 0.000000 1.682110 
# 
# From -- ./inp_files/36876.got.cif
#   From: 2010.03.12/outbox.cif.g09.slc.cpg/sg53_19_cif.got.tgz:36876.got - 2010.04.16 14:36:59.
