data_PCOD8218212
_publ_section_title
;
Structure prediction by ZEFSAII (Michael W. Deem and Ramdas Pophale) SiO2 
 PCOD8218212
Probable space group: P M N A
;
_chemical_formula_sum "Si O2"
_cell_formula_units_Z 64
_cell_length_a 17.667107
_cell_length_b 12.645695
_cell_length_c 14.855390
_cell_angle_alpha 90.000000
_cell_angle_beta 90.000000
_cell_angle_gamma 90.000000
_cell_volume 3318.884968
_symmetry_space_group_name_H-M "P M N A"
_symmetry_group_IT_number 53
_symmetry_cell_setting 'orthorhombic'
loop_
_space_group_symop_operation_xyz
x,y,z
1/2-x,-y,1/2+z
x,-y,-z
1/2-x,y,1/2-z
-x,-y,-z
1/2+x,y,1/2-z
-x,y,z
1/2+x,-y,1/2+z
loop_
_atom_site_type_symbol
_atom_site_label
_atom_site_fract_x
_atom_site_fract_y
_atom_site_fract_z
Si Si1 0.590159 0.175186 0.719511
Si Si2 0.910112 0.618740 0.320634
Si Si3 0.411263 0.884180 0.475800
Si Si4 0.589846 0.613417 0.792004
Si Si5 0.413936 0.904157 0.938937
Si Si6 0.162254 0.033728 0.267683
Si Si7 0.411581 0.792488 0.658267
Si Si8 0.586139 0.326509 0.013784
O O1 0.500000 0.172257 0.723862
O O2 0.621693 0.285741 0.759591
O O3 0.622001 0.160573 0.617914
O O4 0.623130 0.080229 0.779430
O O5 0.887277 0.508303 0.272543
O O6 0.876939 0.622384 0.423571
O O7 0.000000 0.630002 0.328024
O O8 0.500000 0.900594 0.463367
O O9 0.395141 0.792632 0.550938
O O10 0.375882 0.000000 0.500000
O O11 0.500000 0.628018 0.794318
O O12 0.622056 0.690200 0.712289
O O13 0.624605 0.642142 0.890591
O O14 0.500000 0.918088 0.902655
O O15 0.355757 0.897509 0.856331
O O16 0.407718 0.799270 0.998687
O O17 0.387872 0.000000 0.000000
O O18 0.250000 0.019556 0.250000
O O19 0.126070 0.097493 0.185950
O O20 0.500000 0.800561 0.678736
O O21 0.500000 0.365910 0.019538
#
# Coordination Sequence:
#
# PCOD8218212 Si02
#       8
#     8   8   8   8   8   8   8   8
#     4  10  19  34  54  74 101 135 176 219 261 312
#     4   9  17  28  47  78 108 135 168 216 265 310
#     4   9  16  28  51  76  92 124 177 213 246 301
#     4   9  16  27  47  75 107 136 169 214 263 312
#     4  10  19  33  53  78 110 146 179 218 273 334
#     4  12  23  34  49  77 110 138 176 216 272 321
#     4  10  18  33  55  76 102 136 176 216 259 310
#     4   9  15  25  45  73 105 138 171 207 258 319
#
# _framework density 19.283586
#
# number of rings (size 3 to 8) (size 9 to 14) (size 15 to 20)
#    0.000    2.250    2.500    2.250    0.000    3.500 
#    2.250    0.625    0.000    4.500    0.000    0.000 
#    0.000    0.000    0.000    0.000    0.000    0.000 
#
# Total GULP energy -793081.461084 kJ/mol
# GULP energy per Si atom -12391.897829 kJ/mol
# Density = 1.923970 g / cm^3
# Si number density = 19.283586 Si / 1000 Ang^3
#
#
#
# Elastic Constant Matrix: (Units=GPa)
#
#
# Indices 1 2 3 4 5 6 
#
# 1 23.0934 7.5692 8.9683 0.0000 0.0000 0.0000
# 2 7.5692 119.8510 45.3144 0.0000 0.0000 0.0000
# 3 8.9683 45.3144 103.0002 0.0000 0.0000 0.0000
# 4 0.0000 0.0000 0.0000 30.2419 0.0000 0.0000
# 5 0.0000 0.0000 0.0000 0.0000 4.5708 0.0000
# 6 0.0000 0.0000 0.0000 0.0000 0.0000 3.5070
#
#
#
# Elastic Compliance Matrix: (Units=1/GPa)
#
#
# Indices 1 2 3 4 5 6 
#
# 1 0.045083 -0.001635 -0.003206 0.000000 0.000000 0.000000
# 2 -0.001635 0.010068 -0.004287 0.000000 0.000000 0.000000
# 3 -0.003206 -0.004287 0.011874 0.000000 0.000000 0.000000
# 4 0.000000 0.000000 0.000000 0.033067 0.000000 0.000000
# 5 0.000000 0.000000 0.000000 0.000000 0.218778 0.000000
# 6 0.000000 0.000000 0.000000 0.000000 0.000000 0.285141
#
#
# Mechanical properties :
#
#
# Convention : Reuss Voigt Hill
#
# Bulk Modulus (GPa) = 20.50488 41.07204 30.78846
# Shear Modulus (GPa) = 7.83057 19.93680 13.88369
#
# Velocity S-wave (km/s) = 2.01732 3.21888 2.68614
# Velocity P-wave (km/s) = 4.01030 5.92960 5.06175
#
# Compressibility (1/GPa) = 0.04876888
#
# Stress axis : x y z
#
# Youngs Moduli (GPa) = 22.18115 99.32670 84.21852
#
# Poissons Ratio (x) = 0.16240 0.27001
# Poissons Ratio (y) = 0.03627 0.36104
# Poissons Ratio (z) = 0.07112 0.42580
#
# Static dielectric constant tensor:
#      x y z
#    x 2.795350 0.000000 0.000000 
#    y 0.000000 3.650140 0.000000 
#    z 0.000000 0.000000 3.811540 
# 
# 
# High freq. dielectric constant tensor:
#      x y z
#    x 1.666990 0.000000 0.000000 
#    y 0.000000 1.753790 0.000000 
#    z 0.000000 0.000000 1.759170 
# 
# From -- ./inp_files/23875.got.cif
#   From: 2010.03.12/outbox.cif.g09.slc.cpg/sg53_12_cif.got.tgz:23875.got - 2010.04.16 14:36:59.
