data_PCOD8218818
_publ_section_title
;
Structure prediction by ZEFSAII (Michael W. Deem and Ramdas Pophale) SiO2 
 PCOD8218818
Probable space group: P M N A
;
_chemical_formula_sum "Si O2"
_cell_formula_units_Z 64
_cell_length_a 9.138079
_cell_length_b 13.997230
_cell_length_c 29.562955
_cell_angle_alpha 90.000000
_cell_angle_beta 90.000000
_cell_angle_gamma 90.000000
_cell_volume 3781.332344
_symmetry_space_group_name_H-M "P M N A"
_symmetry_group_IT_number 53
_symmetry_cell_setting 'orthorhombic'
loop_
_space_group_symop_operation_xyz
x,y,z
1/2-x,-y,1/2+z
x,-y,-z
1/2-x,y,1/2-z
-x,-y,-z
1/2+x,y,1/2-z
-x,y,z
1/2+x,-y,1/2+z
loop_
_atom_site_type_symbol
_atom_site_label
_atom_site_fract_x
_atom_site_fract_y
_atom_site_fract_z
Si Si1 0.674089 0.012320 0.703569
Si Si2 0.335182 0.312275 0.597559
Si Si3 0.171109 0.706987 0.928117
Si Si4 0.334916 0.834400 0.148996
Si Si5 0.674447 0.498171 0.448447
Si Si6 0.669647 0.112848 0.379710
Si Si7 0.164643 0.823831 0.011821
Si Si8 0.663745 0.029731 0.937282
O O1 0.750000 0.982018 0.750000
O O2 0.500000 0.019958 0.709358
O O3 0.737120 0.113972 0.687203
O O4 0.721381 0.928650 0.668372
O O5 0.500000 0.326771 0.616233
O O6 0.235791 0.268840 0.637769
O O7 0.265140 0.412631 0.580658
O O8 0.338151 0.239646 0.556325
O O9 0.233764 0.599341 0.924342
O O10 0.201593 0.772621 0.883509
O O11 0.000000 0.695157 0.937185
O O12 0.236532 0.761254 0.971791
O O13 0.500000 0.819730 0.167315
O O14 0.335419 0.897927 0.104458
O O15 0.733459 0.500000 0.500000
O O16 0.500000 0.506482 0.449195
O O17 0.500000 0.089757 0.386017
O O18 0.747754 0.064154 0.422612
O O19 0.262719 0.918512 0.019477
O O20 0.000000 0.856692 0.999371
O O21 0.500000 0.999862 0.950426
#
# Coordination Sequence:
#
# PCOD8218818 Si02
#       8
#     8   8   8   8   8   8   8   8
#     4  10  19  32  51  73  94 115 142 177 222 276
#     4   9  15  24  42  66  91 119 154 195 235 271
#     4   9  16  26  41  62  88 118 155 196 231 264
#     4   9  17  29  45  66  92 120 148 181 223 271
#     4   9  14  23  41  67  92 117 157 206 243 265
#     4   9  18  31  45  63  88 116 147 183 222 270
#     4   9  15  24  40  60  83 115 154 192 228 264
#     4   9  17  28  41  57  83 118 153 186 222 264
#
# _framework density 16.925250999999999
#
# number of rings (size 3 to 8) (size 9 to 14) (size 15 to 20)
#    0.000    2.875    1.250    1.125    0.000    4.000 
#    0.000    3.125    0.000    1.875    0.000    0.875 
#    0.000    2.000    0.000    0.000    0.000    0.000 
#
# Total GULP energy -793215.237560 kJ/mol
# GULP energy per Si atom -12393.988087 kJ/mol
# Density = 1.688673 g / cm^3
# Si number density = 16.925251 Si / 1000 Ang^3
#
#
#
# Elastic Constant Matrix: (Units=GPa)
#
#
# Indices 1 2 3 4 5 6 
#
# 1 56.7930 28.5750 15.2859 0.0000 0.0000 0.0000
# 2 28.5750 118.6463 30.8478 0.0000 0.0000 0.0000
# 3 15.2859 30.8478 57.0112 0.0000 0.0000 0.0000
# 4 0.0000 0.0000 0.0000 17.2572 0.0000 0.0000
# 5 0.0000 0.0000 0.0000 0.0000 16.7046 0.0000
# 6 0.0000 0.0000 0.0000 0.0000 0.0000 9.0069
#
#
#
# Elastic Compliance Matrix: (Units=1/GPa)
#
#
# Indices 1 2 3 4 5 6 
#
# 1 0.020555 -0.004093 -0.003296 0.000000 0.000000 0.000000
# 2 -0.004093 0.010623 -0.004651 0.000000 0.000000 0.000000
# 3 -0.003296 -0.004651 0.020941 0.000000 0.000000 0.000000
# 4 0.000000 0.000000 0.000000 0.057947 0.000000 0.000000
# 5 0.000000 0.000000 0.000000 0.000000 0.059864 0.000000
# 6 0.000000 0.000000 0.000000 0.000000 0.000000 0.111025
#
#
# Mechanical properties :
#
#
# Convention : Reuss Voigt Hill
#
# Bulk Modulus (GPa) = 35.66583 42.42976 39.04780
# Shear Modulus (GPa) = 15.90426 19.10986 17.50706
#
# Velocity S-wave (km/s) = 3.06874 3.36381 3.21966
# Velocity P-wave (km/s) = 5.80297 6.34116 6.07803
#
# Compressibility (1/GPa) = 0.02803804
#
# Stress axis : x y z
#
# Youngs Moduli (GPa) = 48.65097 94.13154 47.75415
#
# Poissons Ratio (x) = 0.38532 0.15741
# Poissons Ratio (y) = 0.19915 0.22209
# Poissons Ratio (z) = 0.16037 0.43777
#
# Static dielectric constant tensor:
#      x y z
#    x 3.086160 0.000000 0.000000 
#    y 0.000000 3.377230 0.000000 
#    z 0.000000 0.000000 2.938690 
# 
# 
# High freq. dielectric constant tensor:
#      x y z
#    x 1.629750 0.000000 0.000000 
#    y 0.000000 1.648960 0.000000 
#    z 0.000000 0.000000 1.617790 
# 
# From -- ./inp_files/38424.got.cif
#   From: 2010.03.12/outbox.cif.g09.slc.cpg/sg53_20_cif.got.tgz:38424.got - 2010.04.16 14:36:59.
