data_PCOD8218149
_publ_section_title
;
Structure prediction by ZEFSAII (Michael W. Deem and Ramdas Pophale) SiO2 
 PCOD8218149
Probable space group: P M N A
;
_chemical_formula_sum "Si O2"
_cell_formula_units_Z 64
_cell_length_a 8.873956
_cell_length_b 20.134484
_cell_length_c 19.521770
_cell_angle_alpha 90.000000
_cell_angle_beta 90.000000
_cell_angle_gamma 90.000000
_cell_volume 3488.003940
_symmetry_space_group_name_H-M "P M N A"
_symmetry_group_IT_number 53
_symmetry_cell_setting 'orthorhombic'
loop_
_space_group_symop_operation_xyz
x,y,z
1/2-x,-y,1/2+z
x,-y,-z
1/2-x,y,1/2-z
-x,-y,-z
1/2+x,y,1/2-z
-x,y,z
1/2+x,-y,1/2+z
loop_
_atom_site_type_symbol
_atom_site_label
_atom_site_fract_x
_atom_site_fract_y
_atom_site_fract_z
Si Si1 0.822685 0.099168 0.324107
Si Si2 0.323442 0.615742 0.396391
Si Si3 0.178901 0.267819 0.678909
Si Si4 0.822696 0.784959 0.574147
Si Si5 0.823153 0.647375 0.947827
Si Si6 0.678567 0.161643 0.929387
Si Si7 0.669327 0.515915 0.920339
Si Si8 0.320730 0.985380 0.075673
O O1 0.750000 0.098725 0.250000
O O2 0.782864 0.168148 0.361816
O O3 0.000000 0.091278 0.315466
O O4 0.756834 0.037756 0.368925
O O5 0.500000 0.619640 0.382336
O O6 0.235802 0.659469 0.341149
O O7 0.281638 0.642542 0.471925
O O8 0.268538 0.540595 0.383861
O O9 0.250000 0.245390 0.750000
O O10 0.241801 0.215566 0.623425
O O11 0.000000 0.267679 0.683922
O O12 0.736938 0.715706 0.583818
O O13 0.763101 0.821307 0.505506
O O14 0.000000 0.770433 0.569172
O O15 0.744704 0.587283 0.906792
O O16 0.000000 0.641596 0.936068
O O17 0.500000 0.162972 0.930394
O O18 0.733660 0.088899 0.905155
O O19 0.500000 0.516082 0.890442
O O20 0.667502 0.500000 0.000000
O O21 0.500000 0.991874 0.074059
O O22 0.256571 0.000000 0.000000
#
# Coordination Sequence:
#
# PCOD8218149 Si02
#       8
#     8   8   8   8   8   8   8   8
#     4  10  21  35  56  82 111 143 179 224 273 328
#     4  10  19  32  50  74 106 140 177 221 273 326
#     4  11  22  35  51  73 105 144 185 229 275 328
#     4  10  18  32  54  79 104 140 185 226 267 323
#     4  10  19  30  49  79 110 139 172 223 278 321
#     4   9  17  30  52  78 103 134 181 231 271 317
#     4   9  17  29  48  75 106 139 175 216 261 316
#     4   9  15  29  54  82 106 136 182 228 266 312
#
# _framework density 18.348603000000001
#
# number of rings (size 3 to 8) (size 9 to 14) (size 15 to 20)
#    0.000    2.250    2.500    1.500    0.000    3.500 
#    0.000    0.000    0.000    2.625    0.000    3.500 
#    0.000    0.000    0.000    0.000    0.000    0.000 
#
# Total GULP energy -793599.734166 kJ/mol
# GULP energy per Si atom -12399.995846 kJ/mol
# Density = 1.830684 g / cm^3
# Si number density = 18.348603 Si / 1000 Ang^3
#
#
#
# Elastic Constant Matrix: (Units=GPa)
#
#
# Indices 1 2 3 4 5 6 
#
# 1 59.9101 38.8360 31.4029 0.0000 0.0000 0.0000
# 2 38.8360 152.8864 57.5185 0.0000 0.0000 0.0000
# 3 31.4029 57.5185 110.7986 0.0000 0.0000 0.0000
# 4 0.0000 0.0000 0.0000 18.7011 0.0000 0.0000
# 5 0.0000 0.0000 0.0000 0.0000 25.3383 0.0000
# 6 0.0000 0.0000 0.0000 0.0000 0.0000 16.0171
#
#
#
# Elastic Compliance Matrix: (Units=1/GPa)
#
#
# Indices 1 2 3 4 5 6 
#
# 1 0.021330 -0.003907 -0.004017 0.000000 0.000000 0.000000
# 2 -0.003907 0.008844 -0.003484 0.000000 0.000000 0.000000
# 3 -0.004017 -0.003484 0.011973 0.000000 0.000000 0.000000
# 4 0.000000 0.000000 0.000000 0.053473 0.000000 0.000000
# 5 0.000000 0.000000 0.000000 0.000000 0.039466 0.000000
# 6 0.000000 0.000000 0.000000 0.000000 0.000000 0.062433
#
#
# Mechanical properties :
#
#
# Convention : Reuss Voigt Hill
#
# Bulk Modulus (GPa) = 51.73165 64.34555 58.03860
# Shear Modulus (GPa) = 22.04801 25.06713 23.55757
#
# Velocity S-wave (km/s) = 3.47020 3.70017 3.58703
# Velocity P-wave (km/s) = 6.65668 7.30750 6.98967
#
# Compressibility (1/GPa) = 0.01933052
#
# Stress axis : x y z
#
# Youngs Moduli (GPa) = 46.88244 113.07252 83.52472
#
# Poissons Ratio (x) = 0.44176 0.33554
# Poissons Ratio (y) = 0.18316 0.29098
# Poissons Ratio (z) = 0.18834 0.39392
#
# Static dielectric constant tensor:
#      x y z
#    x 3.137830 0.000000 0.000000 
#    y 0.000000 3.610820 0.000000 
#    z 0.000000 0.000000 3.193740 
# 
# 
# High freq. dielectric constant tensor:
#      x y z
#    x 1.690060 0.000000 0.000000 
#    y 0.000000 1.728120 0.000000 
#    z 0.000000 0.000000 1.680710 
# 
# From -- ./inp_files/26917.got.cif
#   From: 2010.03.12/outbox.cif.g09.slc.cpg/sg53_14_cif.got.tgz:26917.got - 2010.04.16 14:36:59.
