data_PCOD8218872
_publ_section_title
;
Structure prediction by ZEFSAII (Michael W. Deem and Ramdas Pophale) SiO2 
 PCOD8218872
Probable space group: P M N A
;
_chemical_formula_sum "Si O2"
_cell_formula_units_Z 48
_cell_length_a 9.039562
_cell_length_b 18.132548
_cell_length_c 16.418181
_cell_angle_alpha 90.000000
_cell_angle_beta 90.000000
_cell_angle_gamma 90.000000
_cell_volume 2691.108840
_symmetry_space_group_name_H-M "P M N A"
_symmetry_group_IT_number 53
_symmetry_cell_setting 'orthorhombic'
loop_
_space_group_symop_operation_xyz
x,y,z
1/2-x,-y,1/2+z
x,-y,-z
1/2-x,y,1/2-z
-x,-y,-z
1/2+x,y,1/2-z
-x,y,z
1/2+x,-y,1/2+z
loop_
_atom_site_type_symbol
_atom_site_label
_atom_site_fract_x
_atom_site_fract_y
_atom_site_fract_z
Si Si1 0.173813 0.077035 0.168488
Si Si2 0.666374 0.046903 0.918279
Si Si3 0.337466 0.549735 0.920654
Si Si4 0.170877 0.834138 0.991135
Si Si5 0.827754 0.335417 0.985590
Si Si6 0.175460 0.592261 0.333735
O O1 0.250000 0.107851 0.250000
O O2 0.000000 0.070145 0.181997
O O3 0.238091 0.995791 0.149235
O O4 0.214699 0.134443 0.097277
O O5 0.500000 0.057860 0.885489
O O6 0.737053 0.126546 0.937072
O O7 0.668762 0.000000 0.000000
O O8 0.500000 0.582907 0.900509
O O9 0.284212 0.494194 0.849248
O O10 0.350155 0.500000 0.000000
O O11 0.222612 0.615869 0.936307
O O12 0.208093 0.748249 0.991771
O O13 0.000000 0.850331 0.009238
O O14 0.738008 0.356117 0.904980
O O15 0.000000 0.349451 0.969683
O O16 0.250000 0.617670 0.250000
O O17 0.000000 0.603665 0.329733
#
# Coordination Sequence:
#
# PCOD8218872 Si02
#       6
#     8   8   8   8   8   8
#     4  10  19  33  52  73 100 131 165 207 251 293
#     4   9  17  30  50  74  96 123 162 201 239 289
#     4   8  16  31  49  70  96 126 162 201 241 288
#     4   9  19  34  51  73 102 135 167 202 246 296
#     4  10  19  32  52  76 102 133 168 203 245 299
#     4  10  20  34  52  74 100 130 166 209 254 297
#
# _framework density 17.836514000000001
#
# number of rings (size 3 to 8) (size 9 to 14) (size 15 to 20)
#    0.000    2.667    0.000    3.000    0.000    7.667 
#    0.000    1.667    0.000    8.000    0.000    0.000 
#    0.000    0.000    0.000    0.000    0.000    0.000 
#
# Total GULP energy -595105.204427 kJ/mol
# GULP energy per Si atom -12398.025092 kJ/mol
# Density = 1.779592 g / cm^3
# Si number density = 17.836514 Si / 1000 Ang^3
#
#
#
# Elastic Constant Matrix: (Units=GPa)
#
#
# Indices 1 2 3 4 5 6 
#
# 1 110.0581 61.1047 47.4276 0.0000 0.0000 0.0000
# 2 61.1047 110.3029 38.3710 0.0000 0.0000 0.0000
# 3 47.4276 38.3710 78.5307 0.0000 0.0000 0.0000
# 4 0.0000 0.0000 0.0000 18.5685 0.0000 0.0000
# 5 0.0000 0.0000 0.0000 0.0000 25.9661 0.0000
# 6 0.0000 0.0000 0.0000 0.0000 0.0000 28.9961
#
#
#
# Elastic Compliance Matrix: (Units=1/GPa)
#
#
# Indices 1 2 3 4 5 6 
#
# 1 0.015221 -0.006306 -0.006111 0.000000 0.000000 0.000000
# 2 -0.006306 0.013535 -0.002805 0.000000 0.000000 0.000000
# 3 -0.006111 -0.002805 0.017795 0.000000 0.000000 0.000000
# 4 0.000000 0.000000 0.000000 0.053855 0.000000 0.000000
# 5 0.000000 0.000000 0.000000 0.000000 0.038512 0.000000
# 6 0.000000 0.000000 0.000000 0.000000 0.000000 0.034487
#
#
# Mechanical properties :
#
#
# Convention : Reuss Voigt Hill
#
# Bulk Modulus (GPa) = 62.08596 65.85535 63.97065
# Shear Modulus (GPa) = 23.89853 24.83869 24.36861
#
# Velocity S-wave (km/s) = 3.66439 3.73577 3.70025
# Velocity P-wave (km/s) = 7.26551 7.45720 7.36197
#
# Compressibility (1/GPa) = 0.01610670
#
# Stress axis : x y z
#
# Youngs Moduli (GPa) = 65.69996 73.88235 56.19498
#
# Poissons Ratio (x) = 0.46590 0.34342
# Poissons Ratio (y) = 0.41430 0.15763
# Poissons Ratio (z) = 0.40150 0.20724
#
# Static dielectric constant tensor:
#      x y z
#    x 3.426380 0.000000 0.000000 
#    y 0.000000 3.273310 0.000000 
#    z 0.000000 0.000000 3.273690 
# 
# 
# High freq. dielectric constant tensor:
#      x y z
#    x 1.702270 0.000000 0.000000 
#    y 0.000000 1.675950 0.000000 
#    z 0.000000 0.000000 1.670550 
# 
# From -- ./inp_files/20167.got.cif
#   From: 2010.03.12/outbox.cif.g09.slc.cpg/sg53_11_cif.got.tgz:20167.got - 2010.04.16 14:36:59.
