data_PCOD8218170
_publ_section_title
;
Structure prediction by ZEFSAII (Michael W. Deem and Ramdas Pophale) SiO2 
 PCOD8218170
Probable space group: P M N A
;
_chemical_formula_sum "Si O2"
_cell_formula_units_Z 60
_cell_length_a 32.160436
_cell_length_b 8.580674
_cell_length_c 11.765815
_cell_angle_alpha 90.000000
_cell_angle_beta 90.000000
_cell_angle_gamma 90.000000
_cell_volume 3246.873329
_symmetry_space_group_name_H-M "P M N A"
_symmetry_group_IT_number 53
_symmetry_cell_setting 'orthorhombic'
loop_
_space_group_symop_operation_xyz
x,y,z
1/2-x,-y,1/2+z
x,-y,-z
1/2-x,y,1/2-z
-x,-y,-z
1/2+x,y,1/2-z
-x,y,z
1/2+x,-y,1/2+z
loop_
_atom_site_type_symbol
_atom_site_label
_atom_site_fract_x
_atom_site_fract_y
_atom_site_fract_z
Si Si1 0.047003 0.818156 0.774119
Si Si2 0.951856 0.678182 0.018005
Si Si3 0.634910 0.680126 0.110017
Si Si4 0.377900 0.675571 0.848426
Si Si5 0.830391 0.075491 0.206299
Si Si6 0.281188 0.827912 0.157990
Si Si7 0.776081 0.000000 0.000000
Si Si8 0.909297 0.123613 0.791768
O O1 0.075719 0.722154 0.688257
O O2 0.000000 0.776031 0.740953
O O3 0.053519 0.004024 0.763580
O O4 0.056711 0.772182 0.903536
O O5 0.923024 0.750849 0.115177
O O6 0.000000 0.688669 0.055492
O O7 0.938229 0.500000 0.000000
O O8 0.625977 0.509030 0.156923
O O9 0.683731 0.702313 0.131896
O O10 0.603832 0.792949 0.175959
O O11 0.627531 0.722131 0.979163
O O12 0.344931 0.762057 0.764770
O O13 0.803275 0.095200 0.092515
O O14 0.802608 0.986878 0.298891
O O15 0.869988 0.975615 0.165174
O O16 0.250000 0.753922 0.250000
O O17 0.253209 0.865376 0.049396
#
# Coordination Sequence:
#
# PCOD8218170 Si02
#       8
#     8   8   8   8   8   8   4   8
#     4  10  21  36  56  82 112 145 187 233 278 327
#     4  10  20  34  54  82 115 149 182 227 283 330
#     4  10  21  39  57  79 110 152 190 230 283 340
#     4  10  21  38  58  80 111 151 192 231 280 339
#     4   9  20  32  55  83 108 145 188 231 277 337
#     4   9  18  35  55  78 111 145 181 230 284 333
#     4  10  18  32  56  84 111 138 187 236 282 332
#     4  10  20  34  55  80 111 145 188 233 275 331
#
# _framework density 18.479317000000002
#
# number of rings (size 3 to 8) (size 9 to 14) (size 15 to 20)
#    0.000    2.267    0.000    2.400    3.733    5.333 
#    0.000    8.667    0.000    0.000    0.000    0.000 
#    0.000    0.000    0.000    0.000    0.000    0.000 
#
# Total GULP energy -743863.437027 kJ/mol
# GULP energy per Si atom -12397.723950 kJ/mol
# Density = 1.843726 g / cm^3
# Si number density = 18.479317 Si / 1000 Ang^3
#
#
#
# Elastic Constant Matrix: (Units=GPa)
#
#
# Indices 1 2 3 4 5 6 
#
# 1 109.8414 47.7588 65.6733 0.0000 0.0000 0.0000
# 2 47.7588 106.0151 58.4303 0.0000 0.0000 0.0000
# 3 65.6733 58.4303 106.8442 0.0000 0.0000 0.0000
# 4 0.0000 0.0000 0.0000 28.5379 0.0000 0.0000
# 5 0.0000 0.0000 0.0000 0.0000 31.2299 0.0000
# 6 0.0000 0.0000 0.0000 0.0000 0.0000 21.3995
#
#
#
# Elastic Compliance Matrix: (Units=1/GPa)
#
#
# Indices 1 2 3 4 5 6 
#
# 1 0.014797 -0.002366 -0.007801 0.000000 0.000000 0.000000
# 2 -0.002366 0.013881 -0.006137 0.000000 0.000000 0.000000
# 3 -0.007801 -0.006137 0.017510 0.000000 0.000000 0.000000
# 4 0.000000 0.000000 0.000000 0.035041 0.000000 0.000000
# 5 0.000000 0.000000 0.000000 0.000000 0.032021 0.000000
# 6 0.000000 0.000000 0.000000 0.000000 0.000000 0.046730
#
#
# Mechanical properties :
#
#
# Convention : Reuss Voigt Hill
#
# Bulk Modulus (GPa) = 73.63631 74.04727 73.84179
# Shear Modulus (GPa) = 25.36588 26.28935 25.82762
#
# Velocity S-wave (km/s) = 3.70897 3.77588 3.74257
# Velocity P-wave (km/s) = 7.63390 7.69201 7.66301
#
# Compressibility (1/GPa) = 0.01358026
#
# Stress axis : x y z
#
# Youngs Moduli (GPa) = 67.58030 72.04201 57.10873
#
# Poissons Ratio (x) = 0.17048 0.44552
# Poissons Ratio (y) = 0.15992 0.35045
# Poissons Ratio (z) = 0.52721 0.44209
#
# Static dielectric constant tensor:
#      x y z
#    x 3.592630 0.000000 0.000000 
#    y 0.000000 3.317200 0.000000 
#    z 0.000000 0.000000 3.406200 
# 
# 
# High freq. dielectric constant tensor:
#      x y z
#    x 1.727590 0.000000 0.000000 
#    y 0.000000 1.706140 0.000000 
#    z 0.000000 0.000000 1.720150 
# 
# From -- ./inp_files/18999.got.cif
#   From: 2010.03.12/outbox.cif.g09.slc.cpg/sg53_10_cif.got.tgz:18999.got - 2010.04.16 14:36:59.
