data_PCOD8218731
_publ_section_title
;
Structure prediction by ZEFSAII (Michael W. Deem and Ramdas Pophale) SiO2 
 PCOD8218731
Probable space group: P M N A
;
_chemical_formula_sum "Si O2"
_cell_formula_units_Z 48
_cell_length_a 9.351191
_cell_length_b 14.839393
_cell_length_c 20.137677
_cell_angle_alpha 90.000000
_cell_angle_beta 90.000000
_cell_angle_gamma 90.000000
_cell_volume 2794.424852
_symmetry_space_group_name_H-M "P M N A"
_symmetry_group_IT_number 53
_symmetry_cell_setting 'orthorhombic'
loop_
_space_group_symop_operation_xyz
x,y,z
1/2-x,-y,1/2+z
x,-y,-z
1/2-x,y,1/2-z
-x,-y,-z
1/2+x,y,1/2-z
-x,y,z
1/2+x,-y,1/2+z
loop_
_atom_site_type_symbol
_atom_site_label
_atom_site_fract_x
_atom_site_fract_y
_atom_site_fract_z
Si Si1 0.331172 0.588335 0.960329
Si Si2 0.164538 0.989978 0.313112
Si Si3 0.338205 0.381891 0.188299
Si Si4 0.340213 0.186246 0.143403
Si Si5 0.336641 0.763057 0.521495
Si Si6 0.162919 0.064414 0.939895
O O1 0.500000 0.605512 0.965375
O O2 0.284736 0.579553 0.882930
O O3 0.252621 0.672964 0.994073
O O4 0.283097 0.500000 0.000000
O O5 0.250000 0.951284 0.250000
O O6 0.230434 0.948749 0.379364
O O7 0.000000 0.959623 0.308163
O O8 0.179988 0.098036 0.312208
O O9 0.250000 0.423036 0.250000
O O10 0.500000 0.411963 0.200337
O O11 0.319889 0.273931 0.189091
O O12 0.500000 0.188448 0.111755
O O13 0.224398 0.184597 0.085186
O O14 0.500000 0.736280 0.536248
O O15 0.325879 0.830737 0.459695
O O16 0.000000 0.039900 0.919409
O O17 0.212202 0.000000 0.000000
#
# Coordination Sequence:
#
# PCOD8218731 Si02
#       6
#     8   8   8   8   8   8
#     4   9  19  36  55  74 101 134 169 210 256 310
#     4  11  22  33  49  72 102 140 180 222 263 308
#     4   9  17  29  46  70  99 129 159 194 244 301
#     4   9  18  31  46  69 101 136 170 201 244 309
#     4  10  19  31  52  78 102 131 168 215 259 299
#     4  10  20  35  52  73 104 139 175 214 258 308
#
# _framework density 17.177057000000001
#
# number of rings (size 3 to 8) (size 9 to 14) (size 15 to 20)
#    0.000    2.333    1.667    2.500    0.000    5.333 
#    0.000    0.000    0.000    1.000    0.000    4.667 
#    0.000    0.000    0.000    0.000    0.000    0.000 
#
# Total GULP energy -595157.025720 kJ/mol
# GULP energy per Si atom -12399.104702 kJ/mol
# Density = 1.713796 g / cm^3
# Si number density = 17.177057 Si / 1000 Ang^3
#
#
#
# Elastic Constant Matrix: (Units=GPa)
#
#
# Indices 1 2 3 4 5 6 
#
# 1 99.8346 37.5717 64.3404 0.0000 0.0000 0.0000
# 2 37.5717 64.9055 42.8989 0.0000 0.0000 0.0000
# 3 64.3404 42.8989 108.7707 0.0000 0.0000 0.0000
# 4 0.0000 0.0000 0.0000 18.4023 0.0000 0.0000
# 5 0.0000 0.0000 0.0000 0.0000 33.0952 0.0000
# 6 0.0000 0.0000 0.0000 0.0000 0.0000 18.6552
#
#
#
# Elastic Compliance Matrix: (Units=1/GPa)
#
#
# Indices 1 2 3 4 5 6 
#
# 1 0.017043 -0.004332 -0.008373 0.000000 0.000000 0.000000
# 2 -0.004332 0.021940 -0.006091 0.000000 0.000000 0.000000
# 3 -0.008373 -0.006091 0.016549 0.000000 0.000000 0.000000
# 4 0.000000 0.000000 0.000000 0.054341 0.000000 0.000000
# 5 0.000000 0.000000 0.000000 0.000000 0.030216 0.000000
# 6 0.000000 0.000000 0.000000 0.000000 0.000000 0.053604
#
#
# Mechanical properties :
#
#
# Convention : Reuss Voigt Hill
#
# Bulk Modulus (GPa) = 55.73848 62.57033 59.15441
# Shear Modulus (GPa) = 21.07359 22.61053 21.84206
#
# Velocity S-wave (km/s) = 3.50643 3.63205 3.56980
# Velocity P-wave (km/s) = 6.99380 7.35492 7.17663
#
# Compressibility (1/GPa) = 0.01794093
#
# Stress axis : x y z
#
# Youngs Moduli (GPa) = 58.67605 45.57844 60.42788
#
# Poissons Ratio (x) = 0.19742 0.50595
# Poissons Ratio (y) = 0.25416 0.36806
# Poissons Ratio (z) = 0.49129 0.27762
#
# Static dielectric constant tensor:
#      x y z
#    x 3.278650 0.000000 0.000000 
#    y 0.000000 3.027750 0.000000 
#    z 0.000000 0.000000 3.014550 
# 
# 
# High freq. dielectric constant tensor:
#      x y z
#    x 1.671860 0.000000 0.000000 
#    y 0.000000 1.633570 0.000000 
#    z 0.000000 0.000000 1.649780 
# 
# From -- ./inp_files/26392.got.cif
#   From: 2010.03.12/outbox.cif.g09.slc.cpg/sg53_14_cif.got.tgz:26392.got - 2010.04.16 14:36:59.
