data_PCOD8218527
_publ_section_title
;
Structure prediction by ZEFSAII (Michael W. Deem and Ramdas Pophale) SiO2 
 PCOD8218527
Probable space group: P M N A
;
_chemical_formula_sum "Si O2"
_cell_formula_units_Z 64
_cell_length_a 9.119389
_cell_length_b 22.949304
_cell_length_c 17.473970
_cell_angle_alpha 90.000000
_cell_angle_beta 90.000000
_cell_angle_gamma 90.000000
_cell_volume 3657.015880
_symmetry_space_group_name_H-M "P M N A"
_symmetry_group_IT_number 53
_symmetry_cell_setting 'orthorhombic'
loop_
_space_group_symop_operation_xyz
x,y,z
1/2-x,-y,1/2+z
x,-y,-z
1/2-x,y,1/2-z
-x,-y,-z
1/2+x,y,1/2-z
-x,y,z
1/2+x,-y,1/2+z
loop_
_atom_site_type_symbol
_atom_site_label
_atom_site_fract_x
_atom_site_fract_y
_atom_site_fract_z
Si Si1 0.828088 0.181756 0.323121
Si Si2 0.839745 0.456850 0.929761
Si Si3 0.670713 0.137477 0.547308
Si Si4 0.829656 0.240310 0.479775
Si Si5 0.829954 0.078023 0.110337
Si Si6 0.674842 0.562449 0.668561
Si Si7 0.171845 0.046923 0.830244
Si Si8 0.172712 0.373531 0.470394
O O1 0.750000 0.210968 0.250000
O O2 0.782344 0.220877 0.395067
O O3 0.768031 0.116215 0.332404
O O4 0.000000 0.179983 0.309542
O O5 0.789893 0.495530 0.856569
O O6 0.000000 0.428098 0.913998
O O7 0.856957 0.500000 0.000000
O O8 0.720554 0.408368 0.952862
O O9 0.500000 0.150494 0.551578
O O10 0.749046 0.200154 0.542244
O O11 0.708818 0.095788 0.476070
O O12 0.725835 0.103224 0.622286
O O13 0.785092 0.307250 0.489021
O O14 0.000000 0.230393 0.493000
O O15 0.000000 0.089883 0.129114
O O16 0.787880 0.010796 0.121808
O O17 0.750000 0.574795 0.750000
O O18 0.500000 0.572813 0.673621
O O19 0.741727 0.606338 0.605580
O O20 0.250000 0.046736 0.750000
O O21 0.000000 0.049978 0.815780
O O22 0.000000 0.382070 0.456346
#
# Coordination Sequence:
#
# PCOD8218527 Si02
#       8
#     8   8   8   8   8   8   8   8
#     4  10  19  31  45  64  94 127 159 194 234 282
#     4   8  16  31  49  71  99 129 160 195 234 276
#     4   9  18  33  52  71  92 124 163 200 240 287
#     4   9  20  35  49  69  96 126 162 203 240 277
#     4   9  17  31  50  70  93 121 155 195 239 290
#     4  10  20  33  50  75 107 136 162 196 239 284
#     4  10  20  32  48  72  98 122 152 194 245 297
#     4  10  19  32  51  74  99 129 166 203 240 284
#
# _framework density 17.500608
#
# number of rings (size 3 to 8) (size 9 to 14) (size 15 to 20)
#    0.000    2.625    0.000    2.625    0.000    8.250 
#    0.000    1.250    0.000    4.500    0.000    0.000 
#    0.000    0.000    0.000    0.000    0.000    0.000 
#
# Total GULP energy -793430.526800 kJ/mol
# GULP energy per Si atom -12397.351981 kJ/mol
# Density = 1.746078 g / cm^3
# Si number density = 17.500608 Si / 1000 Ang^3
#
#
#
# Elastic Constant Matrix: (Units=GPa)
#
#
# Indices 1 2 3 4 5 6 
#
# 1 64.9397 49.4611 28.4627 0.0000 0.0000 0.0000
# 2 49.4611 119.8360 37.9161 0.0000 0.0000 0.0000
# 3 28.4627 37.9161 50.7436 0.0000 0.0000 0.0000
# 4 0.0000 0.0000 0.0000 16.1225 0.0000 0.0000
# 5 0.0000 0.0000 0.0000 0.0000 27.6663 0.0000
# 6 0.0000 0.0000 0.0000 0.0000 0.0000 28.1323
#
#
#
# Elastic Compliance Matrix: (Units=1/GPa)
#
#
# Indices 1 2 3 4 5 6 
#
# 1 0.024821 -0.007648 -0.008208 0.000000 0.000000 0.000000
# 2 -0.007648 0.013285 -0.005637 0.000000 0.000000 0.000000
# 3 -0.008208 -0.005637 0.028523 0.000000 0.000000 0.000000
# 4 0.000000 0.000000 0.000000 0.062025 0.000000 0.000000
# 5 0.000000 0.000000 0.000000 0.000000 0.036145 0.000000
# 6 0.000000 0.000000 0.000000 0.000000 0.000000 0.035546
#
#
# Mechanical properties :
#
#
# Convention : Reuss Voigt Hill
#
# Bulk Modulus (GPa) = 42.29474 51.91102 47.10288
# Shear Modulus (GPa) = 19.90353 22.36285 21.13319
#
# Velocity S-wave (km/s) = 3.37605 3.57856 3.47878
# Velocity P-wave (km/s) = 6.27830 6.84117 6.56577
#
# Compressibility (1/GPa) = 0.02364360
#
# Stress axis : x y z
#
# Youngs Moduli (GPa) = 40.28791 75.27449 35.05964
#
# Poissons Ratio (x) = 0.57568 0.28778
# Poissons Ratio (y) = 0.30811 0.19762
# Poissons Ratio (z) = 0.33069 0.42431
#
# Static dielectric constant tensor:
#      x y z
#    x 3.266130 0.000000 0.000000 
#    y 0.000000 3.300530 0.000000 
#    z 0.000000 0.000000 3.357770 
# 
# 
# High freq. dielectric constant tensor:
#      x y z
#    x 1.678950 0.000000 0.000000 
#    y 0.000000 1.665590 0.000000 
#    z 0.000000 0.000000 1.660440 
# 
# From -- ./inp_files/26856.got.cif
#   From: 2010.03.12/outbox.cif.g09.slc.cpg/sg53_14_cif.got.tgz:26856.got - 2010.04.16 14:36:59.
