data_PCOD8218781
_publ_section_title
;
Structure prediction by ZEFSAII (Michael W. Deem and Ramdas Pophale) SiO2 
 PCOD8218781
Probable space group: P M N A
;
_chemical_formula_sum "Si O2"
_cell_formula_units_Z 64
_cell_length_a 9.049775
_cell_length_b 14.893771
_cell_length_c 29.575991
_cell_angle_alpha 90.000000
_cell_angle_beta 90.000000
_cell_angle_gamma 90.000000
_cell_volume 3986.408123
_symmetry_space_group_name_H-M "P M N A"
_symmetry_group_IT_number 53
_symmetry_cell_setting 'orthorhombic'
loop_
_space_group_symop_operation_xyz
x,y,z
1/2-x,-y,1/2+z
x,-y,-z
1/2-x,y,1/2-z
-x,-y,-z
1/2+x,y,1/2-z
-x,y,z
1/2+x,-y,1/2+z
loop_
_atom_site_type_symbol
_atom_site_label
_atom_site_fract_x
_atom_site_fract_y
_atom_site_fract_z
Si Si1 0.824950 0.943367 0.433222
Si Si2 0.172333 0.527041 0.606844
Si Si3 0.327550 0.367261 0.556066
Si Si4 0.827429 0.202392 0.880355
Si Si5 0.326423 0.674398 0.964700
Si Si6 0.825888 0.284478 0.704866
Si Si7 0.329255 0.491451 0.794147
Si Si8 0.825682 0.126632 0.470070
O O1 0.732956 0.895573 0.393859
O O2 0.771083 0.898687 0.480018
O O3 0.000000 0.930832 0.425379
O O4 0.778768 0.049005 0.434430
O O5 0.265577 0.445261 0.587568
O O6 0.210495 0.617915 0.580100
O O7 0.214012 0.543338 0.659594
O O8 0.000000 0.501175 0.602513
O O9 0.500000 0.383444 0.549261
O O10 0.293664 0.272100 0.579358
O O11 0.251229 0.371662 0.507326
O O12 0.738365 0.229443 0.836392
O O13 0.000000 0.197807 0.869044
O O14 0.500000 0.675298 0.975115
O O15 0.264051 0.775280 0.956272
O O16 0.750000 0.246543 0.750000
O O17 0.782575 0.388365 0.698432
O O18 0.000000 0.269831 0.707698
O O19 0.250000 0.533178 0.750000
O O20 0.500000 0.500417 0.783457
O O21 0.000000 0.128909 0.471181
#
# Coordination Sequence:
#
# PCOD8218781 Si02
#       8
#     8   8   8   8   8   8   8   8
#     4   9  16  29  49  68  89 119 156 195 238 281
#     4  10  20  33  48  68  91 123 161 194 230 278
#     4  11  22  32  43  64  97 131 162 193 226 272
#     4  11  21  31  45  69  97 127 161 193 231 280
#     4  10  19  32  50  67  91 125 162 200 235 274
#     4  10  19  32  50  69  93 123 154 193 235 281
#     4   9  18  31  47  67  90 116 151 190 230 273
#     4   8  15  28  47  70  90 115 155 200 237 277
#
# _framework density 16.054552000000001
#
# number of rings (size 3 to 8) (size 9 to 14) (size 15 to 20)
#    0.000    2.250    2.500    2.250    0.000    4.000 
#    0.000    1.875    0.000    0.000    0.000    0.875 
#    0.000    2.000    0.000    0.000    0.000    0.000 
#
# Total GULP energy -793479.991650 kJ/mol
# GULP energy per Si atom -12398.124870 kJ/mol
# Density = 1.601801 g / cm^3
# Si number density = 16.054552 Si / 1000 Ang^3
#
#
#
# Elastic Constant Matrix: (Units=GPa)
#
#
# Indices 1 2 3 4 5 6 
#
# 1 52.8452 27.9128 40.9036 0.0000 0.0000 0.0000
# 2 27.9128 66.1575 39.2544 0.0000 0.0000 0.0000
# 3 40.9036 39.2544 119.2038 0.0000 0.0000 0.0000
# 4 0.0000 0.0000 0.0000 16.6203 0.0000 0.0000
# 5 0.0000 0.0000 0.0000 0.0000 24.9014 0.0000
# 6 0.0000 0.0000 0.0000 0.0000 0.0000 10.1569
#
#
#
# Elastic Compliance Matrix: (Units=1/GPa)
#
#
# Indices 1 2 3 4 5 6 
#
# 1 0.028661 -0.007777 -0.007274 0.000000 0.000000 0.000000
# 2 -0.007777 0.020896 -0.004213 0.000000 0.000000 0.000000
# 3 -0.007274 -0.004213 0.012272 0.000000 0.000000 0.000000
# 4 0.000000 0.000000 0.000000 0.060167 0.000000 0.000000
# 5 0.000000 0.000000 0.000000 0.000000 0.040158 0.000000
# 6 0.000000 0.000000 0.000000 0.000000 0.000000 0.098455
#
#
# Mechanical properties :
#
#
# Convention : Reuss Voigt Hill
#
# Bulk Modulus (GPa) = 42.91302 50.48313 46.69808
# Shear Modulus (GPa) = 16.29174 19.01144 17.65159
#
# Velocity S-wave (km/s) = 3.18901 3.44492 3.31943
# Velocity P-wave (km/s) = 6.35195 6.88014 6.62131
#
# Compressibility (1/GPa) = 0.02330295
#
# Stress axis : x y z
#
# Youngs Moduli (GPa) = 34.89076 47.85584 81.48483
#
# Poissons Ratio (x) = 0.37215 0.59271
# Poissons Ratio (y) = 0.27133 0.34328
# Poissons Ratio (z) = 0.25379 0.20160
#
# Static dielectric constant tensor:
#      x y z
#    x 2.943640 0.000000 0.000000 
#    y 0.000000 3.238300 0.000000 
#    z 0.000000 0.000000 3.134820 
# 
# 
# High freq. dielectric constant tensor:
#      x y z
#    x 1.610650 0.000000 0.000000 
#    y 0.000000 1.598040 0.000000 
#    z 0.000000 0.000000 1.607140 
# 
# From -- ./inp_files/38396.got.cif
#   From: 2010.03.12/outbox.cif.g09.slc.cpg/sg53_20_cif.got.tgz:38396.got - 2010.04.16 14:36:59.
