data_PCOD8218375
_publ_section_title
;
Structure prediction by ZEFSAII (Michael W. Deem and Ramdas Pophale) SiO2 
 PCOD8218375
Probable space group: P M N A
;
_chemical_formula_sum "Si O2"
_cell_formula_units_Z 56
_cell_length_a 8.985597
_cell_length_b 17.722339
_cell_length_c 20.065457
_cell_angle_alpha 90.000000
_cell_angle_beta 90.000000
_cell_angle_gamma 90.000000
_cell_volume 3195.339675
_symmetry_space_group_name_H-M "P M N A"
_symmetry_group_IT_number 53
_symmetry_cell_setting 'orthorhombic'
loop_
_space_group_symop_operation_xyz
x,y,z
1/2-x,-y,1/2+z
x,-y,-z
1/2-x,y,1/2-z
-x,-y,-z
1/2+x,y,1/2-z
-x,y,z
1/2+x,-y,1/2+z
loop_
_atom_site_type_symbol
_atom_site_label
_atom_site_fract_x
_atom_site_fract_y
_atom_site_fract_z
Si Si1 0.674587 0.922987 0.818103
Si Si2 0.324991 0.786729 0.610425
Si Si3 0.331882 0.488912 0.578939
Si Si4 0.326764 0.959034 0.066876
Si Si5 0.674210 0.192496 0.543270
Si Si6 0.667533 0.341930 0.937450
Si Si7 0.331995 0.636115 0.905167
O O1 0.750000 0.949983 0.750000
O O2 0.500000 0.910619 0.808201
O O3 0.746026 0.844549 0.840452
O O4 0.708987 0.987542 0.871395
O O5 0.500000 0.786979 0.623628
O O6 0.285761 0.809733 0.534891
O O7 0.261513 0.704052 0.627225
O O8 0.330446 0.500000 0.500000
O O9 0.500000 0.487231 0.605975
O O10 0.252645 0.410543 0.598648
O O11 0.244970 0.557273 0.614725
O O12 0.500000 0.938473 0.060942
O O13 0.235275 0.882678 0.077761
O O14 0.270767 0.000000 0.000000
O O15 0.500000 0.199322 0.555181
O O16 0.750236 0.263765 0.579125
O O17 0.500000 0.338168 0.909679
O O18 0.667960 0.355655 0.015839
O O19 0.500000 0.637335 0.877256
#
# Coordination Sequence:
#
# PCOD8218375 Si02
#       7
#     8   8   8   8   8   8   8
#     4  11  23  38  55  74 100 132 166 208 256 307
#     4  10  19  31  47  69  96 126 163 204 248 295
#     4   9  15  23  35  54  84 120 158 198 241 287
#     4  10  20  35  54  74  98 129 167 208 254 307
#     4  10  19  29  46  71  97 125 162 208 251 296
#     4   9  16  25  38  57  87 124 160 197 241 293
#     4   9  16  25  39  59  85 121 162 198 237 287
#
# _framework density 17.525523
#
# number of rings (size 3 to 8) (size 9 to 14) (size 15 to 20)
#    0.000    2.286    1.429    2.571    0.000    7.714 
#    0.000    0.000    0.000    0.000    0.000    0.000 
#    0.000    1.143    0.000    9.714    0.000   10.143 
#
# Total GULP energy -694516.850137 kJ/mol
# GULP energy per Si atom -12402.086610 kJ/mol
# Density = 1.748563 g / cm^3
# Si number density = 17.525523 Si / 1000 Ang^3
#
#
#
# Elastic Constant Matrix: (Units=GPa)
#
#
# Indices 1 2 3 4 5 6 
#
# 1 128.2321 78.6921 36.7757 0.0000 0.0000 0.0000
# 2 78.6921 160.3888 36.8274 0.0000 0.0000 0.0000
# 3 36.7757 36.8274 48.4744 0.0000 0.0000 0.0000
# 4 0.0000 0.0000 0.0000 10.9409 0.0000 0.0000
# 5 0.0000 0.0000 0.0000 0.0000 17.1161 0.0000
# 6 0.0000 0.0000 0.0000 0.0000 0.0000 39.6806
#
#
#
# Elastic Compliance Matrix: (Units=1/GPa)
#
#
# Indices 1 2 3 4 5 6 
#
# 1 0.012364 -0.004739 -0.005780 0.000000 0.000000 0.000000
# 2 -0.004739 0.009369 -0.003522 0.000000 0.000000 0.000000
# 3 -0.005780 -0.003522 0.027690 0.000000 0.000000 0.000000
# 4 0.000000 0.000000 0.000000 0.091400 0.000000 0.000000
# 5 0.000000 0.000000 0.000000 0.000000 0.058424 0.000000
# 6 0.000000 0.000000 0.000000 0.000000 0.000000 0.025201
#
#
# Mechanical properties :
#
#
# Convention : Reuss Voigt Hill
#
# Bulk Modulus (GPa) = 46.85854 71.29842 59.07848
# Shear Modulus (GPa) = 19.25701 25.86752 22.56226
#
# Velocity S-wave (km/s) = 3.31841 3.84603 3.59192
# Velocity P-wave (km/s) = 6.44033 7.77776 7.14043
#
# Compressibility (1/GPa) = 0.02134083
#
# Stress axis : x y z
#
# Youngs Moduli (GPa) = 80.87836 106.73685 36.11367
#
# Poissons Ratio (x) = 0.50585 0.20873
# Poissons Ratio (y) = 0.38330 0.12720
# Poissons Ratio (z) = 0.46746 0.37596
#
# Static dielectric constant tensor:
#      x y z
#    x 3.407720 0.000000 0.000000 
#    y 0.000000 3.404950 0.000000 
#    z 0.000000 0.000000 2.693350 
# 
# 
# High freq. dielectric constant tensor:
#      x y z
#    x 1.695680 0.000000 0.000000 
#    y 0.000000 1.693440 0.000000 
#    z 0.000000 0.000000 1.601710 
# 
# From -- ./inp_files/31003.got.cif
#   From: 2010.03.12/outbox.cif.g09.slc.cpg/sg53_16_cif.got.tgz:31003.got - 2010.04.16 14:36:59.
