data_PCOD8218916
_publ_section_title
;
Structure prediction by ZEFSAII (Michael W. Deem and Ramdas Pophale) SiO2 
 PCOD8218916
Probable space group: P M N A
;
_chemical_formula_sum "Si O2"
_cell_formula_units_Z 32
_cell_length_a 8.887851
_cell_length_b 10.393636
_cell_length_c 19.134756
_cell_angle_alpha 90.000000
_cell_angle_beta 90.000000
_cell_angle_gamma 90.000000
_cell_volume 1767.613041
_symmetry_space_group_name_H-M "P M N A"
_symmetry_group_IT_number 53
_symmetry_cell_setting 'orthorhombic'
loop_
_space_group_symop_operation_xyz
x,y,z
1/2-x,-y,1/2+z
x,-y,-z
1/2-x,y,1/2-z
-x,-y,-z
1/2+x,y,1/2-z
-x,y,z
1/2+x,-y,1/2+z
loop_
_atom_site_type_symbol
_atom_site_label
_atom_site_fract_x
_atom_site_fract_y
_atom_site_fract_z
Si Si1 0.177253 0.868339 0.031703
Si Si2 0.173821 0.491332 0.318712
Si Si3 0.821903 0.764145 0.178498
Si Si4 0.327240 0.372180 0.036944
O O1 0.223054 0.855365 0.113340
O O2 0.000000 0.867623 0.023752
O O3 0.235873 0.751081 0.985950
O O4 0.245616 0.000000 0.000000
O O5 0.250000 0.429868 0.250000
O O6 0.257070 0.623462 0.338330
O O7 0.191361 0.387618 0.379946
O O8 0.000000 0.523926 0.304193
O O9 0.750000 0.820229 0.250000
O O10 0.000000 0.754851 0.187726
O O11 0.500000 0.353195 0.014432
O O12 0.262325 0.500000 0.000000
#
# Coordination Sequence:
#
# PCOD8218916 Si02
#       4
#     8   8   8   8
#     4  10  22  38  55  79 110 144 182 223 267 319
#     4  10  19  32  52  79 110 139 175 221 269 317
#     4  10  19  32  53  78 105 138 177 219 267 317
#     4  10  20  35  55  80 109 139 175 222 269 316
#
# _framework density 18.10351
#
# number of rings (size 3 to 8) (size 9 to 14) (size 15 to 20)
#    0.000    2.000    2.500    3.000    0.000    4.000 
#    0.000    1.250    0.000    6.000    0.000    0.000 
#    0.000    0.000    0.000    0.000    0.000    0.000 
#
# Total GULP energy -396779.391766 kJ/mol
# GULP energy per Si atom -12399.355993 kJ/mol
# Density = 1.806231 g / cm^3
# Si number density = 18.103510 Si / 1000 Ang^3
#
#
#
# Elastic Constant Matrix: (Units=GPa)
#
#
# Indices 1 2 3 4 5 6 
#
# 1 59.3325 23.0880 49.9014 0.0000 0.0000 0.0000
# 2 23.0880 106.2649 69.4294 0.0000 0.0000 0.0000
# 3 49.9014 69.4294 145.6051 0.0000 0.0000 0.0000
# 4 0.0000 0.0000 0.0000 26.7612 0.0000 0.0000
# 5 0.0000 0.0000 0.0000 0.0000 22.3432 0.0000
# 6 0.0000 0.0000 0.0000 0.0000 0.0000 23.3213
#
#
#
# Elastic Compliance Matrix: (Units=1/GPa)
#
#
# Indices 1 2 3 4 5 6 
#
# 1 0.023683 0.000229 -0.008226 0.000000 0.000000 0.000000
# 2 0.000229 0.013671 -0.006597 0.000000 0.000000 0.000000
# 3 -0.008226 -0.006597 0.012833 0.000000 0.000000 0.000000
# 4 0.000000 0.000000 0.000000 0.037368 0.000000 0.000000
# 5 0.000000 0.000000 0.000000 0.000000 0.044756 0.000000
# 6 0.000000 0.000000 0.000000 0.000000 0.000000 0.042879
#
#
# Mechanical properties :
#
#
# Convention : Reuss Voigt Hill
#
# Bulk Modulus (GPa) = 47.62181 66.22668 56.92424
# Shear Modulus (GPa) = 23.65422 25.73739 24.69581
#
# Velocity S-wave (km/s) = 3.61863 3.77461 3.69744
# Velocity P-wave (km/s) = 6.61979 7.46046 7.05267
#
# Compressibility (1/GPa) = 0.02099878
#
# Stress axis : x y z
#
# Youngs Moduli (GPa) = 42.22362 73.14682 77.92525
#
# Poissons Ratio (x) = -0.01673 0.64100
# Poissons Ratio (y) = -0.00966 0.51409
# Poissons Ratio (z) = 0.34732 0.48257
#
# Static dielectric constant tensor:
#      x y z
#    x 3.363740 0.000000 0.000000 
#    y 0.000000 3.154110 0.000000 
#    z 0.000000 0.000000 3.788740 
# 
# 
# High freq. dielectric constant tensor:
#      x y z
#    x 1.705510 0.000000 0.000000 
#    y 0.000000 1.666760 0.000000 
#    z 0.000000 0.000000 1.721090 
# 
# From -- ./inp_files/25741.got.cif
#   From: 2010.03.12/outbox.cif.g09.slc.cpg/sg53_13_cif.got.tgz:25741.got - 2010.04.16 14:36:59.
