data_PCOD8218821
_publ_section_title
;
Structure prediction by ZEFSAII (Michael W. Deem and Ramdas Pophale) SiO2 
 PCOD8218821
Probable space group: P M N A
;
_chemical_formula_sum "Si O2"
_cell_formula_units_Z 48
_cell_length_a 8.961334
_cell_length_b 18.185567
_cell_length_c 16.473498
_cell_angle_alpha 90.000000
_cell_angle_beta 90.000000
_cell_angle_gamma 90.000000
_cell_volume 2684.635558
_symmetry_space_group_name_H-M "P M N A"
_symmetry_group_IT_number 53
_symmetry_cell_setting 'orthorhombic'
loop_
_space_group_symop_operation_xyz
x,y,z
1/2-x,-y,1/2+z
x,-y,-z
1/2-x,y,1/2-z
-x,-y,-z
1/2+x,y,1/2-z
-x,y,z
1/2+x,-y,1/2+z
loop_
_atom_site_type_symbol
_atom_site_label
_atom_site_fract_x
_atom_site_fract_y
_atom_site_fract_z
Si Si1 0.671794 0.585813 0.985634
Si Si2 0.664530 0.798066 0.577793
Si Si3 0.322313 0.657389 0.665683
Si Si4 0.167675 0.702026 0.083172
Si Si5 0.175343 0.918358 0.490229
Si Si6 0.323010 0.828723 0.167616
O O1 0.500000 0.611001 0.978498
O O2 0.756773 0.604358 0.902809
O O3 0.686743 0.500000 0.000000
O O4 0.746058 0.626640 0.062860
O O5 0.500000 0.828129 0.598235
O O6 0.721336 0.743029 0.648383
O O7 0.660671 0.749866 0.497306
O O8 0.770060 0.868300 0.565491
O O9 0.250000 0.633082 0.750000
O O10 0.500000 0.647699 0.667438
O O11 0.257720 0.747354 0.151221
O O12 0.000000 0.684764 0.114500
O O13 0.225224 0.884652 0.403945
O O14 0.000000 0.921208 0.497105
O O15 0.243748 0.000000 0.500000
O O16 0.250000 0.859732 0.250000
O O17 0.500000 0.823756 0.176326
#
# Coordination Sequence:
#
# PCOD8218821 Si02
#       6
#     8   8   8   8   8   8
#     4  10  20  34  53  77 105 136 169 204 247 301
#     4   8  16  30  48  71  95 123 160 199 241 290
#     4  10  20  34  53  76 102 132 169 212 256 300
#     4   9  17  31  51  73  97 126 164 204 242 291
#     4   9  18  32  50  72  98 131 168 204 247 300
#     4  10  19  32  51  73  99 130 166 210 257 302
#
# _framework density 17.879522999999999
#
# number of rings (size 3 to 8) (size 9 to 14) (size 15 to 20)
#    0.000    2.667    0.000    3.000    0.000    7.000 
#    0.000    1.667    0.000    8.000    0.000    0.000 
#    0.000    0.000    0.000    0.000    0.000    0.000 
#
# Total GULP energy -595062.611294 kJ/mol
# GULP energy per Si atom -12397.137735 kJ/mol
# Density = 1.783883 g / cm^3
# Si number density = 17.879523 Si / 1000 Ang^3
#
#
#
# Elastic Constant Matrix: (Units=GPa)
#
#
# Indices 1 2 3 4 5 6 
#
# 1 95.2718 48.9358 41.5036 0.0000 0.0000 0.0000
# 2 48.9358 102.4666 34.5278 0.0000 0.0000 0.0000
# 3 41.5036 34.5278 79.2985 0.0000 0.0000 0.0000
# 4 0.0000 0.0000 0.0000 17.8078 0.0000 0.0000
# 5 0.0000 0.0000 0.0000 0.0000 24.3818 0.0000
# 6 0.0000 0.0000 0.0000 0.0000 0.0000 27.1454
#
#
#
# Elastic Compliance Matrix: (Units=1/GPa)
#
#
# Indices 1 2 3 4 5 6 
#
# 1 0.015961 -0.005634 -0.005900 0.000000 0.000000 0.000000
# 2 -0.005634 0.013426 -0.002897 0.000000 0.000000 0.000000
# 3 -0.005900 -0.002897 0.016960 0.000000 0.000000 0.000000
# 4 0.000000 0.000000 0.000000 0.056155 0.000000 0.000000
# 5 0.000000 0.000000 0.000000 0.000000 0.041014 0.000000
# 6 0.000000 0.000000 0.000000 0.000000 0.000000 0.036839
#
#
# Mechanical properties :
#
#
# Convention : Reuss Voigt Hill
#
# Bulk Modulus (GPa) = 57.19610 58.55238 57.87424
# Shear Modulus (GPa) = 23.25079 24.00498 23.62788
#
# Velocity S-wave (km/s) = 3.61004 3.66812 3.63920
# Velocity P-wave (km/s) = 7.03105 7.12457 7.07797
#
# Compressibility (1/GPa) = 0.01748371
#
# Stress axis : x y z
#
# Youngs Moduli (GPa) = 62.65397 74.48058 58.96164
#
# Poissons Ratio (x) = 0.41964 0.34789
# Poissons Ratio (y) = 0.35301 0.17082
# Poissons Ratio (z) = 0.36968 0.21578
#
# Static dielectric constant tensor:
#      x y z
#    x 3.460230 0.000000 0.000000 
#    y 0.000000 3.371270 0.000000 
#    z 0.000000 0.000000 3.266560 
# 
# 
# High freq. dielectric constant tensor:
#      x y z
#    x 1.702750 0.000000 0.000000 
#    y 0.000000 1.679660 0.000000 
#    z 0.000000 0.000000 1.671770 
# 
# From -- ./inp_files/20206.got.cif
#   From: 2010.03.12/outbox.cif.g09.slc.cpg/sg53_11_cif.got.tgz:20206.got - 2010.04.16 14:36:59.
