data_PCOD8218435
_publ_section_title
;
Structure prediction by ZEFSAII (Michael W. Deem and Ramdas Pophale) SiO2 
 PCOD8218435
Probable space group: P M N A
;
_chemical_formula_sum "Si O2"
_cell_formula_units_Z 56
_cell_length_a 8.818112
_cell_length_b 20.602182
_cell_length_c 18.393625
_cell_angle_alpha 90.000000
_cell_angle_beta 90.000000
_cell_angle_gamma 90.000000
_cell_volume 3341.613048
_symmetry_space_group_name_H-M "P M N A"
_symmetry_group_IT_number 53
_symmetry_cell_setting 'orthorhombic'
loop_
_space_group_symop_operation_xyz
x,y,z
1/2-x,-y,1/2+z
x,-y,-z
1/2-x,y,1/2-z
-x,-y,-z
1/2+x,y,1/2-z
-x,y,z
1/2+x,-y,1/2+z
loop_
_atom_site_type_symbol
_atom_site_label
_atom_site_fract_x
_atom_site_fract_y
_atom_site_fract_z
Si Si1 0.665484 0.571428 0.468179
Si Si2 0.681121 0.515712 0.324895
Si Si3 0.177672 0.001950 0.328851
Si Si4 0.820359 0.243354 0.173409
Si Si5 0.677177 0.868110 0.916274
Si Si6 0.818760 0.619942 0.885902
Si Si7 0.329059 0.933825 0.455757
O O1 0.644690 0.500000 0.500000
O O2 0.500000 0.602239 0.454106
O O3 0.746213 0.563225 0.389251
O O4 0.748440 0.614517 0.530826
O O5 0.750000 0.541427 0.250000
O O6 0.500000 0.518826 0.323119
O O7 0.736490 0.441610 0.338598
O O8 0.250000 0.999078 0.250000
O O9 0.249520 0.945040 0.378089
O O10 0.000000 0.989387 0.323264
O O11 0.214011 0.071684 0.363662
O O12 0.750000 0.222554 0.250000
O O13 0.768086 0.193638 0.112159
O O14 0.758880 0.314626 0.151484
O O15 0.000000 0.241862 0.180153
O O16 0.500000 0.852596 0.918155
O O17 0.734113 0.881411 0.998170
O O18 0.000000 0.619517 0.891471
O O19 0.500000 0.908434 0.443390
O O20 0.329629 0.000000 0.500000
#
# Coordination Sequence:
#
# PCOD8218435 Si02
#       7
#     8   8   8   8   8   8   8
#     4   7  11  22  40  59  78 105 142 177 209 251
#     4   9  15  24  41  63  86 110 137 174 218 261
#     4  10  19  30  46  68  93 120 149 183 222 263
#     4  11  21  31  44  63  88 117 150 184 217 256
#     4  10  20  33  47  64  90 122 154 185 219 260
#     4   8  15  27  42  60  82 112 149 182 210 250
#     4   9  17  30  48  68  90 116 147 183 224 269
#
# _framework density 16.758375000000001
#
# number of rings (size 3 to 8) (size 9 to 14) (size 15 to 20)
#    0.000    2.857    0.000    4.286    0.000    4.571 
#    0.000    0.714    0.000    5.571    0.000    1.000 
#    0.000    4.571    0.000    0.000    0.000    0.000 
#
# Total GULP energy -693949.103605 kJ/mol
# GULP energy per Si atom -12391.948279 kJ/mol
# Density = 1.672023 g / cm^3
# Si number density = 16.758375 Si / 1000 Ang^3
#
#
#
# Elastic Constant Matrix: (Units=GPa)
#
#
# Indices 1 2 3 4 5 6 
#
# 1 56.4922 17.5752 34.6455 0.0000 0.0000 0.0000
# 2 17.5752 32.9251 16.5671 0.0000 0.0000 0.0000
# 3 34.6455 16.5671 112.4124 0.0000 0.0000 0.0000
# 4 0.0000 0.0000 0.0000 19.9420 0.0000 0.0000
# 5 0.0000 0.0000 0.0000 0.0000 28.4701 0.0000
# 6 0.0000 0.0000 0.0000 0.0000 0.0000 -6.1593
#
#
#
# Elastic Compliance Matrix: (Units=1/GPa)
#
#
# Indices 1 2 3 4 5 6 
#
# 1 0.024562 -0.010047 -0.006089 0.000000 0.000000 0.000000
# 2 -0.010047 0.036914 -0.002344 0.000000 0.000000 0.000000
# 3 -0.006089 -0.002344 0.011118 0.000000 0.000000 0.000000
# 4 0.000000 0.000000 0.000000 0.050145 0.000000 0.000000
# 5 0.000000 0.000000 0.000000 0.000000 0.035125 0.000000
# 6 0.000000 0.000000 0.000000 0.000000 0.000000 -0.162356
#
#
# Mechanical properties :
#
#
# Convention : Reuss Voigt Hill
#
# Bulk Modulus (GPa) = 28.06318 37.71170 32.88744
# Shear Modulus (GPa) = 112.75004 17.32003 65.03503
#
# Velocity S-wave (km/s) = 8.21133 3.21832 6.23632
# Velocity P-wave (km/s) = 10.32876 6.03010 8.45711
#
# Compressibility (1/GPa) = 0.03563389
#
# Stress axis : x y z
#
# Youngs Moduli (GPa) = 40.71400 27.08977 89.94472
#
# Poissons Ratio (x) = 0.27217 0.54769
# Poissons Ratio (y) = 0.40905 0.21082
# Poissons Ratio (z) = 0.24791 0.06350
#
# Static dielectric constant tensor:
#      x y z
#    x 2.950910 0.000000 0.000000 
#    y 0.000000 2.970010 0.000000 
#    z 0.000000 0.000000 3.460030 
# 
# 
# High freq. dielectric constant tensor:
#      x y z
#    x 1.628280 0.000000 0.000000 
#    y 0.000000 1.602390 0.000000 
#    z 0.000000 0.000000 1.656390 
# 
# From -- ./inp_files/26657.got.cif
#   From: 2010.03.12/outbox.cif.g09.slc.cpg/sg53_14_cif.got.tgz:26657.got - 2010.04.16 14:36:59.
