data_PCOD8218613
_publ_section_title
;
Structure prediction by ZEFSAII (Michael W. Deem and Ramdas Pophale) SiO2 
 PCOD8218613
Probable space group: P M N A
;
_chemical_formula_sum "Si O2"
_cell_formula_units_Z 64
_cell_length_a 9.075904
_cell_length_b 21.100715
_cell_length_c 19.020704
_cell_angle_alpha 90.000000
_cell_angle_beta 90.000000
_cell_angle_gamma 90.000000
_cell_volume 3642.618193
_symmetry_space_group_name_H-M "P M N A"
_symmetry_group_IT_number 53
_symmetry_cell_setting 'orthorhombic'
loop_
_space_group_symop_operation_xyz
x,y,z
1/2-x,-y,1/2+z
x,-y,-z
1/2-x,y,1/2-z
-x,-y,-z
1/2+x,y,1/2-z
-x,y,z
1/2+x,-y,1/2+z
loop_
_atom_site_type_symbol
_atom_site_label
_atom_site_fract_x
_atom_site_fract_y
_atom_site_fract_z
Si Si1 0.167691 0.599051 0.318996
Si Si2 0.669159 0.304037 0.486842
Si Si3 0.665066 0.728324 0.120633
Si Si4 0.835188 0.136926 0.593759
Si Si5 0.671824 0.436567 0.538607
Si Si6 0.329732 0.810986 0.938028
Si Si7 0.671176 0.961691 0.320907
Si Si8 0.827008 0.107186 0.178179
O O1 0.250000 0.573109 0.250000
O O2 0.176258 0.676286 0.317779
O O3 0.237585 0.570925 0.389683
O O4 0.000000 0.575574 0.315393
O O5 0.500000 0.288280 0.469711
O O6 0.704312 0.286054 0.566883
O O7 0.701541 0.379473 0.482692
O O8 0.771495 0.261861 0.435490
O O9 0.500000 0.723155 0.085087
O O10 0.684337 0.801518 0.145320
O O11 0.802205 0.159535 0.514685
O O12 0.723691 0.081459 0.614363
O O13 0.000000 0.109284 0.599830
O O14 0.724689 0.500000 0.500000
O O15 0.500000 0.438923 0.559045
O O16 0.500000 0.812041 0.916059
O O17 0.235575 0.851647 0.884510
O O18 0.750000 0.938978 0.250000
O O19 0.500000 0.951757 0.309221
O O20 0.710515 0.034117 0.338662
O O21 0.750000 0.128786 0.250000
O O22 0.000000 0.118623 0.185779
#
# Coordination Sequence:
#
# PCOD8218613 Si02
#       8
#     8   8   8   8   8   8   8   8
#     4  10  19  31  48  71 101 135 173 213 250 292
#     4   9  16  28  49  75 100 126 157 195 238 284
#     4   8  16  30  45  65  95 129 162 197 238 286
#     4   9  18  32  49  71 100 132 166 202 244 293
#     4   9  18  33  53  77 105 137 171 206 247 296
#     4  10  20  34  53  76 102 131 162 203 251 296
#     4  10  21  35  50  68  94 128 165 207 252 301
#     4  10  21  37  55  74  96 125 164 208 256 309
#
# _framework density 17.569780999999999
#
# number of rings (size 3 to 8) (size 9 to 14) (size 15 to 20)
#    0.000    2.625    0.000    2.625    0.000    6.250 
#    0.000    3.750    0.000    0.750    0.000    3.500 
#    0.000    0.000    0.000    0.000    0.000    0.000 
#
# Total GULP energy -793246.721819 kJ/mol
# GULP energy per Si atom -12394.480028 kJ/mol
# Density = 1.752979 g / cm^3
# Si number density = 17.569781 Si / 1000 Ang^3
#
#
#
# Elastic Constant Matrix: (Units=GPa)
#
#
# Indices 1 2 3 4 5 6 
#
# 1 90.8945 52.7514 44.9550 0.0000 0.0000 0.0000
# 2 52.7514 102.8565 50.4444 0.0000 0.0000 0.0000
# 3 44.9550 50.4444 71.6162 0.0000 0.0000 0.0000
# 4 0.0000 0.0000 0.0000 19.0450 0.0000 0.0000
# 5 0.0000 0.0000 0.0000 0.0000 30.6708 0.0000
# 6 0.0000 0.0000 0.0000 0.0000 0.0000 25.1614
#
#
#
# Elastic Compliance Matrix: (Units=1/GPa)
#
#
# Indices 1 2 3 4 5 6 
#
# 1 0.017835 -0.005586 -0.007261 0.000000 0.000000 0.000000
# 2 -0.005586 0.016603 -0.008188 0.000000 0.000000 0.000000
# 3 -0.007261 -0.008188 0.024289 0.000000 0.000000 0.000000
# 4 0.000000 0.000000 0.000000 0.052507 0.000000 0.000000
# 5 0.000000 0.000000 0.000000 0.000000 0.032604 0.000000
# 6 0.000000 0.000000 0.000000 0.000000 0.000000 0.039743
#
#
# Mechanical properties :
#
#
# Convention : Reuss Voigt Hill
#
# Bulk Modulus (GPa) = 60.03647 62.40768 61.22207
# Shear Modulus (GPa) = 21.62608 22.78987 22.20797
#
# Velocity S-wave (km/s) = 3.51218 3.60544 3.55912
# Velocity P-wave (km/s) = 7.11981 7.27525 7.19795
#
# Compressibility (1/GPa) = 0.01665654
#
# Stress axis : x y z
#
# Youngs Moduli (GPa) = 56.07096 60.23057 41.17172
#
# Poissons Ratio (x) = 0.33644 0.29893
# Poissons Ratio (y) = 0.31320 0.33712
# Poissons Ratio (z) = 0.40711 0.49318
#
# Static dielectric constant tensor:
#      x y z
#    x 3.351570 0.000000 0.000000 
#    y 0.000000 3.399020 0.000000 
#    z 0.000000 0.000000 2.961660 
# 
# 
# High freq. dielectric constant tensor:
#      x y z
#    x 1.692850 0.000000 0.000000 
#    y 0.000000 1.674450 0.000000 
#    z 0.000000 0.000000 1.645040 
# 
# From -- ./inp_files/26952.got.cif
#   From: 2010.03.12/outbox.cif.g09.slc.cpg/sg53_14_cif.got.tgz:26952.got - 2010.04.16 14:36:59.
