data_PCOD8218129
_publ_section_title
;
Structure prediction by ZEFSAII (Michael W. Deem and Ramdas Pophale) SiO2 
 PCOD8218129
Probable space group: P M N A
;
_chemical_formula_sum "Si O2"
_cell_formula_units_Z 64
_cell_length_a 8.939433
_cell_length_b 11.975019
_cell_length_c 31.981834
_cell_angle_alpha 90.000000
_cell_angle_beta 90.000000
_cell_angle_gamma 90.000000
_cell_volume 3423.651493
_symmetry_space_group_name_H-M "P M N A"
_symmetry_group_IT_number 53
_symmetry_cell_setting 'orthorhombic'
loop_
_space_group_symop_operation_xyz
x,y,z
1/2-x,-y,1/2+z
x,-y,-z
1/2-x,y,1/2-z
-x,-y,-z
1/2+x,y,1/2-z
-x,y,z
1/2+x,-y,1/2+z
loop_
_atom_site_type_symbol
_atom_site_label
_atom_site_fract_x
_atom_site_fract_y
_atom_site_fract_z
Si Si1 0.174084 0.259762 0.426693
Si Si2 0.177031 0.689291 0.292630
Si Si3 0.331623 0.868490 0.503868
Si Si4 0.167984 0.633232 0.382611
Si Si5 0.323762 0.936981 0.872263
Si Si6 0.176783 0.514087 0.951705
Si Si7 0.323075 0.055420 0.791504
Si Si8 0.831480 0.859652 0.424234
O O1 0.212980 0.171965 0.462479
O O2 0.272775 0.369074 0.431909
O O3 0.000000 0.292343 0.428515
O O4 0.214600 0.192010 0.383856
O O5 0.250000 0.639238 0.250000
O O6 0.225691 0.617993 0.334362
O O7 0.230578 0.817178 0.298732
O O8 0.000000 0.682420 0.287569
O O9 0.500000 0.826799 0.514072
O O10 0.278435 0.815270 0.460313
O O11 0.322096 0.000000 0.500000
O O12 0.266620 0.578805 0.419200
O O13 0.165896 0.766631 0.388237
O O14 0.000000 0.584136 0.387004
O O15 0.500000 0.956064 0.872023
O O16 0.259719 0.972602 0.827356
O O17 0.261528 0.025328 0.906298
O O18 0.000000 0.508613 0.952706
O O19 0.237215 0.500000 0.000000
O O20 0.250000 0.006171 0.750000
O O21 0.500000 0.049706 0.787931
O O22 0.000000 0.877582 0.441813
#
# Coordination Sequence:
#
# PCOD8218129 Si02
#       8
#     8   8   8   8   8   8   8   8
#     4  11  22  37  59  80 101 138 188 230 266 320
#     4   9  17  30  51  81 115 146 177 220 269 325
#     4  11  22  33  46  72 110 143 170 213 268 317
#     4  10  20  35  58  83 108 143 188 231 270 321
#     4   9  17  31  53  79 108 139 174 219 266 312
#     4  11  25  43  59  77 109 147 185 235 292 341
#     4   9  16  30  50  77 114 148 176 211 263 322
#     4  10  18  32  53  77 105 140 181 220 259 314
#
# _framework density 18.693490000000001
#
# number of rings (size 3 to 8) (size 9 to 14) (size 15 to 20)
#    0.000    2.000    2.500    1.875    0.000    4.500 
#    0.000    1.875    0.000    0.750    0.000    1.750 
#    0.000    0.000    0.000    0.000    0.000    0.000 
#
# Total GULP energy -793077.811466 kJ/mol
# GULP energy per Si atom -12391.840804 kJ/mol
# Density = 1.865094 g / cm^3
# Si number density = 18.693490 Si / 1000 Ang^3
#
#
#
# Elastic Constant Matrix: (Units=GPa)
#
#
# Indices 1 2 3 4 5 6 
#
# 1 39.6441 21.5366 34.2898 0.0000 0.0000 0.0000
# 2 21.5366 71.3042 38.2675 0.0000 0.0000 0.0000
# 3 34.2898 38.2675 142.7218 0.0000 0.0000 0.0000
# 4 0.0000 0.0000 0.0000 27.0195 0.0000 0.0000
# 5 0.0000 0.0000 0.0000 0.0000 28.9900 0.0000
# 6 0.0000 0.0000 0.0000 0.0000 0.0000 23.6901
#
#
#
# Elastic Compliance Matrix: (Units=1/GPa)
#
#
# Indices 1 2 3 4 5 6 
#
# 1 0.034590 -0.006994 -0.006435 0.000000 0.000000 0.000000
# 2 -0.006994 0.017796 -0.003091 0.000000 0.000000 0.000000
# 3 -0.006435 -0.003091 0.009382 0.000000 0.000000 0.000000
# 4 0.000000 0.000000 0.000000 0.037010 0.000000 0.000000
# 5 0.000000 0.000000 0.000000 0.000000 0.034495 0.000000
# 6 0.000000 0.000000 0.000000 0.000000 0.000000 0.042212
#
#
# Mechanical properties :
#
#
# Convention : Reuss Voigt Hill
#
# Bulk Modulus (GPa) = 34.81073 49.09533 41.95303
# Shear Modulus (GPa) = 22.92526 26.57834 24.75180
#
# Velocity S-wave (km/s) = 3.50577 3.77476 3.64275
# Velocity P-wave (km/s) = 5.92026 6.73192 6.33910
#
# Compressibility (1/GPa) = 0.02872678
#
# Stress axis : x y z
#
# Youngs Moduli (GPa) = 28.91020 56.19298 106.59188
#
# Poissons Ratio (x) = 0.39300 0.68594
# Poissons Ratio (y) = 0.20219 0.32950
# Poissons Ratio (z) = 0.18604 0.17371
#
# Static dielectric constant tensor:
#      x y z
#    x 3.301270 0.000000 0.000000 
#    y 0.000000 3.331290 0.000000 
#    z 0.000000 0.000000 3.680510 
# 
# 
# High freq. dielectric constant tensor:
#      x y z
#    x 1.708250 0.000000 0.000000 
#    y 0.000000 1.700710 0.000000 
#    z 0.000000 0.000000 1.730260 
# 
# From -- ./inp_files/38257.got.cif
#   From: 2010.03.12/outbox.cif.g09.slc.cpg/sg53_20_cif.got.tgz:38257.got - 2010.04.16 14:36:59.
