data_PCOD8218674
_publ_section_title
;
Structure prediction by ZEFSAII (Michael W. Deem and Ramdas Pophale) SiO2 
 PCOD8218674
Probable space group: P M N A
;
_chemical_formula_sum "Si O2"
_cell_formula_units_Z 64
_cell_length_a 8.884900
_cell_length_b 23.017229
_cell_length_c 17.084365
_cell_angle_alpha 90.000000
_cell_angle_beta 90.000000
_cell_angle_gamma 90.000000
_cell_volume 3493.851355
_symmetry_space_group_name_H-M "P M N A"
_symmetry_group_IT_number 53
_symmetry_cell_setting 'orthorhombic'
loop_
_space_group_symop_operation_xyz
x,y,z
1/2-x,-y,1/2+z
x,-y,-z
1/2-x,y,1/2-z
-x,-y,-z
1/2+x,y,1/2-z
-x,y,z
1/2+x,-y,1/2+z
loop_
_atom_site_type_symbol
_atom_site_label
_atom_site_fract_x
_atom_site_fract_y
_atom_site_fract_z
Si Si1 0.177517 0.060040 0.331710
Si Si2 0.673906 0.432433 0.101382
Si Si3 0.822970 0.542393 0.166136
Si Si4 0.169983 0.371755 0.563169
Si Si5 0.825385 0.129321 0.484630
Si Si6 0.825665 0.262489 0.469056
Si Si7 0.169289 0.036944 0.921566
Si Si8 0.822250 0.323155 0.171471
O O1 0.250000 0.080574 0.250000
O O2 0.226625 0.105830 0.399249
O O3 0.000000 0.057742 0.321006
O O4 0.236262 0.995735 0.354433
O O5 0.500000 0.438584 0.125781
O O6 0.756123 0.493971 0.108209
O O7 0.752975 0.386834 0.158829
O O8 0.691095 0.411178 0.013134
O O9 0.750000 0.534059 0.250000
O O10 0.781329 0.605506 0.130575
O O11 0.000000 0.535876 0.173092
O O12 0.209372 0.304843 0.542427
O O13 0.000000 0.376765 0.594903
O O14 0.789077 0.197066 0.493092
O O15 0.740012 0.099216 0.557037
O O16 0.000000 0.115137 0.495017
O O17 0.719433 0.278939 0.397312
O O18 0.000000 0.270662 0.443424
O O19 0.000000 0.045619 0.890659
O O20 0.174237 0.000000 0.000000
O O21 0.750000 0.296867 0.250000
O O22 0.000000 0.328078 0.179109
#
# Coordination Sequence:
#
# PCOD8218674 Si02
#       8
#     8   8   8   8   8   8   8   8
#     4  10  19  31  49  75 108 140 170 206 251 299
#     4  10  20  36  56  77 103 133 166 205 254 311
#     4  12  24  36  53  77 104 131 165 209 258 311
#     4   9  19  36  56  76 102 135 168 206 253 303
#     4   9  18  33  53  76 102 135 173 210 250 299
#     4   9  19  36  55  75 101 135 173 211 253 300
#     4   9  17  30  49  73 101 133 169 206 245 290
#     4  11  21  33  49  71 102 137 173 211 253 302
#
# _framework density 18.317895
#
# number of rings (size 3 to 8) (size 9 to 14) (size 15 to 20)
#    0.000    2.125    0.000    4.875    0.000    7.000 
#    0.000    1.250    0.000    0.750    0.000    3.500 
#    0.000    0.000    0.000    0.000    0.000    0.000 
#
# Total GULP energy -793710.117088 kJ/mol
# GULP energy per Si atom -12401.720580 kJ/mol
# Density = 1.827620 g / cm^3
# Si number density = 18.317895 Si / 1000 Ang^3
#
#
#
# Elastic Constant Matrix: (Units=GPa)
#
#
# Indices 1 2 3 4 5 6 
#
# 1 114.6905 41.4494 23.2902 0.0000 0.0000 0.0000
# 2 41.4494 116.6617 28.8016 0.0000 0.0000 0.0000
# 3 23.2902 28.8016 32.5504 0.0000 0.0000 0.0000
# 4 0.0000 0.0000 0.0000 14.0214 0.0000 0.0000
# 5 0.0000 0.0000 0.0000 0.0000 31.1145 0.0000
# 6 0.0000 0.0000 0.0000 0.0000 0.0000 18.4257
#
#
#
# Elastic Compliance Matrix: (Units=1/GPa)
#
#
# Indices 1 2 3 4 5 6 
#
# 1 0.010722 -0.002451 -0.005503 0.000000 0.000000 0.000000
# 2 -0.002451 0.011528 -0.008447 0.000000 0.000000 0.000000
# 3 -0.005503 -0.008447 0.042133 0.000000 0.000000 0.000000
# 4 0.000000 0.000000 0.000000 0.071319 0.000000 0.000000
# 5 0.000000 0.000000 0.000000 0.000000 0.032139 0.000000
# 6 0.000000 0.000000 0.000000 0.000000 0.000000 0.054272
#
#
# Mechanical properties :
#
#
# Convention : Reuss Voigt Hill
#
# Bulk Modulus (GPa) = 31.66391 50.10947 40.88669
# Shear Modulus (GPa) = 18.83639 24.06973 21.45306
#
# Velocity S-wave (km/s) = 3.21020 3.62885 3.42592
# Velocity P-wave (km/s) = 5.57349 6.70618 6.16590
#
# Compressibility (1/GPa) = 0.03158170
#
# Stress axis : x y z
#
# Youngs Moduli (GPa) = 93.26203 86.74592 23.73428
#
# Poissons Ratio (x) = 0.21261 0.13062
# Poissons Ratio (y) = 0.22858 0.20047
# Poissons Ratio (z) = 0.51326 0.73271
#
# Static dielectric constant tensor:
#      x y z
#    x 3.428940 0.000000 0.000000 
#    y 0.000000 3.383210 0.000000 
#    z 0.000000 0.000000 3.205450 
# 
# 
# High freq. dielectric constant tensor:
#      x y z
#    x 1.717240 0.000000 0.000000 
#    y 0.000000 1.700070 0.000000 
#    z 0.000000 0.000000 1.690340 
# 
# From -- ./inp_files/20800.got.cif
#   From: 2010.03.12/outbox.cif.g09.slc.cpg/sg53_11_cif.got.tgz:20800.got - 2010.04.16 14:36:59.
