data_PCOD8218045
_publ_section_title
;
Structure prediction by ZEFSAII (Michael W. Deem and Ramdas Pophale) SiO2 
 PCOD8218045
Probable space group: P M N A
;
_chemical_formula_sum "Si O2"
_cell_formula_units_Z 40
_cell_length_a 8.607480
_cell_length_b 25.454608
_cell_length_c 9.943481
_cell_angle_alpha 90.000000
_cell_angle_beta 90.000000
_cell_angle_gamma 90.000000
_cell_volume 2178.616978
_symmetry_space_group_name_H-M "P M N A"
_symmetry_group_IT_number 53
_symmetry_cell_setting 'orthorhombic'
loop_
_space_group_symop_operation_xyz
x,y,z
1/2-x,-y,1/2+z
x,-y,-z
1/2-x,y,1/2-z
-x,-y,-z
1/2+x,y,1/2-z
-x,y,z
1/2+x,-y,1/2+z
loop_
_atom_site_type_symbol
_atom_site_label
_atom_site_fract_x
_atom_site_fract_y
_atom_site_fract_z
Si Si1 0.316826 0.045904 0.398092
Si Si2 0.682928 0.460321 0.890106
Si Si3 0.815762 0.152929 0.399209
Si Si4 0.816285 0.259672 0.101045
Si Si5 0.816054 0.659489 0.393496
O O1 0.250000 0.033861 0.250000
O O2 0.500000 0.052376 0.384369
O O3 0.245906 0.098983 0.465305
O O4 0.269292 0.000000 0.500000
O O5 0.750000 0.479850 0.750000
O O6 0.500000 0.464852 0.883641
O O7 0.733070 0.400660 0.921504
O O8 0.753049 0.500000 0.000000
O O9 0.750000 0.152409 0.250000
O O10 0.748889 0.205856 0.467605
O O11 0.000000 0.154462 0.401792
O O12 0.750000 0.267988 0.250000
O O13 0.000000 0.256595 0.109617
O O14 0.763919 0.307892 0.010591
O O15 0.750000 0.678163 0.250000
O O16 0.000000 0.667797 0.395814
#
# Coordination Sequence:
#
# PCOD8218045 Si02
#       5
#     8   8   8   8   8
#     4  10  20  34  53  77 105 137 173 212 257 308
#     4   9  19  35  54  77 105 137 173 213 256 306
#     4  10  18  31  52  76 103 135 172 213 260 309
#     4  11  21  35  55  79 106 136 175 219 262 309
#     4  10  20  36  55  77 107 141 176 213 261 315
#
# _framework density 18.360271000000001
#
# number of rings (size 3 to 8) (size 9 to 14) (size 15 to 20)
#    0.000    2.000    0.000    7.200    0.000    3.600 
#    0.000    3.000    0.000    2.400    0.000    0.000 
#    0.000    0.000    0.000    0.000    0.000    0.000 
#
# Total GULP energy -495935.354027 kJ/mol
# GULP energy per Si atom -12398.383851 kJ/mol
# Density = 1.831848 g / cm^3
# Si number density = 18.360271 Si / 1000 Ang^3
#
#
#
# Elastic Constant Matrix: (Units=GPa)
#
#
# Indices 1 2 3 4 5 6 
#
# 1 115.5544 55.3614 45.6395 0.0000 0.0000 0.0000
# 2 55.3614 140.3909 84.8856 0.0000 0.0000 0.0000
# 3 45.6395 84.8856 103.4065 0.0000 0.0000 0.0000
# 4 0.0000 0.0000 0.0000 33.9615 0.0000 0.0000
# 5 0.0000 0.0000 0.0000 0.0000 29.3059 0.0000
# 6 0.0000 0.0000 0.0000 0.0000 0.0000 26.1938
#
#
#
# Elastic Compliance Matrix: (Units=1/GPa)
#
#
# Indices 1 2 3 4 5 6 
#
# 1 0.011003 -0.002785 -0.002570 0.000000 0.000000 0.000000
# 2 -0.002785 0.014847 -0.010959 0.000000 0.000000 0.000000
# 3 -0.002570 -0.010959 0.019801 0.000000 0.000000 0.000000
# 4 0.000000 0.000000 0.000000 0.029445 0.000000 0.000000
# 5 0.000000 0.000000 0.000000 0.000000 0.034123 0.000000
# 6 0.000000 0.000000 0.000000 0.000000 0.000000 0.038177
#
#
# Mechanical properties :
#
#
# Convention : Reuss Voigt Hill
#
# Bulk Modulus (GPa) = 76.78442 81.23609 79.01025
# Shear Modulus (GPa) = 27.11995 29.45658 28.28827
#
# Velocity S-wave (km/s) = 3.84747 4.00980 3.92947
# Velocity P-wave (km/s) = 7.85170 8.11046 7.98213
#
# Compressibility (1/GPa) = 0.01302348
#
# Stress axis : x y z
#
# Youngs Moduli (GPa) = 90.88139 67.35226 50.50232
#
# Poissons Ratio (x) = 0.18757 0.12981
# Poissons Ratio (y) = 0.25310 0.55345
# Poissons Ratio (z) = 0.23359 0.73811
#
# Static dielectric constant tensor:
#      x y z
#    x 3.469190 0.000000 0.000000 
#    y 0.000000 4.122120 0.000000 
#    z 0.000000 0.000000 3.230950 
# 
# 
# High freq. dielectric constant tensor:
#      x y z
#    x 1.728280 0.000000 0.000000 
#    y 0.000000 1.729080 0.000000 
#    z 0.000000 0.000000 1.684310 
# 
# From -- ./inp_files/6441.got.cif
#   From: 2010.03.12/outbox.cif.g09.slc.cpg/sg53_4_cif.got.tgz:6441.got - 2010.04.16 14:36:59.
