data_PCOD8218466
_publ_section_title
;
Structure prediction by ZEFSAII (Michael W. Deem and Ramdas Pophale) SiO2 
 PCOD8218466
Probable space group: P M N A
;
_chemical_formula_sum "Si O2"
_cell_formula_units_Z 64
_cell_length_a 9.062204
_cell_length_b 16.518848
_cell_length_c 21.845901
_cell_angle_alpha 90.000000
_cell_angle_beta 90.000000
_cell_angle_gamma 90.000000
_cell_volume 3270.269565
_symmetry_space_group_name_H-M "P M N A"
_symmetry_group_IT_number 53
_symmetry_cell_setting 'orthorhombic'
loop_
_space_group_symop_operation_xyz
x,y,z
1/2-x,-y,1/2+z
x,-y,-z
1/2-x,y,1/2-z
-x,-y,-z
1/2+x,y,1/2-z
-x,y,z
1/2+x,-y,1/2+z
loop_
_atom_site_type_symbol
_atom_site_label
_atom_site_fract_x
_atom_site_fract_y
_atom_site_fract_z
Si Si1 0.328063 0.857227 0.311284
Si Si2 0.330892 0.709398 0.391143
Si Si3 0.326150 0.040540 0.313249
Si Si4 0.665009 0.280589 0.189469
Si Si5 0.830401 0.445155 0.814304
Si Si6 0.826502 0.822863 0.904878
Si Si7 0.836630 0.573080 0.612821
Si Si8 0.325839 0.293592 0.014650
O O1 0.250000 0.827053 0.250000
O O2 0.500000 0.853195 0.297589
O O3 0.285156 0.798285 0.366880
O O4 0.279115 0.948604 0.328225
O O5 0.500000 0.708345 0.414353
O O6 0.309598 0.647415 0.335112
O O7 0.223608 0.685130 0.446295
O O8 0.250000 0.070693 0.250000
O O9 0.500000 0.050572 0.303185
O O10 0.275325 0.092818 0.372756
O O11 0.750000 0.260451 0.250000
O O12 0.500000 0.241308 0.189465
O O13 0.774860 0.247693 0.139068
O O14 0.651376 0.375501 0.175716
O O15 0.750000 0.459648 0.750000
O O16 0.770355 0.499045 0.871054
O O17 0.000000 0.467955 0.804187
O O18 0.747053 0.794502 0.967833
O O19 0.000000 0.823123 0.916533
O O20 0.777334 0.630007 0.557265
O O21 0.000000 0.539756 0.595804
O O22 0.500000 0.282136 0.020165
#
# Coordination Sequence:
#
# PCOD8218466 Si02
#       8
#     8   8   8   8   8   8   8   8
#     4   9  18  35  57  81 110 141 176 219 268 320
#     4  10  22  39  58  80 107 141 180 222 268 317
#     4   9  18  31  51  80 110 142 178 218 267 320
#     4  10  19  30  46  71 103 140 180 218 262 315
#     4  11  23  37  57  85 112 139 174 218 268 320
#     4  10  19  32  51  75 105 140 178 220 266 316
#     4   9  20  37  54  75 105 140 176 216 262 312
#     4  10  22  39  58  79 105 142 185 223 262 314
#
# _framework density 19.570252
#
# number of rings (size 3 to 8) (size 9 to 14) (size 15 to 20)
#    0.000    2.250    0.000    3.375    0.000    8.000 
#    0.000    3.125    0.000    3.750    0.000    0.000 
#    0.000    0.000    0.000    0.000    0.000    0.000 
#
# Total GULP energy -793111.173189 kJ/mol
# GULP energy per Si atom -12392.362081 kJ/mol
# Density = 1.952571 g / cm^3
# Si number density = 19.570252 Si / 1000 Ang^3
#
#
#
# Elastic Constant Matrix: (Units=GPa)
#
#
# Indices 1 2 3 4 5 6 
#
# 1 68.1802 35.7050 37.7402 0.0000 0.0000 0.0000
# 2 35.7050 83.0618 30.1546 0.0000 0.0000 0.0000
# 3 37.7402 30.1546 83.7078 0.0000 0.0000 0.0000
# 4 0.0000 0.0000 0.0000 25.4899 0.0000 0.0000
# 5 0.0000 0.0000 0.0000 0.0000 34.3798 0.0000
# 6 0.0000 0.0000 0.0000 0.0000 0.0000 31.5259
#
#
#
# Elastic Compliance Matrix: (Units=1/GPa)
#
#
# Indices 1 2 3 4 5 6 
#
# 1 0.022526 -0.006898 -0.007671 0.000000 0.000000 0.000000
# 2 -0.006898 0.015963 -0.002640 0.000000 0.000000 0.000000
# 3 -0.007671 -0.002640 0.016356 0.000000 0.000000 0.000000
# 4 0.000000 0.000000 0.000000 0.039231 0.000000 0.000000
# 5 0.000000 0.000000 0.000000 0.000000 0.029087 0.000000
# 6 0.000000 0.000000 0.000000 0.000000 0.000000 0.031720
#
#
# Mechanical properties :
#
#
# Convention : Reuss Voigt Hill
#
# Bulk Modulus (GPa) = 48.95762 49.12773 49.04268
# Shear Modulus (GPa) = 25.49593 27.03578 26.26585
#
# Velocity S-wave (km/s) = 3.61333 3.72085 3.66749
# Velocity P-wave (km/s) = 6.51758 6.60435 6.56111
#
# Compressibility (1/GPa) = 0.02042583
#
# Stress axis : x y z
#
# Youngs Moduli (GPa) = 44.39413 62.64483 61.13983
#
# Poissons Ratio (x) = 0.43213 0.46899
# Poissons Ratio (y) = 0.30623 0.16144
# Poissons Ratio (z) = 0.34054 0.16541
#
# Static dielectric constant tensor:
#      x y z
#    x 3.704840 0.000000 0.000000 
#    y 0.000000 3.693220 0.000000 
#    z 0.000000 0.000000 3.271930 
# 
# 
# High freq. dielectric constant tensor:
#      x y z
#    x 1.762600 0.000000 0.000000 
#    y 0.000000 1.758670 0.000000 
#    z 0.000000 0.000000 1.749290 
# 
# From -- ./inp_files/34222.got.cif
#   From: 2010.03.12/outbox.cif.g09.slc.cpg/sg53_18_cif.got.tgz:34222.got - 2010.04.16 14:36:59.
