data_PCOD8218397
_publ_section_title
;
Structure prediction by ZEFSAII (Michael W. Deem and Ramdas Pophale) SiO2 
 PCOD8218397
Probable space group: P M N A
;
_chemical_formula_sum "Si O2"
_cell_formula_units_Z 48
_cell_length_a 9.387974
_cell_length_b 15.202110
_cell_length_c 21.374204
_cell_angle_alpha 90.000000
_cell_angle_beta 90.000000
_cell_angle_gamma 90.000000
_cell_volume 3050.462559
_symmetry_space_group_name_H-M "P M N A"
_symmetry_group_IT_number 53
_symmetry_cell_setting 'orthorhombic'
loop_
_space_group_symop_operation_xyz
x,y,z
1/2-x,-y,1/2+z
x,-y,-z
1/2-x,y,1/2-z
-x,-y,-z
1/2+x,y,1/2-z
-x,y,z
1/2+x,-y,1/2+z
loop_
_atom_site_type_symbol
_atom_site_label
_atom_site_fract_x
_atom_site_fract_y
_atom_site_fract_z
Si Si1 0.168860 0.877289 0.043484
Si Si2 0.338980 0.478329 0.927127
Si Si3 0.164512 0.684342 0.047201
Si Si4 0.162671 0.359306 0.096369
Si Si5 0.331052 0.941112 0.588915
Si Si6 0.332559 0.801150 0.685891
O O1 0.220263 0.781602 0.067406
O O2 0.000000 0.873876 0.036969
O O3 0.214274 0.955414 0.091561
O O4 0.232015 0.898548 0.974682
O O5 0.500000 0.469944 0.902473
O O6 0.257996 0.386490 0.915157
O O7 0.261140 0.556296 0.889583
O O8 0.333625 0.500000 0.000000
O O9 0.000000 0.668684 0.065090
O O10 0.186901 0.677536 0.972978
O O11 0.205105 0.283870 0.144816
O O12 0.000000 0.389424 0.105058
O O13 0.500000 0.931994 0.586727
O O14 0.275354 0.887914 0.649232
O O15 0.250000 0.793981 0.750000
O O16 0.500000 0.807143 0.699388
#
# Coordination Sequence:
#
# PCOD8218397 Si02
#       6
#     8   8   8   8   8   8
#     4   8  12  20  40  65  86 108 137 177 220 254
#     4   9  17  26  37  57  85 114 138 164 206 256
#     4   9  14  23  41  64  85 108 138 172 212 254
#     4   9  16  27  41  58  82 111 143 177 207 246
#     4   8  13  23  39  62  87 109 139 179 216 251
#     4  10  19  30  44  63  87 116 148 179 213 253
#
# _framework density 15.735319
#
# number of rings (size 3 to 8) (size 9 to 14) (size 15 to 20)
#    0.000    3.167    1.667    1.500    0.000    2.667 
#    0.000    0.000    0.000    1.000    0.000    3.500 
#    0.000    2.667    0.000    0.000    0.000    0.000 
#
# Total GULP energy -594823.936432 kJ/mol
# GULP energy per Si atom -12392.165342 kJ/mol
# Density = 1.569951 g / cm^3
# Si number density = 15.735319 Si / 1000 Ang^3
#
#
#
# Elastic Constant Matrix: (Units=GPa)
#
#
# Indices 1 2 3 4 5 6 
#
# 1 59.0894 60.9821 26.9931 0.0000 0.0000 0.0000
# 2 60.9821 166.9843 43.5844 0.0000 0.0000 0.0000
# 3 26.9931 43.5844 53.0928 0.0000 0.0000 0.0000
# 4 0.0000 0.0000 0.0000 16.4258 0.0000 0.0000
# 5 0.0000 0.0000 0.0000 0.0000 16.7804 0.0000
# 6 0.0000 0.0000 0.0000 0.0000 0.0000 10.2362
#
#
#
# Elastic Compliance Matrix: (Units=1/GPa)
#
#
# Indices 1 2 3 4 5 6 
#
# 1 0.029518 -0.008734 -0.007837 0.000000 0.000000 0.000000
# 2 -0.008734 0.010206 -0.003938 0.000000 0.000000 0.000000
# 3 -0.007837 -0.003938 0.026052 0.000000 0.000000 0.000000
# 4 0.000000 0.000000 0.000000 0.060880 0.000000 0.000000
# 5 0.000000 0.000000 0.000000 0.000000 0.059594 0.000000
# 6 0.000000 0.000000 0.000000 0.000000 0.000000 0.097693
#
#
# Mechanical properties :
#
#
# Convention : Reuss Voigt Hill
#
# Bulk Modulus (GPa) = 40.39169 60.25395 50.32282
# Shear Modulus (GPa) = 15.00546 18.52893 16.76720
#
# Velocity S-wave (km/s) = 3.09142 3.43525 3.26786
# Velocity P-wave (km/s) = 6.20223 7.35594 6.80359
#
# Compressibility (1/GPa) = 0.02475756
#
# Stress axis : x y z
#
# Youngs Moduli (GPa) = 33.87808 97.98116 38.38480
#
# Poissons Ratio (x) = 0.85578 0.30083
# Poissons Ratio (y) = 0.29590 0.15115
# Poissons Ratio (z) = 0.26551 0.38582
#
# Static dielectric constant tensor:
#      x y z
#    x 2.748460 0.000000 0.000000 
#    y 0.000000 3.413940 0.000000 
#    z 0.000000 0.000000 2.587010 
# 
# 
# High freq. dielectric constant tensor:
#      x y z
#    x 1.571390 0.000000 0.000000 
#    y 0.000000 1.623850 0.000000 
#    z 0.000000 0.000000 1.546710 
# 
# From -- ./inp_files/30504.got.cif
#   From: 2010.03.12/outbox.cif.g09.slc.cpg/sg53_16_cif.got.tgz:30504.got - 2010.04.16 14:36:59.
