data_PCOD8218438
_publ_section_title
;
Structure prediction by ZEFSAII (Michael W. Deem and Ramdas Pophale) SiO2 
 PCOD8218438
Probable space group: P M N A
;
_chemical_formula_sum "Si O2"
_cell_formula_units_Z 40
_cell_length_a 9.173746
_cell_length_b 16.128395
_cell_length_c 14.350090
_cell_angle_alpha 90.000000
_cell_angle_beta 90.000000
_cell_angle_gamma 90.000000
_cell_volume 2123.207734
_symmetry_space_group_name_H-M "P M N A"
_symmetry_group_IT_number 53
_symmetry_cell_setting 'orthorhombic'
loop_
_space_group_symop_operation_xyz
x,y,z
1/2-x,-y,1/2+z
x,-y,-z
1/2-x,y,1/2-z
-x,-y,-z
1/2+x,y,1/2-z
-x,y,z
1/2+x,-y,1/2+z
loop_
_atom_site_type_symbol
_atom_site_label
_atom_site_fract_x
_atom_site_fract_y
_atom_site_fract_z
Si Si1 0.669357 0.189646 0.034032
Si Si2 0.831954 0.887072 0.334691
Si Si3 0.836984 0.039072 0.101337
Si Si4 0.672782 0.523815 0.151788
Si Si5 0.672499 0.374875 0.024538
O O1 0.500000 0.181723 0.061985
O O2 0.762741 0.129743 0.100214
O O3 0.731208 0.282728 0.045853
O O4 0.692774 0.165568 0.926908
O O5 0.750000 0.839608 0.250000
O O6 0.000000 0.897218 0.310204
O O7 0.762593 0.978794 0.337911
O O8 0.000000 0.047174 0.143082
O O9 0.844383 0.000000 0.000000
O O10 0.750000 0.539549 0.250000
O O11 0.500000 0.527908 0.167413
O O12 0.720774 0.434778 0.109050
O O13 0.726789 0.592459 0.076561
O O14 0.500000 0.373358 0.018340
#
# Coordination Sequence:
#
# PCOD8218438 Si02
#       5
#     8   8   8   8   8
#     4   9  17  31  50  69  91 124 163 197 235 288
#     4  10  19  30  46  68  94 124 159 198 240 287
#     4   9  17  30  47  66  90 120 153 190 232 276
#     4   9  17  32  53  74  98 130 166 202 244 295
#     4   8  16  32  52  72  98 134 168 197 241 303
#
# _framework density 18.839418999999999
#
# number of rings (size 3 to 8) (size 9 to 14) (size 15 to 20)
#    0.000    3.000    0.000    2.400    0.000    4.000 
#    0.000    5.000    0.000    2.400    0.000    0.000 
#    0.000    0.000    0.000    0.000    0.000    0.000 
#
# Total GULP energy -495773.387695 kJ/mol
# GULP energy per Si atom -12394.334692 kJ/mol
# Density = 1.879654 g / cm^3
# Si number density = 18.839419 Si / 1000 Ang^3
#
#
#
# Elastic Constant Matrix: (Units=GPa)
#
#
# Indices 1 2 3 4 5 6 
#
# 1 65.9184 9.4004 6.1664 0.0000 0.0000 0.0000
# 2 9.4004 96.7579 -14.0799 0.0000 0.0000 0.0000
# 3 6.1664 -14.0799 39.8477 0.0000 0.0000 0.0000
# 4 0.0000 0.0000 0.0000 12.2952 0.0000 0.0000
# 5 0.0000 0.0000 0.0000 0.0000 31.0920 0.0000
# 6 0.0000 0.0000 0.0000 0.0000 0.0000 17.7831
#
#
#
# Elastic Compliance Matrix: (Units=1/GPa)
#
#
# Indices 1 2 3 4 5 6 
#
# 1 0.015747 -0.001987 -0.003139 0.000000 0.000000 0.000000
# 2 -0.001987 0.011146 0.004246 0.000000 0.000000 0.000000
# 3 -0.003139 0.004246 0.027082 0.000000 0.000000 0.000000
# 4 0.000000 0.000000 0.000000 0.081333 0.000000 0.000000
# 5 0.000000 0.000000 0.000000 0.000000 0.032163 0.000000
# 6 0.000000 0.000000 0.000000 0.000000 0.000000 0.056233
#
#
# Mechanical properties :
#
#
# Convention : Reuss Voigt Hill
#
# Bulk Modulus (GPa) = 19.15153 22.83309 20.99231
# Shear Modulus (GPa) = 20.58735 25.63653 23.11194
#
# Velocity S-wave (km/s) = 3.30931 3.69289 3.50635
# Velocity P-wave (km/s) = 4.97893 5.50722 5.24972
#
# Compressibility (1/GPa) = 0.05221515
#
# Stress axis : x y z
#
# Youngs Moduli (GPa) = 63.50334 89.71898 36.92557
#
# Poissons Ratio (x) = 0.17824 0.11590
# Poissons Ratio (y) = 0.12616 -0.15678
# Poissons Ratio (z) = 0.19933 -0.38093
#
# Static dielectric constant tensor:
#      x y z
#    x 3.320970 0.000000 0.000000 
#    y 0.000000 3.782940 0.000000 
#    z 0.000000 0.000000 3.372400 
# 
# 
# High freq. dielectric constant tensor:
#      x y z
#    x 1.712700 0.000000 0.000000 
#    y 0.000000 1.725940 0.000000 
#    z 0.000000 0.000000 1.723350 
# 
# From -- ./inp_files/19875.got.cif
#   From: 2010.03.12/outbox.cif.g09.slc.cpg/sg53_10_cif.got.tgz:19875.got - 2010.04.16 14:36:59.
