data_PCOD8218888
_publ_section_title
;
Structure prediction by ZEFSAII (Michael W. Deem and Ramdas Pophale) SiO2 
 PCOD8218888
Probable space group: P M N A
;
_chemical_formula_sum "Si O2"
_cell_formula_units_Z 64
_cell_length_a 8.686306
_cell_length_b 20.295163
_cell_length_c 20.577839
_cell_angle_alpha 90.000000
_cell_angle_beta 90.000000
_cell_angle_gamma 90.000000
_cell_volume 3627.667158
_symmetry_space_group_name_H-M "P M N A"
_symmetry_group_IT_number 53
_symmetry_cell_setting 'orthorhombic'
loop_
_space_group_symop_operation_xyz
x,y,z
1/2-x,-y,1/2+z
x,-y,-z
1/2-x,y,1/2-z
-x,-y,-z
1/2+x,y,1/2-z
-x,y,z
1/2+x,-y,1/2+z
loop_
_atom_site_type_symbol
_atom_site_label
_atom_site_fract_x
_atom_site_fract_y
_atom_site_fract_z
Si Si1 0.318704 0.450592 0.942555
Si Si2 0.318254 0.329535 0.494839
Si Si3 0.821128 0.350158 0.355429
Si Si4 0.820309 0.056989 0.452121
Si Si5 0.181540 0.482677 0.182888
Si Si6 0.317962 0.923365 0.685001
Si Si7 0.167732 0.188257 0.015369
Si Si8 0.831497 0.778737 0.836154
O O1 0.500000 0.438512 0.942916
O O2 0.231435 0.381054 0.950142
O O3 0.267323 0.480197 0.874635
O O4 0.268416 0.500000 0.000000
O O5 0.500000 0.335204 0.479734
O O6 0.219921 0.347295 0.431242
O O7 0.277847 0.255085 0.521920
O O8 0.718139 0.405146 0.320969
O O9 0.784375 0.280700 0.319488
O O10 0.000000 0.367746 0.347558
O O11 0.741500 0.045405 0.382204
O O12 0.784031 0.126954 0.486740
O O13 0.000000 0.052166 0.440227
O O14 0.760773 0.000000 0.500000
O O15 0.250000 0.511009 0.250000
O O16 0.000000 0.494746 0.179190
O O17 0.250000 0.958822 0.750000
O O18 0.500000 0.929550 0.684374
O O19 0.261709 0.847457 0.689313
O O20 0.000000 0.163735 0.990188
O O21 0.149109 0.215698 0.087360
O O22 0.000000 0.764892 0.805536
#
# Coordination Sequence:
#
# PCOD8218888 Si02
#       8
#     8   8   8   8   8   8   8   8
#     4  11  22  36  56  81 105 131 173 218 261 314
#     4  10  19  32  52  77 103 134 172 215 261 304
#     4  11  20  31  48  72 100 133 172 212 255 302
#     4  10  20  33  51  77 108 141 176 214 257 307
#     4  12  25  40  55  71  99 134 171 216 268 319
#     4  10  20  33  50  71  99 135 175 215 254 300
#     4   8  16  30  48  73 103 133 170 211 252 303
#     4   8  16  30  45  65  95 132 171 208 247 293
#
# _framework density 17.642192999999999
#
# number of rings (size 3 to 8) (size 9 to 14) (size 15 to 20)
#    0.000    2.000    1.250    5.250    0.000    7.500 
#    0.000    1.250    0.000    0.000    0.000    0.875 
#    0.000    2.000    0.000    0.000    0.000    0.000 
#
# Total GULP energy -793281.535747 kJ/mol
# GULP energy per Si atom -12395.023996 kJ/mol
# Density = 1.760204 g / cm^3
# Si number density = 17.642193 Si / 1000 Ang^3
#
#
#
# Elastic Constant Matrix: (Units=GPa)
#
#
# Indices 1 2 3 4 5 6 
#
# 1 66.2940 30.0663 27.1167 0.0000 0.0000 0.0000
# 2 30.0663 87.8900 46.3140 0.0000 0.0000 0.0000
# 3 27.1167 46.3140 92.2778 0.0000 0.0000 0.0000
# 4 0.0000 0.0000 0.0000 10.1591 0.0000 0.0000
# 5 0.0000 0.0000 0.0000 0.0000 24.6105 0.0000
# 6 0.0000 0.0000 0.0000 0.0000 0.0000 25.8718
#
#
#
# Elastic Compliance Matrix: (Units=1/GPa)
#
#
# Indices 1 2 3 4 5 6 
#
# 1 0.018472 -0.004702 -0.003068 0.000000 0.000000 0.000000
# 2 -0.004702 0.016666 -0.006983 0.000000 0.000000 0.000000
# 3 -0.003068 -0.006983 0.015243 0.000000 0.000000 0.000000
# 4 0.000000 0.000000 0.000000 0.098434 0.000000 0.000000
# 5 0.000000 0.000000 0.000000 0.000000 0.040633 0.000000
# 6 0.000000 0.000000 0.000000 0.000000 0.000000 0.038652
#
#
# Mechanical properties :
#
#
# Convention : Reuss Voigt Hill
#
# Bulk Modulus (GPa) = 47.90501 50.38397 49.14449
# Shear Modulus (GPa) = 18.89895 21.65926 20.27910
#
# Velocity S-wave (km/s) = 3.27652 3.50765 3.39406
# Velocity P-wave (km/s) = 6.44413 6.71011 6.57846
#
# Compressibility (1/GPa) = 0.02087464
#
# Stress axis : x y z
#
# Youngs Moduli (GPa) = 54.13625 60.00194 65.60347
#
# Poissons Ratio (x) = 0.28215 0.20127
# Poissons Ratio (y) = 0.25457 0.45810
# Poissons Ratio (z) = 0.16609 0.41899
#
# Static dielectric constant tensor:
#      x y z
#    x 3.273230 0.000000 0.000000 
#    y 0.000000 3.391640 0.000000 
#    z 0.000000 0.000000 3.188480 
# 
# 
# High freq. dielectric constant tensor:
#      x y z
#    x 1.693360 0.000000 0.000000 
#    y 0.000000 1.664410 0.000000 
#    z 0.000000 0.000000 1.654200 
# 
# From -- ./inp_files/26827.got.cif
#   From: 2010.03.12/outbox.cif.g09.slc.cpg/sg53_14_cif.got.tgz:26827.got - 2010.04.16 14:36:59.
