data_PCOD8218664
_publ_section_title
;
Structure prediction by ZEFSAII (Michael W. Deem and Ramdas Pophale) SiO2 
 PCOD8218664
Probable space group: P M N A
;
_chemical_formula_sum "Si O2"
_cell_formula_units_Z 48
_cell_length_a 8.967115
_cell_length_b 15.640420
_cell_length_c 19.434410
_cell_angle_alpha 90.000000
_cell_angle_beta 90.000000
_cell_angle_gamma 90.000000
_cell_volume 2725.665212
_symmetry_space_group_name_H-M "P M N A"
_symmetry_group_IT_number 53
_symmetry_cell_setting 'orthorhombic'
loop_
_space_group_symop_operation_xyz
x,y,z
1/2-x,-y,1/2+z
x,-y,-z
1/2-x,y,1/2-z
-x,-y,-z
1/2+x,y,1/2-z
-x,y,z
1/2+x,-y,1/2+z
loop_
_atom_site_type_symbol
_atom_site_label
_atom_site_fract_x
_atom_site_fract_y
_atom_site_fract_z
Si Si1 0.175949 0.175902 0.928926
Si Si2 0.664343 0.007711 0.918542
Si Si3 0.674512 0.494109 0.323605
Si Si4 0.824285 0.821857 0.574850
Si Si5 0.176849 0.329218 0.324544
Si Si6 0.826443 0.317467 0.823181
O O1 0.224658 0.083947 0.897789
O O2 0.235509 0.248628 0.877183
O O3 0.000000 0.177244 0.935809
O O4 0.243706 0.195717 0.003049
O O5 0.500000 0.028422 0.888401
O O6 0.721357 0.914502 0.892682
O O7 0.654972 0.000000 0.000000
O O8 0.750000 0.497708 0.250000
O O9 0.500000 0.473167 0.317571
O O10 0.757174 0.415109 0.361917
O O11 0.701954 0.587906 0.356466
O O12 0.774881 0.750459 0.628887
O O13 0.000000 0.820549 0.559964
O O14 0.250000 0.316200 0.250000
O O15 0.000000 0.336810 0.317259
O O16 0.750000 0.304574 0.750000
O O17 0.000000 0.303621 0.809681
#
# Coordination Sequence:
#
# PCOD8218664 Si02
#       6
#     8   8   8   8   8   8
#     4  10  19  31  49  74  98 120 155 199 236 273
#     4   8  15  30  49  67  91 125 159 188 227 280
#     4   9  16  29  48  68  92 123 157 190 229 277
#     4   9  19  34  50  69  95 127 159 190 230 283
#     4  10  19  32  50  72  96 122 157 196 233 277
#     4   9  19  33  49  71  97 125 157 193 233 279
#
# _framework density 17.610379999999999
#
# number of rings (size 3 to 8) (size 9 to 14) (size 15 to 20)
#    0.000    2.833    0.000    3.500    0.000    6.333 
#    0.000    1.667    0.000    9.000    0.000    0.000 
#    0.000    0.000    0.000    0.000    0.000    0.000 
#
# Total GULP energy -594776.893137 kJ/mol
# GULP energy per Si atom -12391.185274 kJ/mol
# Density = 1.757030 g / cm^3
# Si number density = 17.610380 Si / 1000 Ang^3
#
#
#
# Elastic Constant Matrix: (Units=GPa)
#
#
# Indices 1 2 3 4 5 6 
#
# 1 70.3887 57.7046 34.9882 0.0000 0.0000 0.0000
# 2 57.7046 189.7286 68.9942 0.0000 0.0000 0.0000
# 3 34.9882 68.9942 62.0415 0.0000 0.0000 0.0000
# 4 0.0000 0.0000 0.0000 33.4756 0.0000 0.0000
# 5 0.0000 0.0000 0.0000 0.0000 13.1918 0.0000
# 6 0.0000 0.0000 0.0000 0.0000 0.0000 56.0355
#
#
#
# Elastic Compliance Matrix: (Units=1/GPa)
#
#
# Indices 1 2 3 4 5 6 
#
# 1 0.021039 -0.003499 -0.007973 0.000000 0.000000 0.000000
# 2 -0.003499 0.009431 -0.008515 0.000000 0.000000 0.000000
# 3 -0.007973 -0.008515 0.030084 0.000000 0.000000 0.000000
# 4 0.000000 0.000000 0.000000 0.029872 0.000000 0.000000
# 5 0.000000 0.000000 0.000000 0.000000 0.075805 0.000000
# 6 0.000000 0.000000 0.000000 0.000000 0.000000 0.017846
#
#
# Mechanical properties :
#
#
# Convention : Reuss Voigt Hill
#
# Bulk Modulus (GPa) = 48.59307 71.72586 60.15947
# Shear Modulus (GPa) = 21.65323 31.23868 26.44595
#
# Velocity S-wave (km/s) = 3.51033 4.21631 3.87941
# Velocity P-wave (km/s) = 6.63952 8.03248 7.36899
#
# Compressibility (1/GPa) = 0.02057907
#
# Stress axis : x y z
#
# Youngs Moduli (GPa) = 47.53092 106.02870 33.24034
#
# Poissons Ratio (x) = 0.37103 0.26504
# Poissons Ratio (y) = 0.16633 0.28304
# Poissons Ratio (z) = 0.37898 0.90282
#
# Static dielectric constant tensor:
#      x y z
#    x 3.292510 0.000000 0.000000 
#    y 0.000000 4.372420 0.000000 
#    z 0.000000 0.000000 2.878630 
# 
# 
# High freq. dielectric constant tensor:
#      x y z
#    x 1.685410 0.000000 0.000000 
#    y 0.000000 1.707290 0.000000 
#    z 0.000000 0.000000 1.630800 
# 
# From -- ./inp_files/30513.got.cif
#   From: 2010.03.12/outbox.cif.g09.slc.cpg/sg53_16_cif.got.tgz:30513.got - 2010.04.16 14:36:59.
