data_PCOD8218276
_publ_section_title
;
Structure prediction by ZEFSAII (Michael W. Deem and Ramdas Pophale) SiO2 
 PCOD8218276
Probable space group: P M N A
;
_chemical_formula_sum "Si O2"
_cell_formula_units_Z 60
_cell_length_a 9.115948
_cell_length_b 11.995926
_cell_length_c 26.316489
_cell_angle_alpha 90.000000
_cell_angle_beta 90.000000
_cell_angle_gamma 90.000000
_cell_volume 2877.819592
_symmetry_space_group_name_H-M "P M N A"
_symmetry_group_IT_number 53
_symmetry_cell_setting 'orthorhombic'
loop_
_space_group_symop_operation_xyz
x,y,z
1/2-x,-y,1/2+z
x,-y,-z
1/2-x,y,1/2-z
-x,-y,-z
1/2+x,y,1/2-z
-x,y,z
1/2+x,-y,1/2+z
loop_
_atom_site_type_symbol
_atom_site_label
_atom_site_fract_x
_atom_site_fract_y
_atom_site_fract_z
Si Si1 0.750000 0.966644 0.750000
Si Si2 0.671345 0.431650 0.598387
Si Si3 0.168873 0.683332 0.929148
Si Si4 0.674559 0.249281 0.971393
Si Si5 0.672492 0.918972 0.405799
Si Si6 0.655207 0.843102 0.183558
Si Si7 0.833913 0.594916 0.297409
Si Si8 0.831742 0.865192 0.853885
O O1 0.802557 0.882082 0.794004
O O2 0.860779 0.053782 0.723320
O O3 0.500000 0.399175 0.602142
O O4 0.692347 0.552214 0.573532
O O5 0.755333 0.344223 0.563620
O O6 0.743794 0.437035 0.653059
O O7 0.210961 0.742639 0.874992
O O8 0.000000 0.710293 0.943535
O O9 0.276747 0.733218 0.970967
O O10 0.500000 0.253609 0.967282
O O11 0.737180 0.129470 0.953389
O O12 0.500000 0.913183 0.418075
O O13 0.707524 0.847076 0.354941
O O14 0.737886 0.041149 0.391436
O O15 0.500000 0.843861 0.152643
O O16 0.665926 0.727159 0.213125
O O17 0.750000 0.537926 0.250000
O O18 0.000000 0.548283 0.301404
O O19 0.000000 0.888841 0.861463
#
# Coordination Sequence:
#
# PCOD8218276 Si02
#       8
#     4   8   8   8   8   8   8   8
#     4  10  18  34  60  88 120 160 204 246 300 362
#     4  11  23  41  65  90 120 162 210 260 314 371
#     4  10  23  44  65  87 121 162 211 257 305 371
#     4  12  24  39  63  94 126 159 201 258 318 371
#     4  10  20  35  60  89 120 156 195 240 299 366
#     4  10  19  31  52  86 122 153 188 239 297 354
#     4  11  22  36  57  88 127 162 199 251 310 367
#     4   9  20  39  62  89 121 162 207 252 301 368
#
# _framework density 20.849119000000002
#
# number of rings (size 3 to 8) (size 9 to 14) (size 15 to 20)
#    0.000    1.600    2.000    3.200    0.000    4.267 
#    1.200    6.667    0.000    0.000    0.000    0.000 
#    0.000    0.000    0.000    0.000    0.000    0.000 
#
# Total GULP energy -743381.402377 kJ/mol
# GULP energy per Si atom -12389.690040 kJ/mol
# Density = 2.080167 g / cm^3
# Si number density = 20.849119 Si / 1000 Ang^3
#
#
#
# Elastic Constant Matrix: (Units=GPa)
#
#
# Indices 1 2 3 4 5 6 
#
# 1 116.8061 22.0670 37.2299 0.0000 0.0000 0.0000
# 2 22.0670 48.9863 14.2181 0.0000 0.0000 0.0000
# 3 37.2299 14.2181 104.6787 0.0000 0.0000 0.0000
# 4 0.0000 0.0000 0.0000 16.4268 0.0000 0.0000
# 5 0.0000 0.0000 0.0000 0.0000 33.4031 0.0000
# 6 0.0000 0.0000 0.0000 0.0000 0.0000 12.5292
#
#
#
# Elastic Compliance Matrix: (Units=1/GPa)
#
#
# Indices 1 2 3 4 5 6 
#
# 1 0.010265 -0.003711 -0.003147 0.000000 0.000000 0.000000
# 2 -0.003711 0.022593 -0.001749 0.000000 0.000000 0.000000
# 3 -0.003147 -0.001749 0.010910 0.000000 0.000000 0.000000
# 4 0.000000 0.000000 0.000000 0.060876 0.000000 0.000000
# 5 0.000000 0.000000 0.000000 0.000000 0.029937 0.000000
# 6 0.000000 0.000000 0.000000 0.000000 0.000000 0.079814
#
#
# Mechanical properties :
#
#
# Convention : Reuss Voigt Hill
#
# Bulk Modulus (GPa) = 37.65796 46.38903 42.02349
# Shear Modulus (GPa) = 20.79348 25.60224 23.19786
#
# Velocity S-wave (km/s) = 3.16148 3.50805 3.33927
# Velocity P-wave (km/s) = 5.60606 6.22147 5.92177
#
# Compressibility (1/GPa) = 0.02655481
#
# Stress axis : x y z
#
# Youngs Moduli (GPa) = 97.41586 44.26125 91.66051
#
# Poissons Ratio (x) = 0.16425 0.28845
# Poissons Ratio (y) = 0.36150 0.16031
# Poissons Ratio (z) = 0.30656 0.07741
#
# Static dielectric constant tensor:
#      x y z
#    x 3.800990 0.000000 0.000000 
#    y 0.000000 3.814290 0.000000 
#    z 0.000000 0.000000 4.419430 
# 
# 
# High freq. dielectric constant tensor:
#      x y z
#    x 1.812640 0.000000 0.000000 
#    y 0.000000 1.803320 0.000000 
#    z 0.000000 0.000000 1.815680 
# 
# From -- ./inp_files/36371.got.cif
#   From: 2010.03.12/outbox.cif.g09.slc.cpg/sg53_19_cif.got.tgz:36371.got - 2010.04.16 14:36:59.
