data_PCOD8218034
_publ_section_title
;
Structure prediction by ZEFSAII (Michael W. Deem and Ramdas Pophale) SiO2 
 PCOD8218034
Probable space group: P M N A
;
_chemical_formula_sum "Si O2"
_cell_formula_units_Z 64
_cell_length_a 8.670873
_cell_length_b 16.910811
_cell_length_c 23.822610
_cell_angle_alpha 90.000000
_cell_angle_beta 90.000000
_cell_angle_gamma 90.000000
_cell_volume 3493.144907
_symmetry_space_group_name_H-M "P M N A"
_symmetry_group_IT_number 53
_symmetry_cell_setting 'orthorhombic'
loop_
_space_group_symop_operation_xyz
x,y,z
1/2-x,-y,1/2+z
x,-y,-z
1/2-x,y,1/2-z
-x,-y,-z
1/2+x,y,1/2-z
-x,y,z
1/2+x,-y,1/2+z
loop_
_atom_site_type_symbol
_atom_site_label
_atom_site_fract_x
_atom_site_fract_y
_atom_site_fract_z
Si Si1 0.677633 0.528490 0.414150
Si Si2 0.677978 0.628939 0.306283
Si Si3 0.318567 0.230200 0.867998
Si Si4 0.682757 0.760392 0.688394
Si Si5 0.317918 0.649403 0.588269
Si Si6 0.317753 0.081938 0.688042
Si Si7 0.816497 0.921320 0.687942
Si Si8 0.681233 0.671340 0.025478
O O1 0.500000 0.528527 0.432470
O O2 0.700703 0.561470 0.352022
O O3 0.746314 0.440145 0.413117
O O4 0.765201 0.582645 0.459086
O O5 0.750000 0.592640 0.250000
O O6 0.500000 0.652705 0.299164
O O7 0.775555 0.706937 0.320330
O O8 0.500000 0.213531 0.866726
O O9 0.227458 0.150013 0.855654
O O10 0.262425 0.265135 0.928034
O O11 0.750000 0.741913 0.750000
O O12 0.500000 0.768929 0.693643
O O13 0.733422 0.690527 0.646293
O O14 0.752209 0.840668 0.660528
O O15 0.500000 0.650787 0.583572
O O16 0.249629 0.696118 0.534730
O O17 0.250000 0.098953 0.750000
O O18 0.500000 0.075051 0.693756
O O19 0.249322 0.001469 0.660189
O O20 0.750000 0.921025 0.750000
O O21 0.000000 0.922011 0.686941
O O22 0.500000 0.671916 0.022370
#
# Coordination Sequence:
#
# PCOD8218034 Si02
#       8
#     8   8   8   8   8   8   8   8
#     4   9  19  35  52  71  98 134 172 210 254 302
#     4  10  19  31  47  68  98 135 171 206 250 301
#     4  10  20  34  49  70 101 134 169 208 250 296
#     4  10  20  35  54  78 106 135 167 205 251 301
#     4  10  21  36  55  76 100 132 169 208 252 304
#     4  11  20  31  50  77 106 136 170 206 246 294
#     4  10  18  31  51  75 104 136 167 203 248 295
#     4  10  21  35  53  76 101 130 168 214 257 296
#
# _framework density 18.321598999999999
#
# number of rings (size 3 to 8) (size 9 to 14) (size 15 to 20)
#    0.000    2.000    0.000    6.000    0.000    5.500 
#    0.000    0.000    0.000    0.750    0.000    5.250 
#    0.000    0.000    0.000    0.000    0.000    0.000 
#
# Total GULP energy -793552.813853 kJ/mol
# GULP energy per Si atom -12399.262716 kJ/mol
# Density = 1.827990 g / cm^3
# Si number density = 18.321599 Si / 1000 Ang^3
#
#
#
# Elastic Constant Matrix: (Units=GPa)
#
#
# Indices 1 2 3 4 5 6 
#
# 1 87.6617 42.0827 39.2557 0.0000 0.0000 0.0000
# 2 42.0827 117.9093 53.9154 0.0000 0.0000 0.0000
# 3 39.2557 53.9154 105.5262 0.0000 0.0000 0.0000
# 4 0.0000 0.0000 0.0000 17.4651 0.0000 0.0000
# 5 0.0000 0.0000 0.0000 0.0000 28.2116 0.0000
# 6 0.0000 0.0000 0.0000 0.0000 0.0000 21.5801
#
#
#
# Elastic Compliance Matrix: (Units=1/GPa)
#
#
# Indices 1 2 3 4 5 6 
#
# 1 0.014773 -0.003601 -0.003656 0.000000 0.000000 0.000000
# 2 -0.003601 0.011944 -0.004763 0.000000 0.000000 0.000000
# 3 -0.003656 -0.004763 0.013270 0.000000 0.000000 0.000000
# 4 0.000000 0.000000 0.000000 0.057257 0.000000 0.000000
# 5 0.000000 0.000000 0.000000 0.000000 0.035446 0.000000
# 6 0.000000 0.000000 0.000000 0.000000 0.000000 0.046339
#
#
# Mechanical properties :
#
#
# Convention : Reuss Voigt Hill
#
# Bulk Modulus (GPa) = 62.70505 64.62277 63.66391
# Shear Modulus (GPa) = 23.99403 25.17426 24.58415
#
# Velocity S-wave (km/s) = 3.62277 3.71080 3.66705
# Velocity P-wave (km/s) = 7.19710 7.32857 7.26313
#
# Compressibility (1/GPa) = 0.01594768
#
# Stress axis : x y z
#
# Youngs Moduli (GPa) = 67.68971 83.72231 75.35922
#
# Poissons Ratio (x) = 0.30149 0.27550
# Poissons Ratio (y) = 0.24375 0.35893
# Poissons Ratio (z) = 0.24746 0.39877
#
# Static dielectric constant tensor:
#      x y z
#    x 3.401120 0.000000 0.000000 
#    y 0.000000 3.920920 0.000000 
#    z 0.000000 0.000000 3.326270 
# 
# 
# High freq. dielectric constant tensor:
#      x y z
#    x 1.719910 0.000000 0.000000 
#    y 0.000000 1.709260 0.000000 
#    z 0.000000 0.000000 1.690580 
# 
# From -- ./inp_files/34502.got.cif
#   From: 2010.03.12/outbox.cif.g09.slc.cpg/sg53_18_cif.got.tgz:34502.got - 2010.04.16 14:36:59.
