data_PCOD8218169
_publ_section_title
;
Structure prediction by ZEFSAII (Michael W. Deem and Ramdas Pophale) SiO2 
 PCOD8218169
Probable space group: P M N A
;
_chemical_formula_sum "Si O2"
_cell_formula_units_Z 48
_cell_length_a 15.085527
_cell_length_b 16.316986
_cell_length_c 9.507497
_cell_angle_alpha 90.000000
_cell_angle_beta 90.000000
_cell_angle_gamma 90.000000
_cell_volume 2340.273551
_symmetry_space_group_name_H-M "P M N A"
_symmetry_group_IT_number 53
_symmetry_cell_setting 'orthorhombic'
loop_
_space_group_symop_operation_xyz
x,y,z
1/2-x,-y,1/2+z
x,-y,-z
1/2-x,y,1/2-z
-x,-y,-z
1/2+x,y,1/2-z
-x,y,z
1/2+x,-y,1/2+z
loop_
_atom_site_type_symbol
_atom_site_label
_atom_site_fract_x
_atom_site_fract_y
_atom_site_fract_z
Si Si1 0.735934 0.361560 0.899704
Si Si2 0.679445 0.821667 0.144949
Si Si3 0.600919 0.410162 0.439751
Si Si4 0.500000 0.896622 0.153990
Si Si5 0.600985 0.367387 0.125224
Si Si6 0.000000 0.918443 0.679680
Si Si7 0.838552 0.182600 0.336781
O O1 0.750000 0.409348 0.750000
O O2 0.692511 0.275530 0.857893
O O3 0.829962 0.350282 0.980811
O O4 0.666208 0.405853 0.005761
O O5 0.750000 0.863396 0.250000
O O6 0.583823 0.844951 0.207158
O O7 0.688910 0.856774 0.987041
O O8 0.618285 0.500000 0.500000
O O9 0.500000 0.380623 0.469446
O O10 0.620334 0.411245 0.273550
O O11 0.500000 0.986770 0.223295
O O12 0.500000 0.903973 0.986636
O O13 0.500000 0.382595 0.076939
O O14 0.617349 0.270888 0.141649
O O15 0.910834 0.875438 0.740311
O O16 0.750000 0.191053 0.250000
#
# Coordination Sequence:
#
# PCOD8218169 Si02
#       7
#     8   8   8   4   8   4   8
#     4  10  21  35  56  88 113 148 199 251 292 346
#     4   9  19  35  53  81 107 151 195 236 294 350
#     4  10  22  40  59  84 119 157 193 241 309 370
#     4   9  18  34  57  73 118 153 196 235 301 357
#     4  10  19  35  61  86 115 156 199 243 296 358
#     4   9  18  32  51  87 108 157 191 243 293 355
#     4  10  18  32  56  83 115 144 196 249 287 346
#
# _framework density 20.510421999999998
#
# number of rings (size 3 to 8) (size 9 to 14) (size 15 to 20)
#    0.000    2.333    0.833    2.500    3.500    2.667 
#    4.500    0.833    0.000    4.500    0.000    0.000 
#    0.000    0.000    0.000    0.000    0.000    0.000 
#
# Total GULP energy -594907.579622 kJ/mol
# GULP energy per Si atom -12393.907909 kJ/mol
# Density = 2.046374 g / cm^3
# Si number density = 20.510422 Si / 1000 Ang^3
#
#
#
# Elastic Constant Matrix: (Units=GPa)
#
#
# Indices 1 2 3 4 5 6 
#
# 1 163.0144 26.5898 85.5142 0.0000 0.0000 0.0000
# 2 26.5898 61.2644 20.3573 0.0000 0.0000 0.0000
# 3 85.5142 20.3573 126.8662 0.0000 0.0000 0.0000
# 4 0.0000 0.0000 0.0000 14.9183 0.0000 0.0000
# 5 0.0000 0.0000 0.0000 0.0000 26.9724 0.0000
# 6 0.0000 0.0000 0.0000 0.0000 0.0000 17.8366
#
#
#
# Elastic Compliance Matrix: (Units=1/GPa)
#
#
# Indices 1 2 3 4 5 6 
#
# 1 0.009754 -0.002164 -0.006228 0.000000 0.000000 0.000000
# 2 -0.002164 0.017722 -0.001385 0.000000 0.000000 0.000000
# 3 -0.006228 -0.001385 0.012302 0.000000 0.000000 0.000000
# 4 0.000000 0.000000 0.000000 0.067032 0.000000 0.000000
# 5 0.000000 0.000000 0.000000 0.000000 0.037075 0.000000
# 6 0.000000 0.000000 0.000000 0.000000 0.000000 0.056065
#
#
# Mechanical properties :
#
#
# Convention : Reuss Voigt Hill
#
# Bulk Modulus (GPa) = 49.44322 68.45194 58.94758
# Shear Modulus (GPa) = 22.09990 26.52437 24.31213
#
# Velocity S-wave (km/s) = 3.28608 3.60003 3.44663
# Velocity P-wave (km/s) = 6.20939 7.12229 6.68145
#
# Compressibility (1/GPa) = 0.02022522
#
# Stress axis : x y z
#
# Youngs Moduli (GPa) = 102.51851 56.42640 81.28566
#
# Poissons Ratio (x) = 0.12212 0.50622
# Poissons Ratio (y) = 0.22187 0.11258
# Poissons Ratio (z) = 0.63845 0.07815
#
# Static dielectric constant tensor:
#      x y z
#    x 4.125040 0.000000 0.000000 
#    y 0.000000 3.382220 0.000000 
#    z 0.000000 0.000000 4.129990 
# 
# 
# High freq. dielectric constant tensor:
#      x y z
#    x 1.820410 0.000000 0.000000 
#    y 0.000000 1.767130 0.000000 
#    z 0.000000 0.000000 1.789900 
# 
# From -- ./inp_files/8714.got.cif
#   From: 2010.03.12/outbox.cif.g09.slc.cpg/sg53_5_cif.got.tgz:8714.got - 2010.04.16 14:36:59.
