data_PCOD8218250
_publ_section_title
;
Structure prediction by ZEFSAII (Michael W. Deem and Ramdas Pophale) SiO2 
 PCOD8218250
Probable space group: P M N A
;
_chemical_formula_sum "Si O2"
_cell_formula_units_Z 48
_cell_length_a 9.461664
_cell_length_b 29.338621
_cell_length_c 9.352182
_cell_angle_alpha 90.000000
_cell_angle_beta 90.000000
_cell_angle_gamma 90.000000
_cell_volume 2596.092534
_symmetry_space_group_name_H-M "P M N A"
_symmetry_group_IT_number 53
_symmetry_cell_setting 'orthorhombic'
loop_
_space_group_symop_operation_xyz
x,y,z
1/2-x,-y,1/2+z
x,-y,-z
1/2-x,y,1/2-z
-x,-y,-z
1/2+x,y,1/2-z
-x,y,z
1/2+x,-y,1/2+z
loop_
_atom_site_type_symbol
_atom_site_label
_atom_site_fract_x
_atom_site_fract_y
_atom_site_fract_z
Si Si1 0.831013 0.219860 0.600473
Si Si2 0.664032 0.036977 0.112768
Si Si3 0.672458 0.708352 0.597507
Si Si4 0.000000 0.454662 0.087846
Si Si5 0.743676 0.391089 0.418591
Si Si6 0.338659 0.860213 0.887604
Si Si7 0.000000 0.450685 0.426830
O O1 0.750000 0.216795 0.750000
O O2 0.744994 0.256162 0.507701
O O3 0.810733 0.171428 0.523630
O O4 0.000000 0.231664 0.616467
O O5 0.750000 0.023318 0.250000
O O6 0.500000 0.031920 0.147483
O O7 0.701247 0.088497 0.063603
O O8 0.715205 0.000000 0.000000
O O9 0.750000 0.714101 0.750000
O O10 0.500000 0.714036 0.611711
O O11 0.711099 0.659633 0.524629
O O12 0.871797 0.425954 0.030614
O O13 0.000000 0.461811 0.258367
O O14 0.000000 0.500000 0.000000
O O15 0.750000 0.385955 0.250000
O O16 0.878606 0.416827 0.479365
O O17 0.250000 0.844006 0.750000
O O18 0.500000 0.857089 0.837068
O O19 0.000000 0.500000 0.500000
#
# Coordination Sequence:
#
# PCOD8218250 Si02
#       7
#     8   8   8   4   8   8   4
#     4  11  24  40  58  82 116 151 184 232 290 346
#     4   9  18  33  53  79 113 149 189 236 283 334
#     4  11  22  38  62  88 111 144 191 236 282 337
#     4  10  18  34  54  76 106 138 176 218 267 320
#     4   9  19  33  55  79 105 138 180 224 266 320
#     4   9  19  36  57  82 110 147 193 237 280 332
#     4  10  20  34  52  80 108 140 178 222 267 320
#
# _framework density 18.489326999999999
#
# number of rings (size 3 to 8) (size 9 to 14) (size 15 to 20)
#    0.000    2.167    0.833    2.000    4.667    3.667 
#    0.000    1.667    0.000    0.000    0.000    0.000 
#    0.000    0.000    0.000    0.000    0.000    0.000 
#
# Total GULP energy -594630.367649 kJ/mol
# GULP energy per Si atom -12388.132659 kJ/mol
# Density = 1.844724 g / cm^3
# Si number density = 18.489327 Si / 1000 Ang^3
#
#
#
# Elastic Constant Matrix: (Units=GPa)
#
#
# Indices 1 2 3 4 5 6 
#
# 1 144.8527 72.6745 62.2851 0.0000 0.0000 0.0000
# 2 72.6745 140.3197 77.4555 0.0000 0.0000 0.0000
# 3 62.2851 77.4555 102.3081 0.0000 0.0000 0.0000
# 4 0.0000 0.0000 0.0000 37.5795 0.0000 0.0000
# 5 0.0000 0.0000 0.0000 0.0000 32.5066 0.0000
# 6 0.0000 0.0000 0.0000 0.0000 0.0000 35.1522
#
#
#
# Elastic Compliance Matrix: (Units=1/GPa)
#
#
# Indices 1 2 3 4 5 6 
#
# 1 0.010105 -0.003157 -0.003762 0.000000 0.000000 0.000000
# 2 -0.003157 0.013229 -0.008094 0.000000 0.000000 0.000000
# 3 -0.003762 -0.008094 0.018192 0.000000 0.000000 0.000000
# 4 0.000000 0.000000 0.000000 0.026610 0.000000 0.000000
# 5 0.000000 0.000000 0.000000 0.000000 0.030763 0.000000
# 6 0.000000 0.000000 0.000000 0.000000 0.000000 0.028448
#
#
# Mechanical properties :
#
#
# Convention : Reuss Voigt Hill
#
# Bulk Modulus (GPa) = 86.94548 90.25675 88.60112
# Shear Modulus (GPa) = 31.01617 32.71870 31.86744
#
# Velocity S-wave (km/s) = 4.10019 4.21122 4.15608
# Velocity P-wave (km/s) = 8.33920 8.51865 8.42940
#
# Compressibility (1/GPa) = 0.01150146
#
# Stress axis : x y z
#
# Youngs Moduli (GPa) = 98.96034 75.58938 54.96910
#
# Poissons Ratio (x) = 0.23865 0.20678
# Poissons Ratio (y) = 0.31244 0.44490
# Poissons Ratio (z) = 0.37226 0.61179
#
# Static dielectric constant tensor:
#      x y z
#    x 3.760940 0.000000 0.000000 
#    y 0.000000 3.782020 0.000000 
#    z 0.000000 0.000000 3.160190 
# 
# 
# High freq. dielectric constant tensor:
#      x y z
#    x 1.735640 0.000000 0.000000 
#    y 0.000000 1.736970 0.000000 
#    z 0.000000 0.000000 1.688310 
# 
# From -- ./inp_files/6838.got.cif
#   From: 2010.03.12/outbox.cif.g09.slc.cpg/sg53_4_cif.got.tgz:6838.got - 2010.04.16 14:36:59.
