data_PCOD8218245
_publ_section_title
;
Structure prediction by ZEFSAII (Michael W. Deem and Ramdas Pophale) SiO2 
 PCOD8218245
Probable space group: P M N A
;
_chemical_formula_sum "Si O2"
_cell_formula_units_Z 64
_cell_length_a 8.895830
_cell_length_b 12.614423
_cell_length_c 29.454061
_cell_angle_alpha 90.000000
_cell_angle_beta 90.000000
_cell_angle_gamma 90.000000
_cell_volume 3305.209915
_symmetry_space_group_name_H-M "P M N A"
_symmetry_group_IT_number 53
_symmetry_cell_setting 'orthorhombic'
loop_
_space_group_symop_operation_xyz
x,y,z
1/2-x,-y,1/2+z
x,-y,-z
1/2-x,y,1/2-z
-x,-y,-z
1/2+x,y,1/2-z
-x,y,z
1/2+x,-y,1/2+z
loop_
_atom_site_type_symbol
_atom_site_label
_atom_site_fract_x
_atom_site_fract_y
_atom_site_fract_z
Si Si1 0.674855 0.401738 0.081645
Si Si2 0.821327 0.611661 0.111052
Si Si3 0.323872 0.880515 0.704767
Si Si4 0.177857 0.786427 0.963171
Si Si5 0.826092 0.434197 0.704813
Si Si6 0.179148 0.039694 0.108391
Si Si7 0.830716 0.327915 0.318276
Si Si8 0.322220 0.826091 0.435491
O O1 0.500000 0.422849 0.072847
O O2 0.757843 0.514457 0.081641
O O3 0.743674 0.327688 0.042654
O O4 0.703735 0.341868 0.128775
O O5 0.758242 0.614186 0.161833
O O6 0.762966 0.718600 0.087274
O O7 0.000000 0.603089 0.112694
O O8 0.250000 0.931068 0.750000
O O9 0.500000 0.894814 0.708914
O O10 0.261614 0.938818 0.659535
O O11 0.285560 0.755741 0.702377
O O12 0.237235 0.868288 0.925225
O O13 0.000000 0.769430 0.960030
O O14 0.226816 0.831772 0.012014
O O15 0.750000 0.386414 0.750000
O O16 0.807442 0.560643 0.706460
O O17 0.000000 0.401115 0.702398
O O18 0.000000 0.039492 0.107653
O O19 0.245171 0.927550 0.091118
O O20 0.000000 0.285421 0.310718
O O21 0.500000 0.830099 0.431862
#
# Coordination Sequence:
#
# PCOD8218245 Si02
#       8
#     8   8   8   8   8   8   8   8
#     4  10  20  34  53  79 115 149 176 220 275 330
#     4  10  20  35  55  79 110 148 186 228 273 326
#     4  11  21  32  51  79 109 142 177 215 265 324
#     4  10  18  33  60  88 109 137 181 229 279 335
#     4  10  20  34  53  79 108 144 184 229 277 327
#     4   9  18  34  56  83 111 140 179 228 275 324
#     4   9  18  32  50  74 107 141 172 212 263 319
#     4   9  19  35  57  83 109 140 184 234 277 322
#
# _framework density 19.363368999999999
#
# number of rings (size 3 to 8) (size 9 to 14) (size 15 to 20)
#    0.000    2.250    1.250    3.000    0.000    5.500 
#    0.000    4.375    0.000    9.000    0.000    0.000 
#    0.000    0.000    0.000    0.000    0.000    0.000 
#
# Total GULP energy -793634.788398 kJ/mol
# GULP energy per Si atom -12400.543569 kJ/mol
# Density = 1.931930 g / cm^3
# Si number density = 19.363369 Si / 1000 Ang^3
#
#
#
# Elastic Constant Matrix: (Units=GPa)
#
#
# Indices 1 2 3 4 5 6 
#
# 1 68.4813 35.2520 37.8660 0.0000 0.0000 0.0000
# 2 35.2520 117.4479 71.3116 0.0000 0.0000 0.0000
# 3 37.8660 71.3116 135.2961 0.0000 0.0000 0.0000
# 4 0.0000 0.0000 0.0000 16.3707 0.0000 0.0000
# 5 0.0000 0.0000 0.0000 0.0000 26.4666 0.0000
# 6 0.0000 0.0000 0.0000 0.0000 0.0000 10.8309
#
#
#
# Elastic Compliance Matrix: (Units=1/GPa)
#
#
# Indices 1 2 3 4 5 6 
#
# 1 0.018197 -0.003485 -0.003256 0.000000 0.000000 0.000000
# 2 -0.003485 0.013189 -0.005976 0.000000 0.000000 0.000000
# 3 -0.003256 -0.005976 0.011453 0.000000 0.000000 0.000000
# 4 0.000000 0.000000 0.000000 0.061085 0.000000 0.000000
# 5 0.000000 0.000000 0.000000 0.000000 0.037783 0.000000
# 6 0.000000 0.000000 0.000000 0.000000 0.000000 0.092329
#
#
# Mechanical properties :
#
#
# Convention : Reuss Voigt Hill
#
# Bulk Modulus (GPa) = 57.45826 67.78716 62.62271
# Shear Modulus (GPa) = 18.84865 22.52003 20.68434
#
# Velocity S-wave (km/s) = 3.12335 3.41401 3.27191
# Velocity P-wave (km/s) = 6.53798 7.11509 6.83263
#
# Compressibility (1/GPa) = 0.01740394
#
# Stress axis : x y z
#
# Youngs Moduli (GPa) = 54.95477 75.82035 87.31711
#
# Poissons Ratio (x) = 0.26421 0.28431
# Poissons Ratio (y) = 0.19150 0.52184
# Poissons Ratio (z) = 0.17894 0.45313
#
# Static dielectric constant tensor:
#      x y z
#    x 3.269970 0.000000 0.000000 
#    y 0.000000 3.494530 0.000000 
#    z 0.000000 0.000000 3.714890 
# 
# 
# High freq. dielectric constant tensor:
#      x y z
#    x 1.731110 0.000000 0.000000 
#    y 0.000000 1.736600 0.000000 
#    z 0.000000 0.000000 1.764460 
# 
# From -- ./inp_files/38150.got.cif
#   From: 2010.03.12/outbox.cif.g09.slc.cpg/sg53_20_cif.got.tgz:38150.got - 2010.04.16 14:36:59.
