data_PCOD8218054
_publ_section_title
;
Structure prediction by ZEFSAII (Michael W. Deem and Ramdas Pophale) SiO2 
 PCOD8218054
Probable space group: P M N A
;
_chemical_formula_sum "Si O2"
_cell_formula_units_Z 64
_cell_length_a 17.583457
_cell_length_b 20.075579
_cell_length_c 9.412469
_cell_angle_alpha 90.000000
_cell_angle_beta 90.000000
_cell_angle_gamma 90.000000
_cell_volume 3322.583486
_symmetry_space_group_name_H-M "P M N A"
_symmetry_group_IT_number 53
_symmetry_cell_setting 'orthorhombic'
loop_
_space_group_symop_operation_xyz
x,y,z
1/2-x,-y,1/2+z
x,-y,-z
1/2-x,y,1/2-z
-x,-y,-z
1/2+x,y,1/2-z
-x,y,z
1/2+x,-y,1/2+z
loop_
_atom_site_type_symbol
_atom_site_label
_atom_site_fract_x
_atom_site_fract_y
_atom_site_fract_z
Si Si1 0.764829 0.066140 0.414442
Si Si2 0.409758 0.619077 0.837689
Si Si3 0.090714 0.505206 0.160323
Si Si4 0.087988 0.247237 0.185183
Si Si5 0.851977 0.772690 0.342817
Si Si6 0.694368 0.193267 0.546924
Si Si7 0.084046 0.142189 0.425592
Si Si8 0.090319 0.629354 0.342232
O O1 0.750000 0.052765 0.250000
O O2 0.707956 0.122679 0.471320
O O3 0.852772 0.085336 0.441871
O O4 0.745664 0.000000 0.500000
O O5 0.500000 0.617069 0.836511
O O6 0.376574 0.557417 0.748115
O O7 0.381680 0.688190 0.769220
O O8 0.380430 0.612989 0.999024
O O9 0.120358 0.572904 0.234201
O O10 0.000000 0.504090 0.161017
O O11 0.122104 0.500000 0.000000
O O12 0.099673 0.182623 0.281985
O O13 0.000000 0.255932 0.139971
O O14 0.138612 0.239007 0.045538
O O15 0.842664 0.818058 0.202031
O O16 0.774059 0.768400 0.433260
O O17 0.915258 0.806581 0.441913
O O18 0.875723 0.699463 0.292442
O O19 0.000000 0.109473 0.421125
O O20 0.000000 0.633615 0.338393
#
# Coordination Sequence:
#
# PCOD8218054 Si02
#       8
#     8   8   8   8   8   8   8   8
#     4  11  24  41  67  88 119 160 198 234 280 349
#     4   9  17  30  48  78 111 145 188 236 287 345
#     4   9  18  29  44  73 112 149 191 238 287 347
#     4  10  19  34  59  87 117 149 192 245 303 350
#     4  10  21  35  57  85 119 152 196 240 287 352
#     4  10  23  40  57  89 115 152 192 239 289 347
#     4  10  20  38  62  91 122 151 194 246 290 343
#     4  10  18  31  52  79 112 152 192 237 293 338
#
# _framework density 19.262119999999999
#
# number of rings (size 3 to 8) (size 9 to 14) (size 15 to 20)
#    0.000    2.125    2.500    0.750    5.250    2.750 
#    0.000    0.000    0.000    0.750   13.000    0.000 
#    0.000    0.000    0.000    0.000    0.000    0.000 
#
# Total GULP energy -793630.061275 kJ/mol
# GULP energy per Si atom -12400.469707 kJ/mol
# Density = 1.921828 g / cm^3
# Si number density = 19.262120 Si / 1000 Ang^3
#
#
#
# Elastic Constant Matrix: (Units=GPa)
#
#
# Indices 1 2 3 4 5 6 
#
# 1 46.8448 25.9984 37.8452 0.0000 0.0000 0.0000
# 2 25.9984 109.5583 54.6138 0.0000 0.0000 0.0000
# 3 37.8452 54.6138 145.5146 0.0000 0.0000 0.0000
# 4 0.0000 0.0000 0.0000 38.3517 0.0000 0.0000
# 5 0.0000 0.0000 0.0000 0.0000 26.0310 0.0000
# 6 0.0000 0.0000 0.0000 0.0000 0.0000 17.9289
#
#
#
# Elastic Compliance Matrix: (Units=1/GPa)
#
#
# Indices 1 2 3 4 5 6 
#
# 1 0.028217 -0.003737 -0.005936 0.000000 0.000000 0.000000
# 2 -0.003737 0.011723 -0.003428 0.000000 0.000000 0.000000
# 3 -0.005936 -0.003428 0.009703 0.000000 0.000000 0.000000
# 4 0.000000 0.000000 0.000000 0.026074 0.000000 0.000000
# 5 0.000000 0.000000 0.000000 0.000000 0.038416 0.000000
# 6 0.000000 0.000000 0.000000 0.000000 0.000000 0.055776
#
#
# Mechanical properties :
#
#
# Convention : Reuss Voigt Hill
#
# Bulk Modulus (GPa) = 42.66096 59.87026 51.26561
# Shear Modulus (GPa) = 24.51896 28.69300 26.60598
#
# Velocity S-wave (km/s) = 3.57166 3.86373 3.72056
# Velocity P-wave (km/s) = 6.26136 7.14520 6.71783
#
# Compressibility (1/GPa) = 0.02344064
#
# Stress axis : x y z
#
# Youngs Moduli (GPa) = 35.44007 85.30133 103.06533
#
# Poissons Ratio (x) = 0.31875 0.61180
# Poissons Ratio (y) = 0.13243 0.35331
# Poissons Ratio (z) = 0.21037 0.29241
#
# Static dielectric constant tensor:
#      x y z
#    x 3.228350 0.000000 0.000000 
#    y 0.000000 3.426760 0.000000 
#    z 0.000000 0.000000 3.684670 
# 
# 
# High freq. dielectric constant tensor:
#      x y z
#    x 1.718670 0.000000 0.000000 
#    y 0.000000 1.739470 0.000000 
#    z 0.000000 0.000000 1.763890 
# 
# From -- ./inp_files/11254.got.cif
#   From: 2010.03.12/outbox.cif.g09.slc.cpg/sg53_6_cif.got.tgz:11254.got - 2010.04.16 14:36:59.
