data_PCOD8218630
_publ_section_title
;
Structure prediction by ZEFSAII (Michael W. Deem and Ramdas Pophale) SiO2 
 PCOD8218630
Probable space group: P M N A
;
_chemical_formula_sum "Si O2"
_cell_formula_units_Z 48
_cell_length_a 8.717928
_cell_length_b 11.775555
_cell_length_c 25.754909
_cell_angle_alpha 90.000000
_cell_angle_beta 90.000000
_cell_angle_gamma 90.000000
_cell_volume 2643.958797
_symmetry_space_group_name_H-M "P M N A"
_symmetry_group_IT_number 53
_symmetry_cell_setting 'orthorhombic'
loop_
_space_group_symop_operation_xyz
x,y,z
1/2-x,-y,1/2+z
x,-y,-z
1/2-x,y,1/2-z
-x,-y,-z
1/2+x,y,1/2-z
-x,y,z
1/2+x,-y,1/2+z
loop_
_atom_site_type_symbol
_atom_site_label
_atom_site_fract_x
_atom_site_fract_y
_atom_site_fract_z
Si Si1 0.325690 0.290612 0.924271
Si Si2 0.675775 0.946295 0.446415
Si Si3 0.823869 0.348408 0.459456
Si Si4 0.823226 0.171481 0.108528
Si Si5 0.679253 0.504797 0.378944
Si Si6 0.818506 0.678322 0.693388
O O1 0.500000 0.287129 0.905437
O O2 0.268698 0.162541 0.928220
O O3 0.230380 0.363236 0.881945
O O4 0.310780 0.355712 0.978946
O O5 0.500000 0.910100 0.455809
O O6 0.741167 0.000000 0.500000
O O7 0.690824 0.036459 0.399307
O O8 0.758055 0.227353 0.441386
O O9 0.722761 0.446676 0.433548
O O10 0.000000 0.361823 0.440944
O O11 0.740282 0.212968 0.160794
O O12 0.000000 0.210620 0.110700
O O13 0.500000 0.498039 0.368282
O O14 0.765326 0.439682 0.332564
O O15 0.750000 0.688292 0.750000
O O16 0.000000 0.681384 0.696347
#
# Coordination Sequence:
#
# PCOD8218630 Si02
#       6
#     8   8   8   8   8   8
#     4  11  22  33  49  74 109 149 187 223 266 319
#     4  10  20  34  52  76 110 151 190 226 264 318
#     4  10  19  31  48  73 107 144 182 223 266 315
#     4  10  19  33  54  80 110 143 184 226 270 317
#     4  11  22  35  53  77 106 140 180 223 273 325
#     4  11  22  39  62  85 109 135 174 224 279 330
#
# _framework density 18.154595
#
# number of rings (size 3 to 8) (size 9 to 14) (size 15 to 20)
#    0.000    1.500    1.667    7.000    0.000    5.667 
#    0.000    0.000    0.000    1.000    0.000    2.333 
#    0.000    0.000    0.000    0.000    0.000    0.000 
#
# Total GULP energy -595217.740129 kJ/mol
# GULP energy per Si atom -12400.369586 kJ/mol
# Density = 1.811327 g / cm^3
# Si number density = 18.154595 Si / 1000 Ang^3
#
#
#
# Elastic Constant Matrix: (Units=GPa)
#
#
# Indices 1 2 3 4 5 6 
#
# 1 121.6303 34.3149 49.2886 0.0000 0.0000 0.0000
# 2 34.3149 89.2211 36.3298 0.0000 0.0000 0.0000
# 3 49.2886 36.3298 80.9453 0.0000 0.0000 0.0000
# 4 0.0000 0.0000 0.0000 16.0066 0.0000 0.0000
# 5 0.0000 0.0000 0.0000 0.0000 26.4552 0.0000
# 6 0.0000 0.0000 0.0000 0.0000 0.0000 29.8083
#
#
#
# Elastic Compliance Matrix: (Units=1/GPa)
#
#
# Indices 1 2 3 4 5 6 
#
# 1 0.011163 -0.001867 -0.005960 0.000000 0.000000 0.000000
# 2 -0.001867 0.014027 -0.005159 0.000000 0.000000 0.000000
# 3 -0.005960 -0.005159 0.018298 0.000000 0.000000 0.000000
# 4 0.000000 0.000000 0.000000 0.062474 0.000000 0.000000
# 5 0.000000 0.000000 0.000000 0.000000 0.037800 0.000000
# 6 0.000000 0.000000 0.000000 0.000000 0.000000 0.033548
#
#
# Mechanical properties :
#
#
# Convention : Reuss Voigt Hill
#
# Bulk Modulus (GPa) = 57.08431 59.07370 58.07900
# Shear Modulus (GPa) = 23.90978 25.91158 24.91068
#
# Velocity S-wave (km/s) = 3.63300 3.78203 3.70826
# Velocity P-wave (km/s) = 7.00785 7.18899 7.09900
#
# Compressibility (1/GPa) = 0.01751795
#
# Stress axis : x y z
#
# Youngs Moduli (GPa) = 89.57884 71.29281 54.65001
#
# Poissons Ratio (x) = 0.13309 0.32569
# Poissons Ratio (y) = 0.16722 0.28192
# Poissons Ratio (z) = 0.53386 0.36778
#
# Static dielectric constant tensor:
#      x y z
#    x 3.499670 0.000000 0.000000 
#    y 0.000000 3.344290 0.000000 
#    z 0.000000 0.000000 3.108750 
# 
# 
# High freq. dielectric constant tensor:
#      x y z
#    x 1.719830 0.000000 0.000000 
#    y 0.000000 1.704630 0.000000 
#    z 0.000000 0.000000 1.668130 
# 
# From -- ./inp_files/36157.got.cif
#   From: 2010.03.12/outbox.cif.g09.slc.cpg/sg53_19_cif.got.tgz:36157.got - 2010.04.16 14:36:59.
