data_PCOD8218741
_publ_section_title
;
Structure prediction by ZEFSAII (Michael W. Deem and Ramdas Pophale) SiO2 
 PCOD8218741
Probable space group: P M N A
;
_chemical_formula_sum "Si O2"
_cell_formula_units_Z 64
_cell_length_a 17.286166
_cell_length_b 13.843957
_cell_length_c 13.804983
_cell_angle_alpha 90.000000
_cell_angle_beta 90.000000
_cell_angle_gamma 90.000000
_cell_volume 3303.655832
_symmetry_space_group_name_H-M "P M N A"
_symmetry_group_IT_number 53
_symmetry_cell_setting 'orthorhombic'
loop_
_space_group_symop_operation_xyz
x,y,z
1/2-x,-y,1/2+z
x,-y,-z
1/2-x,y,1/2-z
-x,-y,-z
1/2+x,y,1/2-z
-x,y,z
1/2+x,-y,1/2+z
loop_
_atom_site_type_symbol
_atom_site_label
_atom_site_fract_x
_atom_site_fract_y
_atom_site_fract_z
Si Si1 0.752966 0.696167 0.033507
Si Si2 0.310581 0.625509 0.835044
Si Si3 0.670763 0.413277 0.806821
Si Si4 0.413997 0.891068 0.418166
Si Si5 0.358990 0.090269 0.369266
Si Si6 0.208261 0.107087 0.456239
Si Si7 0.088523 0.808596 0.678103
Si Si8 0.411738 0.317766 0.636503
O O1 0.685345 0.656708 0.102938
O O2 0.840116 0.660575 0.062936
O O3 0.738751 0.650304 0.929493
O O4 0.739442 0.812837 0.033902
O O5 0.250000 0.628531 0.750000
O O6 0.351603 0.520681 0.842980
O O7 0.377623 0.701767 0.814135
O O8 0.750000 0.419998 0.750000
O O9 0.602964 0.370175 0.738950
O O10 0.500000 0.932987 0.420429
O O11 0.390468 0.866601 0.528955
O O12 0.408660 0.797550 0.349764
O O13 0.363140 0.974170 0.369510
O O14 0.267553 0.113083 0.365208
O O15 0.403155 0.136214 0.279664
O O16 0.125546 0.132831 0.411468
O O17 0.206626 0.000000 0.500000
O O18 0.000000 0.799301 0.650921
O O19 0.500000 0.346393 0.599968
#
# Coordination Sequence:
#
# PCOD8218741 Si02
#       8
#     8   8   8   8   8   8   8   8
#     4  10  19  38  60  85 115 156 201 239 290 345
#     4  10  21  39  61  84 109 151 204 246 287 355
#     4   9  20  37  60  82 112 153 193 240 290 351
#     4  10  19  31  55  87 122 151 184 234 290 347
#     4  11  18  36  56  83 113 155 195 228 278 342
#     4  11  21  37  58  83 115 154 200 236 277 348
#     4  11  24  37  55  82 116 149 187 241 296 345
#     4  10  20  35  58  92 123 147 186 246 305 350
#
# _framework density 19.372478000000001
#
# number of rings (size 3 to 8) (size 9 to 14) (size 15 to 20)
#    0.000    1.750    2.500    3.750    0.000    1.750 
#    0.000    5.000    0.000   13.500    0.000    0.000 
#    0.000    0.000    0.000    0.000    0.000    0.000 
#
# Total GULP energy -793136.009568 kJ/mol
# GULP energy per Si atom -12392.750149 kJ/mol
# Density = 1.932839 g / cm^3
# Si number density = 19.372478 Si / 1000 Ang^3
#
#
#
# Elastic Constant Matrix: (Units=GPa)
#
#
# Indices 1 2 3 4 5 6 
#
# 1 119.1758 36.0400 37.9303 0.0000 0.0000 0.0000
# 2 36.0400 129.5012 50.1859 0.0000 0.0000 0.0000
# 3 37.9303 50.1859 88.1715 0.0000 0.0000 0.0000
# 4 0.0000 0.0000 0.0000 27.1977 0.0000 0.0000
# 5 0.0000 0.0000 0.0000 0.0000 25.6626 0.0000
# 6 0.0000 0.0000 0.0000 0.0000 0.0000 911.7383
#
#
#
# Elastic Compliance Matrix: (Units=1/GPa)
#
#
# Indices 1 2 3 4 5 6 
#
# 1 0.009922 -0.001420 -0.003460 0.000000 0.000000 0.000000
# 2 -0.001420 0.010111 -0.005144 0.000000 0.000000 0.000000
# 3 -0.003460 -0.005144 0.015758 0.000000 0.000000 0.000000
# 4 0.000000 0.000000 0.000000 0.036768 0.000000 0.000000
# 5 0.000000 0.000000 0.000000 0.000000 0.038967 0.000000
# 6 0.000000 0.000000 0.000000 0.000000 0.000000 0.001097
#
#
# Mechanical properties :
#
#
# Convention : Reuss Voigt Hill
#
# Bulk Modulus (GPa) = 63.52393 65.01789 64.27091
# Shear Modulus (GPa) = 36.25374 207.09921 121.67647
#
# Velocity S-wave (km/s) = 4.33067 10.35065 7.93381
# Velocity P-wave (km/s) = 7.60712 13.28468 10.82476
#
# Compressibility (1/GPa) = 0.01574210
#
# Stress axis : x y z
#
# Youngs Moduli (GPa) = 100.78977 98.90589 63.46147
#
# Poissons Ratio (x) = 0.14049 0.21956
# Poissons Ratio (y) = 0.14317 0.32643
# Poissons Ratio (z) = 0.34870 0.50875
#
# Static dielectric constant tensor:
#      x y z
#    x 3.618680 0.000000 0.000000 
#    y 0.000000 3.806480 0.000000 
#    z 0.000000 0.000000 3.449860 
# 
# 
# High freq. dielectric constant tensor:
#      x y z
#    x 1.750460 0.000000 0.000000 
#    y 0.000000 1.763620 0.000000 
#    z 0.000000 0.000000 1.735460 
# 
# From -- ./inp_files/17100.got.cif
#   From: 2010.03.12/outbox.cif.g09.slc.cpg/sg53_9_cif.got.tgz:17100.got - 2010.04.16 14:36:59.
