data_PCOD8218608
_publ_section_title
;
Structure prediction by ZEFSAII (Michael W. Deem and Ramdas Pophale) SiO2 
 PCOD8218608
Probable space group: P M N A
;
_chemical_formula_sum "Si O2"
_cell_formula_units_Z 64
_cell_length_a 9.069928
_cell_length_b 18.331866
_cell_length_c 22.948331
_cell_angle_alpha 90.000000
_cell_angle_beta 90.000000
_cell_angle_gamma 90.000000
_cell_volume 3815.589271
_symmetry_space_group_name_H-M "P M N A"
_symmetry_group_IT_number 53
_symmetry_cell_setting 'orthorhombic'
loop_
_space_group_symop_operation_xyz
x,y,z
1/2-x,-y,1/2+z
x,-y,-z
1/2-x,y,1/2-z
-x,-y,-z
1/2+x,y,1/2-z
-x,y,z
1/2+x,-y,1/2+z
loop_
_atom_site_type_symbol
_atom_site_label
_atom_site_fract_x
_atom_site_fract_y
_atom_site_fract_z
Si Si1 0.170765 0.074080 0.310782
Si Si2 0.671486 0.640087 0.623022
Si Si3 0.326118 0.767376 0.812617
Si Si4 0.828432 0.494163 0.810619
Si Si5 0.668769 0.582956 0.988103
Si Si6 0.171854 0.920141 0.311157
Si Si7 0.326575 0.762529 0.188091
Si Si8 0.330214 0.375241 0.883895
O O1 0.250000 0.072642 0.250000
O O2 0.208747 0.151889 0.340806
O O3 0.000000 0.073936 0.296099
O O4 0.210879 0.997263 0.345281
O O5 0.500000 0.659657 0.620073
O O6 0.762250 0.710733 0.641557
O O7 0.702426 0.576738 0.669841
O O8 0.723548 0.616475 0.559412
O O9 0.250000 0.757447 0.750000
O O10 0.500000 0.754059 0.804697
O O11 0.750000 0.477806 0.750000
O O12 0.766488 0.441224 0.859952
O O13 0.000000 0.478427 0.802709
O O14 0.500000 0.586070 0.965633
O O15 0.689373 0.629851 0.046748
O O16 0.715614 0.500000 0.000000
O O17 0.250000 0.923393 0.250000
O O18 0.216224 0.842301 0.340383
O O19 0.000000 0.917859 0.298536
O O20 0.250000 0.749578 0.250000
O O21 0.500000 0.756512 0.198882
O O22 0.273497 0.701006 0.142991
O O23 0.500000 0.390851 0.867557
#
# Coordination Sequence:
#
# PCOD8218608 Si02
#       8
#     8   8   8   8   8   8   8   8
#     4   8  14  24  40  63  91 124 156 185 221 270
#     4  11  23  36  51  71  94 123 159 200 242 283
#     4  10  19  31  48  71 100 129 158 193 234 282
#     4  11  23  35  49  69  94 124 155 188 230 280
#     4  10  20  36  56  72  89 120 158 202 247 287
#     4   8  13  23  39  61  91 124 154 183 220 266
#     4   9  17  28  44  68  98 127 154 188 227 276
#     4  10  20  34  51  71  94 122 158 195 238 283
#
# _framework density 16.773295000000001
#
# number of rings (size 3 to 8) (size 9 to 14) (size 15 to 20)
#    0.000    2.375    1.250    1.875    0.000    5.250 
#    0.000    0.000    0.000    0.000    0.000    0.875 
#    0.000    7.000    0.000    0.000    0.000    0.000 
#
# Total GULP energy -792836.383566 kJ/mol
# GULP energy per Si atom -12388.068493 kJ/mol
# Density = 1.673512 g / cm^3
# Si number density = 16.773295 Si / 1000 Ang^3
#
#
#
# Elastic Constant Matrix: (Units=GPa)
#
#
# Indices 1 2 3 4 5 6 
#
# 1 55.2325 42.4237 23.1403 0.0000 0.0000 0.0000
# 2 42.4237 133.4548 29.2304 0.0000 0.0000 0.0000
# 3 23.1403 29.2304 54.4971 0.0000 0.0000 0.0000
# 4 0.0000 0.0000 0.0000 10.8818 0.0000 0.0000
# 5 0.0000 0.0000 0.0000 0.0000 23.1691 0.0000
# 6 0.0000 0.0000 0.0000 0.0000 0.0000 18.3452
#
#
#
# Elastic Compliance Matrix: (Units=1/GPa)
#
#
# Indices 1 2 3 4 5 6 
#
# 1 0.026484 -0.006749 -0.007626 0.000000 0.000000 0.000000
# 2 -0.006749 0.010210 -0.002611 0.000000 0.000000 0.000000
# 3 -0.007626 -0.002611 0.022988 0.000000 0.000000 0.000000
# 4 0.000000 0.000000 0.000000 0.091896 0.000000 0.000000
# 5 0.000000 0.000000 0.000000 0.000000 0.043161 0.000000
# 6 0.000000 0.000000 0.000000 0.000000 0.000000 0.054510
#
#
# Mechanical properties :
#
#
# Convention : Reuss Voigt Hill
#
# Bulk Modulus (GPa) = 38.89284 48.08590 43.48937
# Shear Modulus (GPa) = 17.13559 20.37189 18.75374
#
# Velocity S-wave (km/s) = 3.19971 3.48881 3.34738
# Velocity P-wave (km/s) = 6.07360 6.70518 6.39719
#
# Compressibility (1/GPa) = 0.02571167
#
# Stress axis : x y z
#
# Youngs Moduli (GPa) = 37.75906 97.93990 43.50099
#
# Poissons Ratio (x) = 0.66096 0.33172
# Poissons Ratio (y) = 0.25482 0.11358
# Poissons Ratio (z) = 0.28794 0.25571
#
# Static dielectric constant tensor:
#      x y z
#    x 3.059540 0.000000 0.000000 
#    y 0.000000 3.982460 0.000000 
#    z 0.000000 0.000000 2.776910 
# 
# 
# High freq. dielectric constant tensor:
#      x y z
#    x 1.652500 0.000000 0.000000 
#    y 0.000000 1.670550 0.000000 
#    z 0.000000 0.000000 1.596040 
# 
# From -- ./inp_files/31147.got.cif
#   From: 2010.03.12/outbox.cif.g09.slc.cpg/sg53_16_cif.got.tgz:31147.got - 2010.04.16 14:36:59.
