data_PCOD8218769
_publ_section_title
;
Structure prediction by ZEFSAII (Michael W. Deem and Ramdas Pophale) SiO2 
 PCOD8218769
Probable space group: P M N A
;
_chemical_formula_sum "Si O2"
_cell_formula_units_Z 40
_cell_length_a 8.727377
_cell_length_b 15.790031
_cell_length_c 14.032599
_cell_angle_alpha 90.000000
_cell_angle_beta 90.000000
_cell_angle_gamma 90.000000
_cell_volume 1933.770071
_symmetry_space_group_name_H-M "P M N A"
_symmetry_group_IT_number 53
_symmetry_cell_setting 'orthorhombic'
loop_
_space_group_symop_operation_xyz
x,y,z
1/2-x,-y,1/2+z
x,-y,-z
1/2-x,y,1/2-z
-x,-y,-z
1/2+x,y,1/2-z
-x,y,z
1/2+x,-y,1/2+z
loop_
_atom_site_type_symbol
_atom_site_label
_atom_site_fract_x
_atom_site_fract_y
_atom_site_fract_z
Si Si1 0.316681 0.035760 0.146023
Si Si2 0.677895 0.632201 0.657890
Si Si3 0.321174 0.308495 0.544238
Si Si4 0.680895 0.883261 0.464115
Si Si5 0.170490 0.531565 0.392560
O O1 0.250000 0.057679 0.250000
O O2 0.500000 0.038572 0.148412
O O3 0.252918 0.103036 0.069026
O O4 0.260363 0.942888 0.113848
O O5 0.750000 0.678565 0.750000
O O6 0.500000 0.644776 0.664390
O O7 0.742151 0.676235 0.562771
O O8 0.720598 0.532654 0.663858
O O9 0.500000 0.330301 0.548734
O O10 0.286654 0.211861 0.571821
O O11 0.234961 0.372531 0.615693
O O12 0.500000 0.902280 0.469774
O O13 0.169273 0.500000 0.500000
O O14 0.000000 0.529680 0.348777
#
# Coordination Sequence:
#
# PCOD8218769 Si02
#       5
#     8   8   8   8   8
#     4  11  22  38  59  83 111 146 184 224 274 329
#     4  10  19  32  49  72 103 137 174 216 262 311
#     4   9  19  34  53  76 104 137 171 213 264 315
#     4  10  20  37  59  85 114 144 181 225 275 331
#     4   9  17  30  49  71  96 130 169 206 247 298
#
# _framework density 20.684984
#
# number of rings (size 3 to 8) (size 9 to 14) (size 15 to 20)
#    0.000    2.200    0.000    4.800    0.000    5.600 
#    0.000    3.000    0.000    4.800    0.000    0.000 
#    0.000    0.000    0.000    0.000    0.000    0.000 
#
# Total GULP energy -495875.553831 kJ/mol
# GULP energy per Si atom -12396.888846 kJ/mol
# Density = 2.063790 g / cm^3
# Si number density = 20.684984 Si / 1000 Ang^3
#
#
#
# Elastic Constant Matrix: (Units=GPa)
#
#
# Indices 1 2 3 4 5 6 
#
# 1 94.0628 10.1776 7.2029 0.0000 0.0000 0.0000
# 2 10.1776 70.9087 -23.4477 0.0000 0.0000 0.0000
# 3 7.2029 -23.4477 41.1067 0.0000 0.0000 0.0000
# 4 0.0000 0.0000 0.0000 11.0268 0.0000 0.0000
# 5 0.0000 0.0000 0.0000 0.0000 31.9175 0.0000
# 6 0.0000 0.0000 0.0000 0.0000 0.0000 29.4131
#
#
#
# Elastic Compliance Matrix: (Units=1/GPa)
#
#
# Indices 1 2 3 4 5 6 
#
# 1 0.011204 -0.002782 -0.003550 0.000000 0.000000 0.000000
# 2 -0.002782 0.018072 0.010796 0.000000 0.000000 0.000000
# 3 -0.003550 0.010796 0.031107 0.000000 0.000000 0.000000
# 4 0.000000 0.000000 0.000000 0.090688 0.000000 0.000000
# 5 0.000000 0.000000 0.000000 0.000000 0.031331 0.000000
# 6 0.000000 0.000000 0.000000 0.000000 0.000000 0.033998
#
#
# Mechanical properties :
#
#
# Convention : Reuss Voigt Hill
#
# Bulk Modulus (GPa) = 14.42788 21.54930 17.98859
# Shear Modulus (GPa) = 21.68476 28.61451 25.14963
#
# Velocity S-wave (km/s) = 3.24131 3.72337 3.49067
# Velocity P-wave (km/s) = 4.58239 5.37821 4.99617
#
# Compressibility (1/GPa) = 0.06931025
#
# Stress axis : x y z
#
# Youngs Moduli (GPa) = 89.25329 55.33465 32.14708
#
# Poissons Ratio (x) = 0.15394 0.11413
# Poissons Ratio (y) = 0.24831 -0.34705
# Poissons Ratio (z) = 0.31686 -0.59738
#
# Static dielectric constant tensor:
#      x y z
#    x 3.798970 0.000000 0.000000 
#    y 0.000000 3.696840 0.000000 
#    z 0.000000 0.000000 3.792320 
# 
# 
# High freq. dielectric constant tensor:
#      x y z
#    x 1.815120 0.000000 0.000000 
#    y 0.000000 1.799790 0.000000 
#    z 0.000000 0.000000 1.798020 
# 
# From -- ./inp_files/19862.got.cif
#   From: 2010.03.12/outbox.cif.g09.slc.cpg/sg53_10_cif.got.tgz:19862.got - 2010.04.16 14:36:59.
