data_PCOD8218316
_publ_section_title
;
Structure prediction by ZEFSAII (Michael W. Deem and Ramdas Pophale) SiO2 
 PCOD8218316
Probable space group: P M N A
;
_chemical_formula_sum "Si O2"
_cell_formula_units_Z 64
_cell_length_a 9.253620
_cell_length_b 16.981875
_cell_length_c 23.219496
_cell_angle_alpha 90.000000
_cell_angle_beta 90.000000
_cell_angle_gamma 90.000000
_cell_volume 3648.800257
_symmetry_space_group_name_H-M "P M N A"
_symmetry_group_IT_number 53
_symmetry_cell_setting 'orthorhombic'
loop_
_space_group_symop_operation_xyz
x,y,z
1/2-x,-y,1/2+z
x,-y,-z
1/2-x,y,1/2-z
-x,-y,-z
1/2+x,y,1/2-z
-x,y,z
1/2+x,-y,1/2+z
loop_
_atom_site_type_symbol
_atom_site_label
_atom_site_fract_x
_atom_site_fract_y
_atom_site_fract_z
Si Si1 0.832455 0.038280 0.692871
Si Si2 0.163933 0.069486 0.110204
Si Si3 0.662578 0.782108 0.693565
Si Si4 0.339122 0.838826 0.974965
Si Si5 0.672351 0.412580 0.007250
Si Si6 0.327492 0.274066 0.928387
Si Si7 0.839859 0.691799 0.609179
Si Si8 0.334390 0.776246 0.194217
O O1 0.750000 0.008511 0.750000
O O2 0.815177 0.131072 0.685866
O O3 0.000000 0.012713 0.697466
O O4 0.759945 0.000005 0.636916
O O5 0.167073 0.143493 0.152214
O O6 0.232482 0.093270 0.048460
O O7 0.000000 0.040132 0.100511
O O8 0.750000 0.805439 0.750000
O O9 0.500000 0.759536 0.710629
O O10 0.733344 0.705944 0.662770
O O11 0.500000 0.874612 0.984326
O O12 0.350107 0.769340 0.929074
O O13 0.275544 0.801669 0.034156
O O14 0.500000 0.413790 0.004449
O O15 0.731093 0.355584 0.956182
O O16 0.737685 0.500000 0.000000
O O17 0.720908 0.379330 0.069578
O O18 0.500000 0.272919 0.929937
O O19 0.271012 0.266173 0.862914
O O20 0.000000 0.671290 0.632870
O O21 0.250000 0.744984 0.250000
O O22 0.500000 0.753369 0.203649
#
# Coordination Sequence:
#
# PCOD8218316 Si02
#       8
#     8   8   8   8   8   8   8   8
#     4  10  19  30  44  61  83 114 152 194 236 274
#     4  10  19  29  42  62  88 116 148 189 233 273
#     4  10  19  28  40  59  83 114 150 183 216 257
#     4   8  14  26  44  63  85 116 150 183 220 262
#     4   8  13  23  45  76  99 114 139 176 217 260
#     4   8  14  27  47  69  93 120 150 184 221 266
#     4   8  14  25  41  62  88 114 142 177 212 250
#     4   9  18  32  49  68  89 116 152 191 229 268
#
# _framework density 17.540011
#
# number of rings (size 3 to 8) (size 9 to 14) (size 15 to 20)
#    0.000    3.125    0.000    3.000    0.000    3.000 
#    0.000    1.250    0.000    5.625    0.000    1.750 
#    0.000    0.000    0.000    0.000    0.000    0.000 
#
# Total GULP energy -793282.359877 kJ/mol
# GULP energy per Si atom -12395.036873 kJ/mol
# Density = 1.750009 g / cm^3
# Si number density = 17.540011 Si / 1000 Ang^3
#
#
#
# Elastic Constant Matrix: (Units=GPa)
#
#
# Indices 1 2 3 4 5 6 
#
# 1 83.2873 21.9754 37.2928 0.0000 0.0000 0.0000
# 2 21.9754 37.8656 24.6908 0.0000 0.0000 0.0000
# 3 37.2928 24.6908 97.0155 0.0000 0.0000 0.0000
# 4 0.0000 0.0000 0.0000 22.1217 0.0000 0.0000
# 5 0.0000 0.0000 0.0000 0.0000 24.5105 0.0000
# 6 0.0000 0.0000 0.0000 0.0000 0.0000 10.3173
#
#
#
# Elastic Compliance Matrix: (Units=1/GPa)
#
#
# Indices 1 2 3 4 5 6 
#
# 1 0.015621 -0.006175 -0.004433 0.000000 0.000000 0.000000
# 2 -0.006175 0.034105 -0.006306 0.000000 0.000000 0.000000
# 3 -0.004433 -0.006306 0.013617 0.000000 0.000000 0.000000
# 4 0.000000 0.000000 0.000000 0.045204 0.000000 0.000000
# 5 0.000000 0.000000 0.000000 0.000000 0.040799 0.000000
# 6 0.000000 0.000000 0.000000 0.000000 0.000000 0.096924
#
#
# Mechanical properties :
#
#
# Convention : Reuss Voigt Hill
#
# Bulk Modulus (GPa) = 33.88228 42.89846 38.39037
# Shear Modulus (GPa) = 17.24517 20.33720 18.79118
#
# Velocity S-wave (km/s) = 3.13899 3.40880 3.27667
# Velocity P-wave (km/s) = 5.70059 6.32486 6.02082
#
# Compressibility (1/GPa) = 0.02951396
#
# Stress axis : x y z
#
# Youngs Moduli (GPa) = 64.01690 29.32137 73.43938
#
# Poissons Ratio (x) = 0.18106 0.32557
# Poissons Ratio (y) = 0.39530 0.46312
# Poissons Ratio (z) = 0.28380 0.18491
#
# Static dielectric constant tensor:
#      x y z
#    x 3.250650 0.000000 0.000000 
#    y 0.000000 3.160290 0.000000 
#    z 0.000000 0.000000 3.412280 
# 
# 
# High freq. dielectric constant tensor:
#      x y z
#    x 1.655140 0.000000 0.000000 
#    y 0.000000 1.643020 0.000000 
#    z 0.000000 0.000000 1.675550 
# 
# From -- ./inp_files/31351.got.cif
#   From: 2010.03.12/outbox.cif.g09.slc.cpg/sg53_16_cif.got.tgz:31351.got - 2010.04.16 14:36:59.
