data_PCOD8218684
_publ_section_title
;
Structure prediction by ZEFSAII (Michael W. Deem and Ramdas Pophale) SiO2 
 PCOD8218684
Probable space group: P M N A
;
_chemical_formula_sum "Si O2"
_cell_formula_units_Z 56
_cell_length_a 9.379817
_cell_length_b 22.556111
_cell_length_c 14.074736
_cell_angle_alpha 90.000000
_cell_angle_beta 90.000000
_cell_angle_gamma 90.000000
_cell_volume 2977.822767
_symmetry_space_group_name_H-M "P M N A"
_symmetry_group_IT_number 53
_symmetry_cell_setting 'orthorhombic'
loop_
_space_group_symop_operation_xyz
x,y,z
1/2-x,-y,1/2+z
x,-y,-z
1/2-x,y,1/2-z
-x,-y,-z
1/2+x,y,1/2-z
-x,y,z
1/2+x,-y,1/2+z
loop_
_atom_site_type_symbol
_atom_site_label
_atom_site_fract_x
_atom_site_fract_y
_atom_site_fract_z
Si Si1 0.165953 0.649855 0.660438
Si Si2 0.834199 0.523872 0.596279
Si Si3 0.832142 0.915598 0.044729
Si Si4 0.170712 0.796729 0.149344
Si Si5 0.661537 0.298688 0.964852
Si Si6 0.843168 0.600118 0.330037
Si Si7 0.830385 0.967739 0.848338
O O1 0.250000 0.675827 0.750000
O O2 0.232775 0.584894 0.635448
O O3 0.191524 0.697632 0.576948
O O4 0.000000 0.644188 0.685620
O O5 0.759969 0.500000 0.500000
O O6 0.811189 0.469905 0.668718
O O7 0.000000 0.536962 0.574878
O O8 0.780062 0.853822 0.088737
O O9 0.000000 0.920386 0.043931
O O10 0.778011 0.967825 0.114538
O O11 0.783368 0.922800 0.934123
O O12 0.250000 0.797700 0.250000
O O13 0.222693 0.741199 0.087661
O O14 0.000000 0.793845 0.164172
O O15 0.500000 0.275726 0.944624
O O16 0.678894 0.367020 0.930377
O O17 0.750000 0.631921 0.250000
O O18 0.000000 0.611170 0.292466
O O19 0.750000 0.951572 0.750000
O O20 0.000000 0.965162 0.829347
#
# Coordination Sequence:
#
# PCOD8218684 Si02
#       7
#     8   8   8   8   8   8   8
#     4  10  20  35  56  77 100 132 172 215 263 316
#     4   9  15  29  52  74  96 128 163 200 253 314
#     4   8  17  33  53  77 109 146 178 210 259 315
#     4  11  22  37  57  80 106 139 176 216 260 308
#     4  10  21  37  54  74 101 136 175 214 256 307
#     4  10  19  31  50  73  98 127 161 200 250 307
#     4   9  16  31  54  80 110 143 177 215 259 308
#
# _framework density 18.805686000000001
#
# number of rings (size 3 to 8) (size 9 to 14) (size 15 to 20)
#    0.000    2.429    1.429    2.571    0.000    2.286 
#    0.000    4.286    0.000    4.286    0.000    0.000 
#    0.000    0.000    0.000    0.000    0.000    0.000 
#
# Total GULP energy -693902.186255 kJ/mol
# GULP energy per Si atom -12391.110469 kJ/mol
# Density = 1.876288 g / cm^3
# Si number density = 18.805686 Si / 1000 Ang^3
#
#
#
# Elastic Constant Matrix: (Units=GPa)
#
#
# Indices 1 2 3 4 5 6 
#
# 1 65.2509 34.5757 59.4724 0.0000 0.0000 0.0000
# 2 34.5757 83.4933 41.2924 0.0000 0.0000 0.0000
# 3 59.4724 41.2924 148.4655 0.0000 0.0000 0.0000
# 4 0.0000 0.0000 0.0000 18.5213 0.0000 0.0000
# 5 0.0000 0.0000 0.0000 0.0000 33.7204 0.0000
# 6 0.0000 0.0000 0.0000 0.0000 0.0000 19.4691
#
#
#
# Elastic Compliance Matrix: (Units=1/GPa)
#
#
# Indices 1 2 3 4 5 6 
#
# 1 0.027093 -0.006785 -0.008966 0.000000 0.000000 0.000000
# 2 -0.006785 0.015587 -0.001617 0.000000 0.000000 0.000000
# 3 -0.008966 -0.001617 0.010777 0.000000 0.000000 0.000000
# 4 0.000000 0.000000 0.000000 0.053992 0.000000 0.000000
# 5 0.000000 0.000000 0.000000 0.000000 0.029656 0.000000
# 6 0.000000 0.000000 0.000000 0.000000 0.000000 0.051363
#
#
# Mechanical properties :
#
#
# Convention : Reuss Voigt Hill
#
# Bulk Modulus (GPa) = 53.41861 63.09894 58.25878
# Shear Modulus (GPa) = 21.79194 25.13345 23.46270
#
# Velocity S-wave (km/s) = 3.40780 3.65976 3.53602
# Velocity P-wave (km/s) = 6.62958 7.17526 6.90781
#
# Compressibility (1/GPa) = 0.01872007
#
# Stress axis : x y z
#
# Youngs Moduli (GPa) = 36.91053 64.15760 92.79265
#
# Poissons Ratio (x) = 0.43533 0.83194
# Poissons Ratio (y) = 0.25045 0.15004
# Poissons Ratio (z) = 0.33092 0.10374
#
# Static dielectric constant tensor:
#      x y z
#    x 3.122420 0.000000 0.000000 
#    y 0.000000 3.552270 0.000000 
#    z 0.000000 0.000000 3.549860 
# 
# 
# High freq. dielectric constant tensor:
#      x y z
#    x 1.697620 0.000000 0.000000 
#    y 0.000000 1.715760 0.000000 
#    z 0.000000 0.000000 1.741780 
# 
# From -- ./inp_files/20639.got.cif
#   From: 2010.03.12/outbox.cif.g09.slc.cpg/sg53_11_cif.got.tgz:20639.got - 2010.04.16 14:36:59.
