data_PCOD8218857
_publ_section_title
;
Structure prediction by ZEFSAII (Michael W. Deem and Ramdas Pophale) SiO2 
 PCOD8218857
Probable space group: P M N A
;
_chemical_formula_sum "Si O2"
_cell_formula_units_Z 56
_cell_length_a 8.928193
_cell_length_b 17.811607
_cell_length_c 19.102366
_cell_angle_alpha 90.000000
_cell_angle_beta 90.000000
_cell_angle_gamma 90.000000
_cell_volume 3037.762635
_symmetry_space_group_name_H-M "P M N A"
_symmetry_group_IT_number 53
_symmetry_cell_setting 'orthorhombic'
loop_
_space_group_symop_operation_xyz
x,y,z
1/2-x,-y,1/2+z
x,-y,-z
1/2-x,y,1/2-z
-x,-y,-z
1/2+x,y,1/2-z
-x,y,z
1/2+x,-y,1/2+z
loop_
_atom_site_type_symbol
_atom_site_label
_atom_site_fract_x
_atom_site_fract_y
_atom_site_fract_z
Si Si1 0.824907 0.483314 0.325079
Si Si2 0.823938 0.796420 0.559459
Si Si3 0.674482 0.317734 0.175341
Si Si4 0.676064 0.226719 0.587244
Si Si5 0.177337 0.371777 0.826016
Si Si6 0.824752 0.968162 0.575147
Si Si7 0.677335 0.917057 0.325500
O O1 0.750000 0.480238 0.250000
O O2 0.796706 0.400888 0.358253
O O3 0.742825 0.552807 0.364387
O O4 0.000000 0.501449 0.319095
O O5 0.761386 0.742958 0.620903
O O6 0.750239 0.771038 0.487927
O O7 0.781006 0.881140 0.578904
O O8 0.000000 0.787016 0.550093
O O9 0.750000 0.305992 0.250000
O O10 0.500000 0.305114 0.188246
O O11 0.500000 0.222770 0.576893
O O12 0.726059 0.301230 0.627757
O O13 0.733139 0.154755 0.630486
O O14 0.250000 0.361490 0.750000
O O15 0.000000 0.378109 0.818388
O O16 0.000000 0.982258 0.588259
O O17 0.775351 0.000000 0.500000
O O18 0.731210 0.008076 0.635702
O O19 0.750000 0.912490 0.250000
O O20 0.500000 0.918676 0.317105
#
# Coordination Sequence:
#
# PCOD8218857 Si02
#       7
#     8   8   8   8   8   8   8
#     4   9  16  29  50  75 103 136 175 217 265 317
#     4  10  21  37  58  81 108 142 180 219 266 324
#     4   9  19  35  55  80 107 137 176 222 268 317
#     4  10  22  37  53  78 110 144 181 220 265 320
#     4  10  19  32  51  77 107 139 179 223 266 316
#     4  10  20  37  59  82 108 142 181 222 271 326
#     4  11  23  38  58  83 112 144 182 226 271 320
#
# _framework density 18.434621
#
# number of rings (size 3 to 8) (size 9 to 14) (size 15 to 20)
#    0.000    2.143    1.429    2.571    0.000    4.286 
#    0.000    2.143    0.000    4.286    0.000    0.000 
#    0.000    0.000    0.000    0.000    0.000    0.000 
#
# Total GULP energy -694310.785417 kJ/mol
# GULP energy per Si atom -12398.406882 kJ/mol
# Density = 1.839266 g / cm^3
# Si number density = 18.434621 Si / 1000 Ang^3
#
#
#
# Elastic Constant Matrix: (Units=GPa)
#
#
# Indices 1 2 3 4 5 6 
#
# 1 59.6730 49.6558 43.0003 0.0000 0.0000 0.0000
# 2 49.6558 172.2154 81.9306 0.0000 0.0000 0.0000
# 3 43.0003 81.9306 123.6194 0.0000 0.0000 0.0000
# 4 0.0000 0.0000 0.0000 31.9802 0.0000 0.0000
# 5 0.0000 0.0000 0.0000 0.0000 28.5240 0.0000
# 6 0.0000 0.0000 0.0000 0.0000 0.0000 29.3966
#
#
#
# Elastic Compliance Matrix: (Units=1/GPa)
#
#
# Indices 1 2 3 4 5 6 
#
# 1 0.024438 -0.004385 -0.005595 0.000000 0.000000 0.000000
# 2 -0.004385 0.009267 -0.004617 0.000000 0.000000 0.000000
# 3 -0.005595 -0.004617 0.013095 0.000000 0.000000 0.000000
# 4 0.000000 0.000000 0.000000 0.031269 0.000000 0.000000
# 5 0.000000 0.000000 0.000000 0.000000 0.035058 0.000000
# 6 0.000000 0.000000 0.000000 0.000000 0.000000 0.034018
#
#
# Mechanical properties :
#
#
# Convention : Reuss Voigt Hill
#
# Bulk Modulus (GPa) = 56.79125 78.29791 67.54458
# Shear Modulus (GPa) = 27.44116 30.04156 28.74136
#
# Velocity S-wave (km/s) = 3.86238 4.04124 3.95282
# Velocity P-wave (km/s) = 7.12491 8.02129 7.58635
#
# Compressibility (1/GPa) = 0.01760835
#
# Stress axis : x y z
#
# Youngs Moduli (GPa) = 40.91962 107.90455 76.36322
#
# Poissons Ratio (x) = 0.47314 0.42722
# Poissons Ratio (y) = 0.17942 0.35256
# Poissons Ratio (z) = 0.22893 0.49819
#
# Static dielectric constant tensor:
#      x y z
#    x 3.364480 0.000000 0.000000 
#    y 0.000000 4.180820 0.000000 
#    z 0.000000 0.000000 3.206850 
# 
# 
# High freq. dielectric constant tensor:
#      x y z
#    x 1.716030 0.000000 0.000000 
#    y 0.000000 1.737270 0.000000 
#    z 0.000000 0.000000 1.693960 
# 
# From -- ./inp_files/31059.got.cif
#   From: 2010.03.12/outbox.cif.g09.slc.cpg/sg53_16_cif.got.tgz:31059.got - 2010.04.16 14:36:59.
