data_PCOD8218339
_publ_section_title
;
Structure prediction by ZEFSAII (Michael W. Deem and Ramdas Pophale) SiO2 
 PCOD8218339
Probable space group: P M N A
;
_chemical_formula_sum "Si O2"
_cell_formula_units_Z 64
_cell_length_a 9.158962
_cell_length_b 17.015871
_cell_length_c 23.225812
_cell_angle_alpha 90.000000
_cell_angle_beta 90.000000
_cell_angle_gamma 90.000000
_cell_volume 3619.689750
_symmetry_space_group_name_H-M "P M N A"
_symmetry_group_IT_number 53
_symmetry_cell_setting 'orthorhombic'
loop_
_space_group_symop_operation_xyz
x,y,z
1/2-x,-y,1/2+z
x,-y,-z
1/2-x,y,1/2-z
-x,-y,-z
1/2+x,y,1/2-z
-x,y,z
1/2+x,-y,1/2+z
loop_
_atom_site_type_symbol
_atom_site_label
_atom_site_fract_x
_atom_site_fract_y
_atom_site_fract_z
Si Si1 0.662154 0.068485 0.614216
Si Si2 0.172674 0.730803 0.569197
Si Si3 0.671430 0.183001 0.521055
Si Si4 0.835250 0.221354 0.806887
Si Si5 0.331651 0.776474 0.805727
Si Si6 0.831138 0.302873 0.602861
Si Si7 0.831205 0.585655 0.494293
Si Si8 0.670785 0.042720 0.192676
O O1 0.500000 0.031805 0.619294
O O2 0.692793 0.094957 0.547662
O O3 0.672021 0.147431 0.651339
O O4 0.777063 0.004614 0.636280
O O5 0.262759 0.805845 0.543169
O O6 0.207792 0.726912 0.637239
O O7 0.231337 0.650016 0.539758
O O8 0.000000 0.744443 0.558401
O O9 0.500000 0.205879 0.523425
O O10 0.770188 0.241055 0.557821
O O11 0.750000 0.197882 0.750000
O O12 0.758413 0.296458 0.837568
O O13 0.000000 0.245167 0.791673
O O14 0.250000 0.741529 0.750000
O O15 0.500000 0.770206 0.790715
O O16 0.287220 0.866808 0.816911
O O17 0.810784 0.387500 0.572233
O O18 0.000000 0.284645 0.615575
O O19 0.754265 0.500000 0.500000
O O20 0.000000 0.577260 0.510400
O O21 0.750000 0.009880 0.250000
O O22 0.500000 0.028859 0.200660
#
# Coordination Sequence:
#
# PCOD8218339 Si02
#       8
#     8   8   8   8   8   8   8   8
#     4   9  18  30  43  62  89 119 153 194 235 273
#     4   9  17  31  51  72  95 121 151 188 227 274
#     4   9  17  29  45  66  92 121 153 189 228 271
#     4  10  19  29  42  62  89 121 158 195 227 266
#     4   9  19  34  50  70  92 118 154 193 233 273
#     4   9  16  27  44  65  91 122 152 183 220 264
#     4   8  14  26  48  76  97 115 143 178 219 268
#     4  10  19  30  45  63  86 117 154 197 240 279
#
# _framework density 17.681073999999999
#
# number of rings (size 3 to 8) (size 9 to 14) (size 15 to 20)
#    0.000    2.875    0.000    3.375    0.000    5.000 
#    0.000    0.625    0.000   13.875    0.000    1.750 
#    0.000    0.000    0.000    0.000    0.000    0.000 
#
# Total GULP energy -793074.637324 kJ/mol
# GULP energy per Si atom -12391.791208 kJ/mol
# Density = 1.764083 g / cm^3
# Si number density = 17.681074 Si / 1000 Ang^3
#
#
#
# Elastic Constant Matrix: (Units=GPa)
#
#
# Indices 1 2 3 4 5 6 
#
# 1 76.8573 21.5638 30.4452 0.0000 0.0000 0.0000
# 2 21.5638 52.5623 27.2983 0.0000 0.0000 0.0000
# 3 30.4452 27.2983 82.4423 0.0000 0.0000 0.0000
# 4 0.0000 0.0000 0.0000 19.8206 0.0000 0.0000
# 5 0.0000 0.0000 0.0000 0.0000 30.9080 0.0000
# 6 0.0000 0.0000 0.0000 0.0000 0.0000 11.0001
#
#
#
# Elastic Compliance Matrix: (Units=1/GPa)
#
#
# Indices 1 2 3 4 5 6 
#
# 1 0.015978 -0.004216 -0.004505 0.000000 0.000000 0.000000
# 2 -0.004216 0.024088 -0.006419 0.000000 0.000000 0.000000
# 3 -0.004505 -0.006419 0.015919 0.000000 0.000000 0.000000
# 4 0.000000 0.000000 0.000000 0.050453 0.000000 0.000000
# 5 0.000000 0.000000 0.000000 0.000000 0.032354 0.000000
# 6 0.000000 0.000000 0.000000 0.000000 0.000000 0.090908
#
#
# Mechanical properties :
#
#
# Convention : Reuss Voigt Hill
#
# Bulk Modulus (GPa) = 38.90127 41.16406 40.03266
# Shear Modulus (GPa) = 18.61860 21.18272 19.90066
#
# Velocity S-wave (km/s) = 3.24855 3.46503 3.35854
# Velocity P-wave (km/s) = 6.01001 6.27221 6.14251
#
# Compressibility (1/GPa) = 0.02570610
#
# Stress axis : x y z
#
# Youngs Moduli (GPa) = 62.58472 41.51377 62.81858
#
# Poissons Ratio (x) = 0.17500 0.28298
# Poissons Ratio (y) = 0.26383 0.40326
# Poissons Ratio (z) = 0.28193 0.26649
#
# Static dielectric constant tensor:
#      x y z
#    x 3.328570 0.000000 0.000000 
#    y 0.000000 3.187880 0.000000 
#    z 0.000000 0.000000 3.565540 
# 
# 
# High freq. dielectric constant tensor:
#      x y z
#    x 1.680300 0.000000 0.000000 
#    y 0.000000 1.643630 0.000000 
#    z 0.000000 0.000000 1.682070 
# 
# From -- ./inp_files/34478.got.cif
#   From: 2010.03.12/outbox.cif.g09.slc.cpg/sg53_18_cif.got.tgz:34478.got - 2010.04.16 14:36:59.
