data_PCOD8218409
_publ_section_title
;
Structure prediction by ZEFSAII (Michael W. Deem and Ramdas Pophale) SiO2 
 PCOD8218409
Probable space group: P M N A
;
_chemical_formula_sum "Si O2"
_cell_formula_units_Z 48
_cell_length_a 9.057681
_cell_length_b 19.787772
_cell_length_c 16.793416
_cell_angle_alpha 90.000000
_cell_angle_beta 90.000000
_cell_angle_gamma 90.000000
_cell_volume 3009.906226
_symmetry_space_group_name_H-M "P M N A"
_symmetry_group_IT_number 53
_symmetry_cell_setting 'orthorhombic'
loop_
_space_group_symop_operation_xyz
x,y,z
1/2-x,-y,1/2+z
x,-y,-z
1/2-x,y,1/2-z
-x,-y,-z
1/2+x,y,1/2-z
-x,y,z
1/2+x,-y,1/2+z
loop_
_atom_site_type_symbol
_atom_site_label
_atom_site_fract_x
_atom_site_fract_y
_atom_site_fract_z
Si Si1 0.833410 0.040897 0.081174
Si Si2 0.326181 0.569658 0.460488
Si Si3 0.674461 0.151691 0.991253
Si Si4 0.324972 0.073329 0.831801
Si Si5 0.663252 0.370047 0.826883
Si Si6 0.836031 0.302580 0.517391
O O1 0.000000 0.052897 0.112561
O O2 0.740308 0.000680 0.147479
O O3 0.755007 0.111968 0.062346
O O4 0.834905 0.000000 0.000000
O O5 0.275944 0.500000 0.500000
O O6 0.500000 0.575419 0.452462
O O7 0.252107 0.570130 0.372640
O O8 0.267009 0.634699 0.511917
O O9 0.500000 0.144555 0.003060
O O10 0.717358 0.124748 0.903207
O O11 0.728619 0.228996 0.002699
O O12 0.250000 0.099357 0.750000
O O13 0.500000 0.067685 0.820191
O O14 0.750000 0.345739 0.750000
O O15 0.500000 0.396161 0.803760
O O16 0.653434 0.305826 0.886005
O O17 0.000000 0.311756 0.480431
#
# Coordination Sequence:
#
# PCOD8218409 Si02
#       6
#     8   8   8   8   8   8
#     4   9  17  29  45  64  86 113 150 190 225 265
#     4   9  17  29  45  65  89 118 153 190 223 261
#     4   9  17  31  46  64  90 121 154 186 227 272
#     4  10  19  30  45  64  89 120 152 188 228 269
#     4   9  17  28  43  63  90 121 150 181 219 263
#     4   8  17  29  43  63  90 120 151 184 222 268
#
# _framework density 15.947340000000001
#
# number of rings (size 3 to 8) (size 9 to 14) (size 15 to 20)
#    1.000    2.000    0.000    1.500    0.000    5.333 
#    0.000    0.000    0.000    0.000    0.000    1.167 
#    0.000    2.667    0.000    0.000    0.000    0.000 
#
# Total GULP energy -594643.926543 kJ/mol
# GULP energy per Si atom -12388.415136 kJ/mol
# Density = 1.591104 g / cm^3
# Si number density = 15.947340 Si / 1000 Ang^3
#
#
#
# Elastic Constant Matrix: (Units=GPa)
#
#
# Indices 1 2 3 4 5 6 
#
# 1 78.5701 38.5758 8.3176 0.0000 0.0000 0.0000
# 2 38.5758 111.4034 7.5910 0.0000 0.0000 0.0000
# 3 8.3176 7.5910 8.8421 0.0000 0.0000 0.0000
# 4 0.0000 0.0000 0.0000 15.9620 0.0000 0.0000
# 5 0.0000 0.0000 0.0000 0.0000 24.0747 0.0000
# 6 0.0000 0.0000 0.0000 0.0000 0.0000 21.9547
#
#
#
# Elastic Compliance Matrix: (Units=1/GPa)
#
#
# Indices 1 2 3 4 5 6 
#
# 1 0.016307 -0.004887 -0.011144 0.000000 0.000000 0.000000
# 2 -0.004887 0.010999 -0.004845 0.000000 0.000000 0.000000
# 3 -0.011144 -0.004845 0.127738 0.000000 0.000000 0.000000
# 4 0.000000 0.000000 0.000000 0.062649 0.000000 0.000000
# 5 0.000000 0.000000 0.000000 0.000000 0.041537 0.000000
# 6 0.000000 0.000000 0.000000 0.000000 0.000000 0.045548
#
#
# Mechanical properties :
#
#
# Convention : Reuss Voigt Hill
#
# Bulk Modulus (GPa) = 8.82680 34.19828 21.51254
# Shear Modulus (GPa) = 13.01086 22.02036 17.51561
#
# Velocity S-wave (km/s) = 2.85943 3.71997 3.31772
# Velocity P-wave (km/s) = 4.05571 6.31996 5.30993
#
# Compressibility (1/GPa) = 0.11329128
#
# Stress axis : x y z
#
# Youngs Moduli (GPa) = 61.32456 90.91859 7.82851
#
# Poissons Ratio (x) = 0.44434 0.08724
# Poissons Ratio (y) = 0.29971 0.03793
# Poissons Ratio (z) = 0.68338 0.44053
#
# Static dielectric constant tensor:
#      x y z
#    x 3.106490 0.000000 0.000000 
#    y 0.000000 2.936300 0.000000 
#    z 0.000000 0.000000 2.707790 
# 
# 
# High freq. dielectric constant tensor:
#      x y z
#    x 1.625940 0.000000 0.000000 
#    y 0.000000 1.595970 0.000000 
#    z 0.000000 0.000000 1.570590 
# 
# From -- ./inp_files/26444.got.cif
#   From: 2010.03.12/outbox.cif.g09.slc.cpg/sg53_14_cif.got.tgz:26444.got - 2010.04.16 14:36:59.
