data_PCOD8218177
_publ_section_title
;
Structure prediction by ZEFSAII (Michael W. Deem and Ramdas Pophale) SiO2 
 PCOD8218177
Probable space group: P M N A
;
_chemical_formula_sum "Si O2"
_cell_formula_units_Z 64
_cell_length_a 16.654171
_cell_length_b 21.151568
_cell_length_c 8.890441
_cell_angle_alpha 90.000000
_cell_angle_beta 90.000000
_cell_angle_gamma 90.000000
_cell_volume 3131.763020
_symmetry_space_group_name_H-M "P M N A"
_symmetry_group_IT_number 53
_symmetry_cell_setting 'orthorhombic'
loop_
_space_group_symop_operation_xyz
x,y,z
1/2-x,-y,1/2+z
x,-y,-z
1/2-x,y,1/2-z
-x,-y,-z
1/2+x,y,1/2-z
-x,y,z
1/2+x,-y,1/2+z
loop_
_atom_site_type_symbol
_atom_site_label
_atom_site_fract_x
_atom_site_fract_y
_atom_site_fract_z
Si Si1 0.839888 0.744005 0.817202
Si Si2 0.906631 0.624267 0.671074
Si Si3 0.905811 0.749156 0.138778
Si Si4 0.836946 0.865567 0.671548
Si Si5 0.834302 0.494919 0.677954
Si Si6 0.093246 0.634282 0.338027
Si Si7 0.338562 0.862440 0.183504
Si Si8 0.165275 0.000623 0.674067
O O1 0.750000 0.735869 0.750000
O O2 0.890528 0.681649 0.782551
O O3 0.883286 0.805509 0.742378
O O4 0.846466 0.754129 0.995991
O O5 0.868150 0.560894 0.741977
O O6 0.869679 0.640285 0.506338
O O7 0.000000 0.610244 0.655697
O O8 0.871658 0.688603 0.230148
O O9 0.896918 0.811237 0.242437
O O10 0.000000 0.742516 0.093523
O O11 0.750000 0.865547 0.750000
O O12 0.831734 0.852642 0.494512
O O13 0.880514 0.933611 0.709598
O O14 0.828101 0.500000 0.500000
O O15 0.750000 0.479861 0.750000
O O16 0.890300 0.435946 0.725787
O O17 0.000000 0.647189 0.347491
O O18 0.250000 0.856430 0.250000
O O19 0.377080 0.932854 0.218705
O O20 0.250000 0.998173 0.750000
O O21 0.184839 0.000000 0.500000
#
# Coordination Sequence:
#
# PCOD8218177 Si02
#       8
#     8   8   8   8   8   8   8   8
#     4  11  22  36  55  81 112 147 191 238 282 332
#     4  10  20  37  59  81 110 147 184 224 277 339
#     4  11  24  40  57  82 118 154 190 235 288 344
#     4   9  17  31  52  82 114 143 183 236 288 335
#     4  10  21  36  57  84 111 139 177 226 273 323
#     4   9  20  38  58  79 105 143 184 221 271 334
#     4  10  18  32  57  84 110 145 190 237 284 337
#     4   8  15  27  48  79 110 140 180 232 284 334
#
# _framework density 20.435775
#
# number of rings (size 3 to 8) (size 9 to 14) (size 15 to 20)
#    0.000    2.250    0.000    3.375    0.000    6.000 
#    0.000    0.625    0.000    8.625    0.000    0.000 
#    0.000    0.000    0.000    0.000    0.000    0.000 
#
# Total GULP energy -792875.138896 kJ/mol
# GULP energy per Si atom -12388.674045 kJ/mol
# Density = 2.038926 g / cm^3
# Si number density = 20.435775 Si / 1000 Ang^3
#
#
#
# Elastic Constant Matrix: (Units=GPa)
#
#
# Indices 1 2 3 4 5 6 
#
# 1 30.2949 5.6708 15.0929 0.0000 0.0000 0.0000
# 2 5.6708 189.5339 59.0124 0.0000 0.0000 0.0000
# 3 15.0929 59.0124 87.0380 0.0000 0.0000 0.0000
# 4 0.0000 0.0000 0.0000 23.7685 0.0000 0.0000
# 5 0.0000 0.0000 0.0000 0.0000 21.9489 0.0000
# 6 0.0000 0.0000 0.0000 0.0000 0.0000 4.3870
#
#
#
# Elastic Compliance Matrix: (Units=1/GPa)
#
#
# Indices 1 2 3 4 5 6 
#
# 1 0.036313 0.001108 -0.007048 0.000000 0.000000 0.000000
# 2 0.001108 0.006722 -0.004750 0.000000 0.000000 0.000000
# 3 -0.007048 -0.004750 0.015932 0.000000 0.000000 0.000000
# 4 0.000000 0.000000 0.000000 0.042073 0.000000 0.000000
# 5 0.000000 0.000000 0.000000 0.000000 0.045560 0.000000
# 6 0.000000 0.000000 0.000000 0.000000 0.000000 0.227945
#
#
# Mechanical properties :
#
#
# Convention : Reuss Voigt Hill
#
# Bulk Modulus (GPa) = 26.60499 51.82434 39.21467
# Shear Modulus (GPa) = 12.24134 25.16025 18.70079
#
# Velocity S-wave (km/s) = 2.45013 3.51263 3.02834
# Velocity P-wave (km/s) = 4.58817 6.47040 5.60881
#
# Compressibility (1/GPa) = 0.03758693
#
# Stress axis : x y z
#
# Youngs Moduli (GPa) = 27.53850 148.77105 62.76827
#
# Poissons Ratio (x) = -0.16484 0.44240
# Poissons Ratio (y) = -0.03051 0.29812
# Poissons Ratio (z) = 0.19409 0.70659
#
# Static dielectric constant tensor:
#      x y z
#    x 3.153360 0.000000 0.000000 
#    y 0.000000 4.618400 0.000000 
#    z 0.000000 0.000000 3.718950 
# 
# 
# High freq. dielectric constant tensor:
#      x y z
#    x 1.749220 0.000000 0.000000 
#    y 0.000000 1.834360 0.000000 
#    z 0.000000 0.000000 1.796890 
# 
# From -- ./inp_files/8978.got.cif
#   From: 2010.03.12/outbox.cif.g09.slc.cpg/sg53_5_cif.got.tgz:8978.got - 2010.04.16 14:36:59.
