data_PCOD8218335
_publ_section_title
;
Structure prediction by ZEFSAII (Michael W. Deem and Ramdas Pophale) SiO2 
 PCOD8218335
Probable space group: P M N A
;
_chemical_formula_sum "Si O2"
_cell_formula_units_Z 64
_cell_length_a 8.918426
_cell_length_b 26.064374
_cell_length_c 18.453768
_cell_angle_alpha 90.000000
_cell_angle_beta 90.000000
_cell_angle_gamma 90.000000
_cell_volume 4289.637253
_symmetry_space_group_name_H-M "P M N A"
_symmetry_group_IT_number 53
_symmetry_cell_setting 'orthorhombic'
loop_
_space_group_symop_operation_xyz
x,y,z
1/2-x,-y,1/2+z
x,-y,-z
1/2-x,y,1/2-z
-x,-y,-z
1/2+x,y,1/2-z
-x,y,z
1/2+x,-y,1/2+z
loop_
_atom_site_type_symbol
_atom_site_label
_atom_site_fract_x
_atom_site_fract_y
_atom_site_fract_z
Si Si1 0.321222 0.009563 0.173543
Si Si2 0.663351 0.051776 0.955427
Si Si3 0.825262 0.313946 0.174856
Si Si4 0.325874 0.195067 0.324776
Si Si5 0.678861 0.109624 0.088643
Si Si6 0.675642 0.395930 0.079359
Si Si7 0.669525 0.448763 0.546568
Si Si8 0.323920 0.496495 0.171569
O O1 0.250000 0.998057 0.250000
O O2 0.500000 0.005806 0.176800
O O3 0.255241 0.964908 0.119488
O O4 0.273340 0.066029 0.146360
O O5 0.500000 0.074202 0.935732
O O6 0.742544 0.093500 0.008402
O O7 0.640659 0.000000 0.000000
O O8 0.750000 0.330963 0.250000
O O9 0.795062 0.254438 0.158628
O O10 0.751921 0.344741 0.109258
O O11 0.000000 0.326953 0.180415
O O12 0.250000 0.177988 0.250000
O O13 0.500000 0.182636 0.318027
O O14 0.254918 0.163065 0.390373
O O15 0.500000 0.115617 0.086542
O O16 0.500000 0.387135 0.070731
O O17 0.711612 0.442054 0.134566
O O18 0.743431 0.405820 0.999659
O O19 0.670494 0.500000 0.500000
O O20 0.500000 0.430448 0.562217
O O21 0.753733 0.458158 0.622647
O O22 0.250000 0.497379 0.250000
O O23 0.500000 0.506209 0.178739
#
# Coordination Sequence:
#
# PCOD8218335 Si02
#       8
#     8   8   8   8   8   8   8   8
#     4   9  16  25  38  57  80 105 134 165 197 236
#     4   7  12  24  39  54  74 102 133 162 194 235
#     4  10  20  32  44  59  81 109 140 173 207 242
#     4  10  20  31  42  58  81 107 136 171 206 240
#     4   9  16  27  43  58  75 104 138 168 199 237
#     4  10  19  30  45  63  84 111 142 175 209 246
#     4   9  17  29  44  61  83 111 141 172 206 245
#     4  10  19  29  42  62  87 113 142 174 208 245
#
# _framework density 14.919676000000001
#
# number of rings (size 3 to 8) (size 9 to 14) (size 15 to 20)
#    0.000    2.750    0.000    4.125    0.000    7.000 
#    0.000    0.625    0.000    2.250    0.000    0.000 
#    0.000    1.000    0.000    5.250    0.000    4.875 
#
# Total GULP energy -793212.727291 kJ/mol
# GULP energy per Si atom -12393.948864 kJ/mol
# Density = 1.488572 g / cm^3
# Si number density = 14.919676 Si / 1000 Ang^3
#
#
#
# Elastic Constant Matrix: (Units=GPa)
#
#
# Indices 1 2 3 4 5 6 
#
# 1 76.1758 36.9042 47.4681 0.0000 0.0000 0.0000
# 2 36.9042 60.6699 43.1182 0.0000 0.0000 0.0000
# 3 47.4681 43.1182 104.1351 0.0000 0.0000 0.0000
# 4 0.0000 0.0000 0.0000 27.2287 0.0000 0.0000
# 5 0.0000 0.0000 0.0000 0.0000 24.0697 0.0000
# 6 0.0000 0.0000 0.0000 0.0000 0.0000 24.9990
#
#
#
# Elastic Compliance Matrix: (Units=1/GPa)
#
#
# Indices 1 2 3 4 5 6 
#
# 1 0.021013 -0.008466 -0.006073 0.000000 0.000000 0.000000
# 2 -0.008466 0.026766 -0.007224 0.000000 0.000000 0.000000
# 3 -0.006073 -0.007224 0.015362 0.000000 0.000000 0.000000
# 4 0.000000 0.000000 0.000000 0.036726 0.000000 0.000000
# 5 0.000000 0.000000 0.000000 0.000000 0.041546 0.000000
# 6 0.000000 0.000000 0.000000 0.000000 0.000000 0.040002
#
#
# Mechanical properties :
#
#
# Convention : Reuss Voigt Hill
#
# Bulk Modulus (GPa) = 50.97806 55.10686 53.04246
# Shear Modulus (GPa) = 21.60017 22.82551 22.21284
#
# Velocity S-wave (km/s) = 3.80908 3.91563 3.86272
# Velocity P-wave (km/s) = 7.32038 7.58015 7.45140
#
# Compressibility (1/GPa) = 0.01961628
#
# Stress axis : x y z
#
# Youngs Moduli (GPa) = 47.58897 37.36060 65.09405
#
# Poissons Ratio (x) = 0.31628 0.39533
# Poissons Ratio (y) = 0.40287 0.47023
# Poissons Ratio (z) = 0.28902 0.26989
#
# Static dielectric constant tensor:
#      x y z
#    x 2.860600 0.000000 0.000000 
#    y 0.000000 2.723440 0.000000 
#    z 0.000000 0.000000 3.044420 
# 
# 
# High freq. dielectric constant tensor:
#      x y z
#    x 1.572320 0.000000 0.000000 
#    y 0.000000 1.537480 0.000000 
#    z 0.000000 0.000000 1.564050 
# 
# From -- ./inp_files/27054.got.cif
#   From: 2010.03.12/outbox.cif.g09.slc.cpg/sg53_14_cif.got.tgz:27054.got - 2010.04.16 14:36:59.
