data_PCOD8218139
_publ_section_title
;
Structure prediction by ZEFSAII (Michael W. Deem and Ramdas Pophale) SiO2 
 PCOD8218139
Probable space group: P M N A
;
_chemical_formula_sum "Si O2"
_cell_formula_units_Z 48
_cell_length_a 8.960159
_cell_length_b 11.968606
_cell_length_c 25.957397
_cell_angle_alpha 90.000000
_cell_angle_beta 90.000000
_cell_angle_gamma 90.000000
_cell_volume 2783.687160
_symmetry_space_group_name_H-M "P M N A"
_symmetry_group_IT_number 53
_symmetry_cell_setting 'orthorhombic'
loop_
_space_group_symop_operation_xyz
x,y,z
1/2-x,-y,1/2+z
x,-y,-z
1/2-x,y,1/2-z
-x,-y,-z
1/2+x,y,1/2-z
-x,y,z
1/2+x,-y,1/2+z
loop_
_atom_site_type_symbol
_atom_site_label
_atom_site_fract_x
_atom_site_fract_y
_atom_site_fract_z
Si Si1 0.327922 0.972081 0.884363
Si Si2 0.325719 0.222220 0.431852
Si Si3 0.821679 0.840777 0.305451
Si Si4 0.321731 0.458897 0.056178
Si Si5 0.833136 0.149201 0.529676
Si Si6 0.830390 0.333426 0.615435
O O1 0.500000 0.940787 0.876451
O O2 0.231986 0.858242 0.885751
O O3 0.272268 0.049334 0.837219
O O4 0.304624 0.036515 0.938462
O O5 0.500000 0.241374 0.425995
O O6 0.244682 0.340518 0.428504
O O7 0.289022 0.160911 0.485406
O O8 0.750000 0.846169 0.250000
O O9 0.757771 0.730359 0.335374
O O10 0.000000 0.836124 0.302144
O O11 0.500000 0.451479 0.056723
O O12 0.259949 0.547309 0.099196
O O13 0.266791 0.500000 0.000000
O O14 0.819346 0.255651 0.565873
O O15 0.000000 0.146810 0.505251
O O16 0.000000 0.355196 0.630570
#
# Coordination Sequence:
#
# PCOD8218139 Si02
#       6
#     8   8   8   8   8   8
#     4   9  19  34  52  71  95 131 174 209 239 295
#     4  12  23  30  42  70 109 139 164 204 254 300
#     4   9  18  34  57  81 101 122 157 208 261 306
#     4  10  18  32  54  71  93 136 183 211 234 288
#     4   9  16  31  51  69  93 131 176 209 235 284
#     4   8  15  30  52  76  97 125 169 211 242 286
#
# _framework density 17.243317000000001
#
# number of rings (size 3 to 8) (size 9 to 14) (size 15 to 20)
#    0.000    2.500    1.667    4.000    0.000    3.667 
#    0.000    3.333    0.000    1.000    0.000    2.333 
#    0.000    0.000    0.000    0.000    0.000    0.000 
#
# Total GULP energy -594866.048210 kJ/mol
# GULP energy per Si atom -12393.042671 kJ/mol
# Density = 1.720407 g / cm^3
# Si number density = 17.243317 Si / 1000 Ang^3
#
#
#
# Elastic Constant Matrix: (Units=GPa)
#
#
# Indices 1 2 3 4 5 6 
#
# 1 31.1231 39.1612 16.2677 0.0000 0.0000 0.0000
# 2 39.1612 142.8642 60.3422 0.0000 0.0000 0.0000
# 3 16.2677 60.3422 81.3703 0.0000 0.0000 0.0000
# 4 0.0000 0.0000 0.0000 6.1995 0.0000 0.0000
# 5 0.0000 0.0000 0.0000 0.0000 24.5240 0.0000
# 6 0.0000 0.0000 0.0000 0.0000 0.0000 13.2836
#
#
#
# Elastic Compliance Matrix: (Units=1/GPa)
#
#
# Indices 1 2 3 4 5 6 
#
# 1 0.049050 -0.013547 0.000240 0.000000 0.000000 0.000000
# 2 -0.013547 0.013933 -0.007624 0.000000 0.000000 0.000000
# 3 0.000240 -0.007624 0.017896 0.000000 0.000000 0.000000
# 4 0.000000 0.000000 0.000000 0.161304 0.000000 0.000000
# 5 0.000000 0.000000 0.000000 0.000000 0.040776 0.000000
# 6 0.000000 0.000000 0.000000 0.000000 0.000000 0.075281
#
#
# Mechanical properties :
#
#
# Convention : Reuss Voigt Hill
#
# Bulk Modulus (GPa) = 25.63009 54.09996 39.86502
# Shear Modulus (GPa) = 12.10336 18.10719 15.10527
#
# Velocity S-wave (km/s) = 2.65224 3.24404 2.96295
# Velocity P-wave (km/s) = 4.92699 6.74346 5.90549
#
# Compressibility (1/GPa) = 0.03901665
#
# Stress axis : x y z
#
# Youngs Moduli (GPa) = 20.38718 71.77048 55.87967
#
# Poissons Ratio (x) = 0.97225 -0.01339
# Poissons Ratio (y) = 0.27618 0.42604
# Poissons Ratio (z) = -0.00489 0.54720
#
# Static dielectric constant tensor:
#      x y z
#    x 2.901130 0.000000 0.000000 
#    y 0.000000 3.522020 0.000000 
#    z 0.000000 0.000000 3.152070 
# 
# 
# High freq. dielectric constant tensor:
#      x y z
#    x 1.634340 0.000000 0.000000 
#    y 0.000000 1.679420 0.000000 
#    z 0.000000 0.000000 1.634950 
# 
# From -- ./inp_files/36139.got.cif
#   From: 2010.03.12/outbox.cif.g09.slc.cpg/sg53_19_cif.got.tgz:36139.got - 2010.04.16 14:36:59.
