data_PCOD8218254
_publ_section_title
;
Structure prediction by ZEFSAII (Michael W. Deem and Ramdas Pophale) SiO2 
 PCOD8218254
Probable space group: P M N A
;
_chemical_formula_sum "Si O2"
_cell_formula_units_Z 32
_cell_length_a 19.160044
_cell_length_b 4.952565
_cell_length_c 13.349727
_cell_angle_alpha 90.000000
_cell_angle_beta 90.000000
_cell_angle_gamma 90.000000
_cell_volume 1266.773795
_symmetry_space_group_name_H-M "P M N A"
_symmetry_group_IT_number 53
_symmetry_cell_setting 'orthorhombic'
loop_
_space_group_symop_operation_xyz
x,y,z
1/2-x,-y,1/2+z
x,-y,-z
1/2-x,y,1/2-z
-x,-y,-z
1/2+x,y,1/2-z
-x,y,z
1/2+x,-y,1/2+z
loop_
_atom_site_type_symbol
_atom_site_label
_atom_site_fract_x
_atom_site_fract_y
_atom_site_fract_z
Si Si1 0.500000 0.567273 0.783907
Si Si2 0.000000 0.070265 0.849435
Si Si3 0.647156 0.509921 0.180290
Si Si4 0.728096 0.009765 0.858788
Si Si5 0.141782 0.701136 0.092130
O O1 0.500000 0.256374 0.748925
O O2 0.570519 0.605116 0.849042
O O3 0.500000 0.760558 0.686450
O O4 0.930268 0.129807 0.912969
O O5 0.662660 0.787781 0.119875
O O6 0.649090 0.537993 0.302092
O O7 0.705051 0.300543 0.138180
O O8 0.750000 0.103288 0.750000
O O9 0.795217 0.082551 0.926102
O O10 0.143037 0.500000 0.000000
#
# Coordination Sequence:
#
# PCOD8218254 Si02
#       5
#     4   4   8   8   8
#     4  10  18  34  55  78 105 144 184 222 268 324
#     4  10  21  34  50  78 116 148 177 214 265 328
#     4  10  20  35  54  78 108 141 182 225 269 321
#     4  10  19  34  53  75 106 144 181 225 267 313
#     4  10  21  37  57  83 115 151 185 224 272 328
#
# _framework density 25.261023000000002
#
# number of rings (size 3 to 8) (size 9 to 14) (size 15 to 20)
#    0.000    2.000    0.000    7.125    0.000    2.000 
#    0.000   36.250    0.000    0.000    0.000    5.250 
#    0.000    0.000    0.000    0.750    0.000    0.000 
#
# Total GULP energy -396449.240314 kJ/mol
# GULP energy per Si atom -12389.038760 kJ/mol
# Density = 2.520353 g / cm^3
# Si number density = 25.261023 Si / 1000 Ang^3
#
#
#
# Elastic Constant Matrix: (Units=GPa)
#
#
# Indices 1 2 3 4 5 6 
#
# 1 148.0256 25.8726 12.4461 0.0000 0.0000 0.0000
# 2 25.8726 109.8786 7.4034 0.0000 0.0000 0.0000
# 3 12.4461 7.4034 38.7512 0.0000 0.0000 0.0000
# 4 0.0000 0.0000 0.0000 17.2084 0.0000 0.0000
# 5 0.0000 0.0000 0.0000 0.0000 -106.6374 0.0000
# 6 0.0000 0.0000 0.0000 0.0000 0.0000 72.7403
#
#
#
# Elastic Compliance Matrix: (Units=1/GPa)
#
#
# Indices 1 2 3 4 5 6 
#
# 1 0.007197 -0.001559 -0.002014 0.000000 0.000000 0.000000
# 2 -0.001559 0.009557 -0.001325 0.000000 0.000000 0.000000
# 3 -0.002014 -0.001325 0.026706 0.000000 0.000000 0.000000
# 4 0.000000 0.000000 0.000000 0.058111 0.000000 0.000000
# 5 0.000000 0.000000 0.000000 0.000000 -0.009378 0.000000
# 6 0.000000 0.000000 0.000000 0.000000 0.000000 0.013748
#
#
# Mechanical properties :
#
#
# Convention : Reuss Voigt Hill
#
# Bulk Modulus (GPa) = 29.70507 43.12216 36.41362
# Shear Modulus (GPa) = 39.38283 13.39116 26.38700
#
# Velocity S-wave (km/s) = 3.95275 2.30491 3.23549
# Velocity P-wave (km/s) = 5.71113 4.91845 5.32955
#
# Compressibility (1/GPa) = 0.03366428
#
# Stress axis : x y z
#
# Youngs Moduli (GPa) = 138.93889 104.63159 37.44533
#
# Poissons Ratio (x) = 0.16313 0.07541
# Poissons Ratio (y) = 0.21661 0.04962
# Poissons Ratio (z) = 0.27979 0.13866
#
# Static dielectric constant tensor:
#      x y z
#    x 5.541040 0.000000 0.000000 
#    y 0.000000 4.359650 0.000000 
#    z 0.000000 0.000000 3.967540 
# 
# 
# High freq. dielectric constant tensor:
#      x y z
#    x 2.029970 0.000000 0.000000 
#    y 0.000000 2.015810 0.000000 
#    z 0.000000 0.000000 1.954110 
# 
# From -- ./inp_files/23276.got.cif
#   From: 2010.03.12/outbox.cif.g09.slc.cpg/sg53_12_cif.got.tgz:23276.got - 2010.04.16 14:36:59.
