data_PCOD8218451
_publ_section_title
;
Structure prediction by ZEFSAII (Michael W. Deem and Ramdas Pophale) SiO2 
 PCOD8218451
Probable space group: P M N A
;
_chemical_formula_sum "Si O2"
_cell_formula_units_Z 64
_cell_length_a 8.988621
_cell_length_b 14.528249
_cell_length_c 29.886424
_cell_angle_alpha 90.000000
_cell_angle_beta 90.000000
_cell_angle_gamma 90.000000
_cell_volume 3902.835954
_symmetry_space_group_name_H-M "P M N A"
_symmetry_group_IT_number 53
_symmetry_cell_setting 'orthorhombic'
loop_
_space_group_symop_operation_xyz
x,y,z
1/2-x,-y,1/2+z
x,-y,-z
1/2-x,y,1/2-z
-x,-y,-z
1/2+x,y,1/2-z
-x,y,z
1/2+x,-y,1/2+z
loop_
_atom_site_type_symbol
_atom_site_label
_atom_site_fract_x
_atom_site_fract_y
_atom_site_fract_z
Si Si1 0.823956 0.444667 0.544183
Si Si2 0.326171 0.352995 0.294297
Si Si3 0.166264 0.257066 0.969393
Si Si4 0.174008 0.934600 0.459102
Si Si5 0.335925 0.755977 0.573128
Si Si6 0.322537 0.157474 0.204346
Si Si7 0.327517 0.430477 0.386480
Si Si8 0.672088 0.921259 0.887742
O O1 0.765672 0.500000 0.500000
O O2 0.761746 0.341962 0.548559
O O3 0.771559 0.493014 0.589824
O O4 0.000000 0.439468 0.543078
O O5 0.250000 0.394909 0.250000
O O6 0.500000 0.331434 0.286036
O O7 0.244257 0.257621 0.306939
O O8 0.306548 0.430273 0.332770
O O9 0.239716 0.160570 0.956845
O O10 0.000000 0.260227 0.948738
O O11 0.157787 0.269279 0.021832
O O12 0.000000 0.914449 0.465493
O O13 0.229719 0.000000 0.500000
O O14 0.209147 0.981248 0.410783
O O15 0.500000 0.775931 0.592630
O O16 0.266655 0.668649 0.598088
O O17 0.238169 0.844888 0.579887
O O18 0.250000 0.118435 0.250000
O O19 0.500000 0.164062 0.209826
O O20 0.274599 0.088334 0.163877
O O21 0.500000 0.444465 0.400197
O O22 0.500000 0.901064 0.889129
#
# Coordination Sequence:
#
# PCOD8218451 Si02
#       8
#     8   8   8   8   8   8   8   8
#     4  11  23  35  51  74  99 131 170 208 248 296
#     4  10  19  31  48  71 100 132 165 202 247 294
#     4  11  22  35  51  71  99 134 170 208 247 290
#     4  10  20  34  51  71  99 132 166 205 247 291
#     4  10  19  30  47  70 100 134 167 204 242 286
#     4  10  19  30  46  69  98 130 165 202 244 292
#     4  10  20  34  50  71 100 136 170 204 247 292
#     4  10  20  32  48  71  98 133 169 203 243 290
#
# _framework density 16.398332
#
# number of rings (size 3 to 8) (size 9 to 14) (size 15 to 20)
#    0.000    1.750    3.750    2.250    0.000    3.750 
#    0.000    0.000    0.000    0.000    0.000    0.875 
#    0.000    4.000    0.000    0.000    0.000    0.000 
#
# Total GULP energy -793366.050171 kJ/mol
# GULP energy per Si atom -12396.344534 kJ/mol
# Density = 1.636101 g / cm^3
# Si number density = 16.398332 Si / 1000 Ang^3
#
#
#
# Elastic Constant Matrix: (Units=GPa)
#
#
# Indices 1 2 3 4 5 6 
#
# 1 66.3410 47.6629 46.9211 0.0000 0.0000 0.0000
# 2 47.6629 91.2385 40.1838 0.0000 0.0000 0.0000
# 3 46.9211 40.1838 95.6058 0.0000 0.0000 0.0000
# 4 0.0000 0.0000 0.0000 20.8670 0.0000 0.0000
# 5 0.0000 0.0000 0.0000 0.0000 -125.6454 0.0000
# 6 0.0000 0.0000 0.0000 0.0000 0.0000 26.6004
#
#
#
# Elastic Compliance Matrix: (Units=1/GPa)
#
#
# Indices 1 2 3 4 5 6 
#
# 1 0.030476 -0.011454 -0.010143 0.000000 0.000000 0.000000
# 2 -0.011454 0.017755 -0.001841 0.000000 0.000000 0.000000
# 3 -0.010143 -0.001841 0.016211 0.000000 0.000000 0.000000
# 4 0.000000 0.000000 0.000000 0.047923 0.000000 0.000000
# 5 0.000000 0.000000 0.000000 0.000000 -0.007959 0.000000
# 6 0.000000 0.000000 0.000000 0.000000 0.000000 0.037593
#
#
# Mechanical properties :
#
#
# Convention : Reuss Voigt Hill
#
# Bulk Modulus (GPa) = 56.92596 58.08011 57.50303
# Shear Modulus (GPa) = 25.67649 -7.74109 8.96770
#
# Velocity S-wave (km/s) = 3.96131 -2.17506 2.34105
# Velocity P-wave (km/s) = 7.46408 5.40253 6.51536
#
# Compressibility (1/GPa) = 0.01756668
#
# Stress axis : x y z
#
# Youngs Moduli (GPa) = 32.81232 56.32363 61.68471
#
# Poissons Ratio (x) = 0.64511 0.62567
# Poissons Ratio (y) = 0.37582 0.11358
# Poissons Ratio (z) = 0.33282 0.10370
#
# Static dielectric constant tensor:
#      x y z
#    x 3.199720 0.000000 0.000000 
#    y 0.000000 2.897950 0.000000 
#    z 0.000000 0.000000 3.446700 
# 
# 
# High freq. dielectric constant tensor:
#      x y z
#    x 1.640000 0.000000 0.000000 
#    y 0.000000 1.602070 0.000000 
#    z 0.000000 0.000000 1.626580 
# 
# From -- ./inp_files/38419.got.cif
#   From: 2010.03.12/outbox.cif.g09.slc.cpg/sg53_20_cif.got.tgz:38419.got - 2010.04.16 14:36:59.
