data_PCOD8218964
_publ_section_title
;
Structure prediction by ZEFSAII (Michael W. Deem and Ramdas Pophale) SiO2 
 PCOD8218964
Probable space group: P M N A
;
_chemical_formula_sum "Si O2"
_cell_formula_units_Z 64
_cell_length_a 9.070663
_cell_length_b 20.986204
_cell_length_c 18.334554
_cell_angle_alpha 90.000000
_cell_angle_beta 90.000000
_cell_angle_gamma 90.000000
_cell_volume 3490.143407
_symmetry_space_group_name_H-M "P M N A"
_symmetry_group_IT_number 53
_symmetry_cell_setting 'orthorhombic'
loop_
_space_group_symop_operation_xyz
x,y,z
1/2-x,-y,1/2+z
x,-y,-z
1/2-x,y,1/2-z
-x,-y,-z
1/2+x,y,1/2-z
-x,y,z
1/2+x,-y,1/2+z
loop_
_atom_site_type_symbol
_atom_site_label
_atom_site_fract_x
_atom_site_fract_y
_atom_site_fract_z
Si Si1 0.330682 0.995470 0.585213
Si Si2 0.830007 0.570682 0.475124
Si Si3 0.828747 0.626936 0.322002
Si Si4 0.327043 0.749128 0.823973
Si Si5 0.671865 0.895987 0.823017
Si Si6 0.326866 0.880549 0.327170
Si Si7 0.171344 0.312973 0.041072
Si Si8 0.828919 0.744969 0.111856
O O1 0.500000 0.981173 0.605087
O O2 0.231373 0.936660 0.610012
O O3 0.306641 0.000000 0.500000
O O4 0.276619 0.060745 0.622512
O O5 0.790051 0.500000 0.500000
O O6 0.799253 0.578364 0.388689
O O7 0.723514 0.616510 0.520215
O O8 0.000000 0.587720 0.492406
O O9 0.750000 0.598991 0.250000
O O10 0.765959 0.696661 0.340013
O O11 0.000000 0.634461 0.305111
O O12 0.250000 0.725386 0.750000
O O13 0.500000 0.737230 0.816536
O O14 0.288749 0.822766 0.838457
O O15 0.265139 0.708913 0.890423
O O16 0.750000 0.920849 0.750000
O O17 0.500000 0.907096 0.813086
O O18 0.250000 0.886634 0.250000
O O19 0.500000 0.881004 0.313927
O O20 0.278081 0.816039 0.368047
O O21 0.000000 0.314599 0.062056
O O22 0.201967 0.265170 0.973900
O O23 0.000000 0.732726 0.129807
#
# Coordination Sequence:
#
# PCOD8218964 Si02
#       8
#     8   8   8   8   8   8   8   8
#     4  10  22  37  55  76 103 140 181 224 273 327
#     4   9  19  37  58  79 109 151 190 224 267 320
#     4  10  19  32  53  80 109 140 179 221 265 315
#     4  10  21  37  57  82 110 142 182 228 277 331
#     4  10  21  37  57  79 104 137 179 227 276 328
#     4  10  21  36  52  75 103 137 175 215 265 320
#     4  10  20  34  57  85 112 143 177 225 275 320
#     4   9  19  34  53  78 108 139 177 218 264 320
#
# _framework density 18.337354999999999
#
# number of rings (size 3 to 8) (size 9 to 14) (size 15 to 20)
#    0.000    2.250    0.000    2.250    1.750    6.000 
#    0.000    0.625    0.000    1.500    0.000    0.000 
#    0.000    0.000    0.000    0.000    0.000    0.000 
#
# Total GULP energy -793858.575938 kJ/mol
# GULP energy per Si atom -12404.040249 kJ/mol
# Density = 1.829562 g / cm^3
# Si number density = 18.337355 Si / 1000 Ang^3
#
#
#
# Elastic Constant Matrix: (Units=GPa)
#
#
# Indices 1 2 3 4 5 6 
#
# 1 76.7305 43.6517 55.1390 0.0000 0.0000 0.0000
# 2 43.6517 95.1802 67.9903 0.0000 0.0000 0.0000
# 3 55.1390 67.9903 125.9494 0.0000 0.0000 0.0000
# 4 0.0000 0.0000 0.0000 24.7801 0.0000 0.0000
# 5 0.0000 0.0000 0.0000 0.0000 35.7046 0.0000
# 6 0.0000 0.0000 0.0000 0.0000 0.0000 27.1982
#
#
#
# Elastic Compliance Matrix: (Units=1/GPa)
#
#
# Indices 1 2 3 4 5 6 
#
# 1 0.020287 -0.004817 -0.006281 0.000000 0.000000 0.000000
# 2 -0.004817 0.018245 -0.007740 0.000000 0.000000 0.000000
# 3 -0.006281 -0.007740 0.014867 0.000000 0.000000 0.000000
# 4 0.000000 0.000000 0.000000 0.040355 0.000000 0.000000
# 5 0.000000 0.000000 0.000000 0.000000 0.028008 0.000000
# 6 0.000000 0.000000 0.000000 0.000000 0.000000 0.036767
#
#
# Mechanical properties :
#
#
# Convention : Reuss Voigt Hill
#
# Bulk Modulus (GPa) = 63.60194 70.15800 66.87997
# Shear Modulus (GPa) = 24.82070 26.27519 25.54794
#
# Velocity S-wave (km/s) = 3.68307 3.78944 3.73663
# Velocity P-wave (km/s) = 7.26955 7.58216 7.42750
#
# Compressibility (1/GPa) = 0.01572279
#
# Stress axis : x y z
#
# Youngs Moduli (GPa) = 49.29375 54.81091 67.26115
#
# Poissons Ratio (x) = 0.26404 0.42244
# Poissons Ratio (y) = 0.23747 0.52059
# Poissons Ratio (z) = 0.30960 0.42423
#
# Static dielectric constant tensor:
#      x y z
#    x 3.417370 0.000000 0.000000 
#    y 0.000000 3.309210 0.000000 
#    z 0.000000 0.000000 3.369750 
# 
# 
# High freq. dielectric constant tensor:
#      x y z
#    x 1.716330 0.000000 0.000000 
#    y 0.000000 1.701200 0.000000 
#    z 0.000000 0.000000 1.718380 
# 
# From -- ./inp_files/26936.got.cif
#   From: 2010.03.12/outbox.cif.g09.slc.cpg/sg53_14_cif.got.tgz:26936.got - 2010.04.16 14:36:59.
