data_PCOD8218287
_publ_section_title
;
Structure prediction by ZEFSAII (Michael W. Deem and Ramdas Pophale) SiO2 
 PCOD8218287
Probable space group: P M N A
;
_chemical_formula_sum "Si O2"
_cell_formula_units_Z 56
_cell_length_a 15.230424
_cell_length_b 9.558744
_cell_length_c 19.818918
_cell_angle_alpha 90.000000
_cell_angle_beta 90.000000
_cell_angle_gamma 90.000000
_cell_volume 2885.311889
_symmetry_space_group_name_H-M "P M N A"
_symmetry_group_IT_number 53
_symmetry_cell_setting 'orthorhombic'
loop_
_space_group_symop_operation_xyz
x,y,z
1/2-x,-y,1/2+z
x,-y,-z
1/2-x,y,1/2-z
-x,-y,-z
1/2+x,y,1/2-z
-x,y,z
1/2+x,-y,1/2+z
loop_
_atom_site_type_symbol
_atom_site_label
_atom_site_fract_x
_atom_site_fract_y
_atom_site_fract_z
Si Si1 0.672804 0.706620 0.363019
Si Si2 0.400578 0.338215 0.500553
Si Si3 0.851313 0.554589 0.395433
Si Si4 0.597254 0.270936 0.777674
Si Si5 0.256701 0.126259 0.453359
Si Si6 0.400977 0.698637 0.971572
Si Si7 0.728119 0.964906 0.177034
O O1 0.599176 0.705945 0.420694
O O2 0.751197 0.606874 0.388878
O O3 0.640947 0.661099 0.288933
O O4 0.695998 0.868594 0.353649
O O5 0.371414 0.500000 0.500000
O O6 0.500000 0.318247 0.472480
O O7 0.332360 0.246480 0.455688
O O8 0.904057 0.599548 0.329081
O O9 0.903501 0.614191 0.459212
O O10 0.858575 0.387775 0.408164
O O11 0.500000 0.220241 0.760007
O O12 0.644470 0.137275 0.812154
O O13 0.165360 0.174656 0.486833
O O14 0.291533 0.000000 0.500000
O O15 0.225044 0.089179 0.377156
O O16 0.500000 0.748944 0.954037
O O17 0.750000 0.031443 0.250000
#
# Coordination Sequence:
#
# PCOD8218287 Si02
#       7
#     8   8   8   8   8   8   8
#     4  10  18  36  59  86 117 161 203 250 305 368
#     4  11  23  40  62  91 124 161 207 262 317 369
#     4  10  18  35  55  82 120 154 197 249 303 359
#     4  10  19  33  58  88 119 156 205 255 304 374
#     4  12  22  39  61  88 120 159 207 258 306 374
#     4  11  22  34  56  84 117 158 201 250 310 370
#     4   9  20  37  56  82 118 155 199 245 309 363
#
# _framework density 19.408646999999998
#
# number of rings (size 3 to 8) (size 9 to 14) (size 15 to 20)
#    0.000    1.571    2.857    5.143    0.000    1.143 
#    0.000    3.571    0.000    1.714    0.000    0.000 
#    0.000    0.000    0.000    0.000    0.000    0.000 
#
# Total GULP energy -693785.384594 kJ/mol
# GULP energy per Si atom -12389.024725 kJ/mol
# Density = 1.936447 g / cm^3
# Si number density = 19.408647 Si / 1000 Ang^3
#
#
#
# Elastic Constant Matrix: (Units=GPa)
#
#
# Indices 1 2 3 4 5 6 
#
# 1 105.1742 33.4678 33.6166 0.0000 0.0000 0.0000
# 2 33.4678 64.5515 28.0205 0.0000 0.0000 0.0000
# 3 33.6166 28.0205 111.8404 0.0000 0.0000 0.0000
# 4 0.0000 0.0000 0.0000 31.7890 0.0000 0.0000
# 5 0.0000 0.0000 0.0000 0.0000 24.4419 0.0000
# 6 0.0000 0.0000 0.0000 0.0000 0.0000 17.2113
#
#
#
# Elastic Compliance Matrix: (Units=1/GPa)
#
#
# Indices 1 2 3 4 5 6 
#
# 1 0.011881 -0.005172 -0.002275 0.000000 0.000000 0.000000
# 2 -0.005172 0.019634 -0.003364 0.000000 0.000000 0.000000
# 3 -0.002275 -0.003364 0.010468 0.000000 0.000000 0.000000
# 4 0.000000 0.000000 0.000000 0.031457 0.000000 0.000000
# 5 0.000000 0.000000 0.000000 0.000000 0.040913 0.000000
# 6 0.000000 0.000000 0.000000 0.000000 0.000000 0.058101
#
#
# Mechanical properties :
#
#
# Convention : Reuss Voigt Hill
#
# Bulk Modulus (GPa) = 49.11849 52.41956 50.76903
# Shear Modulus (GPa) = 24.89231 27.11918 26.00575
#
# Velocity S-wave (km/s) = 3.58514 3.74207 3.66444
# Velocity P-wave (km/s) = 6.51921 6.76297 6.64221
#
# Compressibility (1/GPa) = 0.02035893
#
# Stress axis : x y z
#
# Youngs Moduli (GPa) = 84.16656 50.93316 95.52810
#
# Poissons Ratio (x) = 0.26344 0.21736
# Poissons Ratio (y) = 0.43534 0.32139
# Poissons Ratio (z) = 0.19151 0.17136
#
# Static dielectric constant tensor:
#      x y z
#    x 3.518520 0.000000 0.000000 
#    y 0.000000 3.429330 0.000000 
#    z 0.000000 0.000000 3.881360 
# 
# 
# High freq. dielectric constant tensor:
#      x y z
#    x 1.754360 0.000000 0.000000 
#    y 0.000000 1.730360 0.000000 
#    z 0.000000 0.000000 1.758670 
# 
# From -- ./inp_files/32416.got.cif
#   From: 2010.03.12/outbox.cif.g09.slc.cpg/sg53_17_cif.got.tgz:32416.got - 2010.04.16 14:36:59.
