data_PCOD8218628
_publ_section_title
;
Structure prediction by ZEFSAII (Michael W. Deem and Ramdas Pophale) SiO2 
 PCOD8218628
Probable space group: P M N A
;
_chemical_formula_sum "Si O2"
_cell_formula_units_Z 56
_cell_length_a 9.464362
_cell_length_b 17.653156
_cell_length_c 16.082544
_cell_angle_alpha 90.000000
_cell_angle_beta 90.000000
_cell_angle_gamma 90.000000
_cell_volume 2687.004851
_symmetry_space_group_name_H-M "P M N A"
_symmetry_group_IT_number 53
_symmetry_cell_setting 'orthorhombic'
loop_
_space_group_symop_operation_xyz
x,y,z
1/2-x,-y,1/2+z
x,-y,-z
1/2-x,y,1/2-z
-x,-y,-z
1/2+x,y,1/2-z
-x,y,z
1/2+x,-y,1/2+z
loop_
_atom_site_type_symbol
_atom_site_label
_atom_site_fract_x
_atom_site_fract_y
_atom_site_fract_z
Si Si1 0.671385 0.317167 0.834622
Si Si2 0.846852 0.799303 0.680042
Si Si3 0.843926 0.870617 0.939570
Si Si4 0.662582 0.997034 0.323790
Si Si5 0.667170 0.586108 0.003872
Si Si6 0.844823 0.625060 0.676698
Si Si7 0.660023 0.166452 0.629376
O O1 0.750000 0.346497 0.750000
O O2 0.500000 0.316980 0.824002
O O3 0.720986 0.369750 0.913120
O O4 0.727186 0.232260 0.852211
O O5 0.750000 0.838652 0.750000
O O6 0.770536 0.810303 0.592238
O O7 0.865673 0.711667 0.700087
O O8 0.000000 0.838900 0.679237
O O9 0.805981 0.955877 0.908593
O O10 0.000000 0.848625 0.905572
O O11 0.840192 0.864054 0.036655
O O12 0.750000 0.036464 0.250000
O O13 0.500000 0.000968 0.300875
O O14 0.710331 0.909257 0.324990
O O15 0.500000 0.591373 0.006244
O O16 0.721696 0.500000 0.000000
O O17 0.723083 0.620577 0.916127
O O18 0.750000 0.586665 0.750000
O O19 0.000000 0.584717 0.677272
O O20 0.500000 0.193113 0.654008
#
# Coordination Sequence:
#
# PCOD8218628 Si02
#       7
#     8   8   8   8   8   8   8
#     4  11  23  40  63  90 120 155 198 245 291 344
#     4  10  19  31  48  73 105 139 177 220 270 331
#     4  10  20  34  53  77 106 141 183 233 288 341
#     4  10  21  36  53  75 105 143 186 234 288 344
#     4   9  19  37  60  85 115 151 187 225 277 341
#     4   9  18  33  54  80 109 143 182 223 270 328
#     4  10  21  38  59  81 109 147 191 238 288 343
#
# _framework density 20.841049999999999
#
# number of rings (size 3 to 8) (size 9 to 14) (size 15 to 20)
#    0.000    2.143    0.000    3.000    0.000    8.000 
#    0.000    1.429    0.000    5.571    0.000    0.000 
#    0.000    0.000    0.000    0.000    0.000    0.000 
#
# Total GULP energy -693736.967298 kJ/mol
# GULP energy per Si atom -12388.160130 kJ/mol
# Density = 2.079361 g / cm^3
# Si number density = 20.841050 Si / 1000 Ang^3
#
#
#
# Elastic Constant Matrix: (Units=GPa)
#
#
# Indices 1 2 3 4 5 6 
#
# 1 92.6899 27.3159 49.9314 0.0000 0.0000 0.0000
# 2 27.3159 66.3337 31.9440 0.0000 0.0000 0.0000
# 3 49.9314 31.9440 142.3977 0.0000 0.0000 0.0000
# 4 0.0000 0.0000 0.0000 15.7005 0.0000 0.0000
# 5 0.0000 0.0000 0.0000 0.0000 33.6741 0.0000
# 6 0.0000 0.0000 0.0000 0.0000 0.0000 12.2688
#
#
#
# Elastic Compliance Matrix: (Units=1/GPa)
#
#
# Indices 1 2 3 4 5 6 
#
# 1 0.014126 -0.003847 -0.004090 0.000000 0.000000 0.000000
# 2 -0.003847 0.017949 -0.002677 0.000000 0.000000 0.000000
# 3 -0.004090 -0.002677 0.009057 0.000000 0.000000 0.000000
# 4 0.000000 0.000000 0.000000 0.063692 0.000000 0.000000
# 5 0.000000 0.000000 0.000000 0.000000 0.029696 0.000000
# 6 0.000000 0.000000 0.000000 0.000000 0.000000 0.081508
#
#
# Mechanical properties :
#
#
# Convention : Reuss Voigt Hill
#
# Bulk Modulus (GPa) = 50.24503 57.75599 54.00051
# Shear Modulus (GPa) = 20.50086 25.14401 22.82244
#
# Velocity S-wave (km/s) = 3.13977 3.47719 3.31278
# Velocity P-wave (km/s) = 6.10780 6.62525 6.37178
#
# Compressibility (1/GPa) = 0.01990247
#
# Stress axis : x y z
#
# Youngs Moduli (GPa) = 70.79260 55.71360 110.40705
#
# Poissons Ratio (x) = 0.21435 0.45158
# Poissons Ratio (y) = 0.27236 0.29561
# Poissons Ratio (z) = 0.28955 0.14917
#
# Static dielectric constant tensor:
#      x y z
#    x 3.882790 0.000000 0.000000 
#    y 0.000000 3.630710 0.000000 
#    z 0.000000 0.000000 3.997560 
# 
# 
# High freq. dielectric constant tensor:
#      x y z
#    x 1.799680 0.000000 0.000000 
#    y 0.000000 1.803480 0.000000 
#    z 0.000000 0.000000 1.828460 
# 
# From -- ./inp_files/20456.got.cif
#   From: 2010.03.12/outbox.cif.g09.slc.cpg/sg53_11_cif.got.tgz:20456.got - 2010.04.16 14:36:59.
