data_PCOD8218997
_publ_section_title
;
Structure prediction by ZEFSAII (Michael W. Deem and Ramdas Pophale) SiO2 
 PCOD8218997
Probable space group: P M N A
;
_chemical_formula_sum "Si O2"
_cell_formula_units_Z 64
_cell_length_a 9.104817
_cell_length_b 11.164647
_cell_length_c 33.519884
_cell_angle_alpha 90.000000
_cell_angle_beta 90.000000
_cell_angle_gamma 90.000000
_cell_volume 3407.365521
_symmetry_space_group_name_H-M "P M N A"
_symmetry_group_IT_number 53
_symmetry_cell_setting 'orthorhombic'
loop_
_space_group_symop_operation_xyz
x,y,z
1/2-x,-y,1/2+z
x,-y,-z
1/2-x,y,1/2-z
-x,-y,-z
1/2+x,y,1/2-z
-x,y,z
1/2+x,-y,1/2+z
loop_
_atom_site_type_symbol
_atom_site_label
_atom_site_fract_x
_atom_site_fract_y
_atom_site_fract_z
Si Si1 0.826865 0.123348 0.628238
Si Si2 0.171654 0.109795 0.098582
Si Si3 0.831487 0.235827 0.468803
Si Si4 0.832475 0.465959 0.060129
Si Si5 0.672308 0.750349 0.209799
Si Si6 0.836084 0.645994 0.857260
Si Si7 0.332404 0.291425 0.944211
Si Si8 0.328659 0.523144 0.789406
O O1 0.778428 0.172937 0.671475
O O2 0.779588 0.216691 0.594048
O O3 0.000000 0.098566 0.626341
O O4 0.740331 0.001761 0.621226
O O5 0.246046 0.132664 0.055492
O O6 0.202742 0.223061 0.126598
O O7 0.000000 0.089344 0.091232
O O8 0.764037 0.366533 0.461715
O O9 0.820144 0.208682 0.516169
O O10 0.000000 0.236225 0.454479
O O11 0.824611 0.450119 0.107504
O O12 0.771681 0.595553 0.049492
O O13 0.000000 0.454214 0.044959
O O14 0.750000 0.798943 0.250000
O O15 0.500000 0.760896 0.216940
O O16 0.719236 0.613272 0.201304
O O17 0.717048 0.610688 0.824756
O O18 0.000000 0.643933 0.838820
O O19 0.500000 0.335504 0.938072
O O20 0.250000 0.570608 0.750000
O O21 0.500000 0.533658 0.782770
#
# Coordination Sequence:
#
# PCOD8218997 Si02
#       8
#     8   8   8   8   8   8   8   8
#     4  10  21  38  57  78 106 141 183 224 263 312
#     4  10  22  39  56  76 104 139 181 227 270 314
#     4  10  20  35  55  77 105 143 181 221 270 319
#     4  10  20  33  52  79 110 141 175 221 273 323
#     4   9  19  35  56  82 110 138 168 208 258 312
#     4   9  19  35  52  73 103 137 174 216 262 314
#     4  10  21  35  53  79 109 141 181 224 264 318
#     4  10  19  32  54  83 112 139 168 208 260 318
#
# _framework density 18.782838000000002
#
# number of rings (size 3 to 8) (size 9 to 14) (size 15 to 20)
#    0.000    2.250    0.000    3.375    0.000    8.500 
#    0.000    3.125    0.000    1.500    0.000    0.000 
#    0.000    0.000    0.000    0.000    0.000    0.000 
#
# Total GULP energy -793718.416303 kJ/mol
# GULP energy per Si atom -12401.850255 kJ/mol
# Density = 1.874009 g / cm^3
# Si number density = 18.782838 Si / 1000 Ang^3
#
#
#
# Elastic Constant Matrix: (Units=GPa)
#
#
# Indices 1 2 3 4 5 6 
#
# 1 82.4520 28.3168 48.3805 0.0000 0.0000 0.0000
# 2 28.3168 50.6140 40.1133 0.0000 0.0000 0.0000
# 3 48.3805 40.1133 130.3229 0.0000 0.0000 0.0000
# 4 0.0000 0.0000 0.0000 21.6236 0.0000 0.0000
# 5 0.0000 0.0000 0.0000 0.0000 31.9309 0.0000
# 6 0.0000 0.0000 0.0000 0.0000 0.0000 29.5080
#
#
#
# Elastic Compliance Matrix: (Units=1/GPa)
#
#
# Indices 1 2 3 4 5 6 
#
# 1 0.016728 -0.005869 -0.004404 0.000000 0.000000 0.000000
# 2 -0.005869 0.028191 -0.006499 0.000000 0.000000 0.000000
# 3 -0.004404 -0.006499 0.011308 0.000000 0.000000 0.000000
# 4 0.000000 0.000000 0.000000 0.046246 0.000000 0.000000
# 5 0.000000 0.000000 0.000000 0.000000 0.031318 0.000000
# 6 0.000000 0.000000 0.000000 0.000000 0.000000 0.033889
#
#
# Mechanical properties :
#
#
# Convention : Reuss Voigt Hill
#
# Bulk Modulus (GPa) = 44.08100 55.22332 49.65216
# Shear Modulus (GPa) = 23.94838 26.38439 25.16638
#
# Velocity S-wave (km/s) = 3.57461 3.75201 3.66438
# Velocity P-wave (km/s) = 6.36842 6.94513 6.66302
#
# Compressibility (1/GPa) = 0.02268551
#
# Stress axis : x y z
#
# Youngs Moduli (GPa) = 59.78140 35.47240 88.43106
#
# Poissons Ratio (x) = 0.20817 0.38941
# Poissons Ratio (y) = 0.35083 0.57467
# Poissons Ratio (z) = 0.26325 0.23052
#
# Static dielectric constant tensor:
#      x y z
#    x 3.469760 0.000000 0.000000 
#    y 0.000000 3.232680 0.000000 
#    z 0.000000 0.000000 3.564460 
# 
# 
# High freq. dielectric constant tensor:
#      x y z
#    x 1.735620 0.000000 0.000000 
#    y 0.000000 1.711040 0.000000 
#    z 0.000000 0.000000 1.735930 
# 
# From -- ./inp_files/38173.got.cif
#   From: 2010.03.12/outbox.cif.g09.slc.cpg/sg53_20_cif.got.tgz:38173.got - 2010.04.16 14:36:59.
