data_PCOD8218047
_publ_section_title
;
Structure prediction by ZEFSAII (Michael W. Deem and Ramdas Pophale) SiO2 
 PCOD8218047
Probable space group: P M N A
;
_chemical_formula_sum "Si O2"
_cell_formula_units_Z 48
_cell_length_a 8.669336
_cell_length_b 30.336866
_cell_length_c 9.551883
_cell_angle_alpha 90.000000
_cell_angle_beta 90.000000
_cell_angle_gamma 90.000000
_cell_volume 2512.149857
_symmetry_space_group_name_H-M "P M N A"
_symmetry_group_IT_number 53
_symmetry_cell_setting 'orthorhombic'
loop_
_space_group_symop_operation_xyz
x,y,z
1/2-x,-y,1/2+z
x,-y,-z
1/2-x,y,1/2-z
-x,-y,-z
1/2+x,y,1/2-z
-x,y,z
1/2+x,-y,1/2+z
loop_
_atom_site_type_symbol
_atom_site_label
_atom_site_fract_x
_atom_site_fract_y
_atom_site_fract_z
Si Si1 0.818373 0.540728 0.402795
Si Si2 0.179119 0.890220 0.897467
Si Si3 0.683072 0.629576 0.405514
Si Si4 0.179691 0.212506 0.103356
Si Si5 0.182044 0.282046 0.596497
Si Si6 0.181959 0.959495 0.403493
O O1 0.773310 0.500000 0.500000
O O2 0.750000 0.531706 0.250000
O O3 0.744709 0.584445 0.475724
O O4 0.000000 0.547471 0.389426
O O5 0.250000 0.906036 0.750000
O O6 0.210277 0.838864 0.922674
O O7 0.000000 0.901825 0.893555
O O8 0.257756 0.914664 0.027081
O O9 0.750000 0.629198 0.250000
O O10 0.500000 0.630614 0.406347
O O11 0.748621 0.673941 0.479023
O O12 0.250000 0.227666 0.250000
O O13 0.000000 0.224237 0.099387
O O14 0.270205 0.238476 0.984925
O O15 0.250000 0.277178 0.750000
O O16 0.000000 0.286318 0.604357
O O17 0.250000 0.965793 0.250000
O O18 0.000000 0.957055 0.390649
O O19 0.236516 0.000000 0.500000
#
# Coordination Sequence:
#
# PCOD8218047 Si02
#       6
#     8   8   8   8   8   8
#     4  10  20  34  53  77 105 137 175 218 266 321
#     4  10  21  38  61  85 113 148 186 228 273 327
#     4  10  18  31  52  76 104 138 177 220 268 322
#     4  10  21  38  58  83 113 147 184 223 274 329
#     4  11  21  35  56  81 109 142 182 227 272 321
#     4  11  24  40  60  86 116 150 188 231 278 328
#
# _framework density 19.107140999999999
#
# number of rings (size 3 to 8) (size 9 to 14) (size 15 to 20)
#    0.000    1.667    0.000    7.500    0.000    6.667 
#    0.000    0.833    0.000    2.000    0.000    0.000 
#    0.000    0.000    0.000    0.000    0.000    0.000 
#
# Total GULP energy -595272.803987 kJ/mol
# GULP energy per Si atom -12401.516750 kJ/mol
# Density = 1.906365 g / cm^3
# Si number density = 19.107141 Si / 1000 Ang^3
#
#
#
# Elastic Constant Matrix: (Units=GPa)
#
#
# Indices 1 2 3 4 5 6 
#
# 1 139.8098 64.1544 56.0425 0.0000 0.0000 0.0000
# 2 64.1544 109.4082 67.1252 0.0000 0.0000 0.0000
# 3 56.0425 67.1252 108.0899 0.0000 0.0000 0.0000
# 4 0.0000 0.0000 0.0000 32.5922 0.0000 0.0000
# 5 0.0000 0.0000 0.0000 0.0000 33.3258 0.0000
# 6 0.0000 0.0000 0.0000 0.0000 0.0000 31.2646
#
#
#
# Elastic Compliance Matrix: (Units=1/GPa)
#
#
# Indices 1 2 3 4 5 6 
#
# 1 0.010201 -0.004421 -0.002543 0.000000 0.000000 0.000000
# 2 -0.004421 0.016682 -0.008068 0.000000 0.000000 0.000000
# 3 -0.002543 -0.008068 0.015580 0.000000 0.000000 0.000000
# 4 0.000000 0.000000 0.000000 0.030682 0.000000 0.000000
# 5 0.000000 0.000000 0.000000 0.000000 0.030007 0.000000
# 6 0.000000 0.000000 0.000000 0.000000 0.000000 0.031985
#
#
# Mechanical properties :
#
#
# Convention : Reuss Voigt Hill
#
# Bulk Modulus (GPa) = 80.65028 81.32801 80.98915
# Shear Modulus (GPa) = 29.52734 30.76891 30.14813
#
# Velocity S-wave (km/s) = 3.93537 4.01725 3.97652
# Velocity P-wave (km/s) = 7.93414 8.01089 7.97261
#
# Compressibility (1/GPa) = 0.01239921
#
# Stress axis : x y z
#
# Youngs Moduli (GPa) = 98.03187 59.94401 64.18336
#
# Poissons Ratio (x) = 0.26502 0.16324
# Poissons Ratio (y) = 0.43341 0.51781
# Poissons Ratio (z) = 0.24933 0.48361
#
# Static dielectric constant tensor:
#      x y z
#    x 3.644260 0.000000 0.000000 
#    y 0.000000 4.075710 0.000000 
#    z 0.000000 0.000000 3.285830 
# 
# 
# High freq. dielectric constant tensor:
#      x y z
#    x 1.764860 0.000000 0.000000 
#    y 0.000000 1.761780 0.000000 
#    z 0.000000 0.000000 1.717430 
# 
# From -- ./inp_files/6725.got.cif
#   From: 2010.03.12/outbox.cif.g09.slc.cpg/sg53_4_cif.got.tgz:6725.got - 2010.04.16 14:36:59.
