data_PCOD8218001
_publ_section_title
;
Structure prediction by ZEFSAII (Michael W. Deem and Ramdas Pophale) SiO2 
 PCOD8218001
Probable space group: P M N A
;
_chemical_formula_sum "Si O2"
_cell_formula_units_Z 48
_cell_length_a 9.141035
_cell_length_b 11.909002
_cell_length_c 25.447442
_cell_angle_alpha 90.000000
_cell_angle_beta 90.000000
_cell_angle_gamma 90.000000
_cell_volume 2770.223909
_symmetry_space_group_name_H-M "P M N A"
_symmetry_group_IT_number 53
_symmetry_cell_setting 'orthorhombic'
loop_
_space_group_symop_operation_xyz
x,y,z
1/2-x,-y,1/2+z
x,-y,-z
1/2-x,y,1/2-z
-x,-y,-z
1/2+x,y,1/2-z
-x,y,z
1/2+x,-y,1/2+z
loop_
_atom_site_type_symbol
_atom_site_label
_atom_site_fract_x
_atom_site_fract_y
_atom_site_fract_z
Si Si1 0.327329 0.035931 0.941218
Si Si2 0.827513 0.488228 0.886250
Si Si3 0.331247 0.672480 0.695750
Si Si4 0.666837 0.653784 0.958519
Si Si5 0.164467 0.710006 0.423430
Si Si6 0.672350 0.836649 0.603255
O O1 0.500000 0.019279 0.933343
O O2 0.278227 0.163214 0.929640
O O3 0.238849 0.961636 0.898709
O O4 0.281275 0.000000 0.000000
O O5 0.785706 0.557078 0.833658
O O6 0.753368 0.548086 0.935899
O O7 0.766415 0.360758 0.883179
O O8 0.000000 0.487571 0.895279
O O9 0.250000 0.685156 0.750000
O O10 0.500000 0.669538 0.709516
O O11 0.293412 0.779482 0.659329
O O12 0.500000 0.653992 0.937434
O O13 0.746051 0.768553 0.942347
O O14 0.668381 0.646620 0.021049
O O15 0.000000 0.710359 0.400862
O O16 0.500000 0.837219 0.591829
#
# Coordination Sequence:
#
# PCOD8218001 Si02
#       6
#     8   8   8   8   8   8
#     4  10  19  34  51  72 105 144 182 214 242 292
#     4  10  21  34  48  74 106 130 164 214 262 307
#     4   9  20  37  56  78 101 126 163 214 266 316
#     4  10  18  31  49  70 101 140 176 209 244 293
#     4  10  20  32  48  71 102 141 180 207 239 296
#     4  10  20  33  50  78 108 133 170 216 262 305
#
# _framework density 17.327121000000002
#
# number of rings (size 3 to 8) (size 9 to 14) (size 15 to 20)
#    0.000    2.167    1.667    3.000    0.000    8.333 
#    0.000    0.000    0.000    1.000    0.000    0.000 
#    0.000    0.000    0.000    0.000    0.000    0.000 
#
# Total GULP energy -595135.052381 kJ/mol
# GULP energy per Si atom -12398.646925 kJ/mol
# Density = 1.728768 g / cm^3
# Si number density = 17.327121 Si / 1000 Ang^3
#
#
#
# Elastic Constant Matrix: (Units=GPa)
#
#
# Indices 1 2 3 4 5 6 
#
# 1 83.2332 54.8686 40.1565 0.0000 0.0000 0.0000
# 2 54.8686 129.7790 45.4294 0.0000 0.0000 0.0000
# 3 40.1565 45.4294 73.3101 0.0000 0.0000 0.0000
# 4 0.0000 0.0000 0.0000 13.2966 0.0000 0.0000
# 5 0.0000 0.0000 0.0000 0.0000 27.0715 0.0000
# 6 0.0000 0.0000 0.0000 0.0000 0.0000 46.4232
#
#
#
# Elastic Compliance Matrix: (Units=1/GPa)
#
#
# Indices 1 2 3 4 5 6 
#
# 1 0.019087 -0.005632 -0.006966 0.000000 0.000000 0.000000
# 2 -0.005632 0.011501 -0.004043 0.000000 0.000000 0.000000
# 3 -0.006966 -0.004043 0.019961 0.000000 0.000000 0.000000
# 4 0.000000 0.000000 0.000000 0.075207 0.000000 0.000000
# 5 0.000000 0.000000 0.000000 0.000000 0.036939 0.000000
# 6 0.000000 0.000000 0.000000 0.000000 0.000000 0.021541
#
#
# Mechanical properties :
#
#
# Convention : Reuss Voigt Hill
#
# Bulk Modulus (GPa) = 57.90116 63.02571 60.46344
# Shear Modulus (GPa) = 22.39401 27.08276 24.73839
#
# Velocity S-wave (km/s) = 3.59893 3.95780 3.78263
# Velocity P-wave (km/s) = 7.12452 7.57223 7.35178
#
# Compressibility (1/GPa) = 0.01727081
#
# Stress axis : x y z
#
# Youngs Moduli (GPa) = 52.39045 86.94547 50.09698
#
# Poissons Ratio (x) = 0.48964 0.34895
# Poissons Ratio (y) = 0.29504 0.20252
# Poissons Ratio (z) = 0.36493 0.35148
#
# Static dielectric constant tensor:
#      x y z
#    x 3.267100 0.000000 0.000000 
#    y 0.000000 3.454390 0.000000 
#    z 0.000000 0.000000 2.875600 
# 
# 
# High freq. dielectric constant tensor:
#      x y z
#    x 1.676510 0.000000 0.000000 
#    y 0.000000 1.677330 0.000000 
#    z 0.000000 0.000000 1.627520 
# 
# From -- ./inp_files/33866.got.cif
#   From: 2010.03.12/outbox.cif.g09.slc.cpg/sg53_17_cif.got.tgz:33866.got - 2010.04.16 14:36:59.
