data_PCOD8218386
_publ_section_title
;
Structure prediction by ZEFSAII (Michael W. Deem and Ramdas Pophale) SiO2 
 PCOD8218386
Probable space group: P M N A
;
_chemical_formula_sum "Si O2"
_cell_formula_units_Z 64
_cell_length_a 9.215942
_cell_length_b 20.365432
_cell_length_c 22.099526
_cell_angle_alpha 90.000000
_cell_angle_beta 90.000000
_cell_angle_gamma 90.000000
_cell_volume 4147.785783
_symmetry_space_group_name_H-M "P M N A"
_symmetry_group_IT_number 53
_symmetry_cell_setting 'orthorhombic'
loop_
_space_group_symop_operation_xyz
x,y,z
1/2-x,-y,1/2+z
x,-y,-z
1/2-x,y,1/2-z
-x,-y,-z
1/2+x,y,1/2-z
-x,y,z
1/2+x,-y,1/2+z
loop_
_atom_site_type_symbol
_atom_site_label
_atom_site_fract_x
_atom_site_fract_y
_atom_site_fract_z
Si Si1 0.836081 0.863079 0.552820
Si Si2 0.833546 0.237767 0.892942
Si Si3 0.672035 0.593831 0.537646
Si Si4 0.671146 0.637976 0.313284
Si Si5 0.335765 0.987700 0.571295
Si Si6 0.332249 0.737708 0.532999
Si Si7 0.827839 0.538943 0.087987
Si Si8 0.663885 0.887646 0.089547
O O1 0.747006 0.920109 0.586814
O O2 0.761692 0.793157 0.566497
O O3 0.833764 0.876418 0.481820
O O4 0.000000 0.862305 0.577760
O O5 0.786279 0.295654 0.848206
O O6 0.736432 0.174421 0.877306
O O7 0.000000 0.217422 0.883237
O O8 0.808445 0.261945 0.961091
O O9 0.500000 0.596169 0.531349
O O10 0.724550 0.666645 0.556835
O O11 0.718404 0.538371 0.587003
O O12 0.736104 0.573957 0.472022
O O13 0.750000 0.636419 0.250000
O O14 0.500000 0.633856 0.302802
O O15 0.729674 0.575699 0.352211
O O16 0.500000 0.983250 0.595713
O O17 0.335540 0.000000 0.500000
O O18 0.253736 0.046842 0.605453
O O19 0.500000 0.750511 0.549097
O O20 0.000000 0.545578 0.086343
O O21 0.500000 0.895960 0.113318
#
# Coordination Sequence:
#
# PCOD8218386 Si02
#       8
#     8   8   8   8   8   8   8   8
#     4   9  16  23  31  47  73 102 128 155 189 230
#     4   9  16  26  38  53  73  97 129 165 198 236
#     4   8  12  20  39  61  78  96 126 170 210 242
#     4  10  19  30  43  59  80 106 135 169 207 247
#     4   9  15  23  34  48  67  95 130 163 190 219
#     4   9  14  22  37  56  74  96 127 164 201 237
#     4   8  13  23  39  60  79  97 127 168 209 245
#     4   9  16  24  35  50  69  95 126 161 196 229
#
# _framework density 15.429919
#
# number of rings (size 3 to 8) (size 9 to 14) (size 15 to 20)
#    0.000    3.125    1.250    1.875    0.000    5.000 
#    0.000    0.000    0.000    0.750    0.000    1.750 
#    0.000    0.000    0.000    1.125    0.000   15.375 
#
# Total GULP energy -793169.827696 kJ/mol
# GULP energy per Si atom -12393.278558 kJ/mol
# Density = 1.539480 g / cm^3
# Si number density = 15.429919 Si / 1000 Ang^3
#
#
#
# Elastic Constant Matrix: (Units=GPa)
#
#
# Indices 1 2 3 4 5 6 
#
# 1 83.5384 69.2108 21.3373 0.0000 0.0000 0.0000
# 2 69.2108 170.3140 37.1383 0.0000 0.0000 0.0000
# 3 21.3373 37.1383 36.6770 0.0000 0.0000 0.0000
# 4 0.0000 0.0000 0.0000 11.0249 0.0000 0.0000
# 5 0.0000 0.0000 0.0000 0.0000 12.5746 0.0000
# 6 0.0000 0.0000 0.0000 0.0000 0.0000 13.6856
#
#
#
# Elastic Compliance Matrix: (Units=1/GPa)
#
#
# Indices 1 2 3 4 5 6 
#
# 1 0.018502 -0.006637 -0.004043 0.000000 0.000000 0.000000
# 2 -0.006637 0.009916 -0.006180 0.000000 0.000000 0.000000
# 3 -0.004043 -0.006180 0.035875 0.000000 0.000000 0.000000
# 4 0.000000 0.000000 0.000000 0.090703 0.000000 0.000000
# 5 0.000000 0.000000 0.000000 0.000000 0.079526 0.000000
# 6 0.000000 0.000000 0.000000 0.000000 0.000000 0.073070
#
#
# Mechanical properties :
#
#
# Convention : Reuss Voigt Hill
#
# Bulk Modulus (GPa) = 32.70879 60.65582 46.68230
# Shear Modulus (GPa) = 14.22465 18.31321 16.26893
#
# Velocity S-wave (km/s) = 3.03955 3.44883 3.25064
# Velocity P-wave (km/s) = 5.79334 7.43338 6.66400
#
# Compressibility (1/GPa) = 0.03057283
#
# Stress axis : x y z
#
# Youngs Moduli (GPa) = 54.04832 100.84578 27.87482
#
# Poissons Ratio (x) = 0.66931 0.11271
# Poissons Ratio (y) = 0.35872 0.17226
# Poissons Ratio (z) = 0.21853 0.62320
#
# Static dielectric constant tensor:
#      x y z
#    x 2.847800 0.000000 0.000000 
#    y 0.000000 3.322110 0.000000 
#    z 0.000000 0.000000 2.391700 
# 
# 
# High freq. dielectric constant tensor:
#      x y z
#    x 1.575730 0.000000 0.000000 
#    y 0.000000 1.611560 0.000000 
#    z 0.000000 0.000000 1.511560 
# 
# From -- ./inp_files/31332.got.cif
#   From: 2010.03.12/outbox.cif.g09.slc.cpg/sg53_16_cif.got.tgz:31332.got - 2010.04.16 14:36:59.
