data_PCOD8218094
_publ_section_title
;
Structure prediction by ZEFSAII (Michael W. Deem and Ramdas Pophale) SiO2 
 PCOD8218094
Probable space group: P M N A
;
_chemical_formula_sum "Si O2"
_cell_formula_units_Z 64
_cell_length_a 8.931329
_cell_length_b 21.619087
_cell_length_c 17.881432
_cell_angle_alpha 90.000000
_cell_angle_beta 90.000000
_cell_angle_gamma 90.000000
_cell_volume 3452.675256
_symmetry_space_group_name_H-M "P M N A"
_symmetry_group_IT_number 53
_symmetry_cell_setting 'orthorhombic'
loop_
_space_group_symop_operation_xyz
x,y,z
1/2-x,-y,1/2+z
x,-y,-z
1/2-x,y,1/2-z
-x,-y,-z
1/2+x,y,1/2-z
-x,y,z
1/2+x,-y,1/2+z
loop_
_atom_site_type_symbol
_atom_site_label
_atom_site_fract_x
_atom_site_fract_y
_atom_site_fract_z
Si Si1 0.325087 0.430207 0.980443
Si Si2 0.177735 0.764165 0.671631
Si Si3 0.324288 0.880129 0.597416
Si Si4 0.331159 0.996737 0.088880
Si Si5 0.673809 0.875330 0.424313
Si Si6 0.174361 0.627336 0.324834
Si Si7 0.670751 0.739521 0.391634
Si Si8 0.672694 0.318493 0.448877
O O1 0.500000 0.416284 0.992797
O O2 0.279395 0.416020 0.894574
O O3 0.282922 0.500000 0.000000
O O4 0.229410 0.387847 0.036062
O O5 0.250000 0.746085 0.750000
O O6 0.237093 0.830814 0.646791
O O7 0.225906 0.710585 0.615051
O O8 0.000000 0.766336 0.677897
O O9 0.500000 0.873556 0.612767
O O10 0.283342 0.867960 0.511203
O O11 0.269126 0.948143 0.622680
O O12 0.500000 0.003311 0.118706
O O13 0.266205 0.930445 0.114741
O O14 0.323848 0.000000 0.000000
O O15 0.500000 0.892009 0.417564
O O16 0.713213 0.811607 0.381616
O O17 0.250000 0.600582 0.250000
O O18 0.224667 0.698056 0.339230
O O19 0.000000 0.626963 0.311045
O O20 0.500000 0.726921 0.367810
O O21 0.694451 0.723129 0.478057
O O22 0.500000 0.319960 0.423501
#
# Coordination Sequence:
#
# PCOD8218094 Si02
#       8
#     8   8   8   8   8   8   8   8
#     4   9  19  37  60  86 115 149 187 225 267 315
#     4  12  24  37  54  76 105 142 185 231 281 333
#     4  10  18  32  50  70  99 135 176 223 276 329
#     4   9  17  27  41  68 100 131 169 216 267 320
#     4   9  16  28  47  72 101 135 171 215 272 324
#     4  10  20  34  54  81 111 145 180 219 266 317
#     4   9  17  31  52  77 106 139 175 218 266 319
#     4  10  19  35  56  81 110 140 178 223 270 321
#
# _framework density 18.536349999999999
#
# number of rings (size 3 to 8) (size 9 to 14) (size 15 to 20)
#    0.000    2.250    1.250    2.625    0.000    3.750 
#    0.000    0.625    0.000    2.250    0.000    1.750 
#    0.000    0.000    0.000    0.000    0.000    0.000 
#
# Total GULP energy -793699.783210 kJ/mol
# GULP energy per Si atom -12401.559113 kJ/mol
# Density = 1.849416 g / cm^3
# Si number density = 18.536350 Si / 1000 Ang^3
#
#
#
# Elastic Constant Matrix: (Units=GPa)
#
#
# Indices 1 2 3 4 5 6 
#
# 1 104.7733 50.4990 41.4977 0.0000 0.0000 0.0000
# 2 50.4990 129.2935 41.8026 0.0000 0.0000 0.0000
# 3 41.4977 41.8026 70.9636 0.0000 0.0000 0.0000
# 4 0.0000 0.0000 0.0000 13.0070 0.0000 0.0000
# 5 0.0000 0.0000 0.0000 0.0000 26.2743 0.0000
# 6 0.0000 0.0000 0.0000 0.0000 0.0000 33.0119
#
#
#
# Elastic Compliance Matrix: (Units=1/GPa)
#
#
# Indices 1 2 3 4 5 6 
#
# 1 0.013510 -0.003363 -0.005919 0.000000 0.000000 0.000000
# 2 -0.003363 0.010391 -0.004155 0.000000 0.000000 0.000000
# 3 -0.005919 -0.004155 0.020000 0.000000 0.000000 0.000000
# 4 0.000000 0.000000 0.000000 0.076882 0.000000 0.000000
# 5 0.000000 0.000000 0.000000 0.000000 0.038060 0.000000
# 6 0.000000 0.000000 0.000000 0.000000 0.000000 0.030292
#
#
# Mechanical properties :
#
#
# Convention : Reuss Voigt Hill
#
# Bulk Modulus (GPa) = 58.72668 63.62545 61.17607
# Shear Modulus (GPa) = 22.55462 25.87404 24.21433
#
# Velocity S-wave (km/s) = 3.49202 3.74017 3.61822
# Velocity P-wave (km/s) = 6.92890 7.28361 7.10847
#
# Compressibility (1/GPa) = 0.01702803
#
# Stress axis : x y z
#
# Youngs Moduli (GPa) = 74.02121 96.23711 49.99891
#
# Poissons Ratio (x) = 0.32362 0.29595
# Poissons Ratio (y) = 0.24892 0.20772
# Poissons Ratio (z) = 0.43814 0.39982
#
# Static dielectric constant tensor:
#      x y z
#    x 3.458960 0.000000 0.000000 
#    y 0.000000 3.486440 0.000000 
#    z 0.000000 0.000000 3.184170 
# 
# 
# High freq. dielectric constant tensor:
#      x y z
#    x 1.726680 0.000000 0.000000 
#    y 0.000000 1.719860 0.000000 
#    z 0.000000 0.000000 1.686890 
# 
# From -- ./inp_files/26766.got.cif
#   From: 2010.03.12/outbox.cif.g09.slc.cpg/sg53_14_cif.got.tgz:26766.got - 2010.04.16 14:36:59.
