data_PCOD8218283
_publ_section_title
;
Structure prediction by ZEFSAII (Michael W. Deem and Ramdas Pophale) SiO2 
 PCOD8218283
Probable space group: P M N A
;
_chemical_formula_sum "Si O2"
_cell_formula_units_Z 52
_cell_length_a 19.673443
_cell_length_b 9.048800
_cell_length_c 14.381441
_cell_angle_alpha 90.000000
_cell_angle_beta 90.000000
_cell_angle_gamma 90.000000
_cell_volume 2560.199242
_symmetry_space_group_name_H-M "P M N A"
_symmetry_group_IT_number 53
_symmetry_cell_setting 'orthorhombic'
loop_
_space_group_symop_operation_xyz
x,y,z
1/2-x,-y,1/2+z
x,-y,-z
1/2-x,y,1/2-z
-x,-y,-z
1/2+x,y,1/2-z
-x,y,z
1/2+x,-y,1/2+z
loop_
_atom_site_type_symbol
_atom_site_label
_atom_site_fract_x
_atom_site_fract_y
_atom_site_fract_z
Si Si1 0.500000 0.663301 0.042697
Si Si2 0.753379 0.157209 0.648599
Si Si3 0.244761 0.189863 0.353255
Si Si4 0.000000 0.698917 0.236674
Si Si5 0.108290 0.196947 0.082043
Si Si6 0.861180 0.176789 0.500578
Si Si7 0.603248 0.870364 0.379549
Si Si8 0.500000 0.428730 0.397544
O O1 0.500000 0.665929 0.154430
O O2 0.500000 0.500000 0.000000
O O3 0.565908 0.747836 0.005325
O O4 0.750000 0.232008 0.750000
O O5 0.814038 0.226339 0.587787
O O6 0.679979 0.184580 0.604793
O O7 0.765264 0.983766 0.656932
O O8 0.250000 0.262033 0.250000
O O9 0.311370 0.232859 0.413392
O O10 0.177388 0.241074 0.409044
O O11 0.066516 0.791783 0.206534
O O12 0.000000 0.547803 0.182372
O O13 0.066999 0.332716 0.124323
O O14 0.097043 0.045648 0.140354
O O15 0.074230 0.173030 0.980285
O O16 0.869996 0.000000 0.500000
O O17 0.500000 0.500000 0.500000
#
# Coordination Sequence:
#
# PCOD8218283 Si02
#       8
#     4   8   8   4   8   8   8   4
#     4  12  29  48  61  83 125 174 213 259 306 360
#     4   9  16  30  58  95 123 150 193 251 311 364
#     4   9  18  33  59  94 126 152 192 250 309 364
#     4  12  25  41  60  87 125 171 218 255 300 364
#     4  10  19  35  59  94 127 161 193 251 320 365
#     4  10  20  41  69  93 119 157 207 256 307 369
#     4  10  18  34  62  93 125 155 199 259 314 365
#     4  12  23  37  56  84 129 172 205 247 298 371
#
# _framework density 20.310918000000001
#
# number of rings (size 3 to 8) (size 9 to 14) (size 15 to 20)
#    0.000    1.846    3.077    1.615    0.000    3.692 
#    0.000    3.846    0.000    1.846    0.000    0.000 
#    0.000    0.000    0.000    0.000    0.000    0.000 
#
# Total GULP energy -644359.346446 kJ/mol
# GULP energy per Si atom -12391.525893 kJ/mol
# Density = 2.026469 g / cm^3
# Si number density = 20.310918 Si / 1000 Ang^3
#
#
#
# Elastic Constant Matrix: (Units=GPa)
#
#
# Indices 1 2 3 4 5 6 
#
# 1 161.7783 58.5799 66.4693 0.0000 0.0000 0.0000
# 2 58.5799 84.7258 39.3616 0.0000 0.0000 0.0000
# 3 66.4693 39.3616 144.0437 0.0000 0.0000 0.0000
# 4 0.0000 0.0000 0.0000 20.9171 0.0000 0.0000
# 5 0.0000 0.0000 0.0000 0.0000 14.7974 0.0000
# 6 0.0000 0.0000 0.0000 0.0000 0.0000 0.0791
#
#
#
# Elastic Compliance Matrix: (Units=1/GPa)
#
#
# Indices 1 2 3 4 5 6 
#
# 1 0.009172 -0.005012 -0.002863 0.000000 0.000000 0.000000
# 2 -0.005012 0.016257 -0.002130 0.000000 0.000000 0.000000
# 3 -0.002863 -0.002130 0.008846 0.000000 0.000000 0.000000
# 4 0.000000 0.000000 0.000000 0.047808 0.000000 0.000000
# 5 0.000000 0.000000 0.000000 0.000000 0.067579 0.000000
# 6 0.000000 0.000000 0.000000 0.000000 0.000000 12.635992
#
#
# Mechanical properties :
#
#
# Convention : Reuss Voigt Hill
#
# Bulk Modulus (GPa) = 70.09694 79.92993 75.01343
# Shear Modulus (GPa) = 0.39031 22.23454 11.31242
#
# Velocity S-wave (km/s) = 0.43884 3.31223 2.36257
# Velocity P-wave (km/s) = 5.90285 7.35299 6.66746
#
# Compressibility (1/GPa) = 0.01426596
#
# Stress axis : x y z
#
# Youngs Moduli (GPa) = 109.02282 61.51047 113.05137
#
# Poissons Ratio (x) = 0.30827 0.32368
# Poissons Ratio (y) = 0.54639 0.24078
# Poissons Ratio (z) = 0.31214 0.13101
#
# Static dielectric constant tensor:
#      x y z
#    x 3.838880 0.000000 0.000000 
#    y 0.000000 3.336830 0.000000 
#    z 0.000000 0.000000 3.953840 
# 
# 
# High freq. dielectric constant tensor:
#      x y z
#    x 1.806230 0.000000 0.000000 
#    y 0.000000 1.749750 0.000000 
#    z 0.000000 0.000000 1.792510 
# 
# From -- ./inp_files/24292.got.cif
#   From: 2010.03.12/outbox.cif.g09.slc.cpg/sg53_13_cif.got.tgz:24292.got - 2010.04.16 14:36:59.
