data_PCOD8218605
_publ_section_title
;
Structure prediction by ZEFSAII (Michael W. Deem and Ramdas Pophale) SiO2 
 PCOD8218605
Probable space group: P M N A
;
_chemical_formula_sum "Si O2"
_cell_formula_units_Z 64
_cell_length_a 8.810992
_cell_length_b 27.717444
_cell_length_c 14.790486
_cell_angle_alpha 90.000000
_cell_angle_beta 90.000000
_cell_angle_gamma 90.000000
_cell_volume 3612.105533
_symmetry_space_group_name_H-M "P M N A"
_symmetry_group_IT_number 53
_symmetry_cell_setting 'orthorhombic'
loop_
_space_group_symop_operation_xyz
x,y,z
1/2-x,-y,1/2+z
x,-y,-z
1/2-x,y,1/2-z
-x,-y,-z
1/2+x,y,1/2-z
-x,y,z
1/2+x,-y,1/2+z
loop_
_atom_site_type_symbol
_atom_site_label
_atom_site_fract_x
_atom_site_fract_y
_atom_site_fract_z
Si Si1 0.322575 0.887984 0.518551
Si Si2 0.680311 0.614304 0.528831
Si Si3 0.821335 0.192860 0.155706
Si Si4 0.179126 0.421634 0.842158
Si Si5 0.821314 0.027822 0.157134
Si Si6 0.820598 0.468985 0.157572
Si Si7 0.320580 0.301933 0.344392
Si Si8 0.819869 0.075231 0.655279
O O1 0.500000 0.884600 0.495643
O O2 0.265953 0.841371 0.574493
O O3 0.286480 0.935344 0.577009
O O4 0.229618 0.888948 0.425132
O O5 0.500000 0.614301 0.530968
O O6 0.736803 0.611763 0.425029
O O7 0.739639 0.566232 0.579091
O O8 0.741857 0.662849 0.576763
O O9 0.750000 0.175534 0.250000
O O10 0.770318 0.247390 0.131992
O O11 0.000000 0.188239 0.167815
O O12 0.250000 0.401129 0.750000
O O13 0.233823 0.476395 0.861661
O O14 0.000000 0.419783 0.832271
O O15 0.750000 0.048247 0.250000
O O16 0.000000 0.019759 0.170910
O O17 0.744315 0.977434 0.131237
O O18 0.750000 0.449451 0.250000
O O19 0.000000 0.466573 0.165591
O O20 0.250000 0.318941 0.250000
O O21 0.500000 0.305937 0.335025
O O22 0.750000 0.093816 0.750000
O O23 0.000000 0.073595 0.663724
#
# Coordination Sequence:
#
# PCOD8218605 Si02
#       8
#     8   8   8   8   8   8   8   8
#     4  10  20  33  49  70  96 126 159 193 230 272
#     4   9  16  27  45  65  86 117 154 184 219 272
#     4   9  18  32  50  72  98 124 150 185 228 274
#     4   9  17  29  43  60  85 117 152 188 224 264
#     4  10  19  31  48  70  99 130 158 191 229 272
#     4   9  16  26  41  62  88 117 148 183 222 266
#     4   9  17  30  48  70  94 120 148 181 225 272
#     4  11  22  35  51  70  95 126 159 195 232 272
#
# _framework density 17.718197
#
# number of rings (size 3 to 8) (size 9 to 14) (size 15 to 20)
#    0.000    2.500    0.000    3.750    0.000    4.500 
#    0.000    1.250    0.000    3.750    0.000    1.750 
#    0.000    0.000    0.000    0.000    0.000    0.000 
#
# Total GULP energy -793497.746736 kJ/mol
# GULP energy per Si atom -12398.402293 kJ/mol
# Density = 1.767787 g / cm^3
# Si number density = 17.718197 Si / 1000 Ang^3
#
#
#
# Elastic Constant Matrix: (Units=GPa)
#
#
# Indices 1 2 3 4 5 6 
#
# 1 49.1023 26.6471 40.5827 0.0000 0.0000 0.0000
# 2 26.6471 87.2601 78.8866 0.0000 0.0000 0.0000
# 3 40.5827 78.8866 166.7355 0.0000 0.0000 0.0000
# 4 0.0000 0.0000 0.0000 29.6187 0.0000 0.0000
# 5 0.0000 0.0000 0.0000 0.0000 30.6814 0.0000
# 6 0.0000 0.0000 0.0000 0.0000 0.0000 15.4298
#
#
#
# Elastic Compliance Matrix: (Units=1/GPa)
#
#
# Indices 1 2 3 4 5 6 
#
# 1 0.026237 -0.003912 -0.004535 0.000000 0.000000 0.000000
# 2 -0.003912 0.020609 -0.008798 0.000000 0.000000 0.000000
# 3 -0.004535 -0.008798 0.011264 0.000000 0.000000 0.000000
# 4 0.000000 0.000000 0.000000 0.033762 0.000000 0.000000
# 5 0.000000 0.000000 0.000000 0.000000 0.032593 0.000000
# 6 0.000000 0.000000 0.000000 0.000000 0.000000 0.064809
#
#
# Mechanical properties :
#
#
# Convention : Reuss Voigt Hill
#
# Bulk Modulus (GPa) = 42.33964 66.14786 54.24375
# Shear Modulus (GPa) = 21.58538 25.61143 23.59841
#
# Velocity S-wave (km/s) = 3.49415 3.80608 3.65344
# Velocity P-wave (km/s) = 6.34246 7.53189 6.96262
#
# Compressibility (1/GPa) = 0.02361853
#
# Stress axis : x y z
#
# Youngs Moduli (GPa) = 38.11428 48.52327 88.77890
#
# Poissons Ratio (x) = 0.18984 0.40260
# Poissons Ratio (y) = 0.14912 0.78109
# Poissons Ratio (z) = 0.17284 0.42692
#
# Static dielectric constant tensor:
#      x y z
#    x 3.125090 0.000000 0.000000 
#    y 0.000000 3.351010 0.000000 
#    z 0.000000 0.000000 3.480400 
# 
# 
# High freq. dielectric constant tensor:
#      x y z
#    x 1.669550 0.000000 0.000000 
#    y 0.000000 1.665230 0.000000 
#    z 0.000000 0.000000 1.689490 
# 
# From -- ./inp_files/20976.got.cif
#   From: 2010.03.12/outbox.cif.g09.slc.cpg/sg53_11_cif.got.tgz:20976.got - 2010.04.16 14:36:59.
