data_PCOD8218786
_publ_section_title
;
Structure prediction by ZEFSAII (Michael W. Deem and Ramdas Pophale) SiO2 
 PCOD8218786
Probable space group: P M N A
;
_chemical_formula_sum "Si O2"
_cell_formula_units_Z 48
_cell_length_a 8.852643
_cell_length_b 12.537577
_cell_length_c 25.228257
_cell_angle_alpha 90.000000
_cell_angle_beta 90.000000
_cell_angle_gamma 90.000000
_cell_volume 2800.101734
_symmetry_space_group_name_H-M "P M N A"
_symmetry_group_IT_number 53
_symmetry_cell_setting 'orthorhombic'
loop_
_space_group_symop_operation_xyz
x,y,z
1/2-x,-y,1/2+z
x,-y,-z
1/2-x,y,1/2-z
-x,-y,-z
1/2+x,y,1/2-z
-x,y,z
1/2+x,-y,1/2+z
loop_
_atom_site_type_symbol
_atom_site_label
_atom_site_fract_x
_atom_site_fract_y
_atom_site_fract_z
Si Si1 0.823519 0.524778 0.307033
Si Si2 0.175925 0.886147 0.389259
Si Si3 0.324161 0.289426 0.193125
Si Si4 0.330309 0.126389 0.504149
Si Si5 0.676378 0.865675 0.897604
Si Si6 0.821067 0.267095 0.808074
O O1 0.750000 0.518752 0.250000
O O2 0.794895 0.407663 0.332067
O O3 0.740200 0.623508 0.336462
O O4 0.000000 0.551413 0.303073
O O5 0.230673 0.838612 0.445492
O O6 0.270517 0.833305 0.342443
O O7 0.000000 0.860664 0.382442
O O8 0.210624 0.011439 0.385285
O O9 0.250000 0.271435 0.250000
O O10 0.500000 0.271070 0.202521
O O11 0.260106 0.203826 0.151313
O O12 0.500000 0.170208 0.511295
O O13 0.259629 0.174542 0.450638
O O14 0.328771 0.000000 0.500000
O O15 0.500000 0.845778 0.906644
O O16 0.750000 0.255003 0.750000
O O17 0.000000 0.270185 0.803724
#
# Coordination Sequence:
#
# PCOD8218786 Si02
#       6
#     8   8   8   8   8   8
#     4   9  16  29  48  68  91 121 158 195 231 274
#     4  10  19  32  50  71  97 128 160 194 235 282
#     4   9  18  31  48  71  98 126 157 193 233 279
#     4   9  17  30  48  70  94 123 161 199 233 274
#     4   9  18  32  49  71  98 128 159 192 234 283
#     4  11  21  33  49  70  97 126 159 197 237 281
#
# _framework density 17.142233999999998
#
# number of rings (size 3 to 8) (size 9 to 14) (size 15 to 20)
#    0.000    2.500    0.000    4.000    0.000    4.667 
#    0.000    1.667    0.000    1.000    0.000    7.000 
#    0.000    0.000    0.000    0.000    0.000    0.000 
#
# Total GULP energy -594968.209362 kJ/mol
# GULP energy per Si atom -12395.171028 kJ/mol
# Density = 1.710322 g / cm^3
# Si number density = 17.142234 Si / 1000 Ang^3
#
#
#
# Elastic Constant Matrix: (Units=GPa)
#
#
# Indices 1 2 3 4 5 6 
#
# 1 108.9069 46.8043 49.2853 0.0000 0.0000 0.0000
# 2 46.8043 76.7619 52.0365 0.0000 0.0000 0.0000
# 3 49.2853 52.0365 100.1265 0.0000 0.0000 0.0000
# 4 0.0000 0.0000 0.0000 4.3745 0.0000 0.0000
# 5 0.0000 0.0000 0.0000 0.0000 29.4267 0.0000
# 6 0.0000 0.0000 0.0000 0.0000 0.0000 64.0562
#
#
#
# Elastic Compliance Matrix: (Units=1/GPa)
#
#
# Indices 1 2 3 4 5 6 
#
# 1 0.013225 -0.005637 -0.003580 0.000000 0.000000 0.000000
# 2 -0.005637 0.022516 -0.008927 0.000000 0.000000 0.000000
# 3 -0.003580 -0.008927 0.016389 0.000000 0.000000 0.000000
# 4 0.000000 0.000000 0.000000 0.228598 0.000000 0.000000
# 5 0.000000 0.000000 0.000000 0.000000 0.033983 0.000000
# 6 0.000000 0.000000 0.000000 0.000000 0.000000 0.015611
#
#
# Mechanical properties :
#
#
# Convention : Reuss Voigt Hill
#
# Bulk Modulus (GPa) = 63.12408 64.67191 63.89799
# Shear Modulus (GPa) = 13.44483 28.74943 21.09713
#
# Velocity S-wave (km/s) = 2.80359 4.09970 3.51195
# Velocity P-wave (km/s) = 6.88359 7.76006 7.33493
#
# Compressibility (1/GPa) = 0.01584182
#
# Stress axis : x y z
#
# Youngs Moduli (GPa) = 75.61568 44.41340 61.01585
#
# Poissons Ratio (x) = 0.25034 0.21845
# Poissons Ratio (y) = 0.42621 0.54470
# Poissons Ratio (z) = 0.27073 0.39648
#
# Static dielectric constant tensor:
#      x y z
#    x 3.318890 0.000000 0.000000 
#    y 0.000000 3.673590 0.000000 
#    z 0.000000 0.000000 3.132590 
# 
# 
# High freq. dielectric constant tensor:
#      x y z
#    x 1.673800 0.000000 0.000000 
#    y 0.000000 1.649170 0.000000 
#    z 0.000000 0.000000 1.641740 
# 
# From -- ./inp_files/33911.got.cif
#   From: 2010.03.12/outbox.cif.g09.slc.cpg/sg53_17_cif.got.tgz:33911.got - 2010.04.16 14:36:59.
