data_PCOD8218914
_publ_section_title
;
Structure prediction by ZEFSAII (Michael W. Deem and Ramdas Pophale) SiO2 
 PCOD8218914
Probable space group: P M N A
;
_chemical_formula_sum "Si O2"
_cell_formula_units_Z 48
_cell_length_a 17.739764
_cell_length_b 15.844165
_cell_length_c 8.429052
_cell_angle_alpha 90.000000
_cell_angle_beta 90.000000
_cell_angle_gamma 90.000000
_cell_volume 2369.168379
_symmetry_space_group_name_H-M "P M N A"
_symmetry_group_IT_number 53
_symmetry_cell_setting 'orthorhombic'
loop_
_space_group_symop_operation_xyz
x,y,z
1/2-x,-y,1/2+z
x,-y,-z
1/2-x,y,1/2-z
-x,-y,-z
1/2+x,y,1/2-z
-x,y,z
1/2+x,-y,1/2+z
loop_
_atom_site_type_symbol
_atom_site_label
_atom_site_fract_x
_atom_site_fract_y
_atom_site_fract_z
Si Si1 0.166125 0.993468 0.685733
Si Si2 0.832176 0.500310 0.188482
Si Si3 0.836233 0.831839 0.192101
Si Si4 0.588980 0.157011 0.357052
Si Si5 0.584067 0.335488 0.696959
Si Si6 0.917003 0.660706 0.818751
O O1 0.250000 0.977659 0.750000
O O2 0.128968 0.081414 0.741813
O O3 0.171150 0.000000 0.500000
O O4 0.110576 0.919399 0.742249
O O5 0.750000 0.515568 0.250000
O O6 0.879776 0.577758 0.260568
O O7 0.861155 0.409693 0.252625
O O8 0.836244 0.500000 0.000000
O O9 0.750000 0.828643 0.250000
O O10 0.873808 0.747473 0.263787
O O11 0.852622 0.839313 0.004139
O O12 0.500000 0.150574 0.409707
O O13 0.601346 0.244516 0.258209
O O14 0.500000 0.331789 0.763771
O O15 0.586811 0.334953 0.508177
O O16 0.000000 0.632286 0.764774
#
# Coordination Sequence:
#
# PCOD8218914 Si02
#       6
#     8   8   8   8   8   8
#     4  11  23  39  58  82 113 149 190 235 285 338
#     4  10  19  32  52  79 108 138 177 221 265 320
#     4  10  19  34  56  83 113 146 186 229 278 335
#     4  10  21  38  60  85 114 149 189 235 285 336
#     4   9  17  31  54  80 106 140 181 225 270 320
#     4   8  16  32  54  79 105 138 181 224 268 320
#
# _framework density 20.260273999999999
#
# number of rings (size 3 to 8) (size 9 to 14) (size 15 to 20)
#    0.000    2.333    0.000    5.000    0.000    5.000 
#    0.000    5.000    0.000    4.000    0.000    0.000 
#    0.000    0.000    0.000    0.000    0.000    0.000 
#
# Total GULP energy -594791.662950 kJ/mol
# GULP energy per Si atom -12391.492978 kJ/mol
# Density = 2.021416 g / cm^3
# Si number density = 20.260274 Si / 1000 Ang^3
#
#
#
# Elastic Constant Matrix: (Units=GPa)
#
#
# Indices 1 2 3 4 5 6 
#
# 1 122.7446 80.5117 29.8674 0.0000 0.0000 0.0000
# 2 80.5117 213.8051 30.4545 0.0000 0.0000 0.0000
# 3 29.8674 30.4545 49.3773 0.0000 0.0000 0.0000
# 4 0.0000 0.0000 0.0000 43.6945 0.0000 0.0000
# 5 0.0000 0.0000 0.0000 0.0000 11.0455 0.0000
# 6 0.0000 0.0000 0.0000 0.0000 0.0000 36.9280
#
#
#
# Elastic Compliance Matrix: (Units=1/GPa)
#
#
# Indices 1 2 3 4 5 6 
#
# 1 0.011777 -0.003750 -0.004811 0.000000 0.000000 0.000000
# 2 -0.003750 0.006321 -0.001631 0.000000 0.000000 0.000000
# 3 -0.004811 -0.001631 0.024168 0.000000 0.000000 0.000000
# 4 0.000000 0.000000 0.000000 0.022886 0.000000 0.000000
# 5 0.000000 0.000000 0.000000 0.000000 0.090534 0.000000
# 6 0.000000 0.000000 0.000000 0.000000 0.000000 0.027080
#
#
# Mechanical properties :
#
#
# Convention : Reuss Voigt Hill
#
# Bulk Modulus (GPa) = 45.69609 74.17712 59.93660
# Shear Modulus (GPa) = 23.75921 34.67318 29.21619
#
# Velocity S-wave (km/s) = 3.42818 4.14138 3.80154
# Velocity P-wave (km/s) = 6.18655 7.71749 6.99403
#
# Compressibility (1/GPa) = 0.02188371
#
# Stress axis : x y z
#
# Youngs Moduli (GPa) = 84.91024 158.19252 41.37668
#
# Poissons Ratio (x) = 0.59315 0.19907
# Poissons Ratio (y) = 0.31838 0.06748
# Poissons Ratio (z) = 0.40851 0.25798
#
# Static dielectric constant tensor:
#      x y z
#    x 3.828560 0.000000 0.000000 
#    y 0.000000 4.443350 0.000000 
#    z 0.000000 0.000000 3.172050 
# 
# 
# High freq. dielectric constant tensor:
#      x y z
#    x 1.789370 0.000000 0.000000 
#    y 0.000000 1.824620 0.000000 
#    z 0.000000 0.000000 1.741480 
# 
# From -- ./inp_files/9912.got.cif
#   From: 2010.03.12/outbox.cif.g09.slc.cpg/sg53_5_cif.got.tgz:9912.got - 2010.04.16 14:36:59.
