data_PCOD8218993
_publ_section_title
;
Structure prediction by ZEFSAII (Michael W. Deem and Ramdas Pophale) SiO2 
 PCOD8218993
Probable space group: P M N A
;
_chemical_formula_sum "Si O2"
_cell_formula_units_Z 64
_cell_length_a 9.018663
_cell_length_b 20.949302
_cell_length_c 18.425157
_cell_angle_alpha 90.000000
_cell_angle_beta 90.000000
_cell_angle_gamma 90.000000
_cell_volume 3481.151415
_symmetry_space_group_name_H-M "P M N A"
_symmetry_group_IT_number 53
_symmetry_cell_setting 'orthorhombic'
loop_
_space_group_symop_operation_xyz
x,y,z
1/2-x,-y,1/2+z
x,-y,-z
1/2-x,y,1/2-z
-x,-y,-z
1/2+x,y,1/2-z
-x,y,z
1/2+x,-y,1/2+z
loop_
_atom_site_type_symbol
_atom_site_label
_atom_site_fract_x
_atom_site_fract_y
_atom_site_fract_z
Si Si1 0.172298 0.007642 0.582126
Si Si2 0.829152 0.570516 0.473984
Si Si3 0.828173 0.626947 0.322009
Si Si4 0.324495 0.747263 0.824263
Si Si5 0.670539 0.891087 0.820407
Si Si6 0.325213 0.882971 0.327848
Si Si7 0.172360 0.312525 0.039915
Si Si8 0.828015 0.745647 0.111512
O O1 0.204942 0.937847 0.613830
O O2 0.000000 0.026959 0.589447
O O3 0.223726 0.000000 0.500000
O O4 0.270267 0.060566 0.620892
O O5 0.789524 0.500000 0.500000
O O6 0.798980 0.577562 0.387783
O O7 0.720489 0.616722 0.517415
O O8 0.000000 0.588016 0.491227
O O9 0.750000 0.599371 0.250000
O O10 0.766276 0.696885 0.340603
O O11 0.000000 0.634793 0.305044
O O12 0.250000 0.722508 0.750000
O O13 0.500000 0.739761 0.817684
O O14 0.273271 0.820090 0.839631
O O15 0.267612 0.705674 0.890629
O O16 0.750000 0.919364 0.750000
O O17 0.500000 0.888433 0.800197
O O18 0.250000 0.888343 0.250000
O O19 0.500000 0.889180 0.317207
O O20 0.280804 0.816718 0.366206
O O21 0.000000 0.312383 0.060450
O O22 0.206608 0.263812 0.973871
O O23 0.000000 0.732155 0.127632
#
# Coordination Sequence:
#
# PCOD8218993 Si02
#       8
#     8   8   8   8   8   8   8   8
#     4  10  22  38  55  77 106 139 178 224 272 325
#     4   9  19  37  58  80 109 148 189 224 263 316
#     4  10  19  32  54  82 110 142 180 222 268 316
#     4  10  20  35  56  81 108 140 181 226 275 328
#     4   9  19  35  54  76 100 134 176 221 270 322
#     4  11  23  38  55  78 107 142 180 221 271 323
#     4  10  20  35  56  83 113 143 177 223 273 321
#     4   9  20  36  54  79 111 143 179 221 267 321
#
# _framework density 18.384722
#
# number of rings (size 3 to 8) (size 9 to 14) (size 15 to 20)
#    0.000    2.250    0.000    2.250    1.750    5.500 
#    0.000    0.625    0.000    1.500    0.000    0.000 
#    0.000    0.000    0.000    0.000    0.000    0.000 
#
# Total GULP energy -793770.123490 kJ/mol
# GULP energy per Si atom -12402.658180 kJ/mol
# Density = 1.834288 g / cm^3
# Si number density = 18.384722 Si / 1000 Ang^3
#
#
#
# Elastic Constant Matrix: (Units=GPa)
#
#
# Indices 1 2 3 4 5 6 
#
# 1 78.3575 43.9747 61.3593 0.0000 0.0000 0.0000
# 2 43.9747 88.5646 63.3718 0.0000 0.0000 0.0000
# 3 61.3593 63.3718 149.1527 0.0000 0.0000 0.0000
# 4 0.0000 0.0000 0.0000 21.0737 0.0000 0.0000
# 5 0.0000 0.0000 0.0000 0.0000 31.4435 0.0000
# 6 0.0000 0.0000 0.0000 0.0000 0.0000 29.4706
#
#
#
# Elastic Compliance Matrix: (Units=1/GPa)
#
#
# Indices 1 2 3 4 5 6 
#
# 1 0.020871 -0.006062 -0.006010 0.000000 0.000000 0.000000
# 2 -0.006062 0.017984 -0.005147 0.000000 0.000000 0.000000
# 3 -0.006010 -0.005147 0.011364 0.000000 0.000000 0.000000
# 4 0.000000 0.000000 0.000000 0.047453 0.000000 0.000000
# 5 0.000000 0.000000 0.000000 0.000000 0.031803 0.000000
# 6 0.000000 0.000000 0.000000 0.000000 0.000000 0.033932
#
#
# Mechanical properties :
#
#
# Convention : Reuss Voigt Hill
#
# Bulk Modulus (GPa) = 63.37295 72.60960 67.99128
# Shear Modulus (GPa) = 24.61772 26.22215 25.41994
#
# Velocity S-wave (km/s) = 3.66325 3.78074 3.72246
# Velocity P-wave (km/s) = 7.24139 7.65760 7.45241
#
# Compressibility (1/GPa) = 0.01577960
#
# Stress axis : x y z
#
# Youngs Moduli (GPa) = 47.91444 55.60394 87.99745
#
# Poissons Ratio (x) = 0.33709 0.52887
# Poissons Ratio (y) = 0.29047 0.45294
# Poissons Ratio (z) = 0.28797 0.28621
#
# Static dielectric constant tensor:
#      x y z
#    x 3.418380 0.000000 0.000000 
#    y 0.000000 3.310600 0.000000 
#    z 0.000000 0.000000 3.525920 
# 
# 
# High freq. dielectric constant tensor:
#      x y z
#    x 1.719100 0.000000 0.000000 
#    y 0.000000 1.702010 0.000000 
#    z 0.000000 0.000000 1.721330 
# 
# From -- ./inp_files/26937.got.cif
#   From: 2010.03.12/outbox.cif.g09.slc.cpg/sg53_14_cif.got.tgz:26937.got - 2010.04.16 14:36:59.
