data_PCOD8218708
_publ_section_title
;
Structure prediction by ZEFSAII (Michael W. Deem and Ramdas Pophale) SiO2 
 PCOD8218708
Probable space group: P M N A
;
_chemical_formula_sum "Si O2"
_cell_formula_units_Z 56
_cell_length_a 9.281547
_cell_length_b 18.741887
_cell_length_c 17.160180
_cell_angle_alpha 90.000000
_cell_angle_beta 90.000000
_cell_angle_gamma 90.000000
_cell_volume 2985.076890
_symmetry_space_group_name_H-M "P M N A"
_symmetry_group_IT_number 53
_symmetry_cell_setting 'orthorhombic'
loop_
_space_group_symop_operation_xyz
x,y,z
1/2-x,-y,1/2+z
x,-y,-z
1/2-x,y,1/2-z
-x,-y,-z
1/2+x,y,1/2-z
-x,y,z
1/2+x,-y,1/2+z
loop_
_atom_site_type_symbol
_atom_site_label
_atom_site_fract_x
_atom_site_fract_y
_atom_site_fract_z
Si Si1 0.330444 0.162851 0.831924
Si Si2 0.834974 0.219914 0.082749
Si Si3 0.338679 0.912129 0.674461
Si Si4 0.831264 0.359313 0.170901
Si Si5 0.334805 0.045495 0.574954
Si Si6 0.664087 0.718513 0.055070
Si Si7 0.331991 0.578369 0.973655
O O1 0.250000 0.151852 0.750000
O O2 0.500000 0.145399 0.821004
O O3 0.265566 0.111785 0.900082
O O4 0.307602 0.245728 0.859868
O O5 0.783063 0.141258 0.107497
O O6 0.804645 0.276104 0.152061
O O7 0.000000 0.221828 0.058192
O O8 0.750987 0.235534 0.005427
O O9 0.250000 0.898212 0.750000
O O10 0.500000 0.889439 0.695327
O O11 0.328526 0.993486 0.648824
O O12 0.750000 0.379665 0.250000
O O13 0.000000 0.377594 0.179199
O O14 0.764595 0.405298 0.101077
O O15 0.500000 0.071210 0.559072
O O16 0.278693 0.000000 0.500000
O O17 0.500000 0.729713 0.031829
O O18 0.702570 0.634204 0.044986
O O19 0.500000 0.582012 0.950249
O O20 0.286852 0.500000 0.000000
#
# Coordination Sequence:
#
# PCOD8218708 Si02
#       7
#     8   8   8   8   8   8   8
#     4  11  23  38  56  78 106 140 181 228 273 320
#     4   9  18  32  51  75 102 134 170 206 249 303
#     4  10  20  32  47  70  99 130 164 204 250 299
#     4  10  19  31  50  77 108 140 174 211 253 307
#     4  10  21  37  56  76 101 135 175 220 270 321
#     4   9  19  35  55  79 103 131 170 211 255 310
#     4   9  18  35  58  80 106 139 172 213 266 320
#
# _framework density 18.759986000000001
#
# number of rings (size 3 to 8) (size 9 to 14) (size 15 to 20)
#    0.000    2.286    0.000    2.571    0.000    5.714 
#    0.000    0.714    0.000    1.714    0.000    0.000 
#    0.000    0.000    0.000    0.000    0.000    0.000 
#
# Total GULP energy -694044.745669 kJ/mol
# GULP energy per Si atom -12393.656173 kJ/mol
# Density = 1.871729 g / cm^3
# Si number density = 18.759986 Si / 1000 Ang^3
#
#
#
# Elastic Constant Matrix: (Units=GPa)
#
#
# Indices 1 2 3 4 5 6 
#
# 1 77.9199 42.8147 46.8888 0.0000 0.0000 0.0000
# 2 42.8147 111.5036 42.7308 0.0000 0.0000 0.0000
# 3 46.8888 42.7308 83.4201 0.0000 0.0000 0.0000
# 4 0.0000 0.0000 0.0000 21.8048 0.0000 0.0000
# 5 0.0000 0.0000 0.0000 0.0000 30.3188 0.0000
# 6 0.0000 0.0000 0.0000 0.0000 0.0000 23.7134
#
#
#
# Elastic Compliance Matrix: (Units=1/GPa)
#
#
# Indices 1 2 3 4 5 6 
#
# 1 0.020999 -0.004404 -0.009547 0.000000 0.000000 0.000000
# 2 -0.004404 0.012083 -0.003714 0.000000 0.000000 0.000000
# 3 -0.009547 -0.003714 0.019256 0.000000 0.000000 0.000000
# 4 0.000000 0.000000 0.000000 0.045862 0.000000 0.000000
# 5 0.000000 0.000000 0.000000 0.000000 0.032983 0.000000
# 6 0.000000 0.000000 0.000000 0.000000 0.000000 0.042170
#
#
# Mechanical properties :
#
#
# Convention : Reuss Voigt Hill
#
# Bulk Modulus (GPa) = 58.79742 59.74579 59.27161
# Shear Modulus (GPa) = 23.32629 24.52801 23.92715
#
# Velocity S-wave (km/s) = 3.53002 3.61981 3.57520
# Velocity P-wave (km/s) = 6.92999 7.02761 6.97897
#
# Compressibility (1/GPa) = 0.01700755
#
# Stress axis : x y z
#
# Youngs Moduli (GPa) = 47.62215 82.76355 51.93238
#
# Poissons Ratio (x) = 0.36452 0.49579
# Poissons Ratio (y) = 0.20975 0.19285
# Poissons Ratio (z) = 0.45464 0.30734
#
# Static dielectric constant tensor:
#      x y z
#    x 3.455250 0.000000 0.000000 
#    y 0.000000 3.627080 0.000000 
#    z 0.000000 0.000000 3.298820 
# 
# 
# High freq. dielectric constant tensor:
#      x y z
#    x 1.728080 0.000000 0.000000 
#    y 0.000000 1.727640 0.000000 
#    z 0.000000 0.000000 1.719750 
# 
# From -- ./inp_files/20543.got.cif
#   From: 2010.03.12/outbox.cif.g09.slc.cpg/sg53_11_cif.got.tgz:20543.got - 2010.04.16 14:36:59.
