data_PCOD8218520
_publ_section_title
;
Structure prediction by ZEFSAII (Michael W. Deem and Ramdas Pophale) SiO2 
 PCOD8218520
Probable space group: P M N A
;
_chemical_formula_sum "Si O2"
_cell_formula_units_Z 64
_cell_length_a 9.050740
_cell_length_b 19.634628
_cell_length_c 20.826733
_cell_angle_alpha 90.000000
_cell_angle_beta 90.000000
_cell_angle_gamma 90.000000
_cell_volume 3701.075257
_symmetry_space_group_name_H-M "P M N A"
_symmetry_group_IT_number 53
_symmetry_cell_setting 'orthorhombic'
loop_
_space_group_symop_operation_xyz
x,y,z
1/2-x,-y,1/2+z
x,-y,-z
1/2-x,y,1/2-z
-x,-y,-z
1/2+x,y,1/2-z
-x,y,z
1/2+x,-y,1/2+z
loop_
_atom_site_type_symbol
_atom_site_label
_atom_site_fract_x
_atom_site_fract_y
_atom_site_fract_z
Si Si1 0.325308 0.170777 0.512423
Si Si2 0.327073 0.819618 0.876572
Si Si3 0.823995 0.539343 0.062750
Si Si4 0.173176 0.321226 0.985954
Si Si5 0.673772 0.685393 0.630585
Si Si6 0.173809 0.458610 0.185173
Si Si7 0.825486 0.043535 0.561852
Si Si8 0.328934 0.039676 0.185304
O O1 0.500000 0.160331 0.506386
O O2 0.255322 0.162561 0.442407
O O3 0.286948 0.246130 0.540730
O O4 0.256162 0.116147 0.560787
O O5 0.500000 0.811369 0.891466
O O6 0.261843 0.751437 0.843618
O O7 0.297364 0.880928 0.827464
O O8 0.764525 0.617695 0.058763
O O9 0.761277 0.504170 0.127005
O O10 0.000000 0.534682 0.064802
O O11 0.764853 0.500000 0.000000
O O12 0.000000 0.332002 0.989346
O O13 0.231832 0.329356 0.058595
O O14 0.500000 0.701997 0.631352
O O15 0.713198 0.620577 0.673858
O O16 0.250000 0.484058 0.250000
O O17 0.000000 0.468827 0.191724
O O18 0.000000 0.055752 0.561442
O O19 0.776933 0.000000 0.500000
O O20 0.770733 0.004717 0.625384
O O21 0.250000 0.015656 0.250000
O O22 0.500000 0.025455 0.194912
#
# Coordination Sequence:
#
# PCOD8218520 Si02
#       8
#     8   8   8   8   8   8   8   8
#     4  10  19  30  50  81 107 128 163 215 257 295
#     4  10  19  33  50  71 102 140 171 200 249 306
#     4   9  14  26  51  75  93 125 170 210 247 288
#     4   8  14  26  46  74 101 120 157 212 253 284
#     4   9  17  30  47  71  99 129 167 210 246 289
#     4  10  20  32  49  72 101 134 168 208 254 303
#     4  10  19  36  56  74 102 136 170 207 253 307
#     4  10  22  37  53  73 100 135 170 209 250 296
#
# _framework density 17.292272000000001
#
# number of rings (size 3 to 8) (size 9 to 14) (size 15 to 20)
#    0.000    2.500    2.500    1.500    0.000    2.750 
#    0.000    2.500    0.000    4.875    0.000    3.500 
#    0.000    0.000    0.000    0.000    0.000    0.000 
#
# Total GULP energy -793377.834009 kJ/mol
# GULP energy per Si atom -12396.528656 kJ/mol
# Density = 1.725291 g / cm^3
# Si number density = 17.292272 Si / 1000 Ang^3
#
#
#
# Elastic Constant Matrix: (Units=GPa)
#
#
# Indices 1 2 3 4 5 6 
#
# 1 40.6582 38.0423 32.6278 0.0000 0.0000 0.0000
# 2 38.0423 116.3701 64.0570 0.0000 0.0000 0.0000
# 3 32.6278 64.0570 119.6980 0.0000 0.0000 0.0000
# 4 0.0000 0.0000 0.0000 21.9403 0.0000 0.0000
# 5 0.0000 0.0000 0.0000 0.0000 25.4808 0.0000
# 6 0.0000 0.0000 0.0000 0.0000 0.0000 16.3187
#
#
#
# Elastic Compliance Matrix: (Units=1/GPa)
#
#
# Indices 1 2 3 4 5 6 
#
# 1 0.037588 -0.009424 -0.005203 0.000000 0.000000 0.000000
# 2 -0.009424 0.014545 -0.005215 0.000000 0.000000 0.000000
# 3 -0.005203 -0.005215 0.012563 0.000000 0.000000 0.000000
# 4 0.000000 0.000000 0.000000 0.045578 0.000000 0.000000
# 5 0.000000 0.000000 0.000000 0.000000 0.039245 0.000000
# 6 0.000000 0.000000 0.000000 0.000000 0.000000 0.061279
#
#
# Mechanical properties :
#
#
# Convention : Reuss Voigt Hill
#
# Bulk Modulus (GPa) = 39.97912 60.68671 50.33292
# Shear Modulus (GPa) = 19.31852 22.21457 20.76654
#
# Velocity S-wave (km/s) = 3.34604 3.58809 3.46918
# Velocity P-wave (km/s) = 6.17235 7.23442 6.72438
#
# Compressibility (1/GPa) = 0.02501306
#
# Stress axis : x y z
#
# Youngs Moduli (GPa) = 26.60425 68.75417 79.59750
#
# Poissons Ratio (x) = 0.64794 0.41411
# Poissons Ratio (y) = 0.25072 0.41508
# Poissons Ratio (z) = 0.13841 0.35854
#
# Static dielectric constant tensor:
#      x y z
#    x 2.965750 0.000000 0.000000 
#    y 0.000000 3.531550 0.000000 
#    z 0.000000 0.000000 3.080720 
# 
# 
# High freq. dielectric constant tensor:
#      x y z
#    x 1.642450 0.000000 0.000000 
#    y 0.000000 1.676100 0.000000 
#    z 0.000000 0.000000 1.642980 
# 
# From -- ./inp_files/31327.got.cif
#   From: 2010.03.12/outbox.cif.g09.slc.cpg/sg53_16_cif.got.tgz:31327.got - 2010.04.16 14:36:59.
