data_PCOD8218780
_publ_section_title
;
Structure prediction by ZEFSAII (Michael W. Deem and Ramdas Pophale) SiO2 
 PCOD8218780
Probable space group: P M N A
;
_chemical_formula_sum "Si O2"
_cell_formula_units_Z 48
_cell_length_a 18.062755
_cell_length_b 17.292309
_cell_length_c 7.367560
_cell_angle_alpha 90.000000
_cell_angle_beta 90.000000
_cell_angle_gamma 90.000000
_cell_volume 2301.233354
_symmetry_space_group_name_H-M "P M N A"
_symmetry_group_IT_number 53
_symmetry_cell_setting 'orthorhombic'
loop_
_space_group_symop_operation_xyz
x,y,z
1/2-x,-y,1/2+z
x,-y,-z
1/2-x,y,1/2-z
-x,-y,-z
1/2+x,y,1/2-z
-x,y,z
1/2+x,-y,1/2+z
loop_
_atom_site_type_symbol
_atom_site_label
_atom_site_fract_x
_atom_site_fract_y
_atom_site_fract_z
Si Si1 0.162418 0.800548 0.751073
Si Si2 0.916945 0.355962 0.242088
Si Si3 0.418161 0.651086 0.311357
Si Si4 0.835377 0.504744 0.211351
Si Si5 0.414810 0.089403 0.975991
Si Si6 0.414011 0.181611 0.627094
O O1 0.250000 0.790989 0.750000
O O2 0.127211 0.719020 0.689002
O O3 0.139399 0.864806 0.607210
O O4 0.135694 0.828968 0.949061
O O5 0.877233 0.434391 0.312661
O O6 0.000000 0.353161 0.321651
O O7 0.917837 0.356022 0.026758
O O8 0.500000 0.634458 0.234552
O O9 0.364147 0.588283 0.217828
O O10 0.392949 0.738700 0.266307
O O11 0.750000 0.496363 0.250000
O O12 0.852752 0.500000 0.000000
O O13 0.500000 0.107967 0.026798
O O14 0.399306 0.111681 0.765995
O O15 0.396385 0.000000 0.000000
O O16 0.500000 0.185593 0.565070
#
# Coordination Sequence:
#
# PCOD8218780 Si02
#       6
#     8   8   8   8   8   8
#     4  11  22  38  59  92 125 160 193 246 309 364
#     4   9  17  33  58  80 106 150 203 243 281 342
#     4   8  15  31  54  78 105 146 197 237 282 341
#     4  10  19  32  49  77 112 149 185 236 291 347
#     4  10  22  42  66  92 119 156 205 249 294 357
#     4   9  19  39  64  89 118 158 205 251 294 353
#
# _framework density 20.858381000000001
#
# number of rings (size 3 to 8) (size 9 to 14) (size 15 to 20)
#    0.000    2.500    0.000    3.500    0.000    3.333 
#   15.000    2.500    0.000    1.000    0.000    0.000 
#    0.000    0.000    0.000    0.000    0.000    0.000 
#
# Total GULP energy -595122.965439 kJ/mol
# GULP energy per Si atom -12398.395113 kJ/mol
# Density = 2.081091 g / cm^3
# Si number density = 20.858381 Si / 1000 Ang^3
#
#
#
# Elastic Constant Matrix: (Units=GPa)
#
#
# Indices 1 2 3 4 5 6 
#
# 1 148.5799 57.8372 28.8251 0.0000 0.0000 0.0000
# 2 57.8372 116.7832 31.9662 0.0000 0.0000 0.0000
# 3 28.8251 31.9662 59.8865 0.0000 0.0000 0.0000
# 4 0.0000 0.0000 0.0000 18.3478 0.0000 0.0000
# 5 0.0000 0.0000 0.0000 0.0000 19.4825 0.0000
# 6 0.0000 0.0000 0.0000 0.0000 0.0000 39.6205
#
#
#
# Elastic Compliance Matrix: (Units=1/GPa)
#
#
# Indices 1 2 3 4 5 6 
#
# 1 0.008574 -0.003650 -0.002179 0.000000 0.000000 0.000000
# 2 -0.003650 0.011582 -0.004425 0.000000 0.000000 0.000000
# 3 -0.002179 -0.004425 0.020109 0.000000 0.000000 0.000000
# 4 0.000000 0.000000 0.000000 0.054503 0.000000 0.000000
# 5 0.000000 0.000000 0.000000 0.000000 0.051328 0.000000
# 6 0.000000 0.000000 0.000000 0.000000 0.000000 0.025239
#
#
# Mechanical properties :
#
#
# Convention : Reuss Voigt Hill
#
# Bulk Modulus (GPa) = 50.61491 62.50074 56.55783
# Shear Modulus (GPa) = 25.19805 29.26490 27.23148
#
# Velocity S-wave (km/s) = 3.47948 3.74977 3.61715
# Velocity P-wave (km/s) = 6.36090 6.98406 6.67975
#
# Compressibility (1/GPa) = 0.01975703
#
# Stress axis : x y z
#
# Youngs Moduli (GPa) = 116.63419 86.34235 49.72885
#
# Poissons Ratio (x) = 0.31514 0.10834
# Poissons Ratio (y) = 0.42570 0.22007
# Poissons Ratio (z) = 0.25410 0.38210
#
# Static dielectric constant tensor:
#      x y z
#    x 3.664720 0.000000 0.000000 
#    y 0.000000 4.098710 0.000000 
#    z 0.000000 0.000000 3.477960 
# 
# 
# High freq. dielectric constant tensor:
#      x y z
#    x 1.807200 0.000000 0.000000 
#    y 0.000000 1.823280 0.000000 
#    z 0.000000 0.000000 1.800250 
# 
# From -- ./inp_files/9961.got.cif
#   From: 2010.03.12/outbox.cif.g09.slc.cpg/sg53_5_cif.got.tgz:9961.got - 2010.04.16 14:36:59.
