data_PCOD8218950
_publ_section_title
;
Structure prediction by ZEFSAII (Michael W. Deem and Ramdas Pophale) SiO2 
 PCOD8218950
Probable space group: P M N A
;
_chemical_formula_sum "Si O2"
_cell_formula_units_Z 48
_cell_length_a 8.901748
_cell_length_b 30.965555
_cell_length_c 9.509904
_cell_angle_alpha 90.000000
_cell_angle_beta 90.000000
_cell_angle_gamma 90.000000
_cell_volume 2621.381903
_symmetry_space_group_name_H-M "P M N A"
_symmetry_group_IT_number 53
_symmetry_cell_setting 'orthorhombic'
loop_
_space_group_symop_operation_xyz
x,y,z
1/2-x,-y,1/2+z
x,-y,-z
1/2-x,y,1/2-z
-x,-y,-z
1/2+x,y,1/2-z
-x,y,z
1/2+x,-y,1/2+z
loop_
_atom_site_type_symbol
_atom_site_label
_atom_site_fract_x
_atom_site_fract_y
_atom_site_fract_z
Si Si1 0.177044 0.539546 0.903616
Si Si2 0.675459 0.866941 0.600886
Si Si3 0.674602 0.798603 0.099299
Si Si4 0.825109 0.963970 0.897016
Si Si5 0.822167 0.619490 0.096094
Si Si6 0.674462 0.703823 0.100015
O O1 0.250000 0.538134 0.750000
O O2 0.000000 0.537021 0.880926
O O3 0.233940 0.500000 0.000000
O O4 0.225420 0.582445 0.987300
O O5 0.750000 0.858968 0.750000
O O6 0.500000 0.857800 0.615375
O O7 0.746433 0.834139 0.493216
O O8 0.707874 0.915631 0.546600
O O9 0.750000 0.799842 0.250000
O O10 0.500000 0.809847 0.115870
O O11 0.694899 0.750909 0.027357
O O12 0.750000 0.972051 0.750000
O O13 0.000000 0.971567 0.876106
O O14 0.756290 0.000000 0.000000
O O15 0.750000 0.611287 0.250000
O O16 0.759631 0.663961 0.024519
O O17 0.000000 0.621843 0.115086
O O18 0.750000 0.707901 0.250000
O O19 0.500000 0.691924 0.115443
#
# Coordination Sequence:
#
# PCOD8218950 Si02
#       6
#     8   8   8   8   8   8
#     4  10  22  38  55  78 106 136 172 211 253 302
#     4  10  20  35  54  75 103 138 173 212 258 309
#     4  10  20  34  53  78 106 137 175 217 259 305
#     4   9  19  35  53  75 102 132 168 208 253 305
#     4  10  19  32  53  79 105 135 171 210 253 302
#     4   9  17  30  50  75 103 135 170 209 254 302
#
# _framework density 18.310952
#
# number of rings (size 3 to 8) (size 9 to 14) (size 15 to 20)
#    0.000    2.333    0.000    3.500    0.000    5.333 
#    0.000    2.500    0.000    2.000    0.000    0.000 
#    0.000    0.000    0.000    0.000    0.000    0.000 
#
# Total GULP energy -594922.167758 kJ/mol
# GULP energy per Si atom -12394.211828 kJ/mol
# Density = 1.826928 g / cm^3
# Si number density = 18.310952 Si / 1000 Ang^3
#
#
#
# Elastic Constant Matrix: (Units=GPa)
#
#
# Indices 1 2 3 4 5 6 
#
# 1 92.9201 72.2344 56.7407 0.0000 0.0000 0.0000
# 2 72.2344 178.3920 88.7385 0.0000 0.0000 0.0000
# 3 56.7407 88.7385 93.9902 0.0000 0.0000 0.0000
# 4 0.0000 0.0000 0.0000 35.0922 0.0000 0.0000
# 5 0.0000 0.0000 0.0000 0.0000 30.7870 0.0000
# 6 0.0000 0.0000 0.0000 0.0000 0.0000 32.1992
#
#
#
# Elastic Compliance Matrix: (Units=1/GPa)
#
#
# Indices 1 2 3 4 5 6 
#
# 1 0.018187 -0.003588 -0.007592 0.000000 0.000000 0.000000
# 2 -0.003588 0.011277 -0.008481 0.000000 0.000000 0.000000
# 3 -0.007592 -0.008481 0.023230 0.000000 0.000000 0.000000
# 4 0.000000 0.000000 0.000000 0.028496 0.000000 0.000000
# 5 0.000000 0.000000 0.000000 0.000000 0.032481 0.000000
# 6 0.000000 0.000000 0.000000 0.000000 0.000000 0.031057
#
#
# Mechanical properties :
#
#
# Convention : Reuss Voigt Hill
#
# Bulk Modulus (GPa) = 74.78184 88.96994 81.87589
# Shear Modulus (GPa) = 26.52411 29.45492 27.98952
#
# Velocity S-wave (km/s) = 3.81010 4.01508 3.91393
# Velocity P-wave (km/s) = 7.76430 8.37785 8.07690
#
# Compressibility (1/GPa) = 0.01337223
#
# Stress axis : x y z
#
# Youngs Moduli (GPa) = 54.98461 88.67389 43.04789
#
# Poissons Ratio (x) = 0.31814 0.32682
# Poissons Ratio (y) = 0.19727 0.36510
# Poissons Ratio (z) = 0.41744 0.75207
#
# Static dielectric constant tensor:
#      x y z
#    x 3.471860 0.000000 0.000000 
#    y 0.000000 4.083820 0.000000 
#    z 0.000000 0.000000 3.038650 
# 
# 
# High freq. dielectric constant tensor:
#      x y z
#    x 1.721170 0.000000 0.000000 
#    y 0.000000 1.733510 0.000000 
#    z 0.000000 0.000000 1.680140 
# 
# From -- ./inp_files/6743.got.cif
#   From: 2010.03.12/outbox.cif.g09.slc.cpg/sg53_4_cif.got.tgz:6743.got - 2010.04.16 14:36:59.
