data_PCOD8218523
_publ_section_title
;
Structure prediction by ZEFSAII (Michael W. Deem and Ramdas Pophale) SiO2 
 PCOD8218523
Probable space group: P M N A
;
_chemical_formula_sum "Si O2"
_cell_formula_units_Z 40
_cell_length_a 26.690332
_cell_length_b 17.862719
_cell_length_c 5.122172
_cell_angle_alpha 90.000000
_cell_angle_beta 90.000000
_cell_angle_gamma 90.000000
_cell_volume 2442.056458
_symmetry_space_group_name_H-M "P M N A"
_symmetry_group_IT_number 53
_symmetry_cell_setting 'orthorhombic'
loop_
_space_group_symop_operation_xyz
x,y,z
1/2-x,-y,1/2+z
x,-y,-z
1/2-x,y,1/2-z
-x,-y,-z
1/2+x,y,1/2-z
-x,y,z
1/2+x,-y,1/2+z
loop_
_atom_site_type_symbol
_atom_site_label
_atom_site_fract_x
_atom_site_fract_y
_atom_site_fract_z
Si Si1 0.190642 0.288152 0.754111
Si Si2 0.055909 0.088753 0.977575
Si Si3 0.886047 0.088409 0.472306
Si Si4 0.190911 0.198424 0.261356
Si Si5 0.690218 0.544199 0.252498
O O1 0.250000 0.292362 0.750000
O O2 0.173339 0.258747 0.474228
O O3 0.168386 0.371727 0.777905
O O4 0.172238 0.232036 0.984279
O O5 0.094244 0.117915 0.753154
O O6 0.000000 0.118459 0.915738
O O7 0.072954 0.116328 0.261947
O O8 0.056001 0.000000 0.000000
O O9 0.833905 0.121170 0.360818
O O10 0.878490 0.000000 0.500000
O O11 0.250000 0.183230 0.250000
O O12 0.669460 0.500000 0.500000
O O13 0.750000 0.546674 0.250000
O O14 0.669991 0.500000 0.000000
#
# Coordination Sequence:
#
# PCOD8218523 Si02
#       5
#     8   8   8   8   8
#     4   9  17  28  41  56  79 112 148 180 212 252
#     4   9  17  30  48  67  85 103 130 177 232 279
#     4  10  19  31  46  65  85 110 149 187 218 256
#     4  10  19  31  43  58  84 120 155 183 210 245
#     4   9  15  23  37  57  77  99 135 181 216 244
#
# _framework density 16.379636000000001
#
# number of rings (size 3 to 8) (size 9 to 14) (size 15 to 20)
#    0.000    2.600    0.000    3.000    0.000    7.200 
#    0.000    6.000    0.000    0.000    0.000    0.000 
#    0.000    0.000    0.000    0.000    0.000  252.000 
#
# Total GULP energy -495567.546269 kJ/mol
# GULP energy per Si atom -12389.188657 kJ/mol
# Density = 1.634236 g / cm^3
# Si number density = 16.379636 Si / 1000 Ang^3
#
#
#
# Elastic Constant Matrix: (Units=GPa)
#
#
# Indices 1 2 3 4 5 6 
#
# 1 49.2325 31.4361 30.5896 0.0000 0.0000 0.0000
# 2 31.4361 70.1542 40.8376 0.0000 0.0000 0.0000
# 3 30.5896 40.8376 131.6766 0.0000 0.0000 0.0000
# 4 0.0000 0.0000 0.0000 25.6402 0.0000 0.0000
# 5 0.0000 0.0000 0.0000 0.0000 18.4125 0.0000
# 6 0.0000 0.0000 0.0000 0.0000 0.0000 2.0989
#
#
#
# Elastic Compliance Matrix: (Units=1/GPa)
#
#
# Indices 1 2 3 4 5 6 
#
# 1 0.029633 -0.011314 -0.003375 0.000000 0.000000 0.000000
# 2 -0.011314 0.021714 -0.004106 0.000000 0.000000 0.000000
# 3 -0.003375 -0.004106 0.009652 0.000000 0.000000 0.000000
# 4 0.000000 0.000000 0.000000 0.039001 0.000000 0.000000
# 5 0.000000 0.000000 0.000000 0.000000 0.054311 0.000000
# 6 0.000000 0.000000 0.000000 0.000000 0.000000 0.476433
#
#
# Mechanical properties :
#
#
# Convention : Reuss Voigt Hill
#
# Bulk Modulus (GPa) = 42.71863 50.75446 46.73654
# Shear Modulus (GPa) = 7.39495 19.11032 13.25263
#
# Velocity S-wave (km/s) = 2.12709 3.41942 2.84754
# Velocity P-wave (km/s) = 5.67183 6.82961 6.27747
#
# Compressibility (1/GPa) = 0.02340899
#
# Stress axis : x y z
#
# Youngs Moduli (GPa) = 33.74617 46.05280 103.60674
#
# Poissons Ratio (x) = 0.52103 0.34969
# Poissons Ratio (y) = 0.38180 0.42541
# Poissons Ratio (z) = 0.11390 0.18910
#
# Static dielectric constant tensor:
#      x y z
#    x 2.756090 0.000000 0.000000 
#    y 0.000000 3.051670 0.000000 
#    z 0.000000 0.000000 3.509930 
# 
# 
# High freq. dielectric constant tensor:
#      x y z
#    x 1.569770 0.000000 0.000000 
#    y 0.000000 1.609570 0.000000 
#    z 0.000000 0.000000 1.658750 
# 
# From -- ./inp_files/2886.got.cif
#   From: 2010.03.12/outbox.cif.g09.slc.cpg/sg53_2_cif.got.tgz:2886.got - 2010.04.16 14:36:59.
