data_PCOD8218241
_publ_section_title
;
Structure prediction by ZEFSAII (Michael W. Deem and Ramdas Pophale) SiO2 
 PCOD8218241
Probable space group: P M N A
;
_chemical_formula_sum "Si O2"
_cell_formula_units_Z 64
_cell_length_a 16.942288
_cell_length_b 20.191196
_cell_length_c 9.220570
_cell_angle_alpha 90.000000
_cell_angle_beta 90.000000
_cell_angle_gamma 90.000000
_cell_volume 3154.219220
_symmetry_space_group_name_H-M "P M N A"
_symmetry_group_IT_number 53
_symmetry_cell_setting 'orthorhombic'
loop_
_space_group_symop_operation_xyz
x,y,z
1/2-x,-y,1/2+z
x,-y,-z
1/2-x,y,1/2-z
-x,-y,-z
1/2+x,y,1/2-z
-x,y,z
1/2+x,-y,1/2+z
loop_
_atom_site_type_symbol
_atom_site_label
_atom_site_fract_x
_atom_site_fract_y
_atom_site_fract_z
Si Si1 0.345868 0.720895 0.536778
Si Si2 0.590450 0.490025 0.660201
Si Si3 0.733100 0.929286 0.424587
Si Si4 0.166346 0.282041 0.499933
Si Si5 0.664047 0.614409 0.775838
Si Si6 0.656576 0.355408 0.734195
Si Si7 0.324562 0.156389 0.149927
Si Si8 0.090783 0.136616 0.071758
O O1 0.257571 0.742170 0.490269
O O2 0.347840 0.681482 0.685671
O O3 0.377868 0.669157 0.418413
O O4 0.401086 0.784681 0.549302
O O5 0.629717 0.500000 0.500000
O O6 0.500000 0.472950 0.639750
O O7 0.599722 0.557969 0.750039
O O8 0.627258 0.430464 0.753867
O O9 0.750000 0.931096 0.250000
O O10 0.798989 0.886840 0.511032
O O11 0.645206 0.900670 0.453080
O O12 0.737841 0.000000 0.500000
O O13 0.158311 0.356438 0.436252
O O14 0.126641 0.297738 0.654922
O O15 0.127529 0.220788 0.412279
O O16 0.750000 0.582049 0.750000
O O17 0.750000 0.358049 0.750000
O O18 0.250000 0.179635 0.250000
O O19 0.382419 0.117971 0.262445
O O20 0.000000 0.115080 0.048559
#
# Coordination Sequence:
#
# PCOD8218241 Si02
#       8
#     8   8   8   8   8   8   8   8
#     4  10  18  34  58  87 116 156 204 256 311 370
#     4  11  23  39  54  74 109 154 199 252 317 391
#     4  11  24  43  73 103 133 176 224 267 307 370
#     4  10  18  33  59  88 111 151 197 266 308 362
#     4  10  19  35  59  79 106 146 202 250 307 370
#     4  10  22  35  57  84 112 148 205 263 319 370
#     4  10  18  38  65  91 132 165 217 258 309 375
#     4  11  23  38  64 100 140 176 214 265 324 388
#
# _framework density 20.290284
#
# number of rings (size 3 to 8) (size 9 to 14) (size 15 to 20)
#    0.000    1.625    5.000    1.875    1.750    1.750 
#    0.000    2.500    0.000    1.500    0.000    0.000 
#    0.000    0.000    0.000    0.000    0.000    0.000 
#
# Total GULP energy -792972.050303 kJ/mol
# GULP energy per Si atom -12390.188286 kJ/mol
# Density = 2.024410 g / cm^3
# Si number density = 20.290284 Si / 1000 Ang^3
#
#
#
# Elastic Constant Matrix: (Units=GPa)
#
#
# Indices 1 2 3 4 5 6 
#
# 1 66.0809 24.2909 43.7696 0.0000 0.0000 0.0000
# 2 24.2909 102.5618 42.8768 0.0000 0.0000 0.0000
# 3 43.7696 42.8768 98.2234 0.0000 0.0000 0.0000
# 4 0.0000 0.0000 0.0000 33.4196 0.0000 0.0000
# 5 0.0000 0.0000 0.0000 0.0000 17.6160 0.0000
# 6 0.0000 0.0000 0.0000 0.0000 0.0000 16.1739
#
#
#
# Elastic Compliance Matrix: (Units=1/GPa)
#
#
# Indices 1 2 3 4 5 6 
#
# 1 0.021619 -0.001337 -0.009050 0.000000 0.000000 0.000000
# 2 -0.001337 0.012009 -0.004647 0.000000 0.000000 0.000000
# 3 -0.009050 -0.004647 0.016242 0.000000 0.000000 0.000000
# 4 0.000000 0.000000 0.000000 0.029923 0.000000 0.000000
# 5 0.000000 0.000000 0.000000 0.000000 0.056766 0.000000
# 6 0.000000 0.000000 0.000000 0.000000 0.000000 0.061828
#
#
# Mechanical properties :
#
#
# Convention : Reuss Voigt Hill
#
# Bulk Modulus (GPa) = 50.49688 54.30453 52.40070
# Shear Modulus (GPa) = 21.27158 23.83717 22.55437
#
# Velocity S-wave (km/s) = 3.24136 3.43126 3.33766
# Velocity P-wave (km/s) = 6.24097 6.52074 6.38239
#
# Compressibility (1/GPa) = 0.01980320
#
# Stress axis : x y z
#
# Youngs Moduli (GPa) = 46.25600 83.26795 61.56833
#
# Poissons Ratio (x) = 0.11131 0.55720
# Poissons Ratio (y) = 0.06183 0.28609
# Poissons Ratio (z) = 0.41862 0.38692
#
# Static dielectric constant tensor:
#      x y z
#    x 3.287760 0.000000 0.000000 
#    y 0.000000 3.623340 0.000000 
#    z 0.000000 0.000000 4.048360 
# 
# 
# High freq. dielectric constant tensor:
#      x y z
#    x 1.742780 0.000000 0.000000 
#    y 0.000000 1.794360 0.000000 
#    z 0.000000 0.000000 1.801240 
# 
# From -- ./inp_files/10260.got.cif
#   From: 2010.03.12/outbox.cif.g09.slc.cpg/sg53_6_cif.got.tgz:10260.got - 2010.04.16 14:36:59.
