data_PCOD8218933
_publ_section_title
;
Structure prediction by ZEFSAII (Michael W. Deem and Ramdas Pophale) SiO2 
 PCOD8218933
Probable space group: P M N A
;
_chemical_formula_sum "Si O2"
_cell_formula_units_Z 64
_cell_length_a 8.752461
_cell_length_b 15.207367
_cell_length_c 23.825148
_cell_angle_alpha 90.000000
_cell_angle_beta 90.000000
_cell_angle_gamma 90.000000
_cell_volume 3171.172147
_symmetry_space_group_name_H-M "P M N A"
_symmetry_group_IT_number 53
_symmetry_cell_setting 'orthorhombic'
loop_
_space_group_symop_operation_xyz
x,y,z
1/2-x,-y,1/2+z
x,-y,-z
1/2-x,y,1/2-z
-x,-y,-z
1/2+x,y,1/2-z
-x,y,z
1/2+x,-y,1/2+z
loop_
_atom_site_type_symbol
_atom_site_label
_atom_site_fract_x
_atom_site_fract_y
_atom_site_fract_z
Si Si1 0.323941 0.460095 0.883272
Si Si2 0.679691 0.130000 0.631239
Si Si3 0.822303 0.173162 0.522428
Si Si4 0.179952 0.818103 0.603908
Si Si5 0.325883 0.633900 0.606484
Si Si6 0.180576 0.966808 0.690758
Si Si7 0.177599 0.292848 0.689329
Si Si8 0.325741 0.645754 0.476430
O O1 0.500000 0.464612 0.901266
O O2 0.267044 0.555985 0.862555
O O3 0.298044 0.391578 0.832902
O O4 0.222906 0.434667 0.937256
O O5 0.500000 0.121583 0.636923
O O6 0.731022 0.112105 0.566675
O O7 0.735439 0.226926 0.647882
O O8 0.756134 0.061065 0.673059
O O9 0.767811 0.153223 0.458841
O O10 0.788546 0.274477 0.536633
O O11 0.000000 0.153285 0.530655
O O12 0.259138 0.728370 0.623578
O O13 0.232745 0.894534 0.645538
O O14 0.000000 0.801810 0.604665
O O15 0.500000 0.630803 0.626726
O O16 0.309238 0.616562 0.540406
O O17 0.250000 0.938311 0.750000
O O18 0.000000 0.972450 0.695701
O O19 0.250000 0.285145 0.750000
O O20 0.000000 0.266895 0.691768
O O21 0.500000 0.674640 0.463386
#
# Coordination Sequence:
#
# PCOD8218933 Si02
#       8
#     8   8   8   8   8   8   8   8
#     4  11  22  35  55  82 115 156 201 243 290 351
#     4  12  24  39  62  91 123 158 194 242 298 360
#     4  10  19  35  59  89 123 159 197 239 294 359
#     4   9  21  41  64  88 120 159 199 246 301 358
#     4  10  21  35  56  86 120 154 195 245 294 347
#     4  11  24  44  67  91 118 153 200 251 299 356
#     4  11  24  41  60  84 116 157 202 250 300 357
#     4  10  19  32  52  83 120 157 194 237 291 348
#
# _framework density 20.181812999999998
#
# number of rings (size 3 to 8) (size 9 to 14) (size 15 to 20)
#    0.000    1.500    1.250    4.125    0.000    6.500 
#    0.000    3.125    0.000    0.000    0.000    0.000 
#    0.000    0.000    0.000    0.000    0.000    0.000 
#
# Total GULP energy -793876.717228 kJ/mol
# GULP energy per Si atom -12404.323707 kJ/mol
# Density = 2.013588 g / cm^3
# Si number density = 20.181813 Si / 1000 Ang^3
#
#
#
# Elastic Constant Matrix: (Units=GPa)
#
#
# Indices 1 2 3 4 5 6 
#
# 1 91.9635 38.6276 42.9017 0.0000 0.0000 0.0000
# 2 38.6276 78.9051 49.3811 0.0000 0.0000 0.0000
# 3 42.9017 49.3811 101.3741 0.0000 0.0000 0.0000
# 4 0.0000 0.0000 0.0000 25.4670 0.0000 0.0000
# 5 0.0000 0.0000 0.0000 0.0000 29.8590 0.0000
# 6 0.0000 0.0000 0.0000 0.0000 0.0000 26.7091
#
#
#
# Elastic Compliance Matrix: (Units=1/GPa)
#
#
# Indices 1 2 3 4 5 6 
#
# 1 0.014689 -0.004748 -0.003904 0.000000 0.000000 0.000000
# 2 -0.004748 0.019766 -0.007619 0.000000 0.000000 0.000000
# 3 -0.003904 -0.007619 0.015228 0.000000 0.000000 0.000000
# 4 0.000000 0.000000 0.000000 0.039267 0.000000 0.000000
# 5 0.000000 0.000000 0.000000 0.000000 0.033491 0.000000
# 6 0.000000 0.000000 0.000000 0.000000 0.000000 0.037440
#
#
# Mechanical properties :
#
#
# Convention : Reuss Voigt Hill
#
# Bulk Modulus (GPa) = 58.33718 59.34039 58.83878
# Shear Modulus (GPa) = 25.23516 25.82917 25.53216
#
# Velocity S-wave (km/s) = 3.53992 3.58134 3.56069
# Velocity P-wave (km/s) = 6.75845 6.82408 6.79135
#
# Compressibility (1/GPa) = 0.01714173
#
# Stress axis : x y z
#
# Youngs Moduli (GPa) = 68.07679 50.59188 65.66915
#
# Poissons Ratio (x) = 0.24021 0.25635
# Poissons Ratio (y) = 0.32323 0.50033
# Poissons Ratio (z) = 0.26575 0.38546
#
# Static dielectric constant tensor:
#      x y z
#    x 3.697720 0.000000 0.000000 
#    y 0.000000 3.587810 0.000000 
#    z 0.000000 0.000000 3.643280 
# 
# 
# High freq. dielectric constant tensor:
#      x y z
#    x 1.797380 0.000000 0.000000 
#    y 0.000000 1.785060 0.000000 
#    z 0.000000 0.000000 1.777080 
# 
# From -- ./inp_files/34177.got.cif
#   From: 2010.03.12/outbox.cif.g09.slc.cpg/sg53_18_cif.got.tgz:34177.got - 2010.04.16 14:36:59.
