data_PCOD8218112
_publ_section_title
;
Structure prediction by ZEFSAII (Michael W. Deem and Ramdas Pophale) SiO2 
 PCOD8218112
Probable space group: P M N A
;
_chemical_formula_sum "Si O2"
_cell_formula_units_Z 64
_cell_length_a 8.678216
_cell_length_b 20.974239
_cell_length_c 20.067659
_cell_angle_alpha 90.000000
_cell_angle_beta 90.000000
_cell_angle_gamma 90.000000
_cell_volume 3652.694751
_symmetry_space_group_name_H-M "P M N A"
_symmetry_group_IT_number 53
_symmetry_cell_setting 'orthorhombic'
loop_
_space_group_symop_operation_xyz
x,y,z
1/2-x,-y,1/2+z
x,-y,-z
1/2-x,y,1/2-z
-x,-y,-z
1/2+x,y,1/2-z
-x,y,z
1/2+x,-y,1/2+z
loop_
_atom_site_type_symbol
_atom_site_label
_atom_site_fract_x
_atom_site_fract_y
_atom_site_fract_z
Si Si1 0.679290 0.305227 0.450668
Si Si2 0.829623 0.691751 0.686217
Si Si3 0.818240 0.822278 0.545858
Si Si4 0.182287 0.060456 0.539987
Si Si5 0.182216 0.446590 0.048546
Si Si6 0.168294 0.456473 0.313739
Si Si7 0.317249 0.013241 0.818808
Si Si8 0.683530 0.873652 0.679691
O O1 0.500000 0.298476 0.466911
O O2 0.709167 0.297501 0.372461
O O3 0.770697 0.246759 0.485261
O O4 0.743317 0.375573 0.471786
O O5 0.750000 0.724943 0.750000
O O6 0.853252 0.617689 0.700759
O O7 0.000000 0.721693 0.671302
O O8 0.753401 0.875292 0.494386
O O9 0.743642 0.829819 0.619167
O O10 0.000000 0.827503 0.552897
O O11 0.228265 0.057994 0.618318
O O12 0.000000 0.058950 0.533248
O O13 0.251946 0.000000 0.500000
O O14 0.228762 0.468272 0.121806
O O15 0.000000 0.444645 0.044817
O O16 0.252720 0.500000 0.000000
O O17 0.250000 0.489140 0.250000
O O18 0.000000 0.487890 0.324030
O O19 0.250000 0.042877 0.750000
O O20 0.500000 0.005301 0.812138
O O21 0.243896 0.944793 0.832841
O O22 0.750000 0.847822 0.750000
O O23 0.500000 0.873078 0.681597
#
# Coordination Sequence:
#
# PCOD8218112 Si02
#       8
#     8   8   8   8   8   8   8   8
#     4  10  20  33  47  68  97 125 159 201 244 292
#     4   9  16  27  43  63  88 123 162 195 230 273
#     4  11  21  35  52  70  95 130 168 205 246 293
#     4   9  17  32  53  73  96 130 165 198 241 292
#     4   9  18  33  52  72  97 131 165 200 246 297
#     4   9  16  26  43  68  97 126 158 197 236 279
#     4  10  18  32  52  74  99 128 164 203 246 290
#     4  11  21  33  48  70  99 133 169 205 243 283
#
# _framework density 17.52131
#
# number of rings (size 3 to 8) (size 9 to 14) (size 15 to 20)
#    0.000    2.250    1.250    3.750    0.000    4.250 
#    0.000    5.625    0.000    0.000    0.000    0.875 
#    0.000    4.000    0.000    0.000    0.000    0.000 
#
# Total GULP energy -793159.590219 kJ/mol
# GULP energy per Si atom -12393.118597 kJ/mol
# Density = 1.748143 g / cm^3
# Si number density = 17.521310 Si / 1000 Ang^3
#
#
#
# Elastic Constant Matrix: (Units=GPa)
#
#
# Indices 1 2 3 4 5 6 
#
# 1 65.7684 25.1837 22.8390 0.0000 0.0000 0.0000
# 2 25.1837 105.2955 62.6568 0.0000 0.0000 0.0000
# 3 22.8390 62.6568 98.5949 0.0000 0.0000 0.0000
# 4 0.0000 0.0000 0.0000 13.7458 0.0000 0.0000
# 5 0.0000 0.0000 0.0000 0.0000 18.8109 0.0000
# 6 0.0000 0.0000 0.0000 0.0000 0.0000 -24.2817
#
#
#
# Elastic Compliance Matrix: (Units=1/GPa)
#
#
# Indices 1 2 3 4 5 6 
#
# 1 0.017024 -0.002774 -0.002181 0.000000 0.000000 0.000000
# 2 -0.002774 0.015725 -0.009350 0.000000 0.000000 0.000000
# 3 -0.002181 -0.009350 0.016590 0.000000 0.000000 0.000000
# 4 0.000000 0.000000 0.000000 0.072750 0.000000 0.000000
# 5 0.000000 0.000000 0.000000 0.000000 0.053161 0.000000
# 6 0.000000 0.000000 0.000000 0.000000 0.000000 -0.041183
#
#
# Mechanical properties :
#
#
# Convention : Reuss Voigt Hill
#
# Bulk Modulus (GPa) = 48.24274 54.55752 51.40013
# Shear Modulus (GPa) = 29.48368 12.25361 20.86864
#
# Velocity S-wave (km/s) = 4.10656 2.64740 3.45489
# Velocity P-wave (km/s) = 7.07663 6.36792 6.73161
#
# Compressibility (1/GPa) = 0.02072851
#
# Stress axis : x y z
#
# Youngs Moduli (GPa) = 58.73922 63.59496 60.27831
#
# Poissons Ratio (x) = 0.17642 0.13145
# Poissons Ratio (y) = 0.16295 0.56362
# Poissons Ratio (z) = 0.12809 0.59463
#
# Static dielectric constant tensor:
#      x y z
#    x 3.306510 0.000000 0.000000 
#    y 0.000000 3.370390 0.000000 
#    z 0.000000 0.000000 3.306320 
# 
# 
# High freq. dielectric constant tensor:
#      x y z
#    x 1.678940 0.000000 0.000000 
#    y 0.000000 1.650390 0.000000 
#    z 0.000000 0.000000 1.657700 
# 
# From -- ./inp_files/31425.got.cif
#   From: 2010.03.12/outbox.cif.g09.slc.cpg/sg53_16_cif.got.tgz:31425.got - 2010.04.16 14:36:59.
