data_PCOD8218917
_publ_section_title
;
Structure prediction by ZEFSAII (Michael W. Deem and Ramdas Pophale) SiO2 
 PCOD8218917
Probable space group: P M N A
;
_chemical_formula_sum "Si O2"
_cell_formula_units_Z 64
_cell_length_a 9.384714
_cell_length_b 12.591686
_cell_length_c 27.413275
_cell_angle_alpha 90.000000
_cell_angle_beta 90.000000
_cell_angle_gamma 90.000000
_cell_volume 3239.409488
_symmetry_space_group_name_H-M "P M N A"
_symmetry_group_IT_number 53
_symmetry_cell_setting 'orthorhombic'
loop_
_space_group_symop_operation_xyz
x,y,z
1/2-x,-y,1/2+z
x,-y,-z
1/2-x,y,1/2-z
-x,-y,-z
1/2+x,y,1/2-z
-x,y,z
1/2+x,-y,1/2+z
loop_
_atom_site_type_symbol
_atom_site_label
_atom_site_fract_x
_atom_site_fract_y
_atom_site_fract_z
Si Si1 0.156379 0.148071 0.574445
Si Si2 0.339693 0.728490 0.297383
Si Si3 0.167961 0.835575 0.799193
Si Si4 0.334710 0.879117 0.512055
Si Si5 0.158654 0.632335 0.374541
Si Si6 0.341958 0.048005 0.649230
Si Si7 0.666378 0.482720 0.442913
Si Si8 0.667494 0.740888 0.600400
O O1 0.244349 0.187437 0.527283
O O2 0.139973 0.246980 0.609742
O O3 0.238065 0.052782 0.602660
O O4 0.000000 0.105741 0.559362
O O5 0.250000 0.752299 0.250000
O O6 0.500000 0.689302 0.285251
O O7 0.259553 0.634407 0.326862
O O8 0.347388 0.838609 0.325639
O O9 0.250000 0.802407 0.750000
O O10 0.223100 0.761460 0.844364
O O11 0.000000 0.821438 0.789748
O O12 0.206782 0.957358 0.812797
O O13 0.500000 0.854583 0.502725
O O14 0.288422 0.840665 0.565987
O O15 0.294493 0.000000 0.500000
O O16 0.236606 0.567738 0.416335
O O17 0.000000 0.585536 0.363374
O O18 0.500000 0.017522 0.629255
O O19 0.692978 0.500000 0.500000
O O20 0.500000 0.500026 0.430285
O O21 0.722423 0.368066 0.424028
O O22 0.500000 0.735008 0.603396
#
# Coordination Sequence:
#
# PCOD8218917 Si02
#       8
#     8   8   8   8   8   8   8   8
#     4  10  20  32  49  77 112 143 173 217 268 315
#     4  10  19  32  52  79 110 143 180 222 268 318
#     4  10  20  36  56  78 106 140 180 223 267 315
#     4  10  19  33  55  79 106 143 181 214 257 318
#     4  10  21  36  53  76 106 139 176 218 266 319
#     4   9  18  32  52  77 108 148 187 219 257 315
#     4  10  20  36  59  82 104 136 179 226 276 328
#     4   9  19  35  55  80 108 139 180 228 272 324
#
# _framework density 19.756685999999998
#
# number of rings (size 3 to 8) (size 9 to 14) (size 15 to 20)
#    0.000    2.250    0.000    3.000    0.000    6.000 
#    0.000    2.500    0.000    1.500    0.000    0.000 
#    0.000    0.000    0.000    0.000    0.000    0.000 
#
# Total GULP energy -793278.867185 kJ/mol
# GULP energy per Si atom -12394.982300 kJ/mol
# Density = 1.971172 g / cm^3
# Si number density = 19.756686 Si / 1000 Ang^3
#
#
#
# Elastic Constant Matrix: (Units=GPa)
#
#
# Indices 1 2 3 4 5 6 
#
# 1 98.7573 27.6911 46.9213 0.0000 0.0000 0.0000
# 2 27.6911 65.6507 31.5797 0.0000 0.0000 0.0000
# 3 46.9213 31.5797 118.9216 0.0000 0.0000 0.0000
# 4 0.0000 0.0000 0.0000 28.6514 0.0000 0.0000
# 5 0.0000 0.0000 0.0000 0.0000 29.7361 0.0000
# 6 0.0000 0.0000 0.0000 0.0000 0.0000 16.6711
#
#
#
# Elastic Compliance Matrix: (Units=1/GPa)
#
#
# Indices 1 2 3 4 5 6 
#
# 1 0.013125 -0.003491 -0.004251 0.000000 0.000000 0.000000
# 2 -0.003491 0.018391 -0.003506 0.000000 0.000000 0.000000
# 3 -0.004251 -0.003506 0.011017 0.000000 0.000000 0.000000
# 4 0.000000 0.000000 0.000000 0.034902 0.000000 0.000000
# 5 0.000000 0.000000 0.000000 0.000000 0.033629 0.000000
# 6 0.000000 0.000000 0.000000 0.000000 0.000000 0.059984
#
#
# Mechanical properties :
#
#
# Convention : Reuss Voigt Hill
#
# Bulk Modulus (GPa) = 49.91051 55.07933 52.49492
# Shear Modulus (GPa) = 24.97193 26.82089 25.89641
#
# Velocity S-wave (km/s) = 3.55910 3.68851 3.62438
# Velocity P-wave (km/s) = 6.49669 6.78819 6.64404
#
# Compressibility (1/GPa) = 0.02003586
#
# Stress axis : x y z
#
# Youngs Moduli (GPa) = 76.19309 54.37370 90.76503
#
# Poissons Ratio (x) = 0.18981 0.38588
# Poissons Ratio (y) = 0.26598 0.31827
# Poissons Ratio (z) = 0.32393 0.19066
#
# Static dielectric constant tensor:
#      x y z
#    x 3.744090 0.000000 0.000000 
#    y 0.000000 3.551760 0.000000 
#    z 0.000000 0.000000 3.712710 
# 
# 
# High freq. dielectric constant tensor:
#      x y z
#    x 1.759690 0.000000 0.000000 
#    y 0.000000 1.748850 0.000000 
#    z 0.000000 0.000000 1.773860 
# 
# From -- ./inp_files/38189.got.cif
#   From: 2010.03.12/outbox.cif.g09.slc.cpg/sg53_20_cif.got.tgz:38189.got - 2010.04.16 14:36:59.
