data_PCOD8218956
_publ_section_title
;
Structure prediction by ZEFSAII (Michael W. Deem and Ramdas Pophale) SiO2 
 PCOD8218956
Probable space group: P M N A
;
_chemical_formula_sum "Si O2"
_cell_formula_units_Z 48
_cell_length_a 23.369261
_cell_length_b 9.930628
_cell_length_c 12.009397
_cell_angle_alpha 90.000000
_cell_angle_beta 90.000000
_cell_angle_gamma 90.000000
_cell_volume 2787.038027
_symmetry_space_group_name_H-M "P M N A"
_symmetry_group_IT_number 53
_symmetry_cell_setting 'orthorhombic'
loop_
_space_group_symop_operation_xyz
x,y,z
1/2-x,-y,1/2+z
x,-y,-z
1/2-x,y,1/2-z
-x,-y,-z
1/2+x,y,1/2-z
-x,y,z
1/2+x,-y,1/2+z
loop_
_atom_site_type_symbol
_atom_site_label
_atom_site_fract_x
_atom_site_fract_y
_atom_site_fract_z
Si Si1 0.235030 0.112215 0.082948
Si Si2 0.935680 0.112509 0.407577
Si Si3 0.433583 0.641227 0.057013
Si Si4 0.725106 0.635658 0.431441
Si Si5 0.832633 0.292315 0.709173
Si Si6 0.665813 0.973987 0.772040
O O1 0.289271 0.123309 0.164864
O O2 0.177378 0.056578 0.142540
O O3 0.219742 0.250420 0.024206
O O4 0.257184 0.000000 0.000000
O O5 0.916017 0.251522 0.463022
O O6 0.897664 0.074182 0.301604
O O7 0.000000 0.121712 0.362189
O O8 0.928422 0.000000 0.500000
O O9 0.500000 0.657572 0.092626
O O10 0.395643 0.663420 0.167900
O O11 0.420922 0.500000 0.000000
O O12 0.714983 0.500000 0.500000
O O13 0.676871 0.655162 0.335395
O O14 0.787137 0.638942 0.373659
O O15 0.824189 0.131540 0.703088
#
# Coordination Sequence:
#
# PCOD8218956 Si02
#       6
#     8   8   8   8   8   8
#     4  11  19  34  52  75 102 138 176 209 249 303
#     4  10  19  32  53  80 105 131 169 217 259 299
#     4  10  21  35  54  80 108 136 169 212 262 312
#     4  11  23  35  52  78 109 136 172 215 257 308
#     4  11  20  35  55  76 105 141 169 213 265 305
#     4  11  20  31  57  79 102 139 178 209 253 312
#
# _framework density 17.222586
#
# number of rings (size 3 to 8) (size 9 to 14) (size 15 to 20)
#    0.000    1.333    5.000    3.000    0.000    4.000 
#    0.000    0.000    0.000    2.000    0.000    0.000 
#    0.000    0.000    0.000    0.000    0.000    0.000 
#
# Total GULP energy -595108.092297 kJ/mol
# GULP energy per Si atom -12398.085256 kJ/mol
# Density = 1.718339 g / cm^3
# Si number density = 17.222586 Si / 1000 Ang^3
#
#
#
# Elastic Constant Matrix: (Units=GPa)
#
#
# Indices 1 2 3 4 5 6 
#
# 1 86.5044 27.7182 45.1127 0.0000 0.0000 0.0000
# 2 27.7182 119.7681 44.5631 0.0000 0.0000 0.0000
# 3 45.1127 44.5631 82.5630 0.0000 0.0000 0.0000
# 4 0.0000 0.0000 0.0000 32.1281 0.0000 0.0000
# 5 0.0000 0.0000 0.0000 0.0000 23.8731 0.0000
# 6 0.0000 0.0000 0.0000 0.0000 0.0000 24.3889
#
#
#
# Elastic Compliance Matrix: (Units=1/GPa)
#
#
# Indices 1 2 3 4 5 6 
#
# 1 0.016198 -0.000570 -0.008543 0.000000 0.000000 0.000000
# 2 -0.000570 0.010468 -0.005338 0.000000 0.000000 0.000000
# 3 -0.008543 -0.005338 0.019661 0.000000 0.000000 0.000000
# 4 0.000000 0.000000 0.000000 0.031125 0.000000 0.000000
# 5 0.000000 0.000000 0.000000 0.000000 0.041888 0.000000
# 6 0.000000 0.000000 0.000000 0.000000 0.000000 0.041002
#
#
# Mechanical properties :
#
#
# Convention : Reuss Voigt Hill
#
# Bulk Modulus (GPa) = 57.39188 58.18039 57.78614
# Shear Modulus (GPa) = 25.63398 27.50745 26.57072
#
# Velocity S-wave (km/s) = 3.86216 4.00080 3.93209
# Velocity P-wave (km/s) = 7.29961 7.42945 7.36481
#
# Compressibility (1/GPa) = 0.01742407
#
# Stress axis : x y z
#
# Youngs Moduli (GPa) = 61.73609 95.53181 50.86156
#
# Poissons Ratio (x) = 0.05446 0.43451
# Poissons Ratio (y) = 0.03520 0.27152
# Poissons Ratio (z) = 0.52741 0.50999
#
# Static dielectric constant tensor:
#      x y z
#    x 3.224400 0.000000 0.000000 
#    y 0.000000 3.707490 0.000000 
#    z 0.000000 0.000000 3.218210 
# 
# 
# High freq. dielectric constant tensor:
#      x y z
#    x 1.652710 0.000000 0.000000 
#    y 0.000000 1.673600 0.000000 
#    z 0.000000 0.000000 1.654370 
# 
# From -- ./inp_files/18264.got.cif
#   From: 2010.03.12/outbox.cif.g09.slc.cpg/sg53_10_cif.got.tgz:18264.got - 2010.04.16 14:36:59.
