data_PCOD8218350
_publ_section_title
;
Structure prediction by ZEFSAII (Michael W. Deem and Ramdas Pophale) SiO2 
 PCOD8218350
Probable space group: P M N A
;
_chemical_formula_sum "Si O2"
_cell_formula_units_Z 48
_cell_length_a 9.175697
_cell_length_b 16.811436
_cell_length_c 18.122442
_cell_angle_alpha 90.000000
_cell_angle_beta 90.000000
_cell_angle_gamma 90.000000
_cell_volume 2795.507064
_symmetry_space_group_name_H-M "P M N A"
_symmetry_group_IT_number 53
_symmetry_cell_setting 'orthorhombic'
loop_
_space_group_symop_operation_xyz
x,y,z
1/2-x,-y,1/2+z
x,-y,-z
1/2-x,y,1/2-z
-x,-y,-z
1/2+x,y,1/2-z
-x,y,z
1/2+x,-y,1/2+z
loop_
_atom_site_type_symbol
_atom_site_label
_atom_site_fract_x
_atom_site_fract_y
_atom_site_fract_z
Si Si1 0.172831 0.179766 0.601067
Si Si2 0.826765 0.993697 0.416730
Si Si3 0.173139 0.584348 0.475109
Si Si4 0.172890 0.257922 0.454146
Si Si5 0.173079 0.145709 0.327200
Si Si6 0.672131 0.663170 0.176329
O O1 0.234118 0.203126 0.520363
O O2 0.224069 0.245595 0.660602
O O3 0.000000 0.181965 0.597608
O O4 0.226391 0.090182 0.619529
O O5 0.768365 0.065294 0.366164
O O6 0.000000 0.998430 0.420211
O O7 0.764740 0.000000 0.500000
O O8 0.241960 0.500000 0.500000
O O9 0.228155 0.651509 0.533334
O O10 0.221708 0.607464 0.392063
O O11 0.000000 0.579861 0.477287
O O12 0.223789 0.221320 0.376407
O O13 0.000000 0.256184 0.458095
O O14 0.250000 0.156200 0.250000
O O15 0.000000 0.143219 0.316389
O O16 0.750000 0.631991 0.250000
O O17 0.500000 0.658260 0.187978
#
# Coordination Sequence:
#
# PCOD8218350 Si02
#       6
#     8   8   8   8   8   8
#     4   8  13  23  41  64  83 105 144 183 209 241
#     4   9  14  23  42  65  84 108 148 189 214 239
#     4   8  14  26  46  69  87 108 145 186 214 243
#     4   8  13  24  42  62  82 107 142 179 210 245
#     4  10  19  29  43  64  89 115 143 179 218 254
#     4   9  17  28  44  66  92 115 137 175 221 260
#
# _framework density 17.170408999999999
#
# number of rings (size 3 to 8) (size 9 to 14) (size 15 to 20)
#    0.000    3.333    1.667    2.000    0.000    0.667 
#    0.000    0.833    0.000    5.000    0.000    0.000 
#    0.000    0.000    0.000    0.000    0.000    0.000 
#
# Total GULP energy -594666.941869 kJ/mol
# GULP energy per Si atom -12388.894622 kJ/mol
# Density = 1.713133 g / cm^3
# Si number density = 17.170409 Si / 1000 Ang^3
#
#
#
# Elastic Constant Matrix: (Units=GPa)
#
#
# Indices 1 2 3 4 5 6 
#
# 1 12.6054 15.4231 23.4407 0.0000 0.0000 0.0000
# 2 15.4231 157.9253 79.7707 0.0000 0.0000 0.0000
# 3 23.4407 79.7707 138.2450 0.0000 0.0000 0.0000
# 4 0.0000 0.0000 0.0000 23.3854 0.0000 0.0000
# 5 0.0000 0.0000 0.0000 0.0000 24.9098 0.0000
# 6 0.0000 0.0000 0.0000 0.0000 0.0000 6.3993
#
#
#
# Elastic Compliance Matrix: (Units=1/GPa)
#
#
# Indices 1 2 3 4 5 6 
#
# 1 0.116298 -0.001972 -0.018581 0.000000 0.000000 0.000000
# 2 -0.001972 0.008970 -0.004842 0.000000 0.000000 0.000000
# 3 -0.018581 -0.004842 0.013178 0.000000 0.000000 0.000000
# 4 0.000000 0.000000 0.000000 0.042762 0.000000 0.000000
# 5 0.000000 0.000000 0.000000 0.000000 0.040145 0.000000
# 6 0.000000 0.000000 0.000000 0.000000 0.000000 0.156267
#
#
# Mechanical properties :
#
#
# Convention : Reuss Voigt Hill
#
# Bulk Modulus (GPa) = 11.40826 60.67162 36.03994
# Shear Modulus (GPa) = 10.92590 23.61497 17.27044
#
# Velocity S-wave (km/s) = 2.52528 3.71257 3.17492
# Velocity P-wave (km/s) = 3.89375 7.33411 5.87156
#
# Compressibility (1/GPa) = 0.08765580
#
# Stress axis : x y z
#
# Youngs Moduli (GPa) = 8.59862 111.47854 75.88412
#
# Poissons Ratio (x) = 0.21983 1.41004
# Poissons Ratio (y) = 0.01696 0.36741
# Poissons Ratio (z) = 0.15977 0.53975
#
# Static dielectric constant tensor:
#      x y z
#    x 2.498050 0.000000 0.000000 
#    y 0.000000 3.746250 0.000000 
#    z 0.000000 0.000000 3.187960 
# 
# 
# High freq. dielectric constant tensor:
#      x y z
#    x 1.587190 0.000000 0.000000 
#    y 0.000000 1.670260 0.000000 
#    z 0.000000 0.000000 1.657400 
# 
# From -- ./inp_files/14922.got.cif
#   From: 2010.03.12/outbox.cif.g09.slc.cpg/sg53_8_cif.got.tgz:14922.got - 2010.04.16 14:36:59.
