data_PCOD8218946
_publ_section_title
;
Structure prediction by ZEFSAII (Michael W. Deem and Ramdas Pophale) SiO2 
 PCOD8218946
Probable space group: P M N A
;
_chemical_formula_sum "Si O2"
_cell_formula_units_Z 32
_cell_length_a 36.811251
_cell_length_b 5.047883
_cell_length_c 8.581438
_cell_angle_alpha 90.000000
_cell_angle_beta 90.000000
_cell_angle_gamma 90.000000
_cell_volume 1594.593268
_symmetry_space_group_name_H-M "P M N A"
_symmetry_group_IT_number 53
_symmetry_cell_setting 'orthorhombic'
loop_
_space_group_symop_operation_xyz
x,y,z
1/2-x,-y,1/2+z
x,-y,-z
1/2-x,y,1/2-z
-x,-y,-z
1/2+x,y,1/2-z
-x,y,z
1/2+x,-y,1/2+z
loop_
_atom_site_type_symbol
_atom_site_label
_atom_site_fract_x
_atom_site_fract_y
_atom_site_fract_z
Si Si1 0.459519 0.973658 0.184789
Si Si2 0.275228 0.759741 0.603192
Si Si3 0.856481 0.755113 0.896698
Si Si4 0.417209 0.466976 0.183891
O O1 0.500000 0.902812 0.244378
O O2 0.430676 0.753182 0.247272
O O3 0.448280 0.264220 0.242268
O O4 0.458815 0.000000 0.000000
O O5 0.274647 0.500000 0.500000
O O6 0.250000 0.713683 0.750000
O O7 0.316076 0.831291 0.662346
O O8 0.259746 0.000000 0.500000
O O9 0.880365 0.660611 0.750090
O O10 0.853443 0.500000 0.000000
O O11 0.872605 0.000000 0.000000
O O12 0.412025 0.500000 0.000000
#
# Coordination Sequence:
#
# PCOD8218946 Si02
#       4
#     8   8   8   8
#     4   9  17  30  50  76 104 133 171 223 272 309
#     4  10  21  38  59  84 112 146 185 224 272 327
#     4  10  21  37  55  76 109 146 173 209 271 329
#     4  10  19  32  53  79 102 133 181 223 258 311
#
# _framework density 20.067815
#
# number of rings (size 3 to 8) (size 9 to 14) (size 15 to 20)
#    0.000    2.250    0.000    3.000    0.000    4.000 
#    0.000    3.750    0.000   15.000    0.000    0.000 
#    0.000    0.000    0.000    0.000    0.000    0.000 
#
# Total GULP energy -396448.707824 kJ/mol
# GULP energy per Si atom -12389.022120 kJ/mol
# Density = 2.002214 g / cm^3
# Si number density = 20.067815 Si / 1000 Ang^3
#
#
#
# Elastic Constant Matrix: (Units=GPa)
#
#
# Indices 1 2 3 4 5 6 
#
# 1 109.3940 40.6258 53.9275 0.0000 0.0000 0.0000
# 2 40.6258 136.0662 38.6656 0.0000 0.0000 0.0000
# 3 53.9275 38.6656 61.4104 0.0000 0.0000 0.0000
# 4 0.0000 0.0000 0.0000 25.8191 0.0000 0.0000
# 5 0.0000 0.0000 0.0000 0.0000 22.9162 0.0000
# 6 0.0000 0.0000 0.0000 0.0000 0.0000 36.3257
#
#
#
# Elastic Compliance Matrix: (Units=1/GPa)
#
#
# Indices 1 2 3 4 5 6 
#
# 1 0.016223 -0.000969 -0.013637 0.000000 0.000000 0.000000
# 2 -0.000969 0.009009 -0.004821 0.000000 0.000000 0.000000
# 3 -0.013637 -0.004821 0.031295 0.000000 0.000000 0.000000
# 4 0.000000 0.000000 0.000000 0.038731 0.000000 0.000000
# 5 0.000000 0.000000 0.000000 0.000000 0.043637 0.000000
# 6 0.000000 0.000000 0.000000 0.000000 0.000000 0.027529
#
#
# Mechanical properties :
#
#
# Convention : Reuss Voigt Hill
#
# Bulk Modulus (GPa) = 56.58318 63.70095 60.14207
# Shear Modulus (GPa) = 23.67779 28.58897 26.13338
#
# Velocity S-wave (km/s) = 3.43868 3.77851 3.61259
# Velocity P-wave (km/s) = 6.63500 7.13077 6.88735
#
# Compressibility (1/GPa) = 0.01767310
#
# Stress axis : x y z
#
# Youngs Moduli (GPa) = 61.63920 111.00387 31.95448
#
# Poissons Ratio (x) = 0.10754 0.43575
# Poissons Ratio (y) = 0.05972 0.15406
# Poissons Ratio (z) = 0.84055 0.53519
#
# Static dielectric constant tensor:
#      x y z
#    x 3.964740 0.000000 0.000000 
#    y 0.000000 4.033740 0.000000 
#    z 0.000000 0.000000 3.194790 
# 
# 
# High freq. dielectric constant tensor:
#      x y z
#    x 1.781610 0.000000 0.000000 
#    y 0.000000 1.810480 0.000000 
#    z 0.000000 0.000000 1.743630 
# 
# From -- ./inp_files/12679.got.cif
#   From: 2010.03.12/outbox.cif.g09.slc.cpg/sg53_7_cif.got.tgz:12679.got - 2010.04.16 14:36:59.
