data_PCOD8218871
_publ_section_title
;
Structure prediction by ZEFSAII (Michael W. Deem and Ramdas Pophale) SiO2 
 PCOD8218871
Probable space group: P M N A
;
_chemical_formula_sum "Si O2"
_cell_formula_units_Z 56
_cell_length_a 9.049527
_cell_length_b 19.608999
_cell_length_c 18.263051
_cell_angle_alpha 90.000000
_cell_angle_beta 90.000000
_cell_angle_gamma 90.000000
_cell_volume 3240.817956
_symmetry_space_group_name_H-M "P M N A"
_symmetry_group_IT_number 53
_symmetry_cell_setting 'orthorhombic'
loop_
_space_group_symop_operation_xyz
x,y,z
1/2-x,-y,1/2+z
x,-y,-z
1/2-x,y,1/2-z
-x,-y,-z
1/2+x,y,1/2-z
-x,y,z
1/2+x,-y,1/2+z
loop_
_atom_site_type_symbol
_atom_site_label
_atom_site_fract_x
_atom_site_fract_y
_atom_site_fract_z
Si Si1 0.327034 0.068618 0.958403
Si Si2 0.832302 0.021508 0.825569
Si Si3 0.673581 0.647733 0.959066
Si Si4 0.329749 0.197177 0.053118
Si Si5 0.834008 0.868751 0.824189
Si Si6 0.678348 0.438578 0.331267
Si Si7 0.664586 0.455855 0.927124
O O1 0.500000 0.065718 0.943171
O O2 0.242699 0.072762 0.881905
O O3 0.279207 0.138694 0.997060
O O4 0.276134 0.000000 0.000000
O O5 0.750000 0.028365 0.750000
O O6 0.000000 0.043416 0.812990
O O7 0.820306 0.944655 0.857816
O O8 0.500000 0.632990 0.943473
O O9 0.704185 0.727079 0.974314
O O10 0.763321 0.619376 0.888157
O O11 0.721987 0.615640 0.038089
O O12 0.500000 0.186513 0.073193
O O13 0.235126 0.188546 0.125426
O O14 0.750000 0.866900 0.750000
O O15 0.000000 0.847498 0.808468
O O16 0.750000 0.428716 0.250000
O O17 0.500000 0.435305 0.325390
O O18 0.727259 0.512126 0.365492
O O19 0.500000 0.449348 0.892222
O O20 0.656820 0.500000 0.000000
#
# Coordination Sequence:
#
# PCOD8218871 Si02
#       7
#     8   8   8   8   8   8   8
#     4  10  19  32  52  76 102 131 170 219 264 309
#     4  10  20  33  51  72  96 126 164 212 264 313
#     4   9  19  35  53  74 104 140 173 205 249 304
#     4  10  20  34  52  74 102 138 173 208 255 308
#     4  10  20  32  47  68  96 130 167 208 255 307
#     4  11  21  33  53  80 108 137 170 207 247 292
#     4   8  15  31  53  75 101 132 166 204 244 290
#
# _framework density 17.279588
#
# number of rings (size 3 to 8) (size 9 to 14) (size 15 to 20)
#    0.000    2.286    1.429    3.000    0.000    5.714 
#    0.000    0.000    0.000    0.857    0.000    0.000 
#    0.000    0.000    0.000    0.000    0.000    0.000 
#
# Total GULP energy -693909.922973 kJ/mol
# GULP energy per Si atom -12391.248625 kJ/mol
# Density = 1.724026 g / cm^3
# Si number density = 17.279588 Si / 1000 Ang^3
#
#
#
# Elastic Constant Matrix: (Units=GPa)
#
#
# Indices 1 2 3 4 5 6 
#
# 1 55.3974 36.8673 18.4434 0.0000 0.0000 0.0000
# 2 36.8673 109.8865 37.9456 0.0000 0.0000 0.0000
# 3 18.4434 37.9456 38.3682 0.0000 0.0000 0.0000
# 4 0.0000 0.0000 0.0000 24.9196 0.0000 0.0000
# 5 0.0000 0.0000 0.0000 0.0000 33.4536 0.0000
# 6 0.0000 0.0000 0.0000 0.0000 0.0000 19.7805
#
#
#
# Elastic Compliance Matrix: (Units=1/GPa)
#
#
# Indices 1 2 3 4 5 6 
#
# 1 0.023960 -0.006168 -0.005417 0.000000 0.000000 0.000000
# 2 -0.006168 0.015408 -0.012273 0.000000 0.000000 0.000000
# 3 -0.005417 -0.012273 0.040805 0.000000 0.000000 0.000000
# 4 0.000000 0.000000 0.000000 0.040129 0.000000 0.000000
# 5 0.000000 0.000000 0.000000 0.000000 0.029892 0.000000
# 6 0.000000 0.000000 0.000000 0.000000 0.000000 0.050555
#
#
# Mechanical properties :
#
#
# Convention : Reuss Voigt Hill
#
# Bulk Modulus (GPa) = 30.81097 43.35163 37.08130
# Shear Modulus (GPa) = 19.28383 22.99046 21.13714
#
# Velocity S-wave (km/s) = 3.34427 3.65156 3.50128
# Velocity P-wave (km/s) = 5.72553 6.55143 6.15236
#
# Compressibility (1/GPa) = 0.03245598
#
# Stress axis : x y z
#
# Youngs Moduli (GPa) = 41.73666 64.90232 24.50658
#
# Poissons Ratio (x) = 0.40031 0.13276
# Poissons Ratio (y) = 0.25743 0.30077
# Poissons Ratio (z) = 0.22610 0.79656
#
# Static dielectric constant tensor:
#      x y z
#    x 3.277100 0.000000 0.000000 
#    y 0.000000 4.469480 0.000000 
#    z 0.000000 0.000000 3.238570 
# 
# 
# High freq. dielectric constant tensor:
#      x y z
#    x 1.669880 0.000000 0.000000 
#    y 0.000000 1.652150 0.000000 
#    z 0.000000 0.000000 1.655520 
# 
# From -- ./inp_files/26705.got.cif
#   From: 2010.03.12/outbox.cif.g09.slc.cpg/sg53_14_cif.got.tgz:26705.got - 2010.04.16 14:36:59.
