data_PCOD8218422
_publ_section_title
;
Structure prediction by ZEFSAII (Michael W. Deem and Ramdas Pophale) SiO2 
 PCOD8218422
Probable space group: P M N A
;
_chemical_formula_sum "Si O2"
_cell_formula_units_Z 64
_cell_length_a 9.047422
_cell_length_b 16.936641
_cell_length_c 23.719405
_cell_angle_alpha 90.000000
_cell_angle_beta 90.000000
_cell_angle_gamma 90.000000
_cell_volume 3634.594125
_symmetry_space_group_name_H-M "P M N A"
_symmetry_group_IT_number 53
_symmetry_cell_setting 'orthorhombic'
loop_
_space_group_symop_operation_xyz
x,y,z
1/2-x,-y,1/2+z
x,-y,-z
1/2-x,y,1/2-z
-x,-y,-z
1/2+x,y,1/2-z
-x,y,z
1/2+x,-y,1/2+z
loop_
_atom_site_type_symbol
_atom_site_label
_atom_site_fract_x
_atom_site_fract_y
_atom_site_fract_z
Si Si1 0.172681 0.352153 0.086700
Si Si2 0.673793 0.669052 0.023281
Si Si3 0.830499 0.628774 0.195238
Si Si4 0.327379 0.237763 0.867974
Si Si5 0.674187 0.908319 0.810228
Si Si6 0.328739 0.081430 0.809274
Si Si7 0.325275 0.243774 0.310516
Si Si8 0.669954 0.467764 0.585032
O O1 0.212181 0.315444 0.147408
O O2 0.226178 0.442643 0.085733
O O3 0.000000 0.344426 0.074804
O O4 0.257038 0.306072 0.036616
O O5 0.500000 0.662367 0.017067
O O6 0.719564 0.736221 0.068876
O O7 0.735418 0.583395 0.041343
O O8 0.750000 0.594664 0.250000
O O9 0.759744 0.711721 0.177848
O O10 0.807801 0.563390 0.147864
O O11 0.000000 0.644540 0.209212
O O12 0.500000 0.253989 0.859072
O O13 0.285225 0.146379 0.856416
O O14 0.750000 0.910033 0.750000
O O15 0.500000 0.890944 0.806167
O O16 0.755917 0.834952 0.840739
O O17 0.706132 0.995036 0.836767
O O18 0.250000 0.096926 0.750000
O O19 0.500000 0.086891 0.794196
O O20 0.250000 0.261230 0.250000
O O21 0.500000 0.232948 0.301903
O O22 0.500000 0.461415 0.565726
#
# Coordination Sequence:
#
# PCOD8218422 Si02
#       8
#     8   8   8   8   8   8   8   8
#     4  10  21  36  53  71  93 124 159 194 235 285
#     4  10  20  33  51  74  97 122 157 201 241 275
#     4  10  19  30  45  66  94 128 161 192 233 282
#     4   9  18  32  47  67  97 128 159 196 234 274
#     4   9  16  28  47  70  96 125 155 188 230 277
#     4   9  17  28  45  70  98 127 158 191 228 275
#     4  10  20  34  52  74  99 125 154 191 237 285
#     4   9  19  35  51  67  92 127 162 196 237 283
#
# _framework density 17.608568000000002
#
# number of rings (size 3 to 8) (size 9 to 14) (size 15 to 20)
#    0.000    2.500    0.000    3.000    0.000    6.500 
#    0.000    0.000    0.000    0.750    0.000    5.250 
#    0.000    0.000    0.000    0.000    0.000    0.000 
#
# Total GULP energy -793300.768461 kJ/mol
# GULP energy per Si atom -12395.324507 kJ/mol
# Density = 1.756849 g / cm^3
# Si number density = 17.608568 Si / 1000 Ang^3
#
#
#
# Elastic Constant Matrix: (Units=GPa)
#
#
# Indices 1 2 3 4 5 6 
#
# 1 70.2395 39.1730 44.5717 0.0000 0.0000 0.0000
# 2 39.1730 108.0937 50.4812 0.0000 0.0000 0.0000
# 3 44.5717 50.4812 99.0414 0.0000 0.0000 0.0000
# 4 0.0000 0.0000 0.0000 17.5392 0.0000 0.0000
# 5 0.0000 0.0000 0.0000 0.0000 28.9305 0.0000
# 6 0.0000 0.0000 0.0000 0.0000 0.0000 20.3963
#
#
#
# Elastic Compliance Matrix: (Units=1/GPa)
#
#
# Indices 1 2 3 4 5 6 
#
# 1 0.021325 -0.004260 -0.007425 0.000000 0.000000 0.000000
# 2 -0.004260 0.012992 -0.004705 0.000000 0.000000 0.000000
# 3 -0.007425 -0.004705 0.015837 0.000000 0.000000 0.000000
# 4 0.000000 0.000000 0.000000 0.057015 0.000000 0.000000
# 5 0.000000 0.000000 0.000000 0.000000 0.034566 0.000000
# 6 0.000000 0.000000 0.000000 0.000000 0.000000 0.049028
#
#
# Mechanical properties :
#
#
# Convention : Reuss Voigt Hill
#
# Bulk Modulus (GPa) = 57.56202 60.64737 59.10470
# Shear Modulus (GPa) = 21.80214 22.91645 22.35929
#
# Velocity S-wave (km/s) = 3.52256 3.61146 3.56729
# Velocity P-wave (km/s) = 7.02177 7.20464 7.11380
#
# Compressibility (1/GPa) = 0.01737257
#
# Stress axis : x y z
#
# Youngs Moduli (GPa) = 46.89343 76.96770 63.14523
#
# Poissons Ratio (x) = 0.32791 0.46888
# Poissons Ratio (y) = 0.19978 0.29709
# Poissons Ratio (z) = 0.34820 0.36213
#
# Static dielectric constant tensor:
#      x y z
#    x 3.348680 0.000000 0.000000 
#    y 0.000000 3.820670 0.000000 
#    z 0.000000 0.000000 3.173810 
# 
# 
# High freq. dielectric constant tensor:
#      x y z
#    x 1.687300 0.000000 0.000000 
#    y 0.000000 1.679660 0.000000 
#    z 0.000000 0.000000 1.660110 
# 
# From -- ./inp_files/34444.got.cif
#   From: 2010.03.12/outbox.cif.g09.slc.cpg/sg53_18_cif.got.tgz:34444.got - 2010.04.16 14:36:59.
