data_PCOD8218267
_publ_section_title
;
Structure prediction by ZEFSAII (Michael W. Deem and Ramdas Pophale) SiO2 
 PCOD8218267
Probable space group: P M N A
;
_chemical_formula_sum "Si O2"
_cell_formula_units_Z 48
_cell_length_a 8.936567
_cell_length_b 16.966378
_cell_length_c 15.448495
_cell_angle_alpha 90.000000
_cell_angle_beta 90.000000
_cell_angle_gamma 90.000000
_cell_volume 2342.318944
_symmetry_space_group_name_H-M "P M N A"
_symmetry_group_IT_number 53
_symmetry_cell_setting 'orthorhombic'
loop_
_space_group_symop_operation_xyz
x,y,z
1/2-x,-y,1/2+z
x,-y,-z
1/2-x,y,1/2-z
-x,-y,-z
1/2+x,y,1/2-z
-x,y,z
1/2+x,-y,1/2+z
loop_
_atom_site_type_symbol
_atom_site_label
_atom_site_fract_x
_atom_site_fract_y
_atom_site_fract_z
Si Si1 0.672391 0.848994 0.898585
Si Si2 0.175448 0.679844 0.663342
Si Si3 0.174027 0.839172 0.399155
Si Si4 0.668589 0.996035 0.397099
Si Si5 0.322332 0.317631 0.661641
Si Si6 0.327077 0.407348 0.992678
O O1 0.500000 0.870649 0.885279
O O2 0.720550 0.771252 0.846933
O O3 0.767418 0.921706 0.860548
O O4 0.704740 0.832271 0.999022
O O5 0.250000 0.645780 0.750000
O O6 0.234158 0.630865 0.581226
O O7 0.000000 0.668731 0.672126
O O8 0.266837 0.771231 0.352741
O O9 0.000000 0.829775 0.376424
O O10 0.231943 0.923227 0.363366
O O11 0.500000 0.984892 0.363761
O O12 0.676898 0.000000 0.500000
O O13 0.250000 0.350307 0.750000
O O14 0.500000 0.318536 0.668820
O O15 0.271520 0.375329 0.585434
O O16 0.500000 0.383053 0.976889
O O17 0.306949 0.500000 0.000000
#
# Coordination Sequence:
#
# PCOD8218267 Si02
#       6
#     8   8   8   8   8   8
#     4   9  17  32  54  79 114 158 205 251 303 359
#     4  10  21  38  60  90 123 159 201 247 300 360
#     4  10  18  34  58  83 117 159 207 254 306 361
#     4   9  17  28  47  81 118 153 202 253 304 356
#     4  12  25  41  64  93 127 163 206 254 307 368
#     4  10  22  44  70  94 124 161 200 248 307 368
#
# _framework density 20.492514
#
# number of rings (size 3 to 8) (size 9 to 14) (size 15 to 20)
#    0.000    2.000    1.667    2.500    0.000    5.000 
#    0.000    2.500    0.000    2.000    0.000    0.000 
#    0.000    0.000    0.000    0.000    0.000    0.000 
#
# Total GULP energy -595358.830034 kJ/mol
# GULP energy per Si atom -12403.308959 kJ/mol
# Density = 2.044587 g / cm^3
# Si number density = 20.492514 Si / 1000 Ang^3
#
#
#
# Elastic Constant Matrix: (Units=GPa)
#
#
# Indices 1 2 3 4 5 6 
#
# 1 122.6620 50.6456 60.0154 0.0000 0.0000 0.0000
# 2 50.6456 92.1224 54.1083 0.0000 0.0000 0.0000
# 3 60.0154 54.1083 114.3280 0.0000 0.0000 0.0000
# 4 0.0000 0.0000 0.0000 3.7696 0.0000 0.0000
# 5 0.0000 0.0000 0.0000 0.0000 29.0169 0.0000
# 6 0.0000 0.0000 0.0000 0.0000 0.0000 27.1137
#
#
#
# Elastic Compliance Matrix: (Units=1/GPa)
#
#
# Indices 1 2 3 4 5 6 
#
# 1 0.011945 -0.003994 -0.004380 0.000000 0.000000 0.000000
# 2 -0.003994 0.016370 -0.005651 0.000000 0.000000 0.000000
# 3 -0.004380 -0.005651 0.013720 0.000000 0.000000 0.000000
# 4 0.000000 0.000000 0.000000 0.265279 0.000000 0.000000
# 5 0.000000 0.000000 0.000000 0.000000 0.034463 0.000000
# 6 0.000000 0.000000 0.000000 0.000000 0.000000 0.036882
#
#
# Mechanical properties :
#
#
# Convention : Reuss Voigt Hill
#
# Bulk Modulus (GPa) = 71.50396 73.18346 72.34371
# Shear Modulus (GPa) = 12.15451 22.93626 17.54538
#
# Velocity S-wave (km/s) = 2.43805 3.34915 2.92924
# Velocity P-wave (km/s) = 6.54934 7.12359 6.84249
#
# Compressibility (1/GPa) = 0.01398524
#
# Stress axis : x y z
#
# Youngs Moduli (GPa) = 83.71995 61.08744 72.88486
#
# Poissons Ratio (x) = 0.24400 0.31922
# Poissons Ratio (y) = 0.33439 0.41185
# Poissons Ratio (z) = 0.36668 0.34519
#
# Static dielectric constant tensor:
#      x y z
#    x 3.650460 0.000000 0.000000 
#    y 0.000000 3.768440 0.000000 
#    z 0.000000 0.000000 3.658310 
# 
# 
# High freq. dielectric constant tensor:
#      x y z
#    x 1.796480 0.000000 0.000000 
#    y 0.000000 1.804160 0.000000 
#    z 0.000000 0.000000 1.791620 
# 
# From -- ./inp_files/20163.got.cif
#   From: 2010.03.12/outbox.cif.g09.slc.cpg/sg53_11_cif.got.tgz:20163.got - 2010.04.16 14:36:59.
