data_PCOD8218525
_publ_section_title
;
Structure prediction by ZEFSAII (Michael W. Deem and Ramdas Pophale) SiO2 
 PCOD8218525
Probable space group: P M N A
;
_chemical_formula_sum "Si O2"
_cell_formula_units_Z 56
_cell_length_a 8.924243
_cell_length_b 16.263010
_cell_length_c 24.790348
_cell_angle_alpha 90.000000
_cell_angle_beta 90.000000
_cell_angle_gamma 90.000000
_cell_volume 3597.948475
_symmetry_space_group_name_H-M "P M N A"
_symmetry_group_IT_number 53
_symmetry_cell_setting 'orthorhombic'
loop_
_space_group_symop_operation_xyz
x,y,z
1/2-x,-y,1/2+z
x,-y,-z
1/2-x,y,1/2-z
-x,-y,-z
1/2+x,y,1/2-z
-x,y,z
1/2+x,-y,1/2+z
loop_
_atom_site_type_symbol
_atom_site_label
_atom_site_fract_x
_atom_site_fract_y
_atom_site_fract_z
Si Si1 0.321689 0.474872 0.415409
Si Si2 0.822454 0.624734 0.017139
Si Si3 0.823845 0.879713 0.596968
Si Si4 0.676150 0.787531 0.694854
Si Si5 0.824186 0.597738 0.805025
Si Si6 0.822922 0.808042 0.008382
Si Si7 0.165200 0.968420 0.060733
O O1 0.500000 0.470239 0.413091
O O2 0.266178 0.565641 0.434139
O O3 0.262548 0.408624 0.459457
O O4 0.258407 0.453395 0.356015
O O5 0.000000 0.620842 0.015824
O O6 0.768046 0.717875 0.027176
O O7 0.743832 0.842069 0.648119
O O8 0.767607 0.831472 0.544756
O O9 0.000000 0.870222 0.602526
O O10 0.782447 0.976928 0.594252
O O11 0.750000 0.818340 0.750000
O O12 0.500000 0.801595 0.697758
O O13 0.716973 0.692543 0.684409
O O14 0.750000 0.564857 0.750000
O O15 0.000000 0.585127 0.798730
O O16 0.000000 0.809916 0.994464
O O17 0.786374 0.872137 0.057029
O O18 0.000000 0.976710 0.087251
O O19 0.157949 0.000000 0.000000
#
# Coordination Sequence:
#
# PCOD8218525 Si02
#       7
#     8   8   8   8   8   8   8
#     4   8  13  22  38  62  87 108 135 172 210 247
#     4   8  13  22  39  62  85 108 137 174 212 250
#     4  11  20  28  41  61  85 113 141 170 208 250
#     4  10  19  31  45  62  85 111 141 173 205 244
#     4   9  17  28  43  62  84 111 140 170 204 243
#     4   9  16  27  43  62  84 111 142 174 209 247
#     4   8  15  27  41  58  81 108 138 171 206 244
#
# _framework density 15.564425
#
# number of rings (size 3 to 8) (size 9 to 14) (size 15 to 20)
#    0.000    3.000    0.000    4.286    0.000    5.429 
#    0.000    0.000    0.000    0.857    0.000    4.000 
#    0.000    2.286    0.000    0.000    0.000    0.000 
#
# Total GULP energy -694001.407631 kJ/mol
# GULP energy per Si atom -12392.882279 kJ/mol
# Density = 1.552900 g / cm^3
# Si number density = 15.564425 Si / 1000 Ang^3
#
#
#
# Elastic Constant Matrix: (Units=GPa)
#
#
# Indices 1 2 3 4 5 6 
#
# 1 44.1924 24.7858 27.8154 0.0000 0.0000 0.0000
# 2 24.7858 123.4331 56.0335 0.0000 0.0000 0.0000
# 3 27.8154 56.0335 105.1353 0.0000 0.0000 0.0000
# 4 0.0000 0.0000 0.0000 27.0614 0.0000 0.0000
# 5 0.0000 0.0000 0.0000 0.0000 22.0414 0.0000
# 6 0.0000 0.0000 0.0000 0.0000 0.0000 17.0513
#
#
#
# Elastic Compliance Matrix: (Units=1/GPa)
#
#
# Indices 1 2 3 4 5 6 
#
# 1 0.027954 -0.002976 -0.005810 0.000000 0.000000 0.000000
# 2 -0.002976 0.011004 -0.005077 0.000000 0.000000 0.000000
# 3 -0.005810 -0.005077 0.013755 0.000000 0.000000 0.000000
# 4 0.000000 0.000000 0.000000 0.036953 0.000000 0.000000
# 5 0.000000 0.000000 0.000000 0.000000 0.045369 0.000000
# 6 0.000000 0.000000 0.000000 0.000000 0.000000 0.058646
#
#
# Mechanical properties :
#
#
# Convention : Reuss Voigt Hill
#
# Bulk Modulus (GPa) = 40.02119 54.44780 47.23450
# Shear Modulus (GPa) = 21.76405 24.17256 22.96831
#
# Velocity S-wave (km/s) = 3.74347 3.94517 3.84564
# Velocity P-wave (km/s) = 6.66737 7.47065 7.08041
#
# Compressibility (1/GPa) = 0.02498676
#
# Stress axis : x y z
#
# Youngs Moduli (GPa) = 35.77291 90.87524 72.70227
#
# Poissons Ratio (x) = 0.27044 0.42238
# Poissons Ratio (y) = 0.10646 0.36914
# Poissons Ratio (z) = 0.20783 0.46142
#
# Static dielectric constant tensor:
#      x y z
#    x 2.748270 0.000000 0.000000 
#    y 0.000000 3.405170 0.000000 
#    z 0.000000 0.000000 2.862000 
# 
# 
# High freq. dielectric constant tensor:
#      x y z
#    x 1.573080 0.000000 0.000000 
#    y 0.000000 1.594510 0.000000 
#    z 0.000000 0.000000 1.572580 
# 
# From -- ./inp_files/34362.got.cif
#   From: 2010.03.12/outbox.cif.g09.slc.cpg/sg53_18_cif.got.tgz:34362.got - 2010.04.16 14:36:59.
