data_PCOD8218784
_publ_section_title
;
Structure prediction by ZEFSAII (Michael W. Deem and Ramdas Pophale) SiO2 
 PCOD8218784
Probable space group: P M N A
;
_chemical_formula_sum "Si O2"
_cell_formula_units_Z 64
_cell_length_a 9.257300
_cell_length_b 23.952180
_cell_length_c 15.599620
_cell_angle_alpha 90.000000
_cell_angle_beta 90.000000
_cell_angle_gamma 90.000000
_cell_volume 3458.942990
_symmetry_space_group_name_H-M "P M N A"
_symmetry_group_IT_number 53
_symmetry_cell_setting 'orthorhombic'
loop_
_space_group_symop_operation_xyz
x,y,z
1/2-x,-y,1/2+z
x,-y,-z
1/2-x,y,1/2-z
-x,-y,-z
1/2+x,y,1/2-z
-x,y,z
1/2+x,-y,1/2+z
loop_
_atom_site_type_symbol
_atom_site_label
_atom_site_fract_x
_atom_site_fract_y
_atom_site_fract_z
Si Si1 0.671309 0.939259 0.096066
Si Si2 0.172032 0.630744 0.500000
Si Si3 0.171499 0.176182 0.666048
Si Si4 0.671499 0.823818 0.833952
Si Si5 0.328691 0.939259 0.903934
Si Si6 0.168622 0.435358 0.665149
Si Si7 0.668622 0.564642 0.834851
Si Si8 0.671333 0.756613 0.000000
O O1 0.500000 0.936548 0.090926
O O2 0.725487 0.887955 0.153983
O O3 0.721091 1.000000 0.133240
O O4 0.733356 0.932088 1.000000
O O5 0.229526 0.599482 0.415300
O O6 0.229526 0.599482 0.584700
O O7 0.232352 0.693733 0.500000
O O8 0.000000 0.629122 0.500000
O O9 0.250000 0.200347 0.750000
O O10 0.226183 0.211811 0.584855
O O11 0.000000 0.180760 0.677676
O O12 0.750000 0.799653 0.750000
O O13 0.500000 0.819240 0.822324
O O14 0.725487 0.887955 0.846017
O O15 0.726183 0.788189 0.915145
O O16 0.500000 0.936548 0.909074
O O17 0.250000 0.414464 0.750000
O O18 0.201385 0.500000 0.646402
O O19 0.000000 0.424548 0.679523
O O20 0.750000 0.585536 0.750000
O O21 0.500000 0.575452 0.820477
O O22 0.500000 0.756477 1.000000
#
# Coordination Sequence:
#
# PCOD8218784 Si02
#       8
#     8   8   8   8   8   8   8   8
#     4   8  13  24  45  69  90 116 152 190 226 272
#     4   9  17  30  50  71  92 125 164 196 226 271
#     4  10  19  32  50  71  93 121 156 194 234 278
#     4  10  19  32  50  71  93 121 156 194 234 278
#     4   8  13  24  45  69  90 116 152 190 226 272
#     4   9  17  30  49  73  99 125 155 192 233 276
#     4   9  17  30  49  73  99 125 155 192 233 276
#     4   9  18  33  50  68  93 125 162 196 228 273
#
# _framework density 18.502763000000002
#
# number of rings (size 3 to 8) (size 9 to 14) (size 15 to 20)
#    0.000    3.000    1.250    1.125    0.000    3.000 
#    0.000    1.250    0.000    4.500    0.000    1.750 
#    0.000    0.000    0.000    0.000    0.000    0.000 
#
# Total GULP energy -793263.466875 kJ/mol
# GULP energy per Si atom -12394.741670 kJ/mol
# Density = 1.846065 g / cm^3
# Si number density = 18.502763 Si / 1000 Ang^3
#
#
#
# Elastic Constant Matrix: (Units=GPa)
#
#
# Indices 1 2 3 4 5 6 
#
# 1 20.6193 24.0500 34.9981 0.0000 0.0000 0.0000
# 2 24.0500 128.6895 87.8100 0.0000 0.0000 0.0000
# 3 34.9981 87.8100 175.1008 0.0000 0.0000 0.0000
# 4 0.0000 0.0000 0.0000 14.7939 0.0000 0.0000
# 5 0.0000 0.0000 0.0000 0.0000 27.8828 0.0000
# 6 0.0000 0.0000 0.0000 0.0000 0.0000 10.9523
#
#
#
# Elastic Compliance Matrix: (Units=1/GPa)
#
#
# Indices 1 2 3 4 5 6 
#
# 1 0.076189 -0.005849 -0.012295 0.000000 0.000000 0.000000
# 2 -0.005849 0.012262 -0.004980 0.000000 0.000000 0.000000
# 3 -0.012295 -0.004980 0.010666 0.000000 0.000000 0.000000
# 4 0.000000 0.000000 0.000000 0.067596 0.000000 0.000000
# 5 0.000000 0.000000 0.000000 0.000000 0.035864 0.000000
# 6 0.000000 0.000000 0.000000 0.000000 0.000000 0.091305
#
#
# Mechanical properties :
#
#
# Convention : Reuss Voigt Hill
#
# Bulk Modulus (GPa) = 18.91479 68.68063 43.79771
# Shear Modulus (GPa) = 13.97611 22.56256 18.26933
#
# Velocity S-wave (km/s) = 2.75135 3.49580 3.14568
# Velocity P-wave (km/s) = 4.50978 7.31395 6.07585
#
# Compressibility (1/GPa) = 0.05286869
#
# Stress axis : x y z
#
# Youngs Moduli (GPa) = 13.12518 81.55411 93.75748
#
# Poissons Ratio (x) = 0.47703 1.15275
# Poissons Ratio (y) = 0.07677 0.46691
# Poissons Ratio (z) = 0.16137 0.40614
#
# Static dielectric constant tensor:
#      x y z
#    x 2.781100 0.000000 0.000000 
#    y 0.000000 3.703520 0.000000 
#    z 0.000000 0.000000 3.465340 
# 
# 
# High freq. dielectric constant tensor:
#      x y z
#    x 1.653100 0.000000 0.000000 
#    y 0.000000 1.724000 0.000000 
#    z 0.000000 0.000000 1.723350 
# 
# From -- ./inp_files/21034.got.cif
#   From: 2010.03.12/outbox.cif.g09.slc.cpg/sg53_11_cif.got.tgz:21034.got - 2010.04.16 14:36:59.
