data_PCOD8218021
_publ_section_title
;
Structure prediction by ZEFSAII (Michael W. Deem and Ramdas Pophale) SiO2 
 PCOD8218021
Probable space group: P M N A
;
_chemical_formula_sum "Si O2"
_cell_formula_units_Z 56
_cell_length_a 9.064793
_cell_length_b 14.330910
_cell_length_c 25.571509
_cell_angle_alpha 90.000000
_cell_angle_beta 90.000000
_cell_angle_gamma 90.000000
_cell_volume 3321.911183
_symmetry_space_group_name_H-M "P M N A"
_symmetry_group_IT_number 53
_symmetry_cell_setting 'orthorhombic'
loop_
_space_group_symop_operation_xyz
x,y,z
1/2-x,-y,1/2+z
x,-y,-z
1/2-x,y,1/2-z
-x,-y,-z
1/2+x,y,1/2-z
-x,y,z
1/2+x,-y,1/2+z
loop_
_atom_site_type_symbol
_atom_site_label
_atom_site_fract_x
_atom_site_fract_y
_atom_site_fract_z
Si Si1 0.325329 0.894036 0.939295
Si Si2 0.326635 0.608288 0.302697
Si Si3 0.170724 0.392735 0.496692
Si Si4 0.172852 0.394631 0.197523
Si Si5 0.673674 0.899665 0.057065
Si Si6 0.174773 0.284068 0.095563
Si Si7 0.328436 0.710475 0.104557
O O1 0.500000 0.877070 0.934652
O O2 0.241495 0.819881 0.903210
O O3 0.280068 0.998766 0.920699
O O4 0.265859 0.881542 0.998599
O O5 0.250000 0.644476 0.250000
O O6 0.500000 0.620322 0.296392
O O7 0.281256 0.501425 0.313805
O O8 0.271803 0.671071 0.349952
O O9 0.218764 0.500000 0.500000
O O10 0.267642 0.342372 0.453407
O O11 0.202883 0.347158 0.552359
O O12 0.000000 0.381789 0.480804
O O13 0.250000 0.357154 0.250000
O O14 0.227634 0.333733 0.148722
O O15 0.000000 0.385395 0.206256
O O16 0.500000 0.897431 0.050215
O O17 0.724288 0.817536 0.095841
O O18 0.000000 0.278868 0.092147
O O19 0.500000 0.704413 0.120409
#
# Coordination Sequence:
#
# PCOD8218021 Si02
#       7
#     8   8   8   8   8   8   8
#     4   9  16  31  52  72  96 132 172 205 241 293
#     4  10  20  35  53  73  97 130 169 207 247 293
#     4  10  20  32  48  72 101 135 171 201 237 295
#     4   9  20  36  52  71  97 130 169 207 246 292
#     4   8  15  29  51  73  97 130 169 208 243 285
#     4  11  21  32  48  74 106 133 159 204 258 302
#     4  10  18  31  50  74 102 130 164 206 246 291
#
# _framework density 16.857765000000001
#
# number of rings (size 3 to 8) (size 9 to 14) (size 15 to 20)
#    0.000    2.429    1.429    2.571    0.000    2.571 
#    0.000    2.143    0.000    0.857    0.000    2.000 
#    0.000    0.000    0.000    0.000    0.000    0.000 
#
# Total GULP energy -694361.225758 kJ/mol
# GULP energy per Si atom -12399.307603 kJ/mol
# Density = 1.681940 g / cm^3
# Si number density = 16.857765 Si / 1000 Ang^3
#
#
#
# Elastic Constant Matrix: (Units=GPa)
#
#
# Indices 1 2 3 4 5 6 
#
# 1 53.5129 41.7832 43.2792 0.0000 0.0000 0.0000
# 2 41.7832 133.9288 65.9193 0.0000 0.0000 0.0000
# 3 43.2792 65.9193 98.3613 0.0000 0.0000 0.0000
# 4 0.0000 0.0000 0.0000 9.3390 0.0000 0.0000
# 5 0.0000 0.0000 0.0000 0.0000 29.4528 0.0000
# 6 0.0000 0.0000 0.0000 0.0000 0.0000 23.2396
#
#
#
# Elastic Compliance Matrix: (Units=1/GPa)
#
#
# Indices 1 2 3 4 5 6 
#
# 1 0.030627 -0.004361 -0.010554 0.000000 0.000000 0.000000
# 2 -0.004361 0.011763 -0.005964 0.000000 0.000000 0.000000
# 3 -0.010554 -0.005964 0.018807 0.000000 0.000000 0.000000
# 4 0.000000 0.000000 0.000000 0.107078 0.000000 0.000000
# 5 0.000000 0.000000 0.000000 0.000000 0.033953 0.000000
# 6 0.000000 0.000000 0.000000 0.000000 0.000000 0.043030
#
#
# Mechanical properties :
#
#
# Convention : Reuss Voigt Hill
#
# Bulk Modulus (GPa) = 51.44026 65.30739 58.37382
# Shear Modulus (GPa) = 17.03603 21.39436 19.21519
#
# Velocity S-wave (km/s) = 3.18240 3.56632 3.37982
# Velocity P-wave (km/s) = 6.63959 7.46877 7.06635
#
# Compressibility (1/GPa) = 0.01944003
#
# Stress axis : x y z
#
# Youngs Moduli (GPa) = 32.65062 85.01412 53.17047
#
# Poissons Ratio (x) = 0.37072 0.56114
# Poissons Ratio (y) = 0.14238 0.31713
# Poissons Ratio (z) = 0.34458 0.50706
#
# Static dielectric constant tensor:
#      x y z
#    x 2.979920 0.000000 0.000000 
#    y 0.000000 3.597700 0.000000 
#    z 0.000000 0.000000 3.149820 
# 
# 
# High freq. dielectric constant tensor:
#      x y z
#    x 1.636380 0.000000 0.000000 
#    y 0.000000 1.657070 0.000000 
#    z 0.000000 0.000000 1.633420 
# 
# From -- ./inp_files/30737.got.cif
#   From: 2010.03.12/outbox.cif.g09.slc.cpg/sg53_16_cif.got.tgz:30737.got - 2010.04.16 14:36:59.
