data_PCOD8218122
_publ_section_title
;
Structure prediction by ZEFSAII (Michael W. Deem and Ramdas Pophale) SiO2 
 PCOD8218122
Probable space group: P M N A
;
_chemical_formula_sum "Si O2"
_cell_formula_units_Z 64
_cell_length_a 8.494462
_cell_length_b 14.877455
_cell_length_c 29.687071
_cell_angle_alpha 90.000000
_cell_angle_beta 90.000000
_cell_angle_gamma 90.000000
_cell_volume 3751.732577
_symmetry_space_group_name_H-M "P M N A"
_symmetry_group_IT_number 53
_symmetry_cell_setting 'orthorhombic'
loop_
_space_group_symop_operation_xyz
x,y,z
1/2-x,-y,1/2+z
x,-y,-z
1/2-x,y,1/2-z
-x,-y,-z
1/2+x,y,1/2-z
-x,y,z
1/2+x,-y,1/2+z
loop_
_atom_site_type_symbol
_atom_site_label
_atom_site_fract_x
_atom_site_fract_y
_atom_site_fract_z
Si Si1 0.315630 0.123967 0.057824
Si Si2 0.817303 0.815771 0.459972
Si Si3 0.683354 0.541258 0.937836
Si Si4 0.186885 0.292328 0.385562
Si Si5 0.686549 0.002474 0.202443
Si Si6 0.183988 0.046312 0.891896
Si Si7 0.185669 0.207961 0.296026
Si Si8 0.318577 0.375129 0.525362
O O1 0.500000 0.106321 0.066955
O O2 0.257755 0.219242 0.077656
O O3 0.220615 0.046801 0.083147
O O4 0.276764 0.125945 0.004655
O O5 0.775783 0.873729 0.416504
O O6 0.718882 0.724216 0.457615
O O7 0.000000 0.789997 0.460020
O O8 0.500000 0.518951 0.932433
O O9 0.745235 0.607877 0.898450
O O10 0.781798 0.448563 0.935413
O O11 0.707961 0.596256 0.984079
O O12 0.256679 0.266252 0.336896
O O13 0.000000 0.290642 0.384549
O O14 0.750000 0.962528 0.250000
O O15 0.500000 0.992312 0.200515
O O16 0.743017 0.105617 0.198451
O O17 0.762130 0.951378 0.160112
O O18 0.000000 0.065532 0.894549
O O19 0.250000 0.250433 0.250000
O O20 0.000000 0.211704 0.295851
O O21 0.500000 0.381671 0.511101
#
# Coordination Sequence:
#
# PCOD8218122 Si02
#       8
#     8   8   8   8   8   8   8   8
#     4  10  19  35  52  70  98 139 180 213 247 296
#     4  11  22  37  55  71  95 138 183 216 254 306
#     4  10  18  32  53  73  95 132 174 204 241 302
#     4   9  16  30  51  73  97 131 173 210 242 289
#     4  10  19  34  54  74 100 133 171 214 257 302
#     4  12  24  35  49  75 106 137 172 212 260 309
#     4   9  17  30  48  70  98 128 163 205 249 293
#     4  11  21  33  48  73 104 129 159 211 263 297
#
# _framework density 17.058785
#
# number of rings (size 3 to 8) (size 9 to 14) (size 15 to 20)
#    0.000    1.750    2.500    4.500    0.000    3.000 
#    0.000    1.250    0.000    0.000    0.000    0.875 
#    0.000    2.000    0.000    0.000    0.000    0.000 
#
# Total GULP energy -793558.955287 kJ/mol
# GULP energy per Si atom -12399.358676 kJ/mol
# Density = 1.701996 g / cm^3
# Si number density = 17.058785 Si / 1000 Ang^3
#
#
#
# Elastic Constant Matrix: (Units=GPa)
#
#
# Indices 1 2 3 4 5 6 
#
# 1 45.5353 9.9491 15.7624 0.0000 0.0000 0.0000
# 2 9.9491 66.4808 33.8528 0.0000 0.0000 0.0000
# 3 15.7624 33.8528 116.6105 0.0000 0.0000 0.0000
# 4 0.0000 0.0000 0.0000 20.9435 0.0000 0.0000
# 5 0.0000 0.0000 0.0000 0.0000 23.7196 0.0000
# 6 0.0000 0.0000 0.0000 0.0000 0.0000 19.9880
#
#
#
# Elastic Compliance Matrix: (Units=1/GPa)
#
#
# Indices 1 2 3 4 5 6 
#
# 1 0.023313 -0.002211 -0.002509 0.000000 0.000000 0.000000
# 2 -0.002211 0.017861 -0.004886 0.000000 0.000000 0.000000
# 3 -0.002509 -0.004886 0.010333 0.000000 0.000000 0.000000
# 4 0.000000 0.000000 0.000000 0.047747 0.000000 0.000000
# 5 0.000000 0.000000 0.000000 0.000000 0.042159 0.000000
# 6 0.000000 0.000000 0.000000 0.000000 0.000000 0.050030
#
#
# Mechanical properties :
#
#
# Convention : Reuss Voigt Hill
#
# Bulk Modulus (GPa) = 30.96589 38.63947 34.80268
# Shear Modulus (GPa) = 22.58135 24.20104 23.39120
#
# Velocity S-wave (km/s) = 3.64227 3.77063 3.70700
# Velocity P-wave (km/s) = 5.98999 6.45421 6.22643
#
# Compressibility (1/GPa) = 0.03229360
#
# Stress axis : x y z
#
# Youngs Moduli (GPa) = 42.89510 55.98795 96.77486
#
# Poissons Ratio (x) = 0.12379 0.24284
# Poissons Ratio (y) = 0.09484 0.47287
# Poissons Ratio (z) = 0.10764 0.27357
#
# Static dielectric constant tensor:
#      x y z
#    x 3.074250 0.000000 0.000000 
#    y 0.000000 3.249750 0.000000 
#    z 0.000000 0.000000 3.495990 
# 
# 
# High freq. dielectric constant tensor:
#      x y z
#    x 1.655380 0.000000 0.000000 
#    y 0.000000 1.638790 0.000000 
#    z 0.000000 0.000000 1.646170 
# 
# From -- ./inp_files/38499.got.cif
#   From: 2010.03.12/outbox.cif.g09.slc.cpg/sg53_20_cif.got.tgz:38499.got - 2010.04.16 14:36:59.
