data_PCOD8218281
_publ_section_title
;
Structure prediction by ZEFSAII (Michael W. Deem and Ramdas Pophale) SiO2 
 PCOD8218281
Probable space group: P M N A
;
_chemical_formula_sum "Si O2"
_cell_formula_units_Z 24
_cell_length_a 10.426243
_cell_length_b 8.842091
_cell_length_c 13.471786
_cell_angle_alpha 90.000000
_cell_angle_beta 90.000000
_cell_angle_gamma 90.000000
_cell_volume 1241.961114
_symmetry_space_group_name_H-M "P M N A"
_symmetry_group_IT_number 53
_symmetry_cell_setting 'orthorhombic'
loop_
_space_group_symop_operation_xyz
x,y,z
1/2-x,-y,1/2+z
x,-y,-z
1/2-x,y,1/2-z
-x,-y,-z
1/2+x,y,1/2-z
-x,y,z
1/2+x,-y,1/2+z
loop_
_atom_site_type_symbol
_atom_site_label
_atom_site_fract_x
_atom_site_fract_y
_atom_site_fract_z
Si Si1 0.750000 0.045096 0.750000
Si Si2 0.000000 0.828721 0.953884
Si Si3 0.000000 0.325079 0.476096
Si Si4 0.248704 0.163926 0.544744
Si Si5 0.000000 0.145453 0.276762
O O1 0.792015 0.150634 0.840706
O O2 0.630430 0.948618 0.792314
O O3 0.131369 0.752268 0.991240
O O4 0.000000 0.802003 0.836515
O O5 0.000000 0.000000 0.000000
O O6 0.000000 0.500000 0.500000
O O7 0.876637 0.262505 0.532291
O O8 0.000000 0.281398 0.358319
O O9 0.220950 0.000000 0.500000
#
# Coordination Sequence:
#
# PCOD8218281 Si02
#       5
#     4   4   4   8   4
#     4  12  20  32  66  96 118 150 214 272 320 346
#     4  10  18  34  61  97 119 140 212 278 314 352
#     4  12  26  41  57  89 137 177 202 239 316 400
#     4  11  20  38  62  95 119 155 213 272 310 363
#     4  12  19  34  60  93 118 161 203 260 322 364
#
# _framework density 19.324276000000001
#
# number of rings (size 3 to 8) (size 9 to 14) (size 15 to 20)
#    0.000    0.667   10.000    1.500    0.000    0.000 
#    0.000    5.833    0.000    0.000    0.000    0.000 
#    0.000    0.000    0.000    0.000    0.000    0.000 
#
# Total GULP energy -297422.971490 kJ/mol
# GULP energy per Si atom -12392.623812 kJ/mol
# Density = 1.928029 g / cm^3
# Si number density = 19.324276 Si / 1000 Ang^3
#
#
#
# Elastic Constant Matrix: (Units=GPa)
#
#
# Indices 1 2 3 4 5 6 
#
# 1 162.3249 47.0562 25.4525 0.0000 0.0000 0.0000
# 2 47.0562 73.3606 41.0487 0.0000 0.0000 0.0000
# 3 25.4525 41.0487 168.0008 0.0000 0.0000 0.0000
# 4 0.0000 0.0000 0.0000 20.5645 0.0000 0.0000
# 5 0.0000 0.0000 0.0000 0.0000 32.7901 0.0000
# 6 0.0000 0.0000 0.0000 0.0000 0.0000 -26.1360
#
#
#
# Elastic Compliance Matrix: (Units=1/GPa)
#
#
# Indices 1 2 3 4 5 6 
#
# 1 0.007568 -0.004880 0.000046 0.000000 0.000000 0.000000
# 2 -0.004880 0.018937 -0.003888 0.000000 0.000000 0.000000
# 3 0.000046 -0.003888 0.006895 0.000000 0.000000 0.000000
# 4 0.000000 0.000000 0.000000 0.048628 0.000000 0.000000
# 5 0.000000 0.000000 0.000000 0.000000 0.030497 0.000000
# 6 0.000000 0.000000 0.000000 0.000000 0.000000 -0.038261
#
#
# Mechanical properties :
#
#
# Convention : Reuss Voigt Hill
#
# Bulk Modulus (GPa) = 62.67066 70.08902 66.37984
# Shear Modulus (GPa) = 51.53276 24.78564 38.15920
#
# Velocity S-wave (km/s) = 5.16965 3.58525 4.44855
# Velocity P-wave (km/s) = 8.25440 7.31350 7.79816
#
# Compressibility (1/GPa) = 0.01595643
#
# Stress axis : x y z
#
# Youngs Moduli (GPa) = 132.13612 52.80727 145.02627
#
# Poissons Ratio (x) = 0.25770 -0.00664
# Poissons Ratio (y) = 0.64482 0.56381
# Poissons Ratio (z) = -0.00605 0.20529
#
# Static dielectric constant tensor:
#      x y z
#    x 4.346160 0.000000 0.000000 
#    y 0.000000 2.898610 0.000000 
#    z 0.000000 0.000000 3.899630 
# 
# 
# High freq. dielectric constant tensor:
#      x y z
#    x 1.787810 0.000000 0.000000 
#    y 0.000000 1.670100 0.000000 
#    z 0.000000 0.000000 1.778450 
# 
# From -- ./inp_files/19397.got.cif
#   From: 2010.03.12/outbox.cif.g09.slc.cpg/sg53_10_cif.got.tgz:19397.got - 2010.04.16 14:36:59.
