data_PCOD8218609
_publ_section_title
;
Structure prediction by ZEFSAII (Michael W. Deem and Ramdas Pophale) SiO2 
 PCOD8218609
Probable space group: P M N A
;
_chemical_formula_sum "Si O2"
_cell_formula_units_Z 64
_cell_length_a 8.957547
_cell_length_b 21.110134
_cell_length_c 18.946434
_cell_angle_alpha 90.000000
_cell_angle_beta 90.000000
_cell_angle_gamma 90.000000
_cell_volume 3582.676268
_symmetry_space_group_name_H-M "P M N A"
_symmetry_group_IT_number 53
_symmetry_cell_setting 'orthorhombic'
loop_
_space_group_symop_operation_xyz
x,y,z
1/2-x,-y,1/2+z
x,-y,-z
1/2-x,y,1/2-z
-x,-y,-z
1/2+x,y,1/2-z
-x,y,z
1/2+x,-y,1/2+z
loop_
_atom_site_type_symbol
_atom_site_label
_atom_site_fract_x
_atom_site_fract_y
_atom_site_fract_z
Si Si1 0.167679 0.766661 0.860733
Si Si2 0.675717 0.889702 0.818376
Si Si3 0.673074 0.646224 0.902202
Si Si4 0.174349 0.393483 0.822559
Si Si5 0.325012 0.539801 0.676992
Si Si6 0.166954 0.188743 0.979696
Si Si7 0.327389 0.309239 0.939003
Si Si8 0.175318 0.068299 0.472284
O O1 0.263764 0.818062 0.818846
O O2 0.249198 0.699268 0.853166
O O3 0.000000 0.762743 0.829559
O O4 0.161812 0.785665 0.941734
O O5 0.750000 0.923969 0.750000
O O6 0.500000 0.888873 0.808593
O O7 0.722472 0.926112 0.890010
O O8 0.500000 0.643169 0.882109
O O9 0.751529 0.579301 0.886557
O O10 0.696533 0.661390 0.984024
O O11 0.250000 0.371691 0.750000
O O12 0.209638 0.466639 0.838752
O O13 0.239163 0.353229 0.885906
O O14 0.000000 0.380570 0.815774
O O15 0.250000 0.561279 0.750000
O O16 0.500000 0.553644 0.681054
O O17 0.262621 0.238007 0.933385
O O18 0.000000 0.183110 0.948301
O O19 0.243286 0.119853 0.978847
O O20 0.500000 0.306678 0.917947
O O21 0.000000 0.079921 0.480626
O O22 0.225329 0.000000 0.500000
#
# Coordination Sequence:
#
# PCOD8218609 Si02
#       8
#     8   8   8   8   8   8   8   8
#     4   9  17  30  47  68  96 128 162 200 243 290
#     4  10  19  31  48  71 100 132 168 208 247 291
#     4  10  20  33  50  74 103 134 169 208 252 302
#     4  10  21  37  56  76  99 129 168 213 262 315
#     4  10  21  36  52  70  96 131 169 211 258 309
#     4   9  17  30  50  76 103 128 159 202 246 290
#     4  10  20  34  54  78 104 134 167 208 256 304
#     4   9  18  33  53  76 103 137 173 207 248 299
#
# _framework density 17.863741000000001
#
# number of rings (size 3 to 8) (size 9 to 14) (size 15 to 20)
#    0.000    2.375    0.000    2.625    0.000    7.750 
#    0.000    5.000    0.000    0.750    0.000    3.500 
#    0.000    0.000    0.000    0.000    0.000    0.000 
#
# Total GULP energy -793665.474828 kJ/mol
# GULP energy per Si atom -12401.023044 kJ/mol
# Density = 1.782308 g / cm^3
# Si number density = 17.863741 Si / 1000 Ang^3
#
#
#
# Elastic Constant Matrix: (Units=GPa)
#
#
# Indices 1 2 3 4 5 6 
#
# 1 110.6829 61.0660 42.4244 0.0000 0.0000 0.0000
# 2 61.0660 114.5098 49.5566 0.0000 0.0000 0.0000
# 3 42.4244 49.5566 62.4233 0.0000 0.0000 0.0000
# 4 0.0000 0.0000 0.0000 15.5090 0.0000 0.0000
# 5 0.0000 0.0000 0.0000 0.0000 29.7716 0.0000
# 6 0.0000 0.0000 0.0000 0.0000 0.0000 30.5003
#
#
#
# Elastic Compliance Matrix: (Units=1/GPa)
#
#
# Indices 1 2 3 4 5 6 
#
# 1 0.013914 -0.005069 -0.005432 0.000000 0.000000 0.000000
# 2 -0.005069 0.015150 -0.008582 0.000000 0.000000 0.000000
# 3 -0.005432 -0.008582 0.026525 0.000000 0.000000 0.000000
# 4 0.000000 0.000000 0.000000 0.064479 0.000000 0.000000
# 5 0.000000 0.000000 0.000000 0.000000 0.033589 0.000000
# 6 0.000000 0.000000 0.000000 0.000000 0.000000 0.032787
#
#
# Mechanical properties :
#
#
# Convention : Reuss Voigt Hill
#
# Bulk Modulus (GPa) = 57.39893 65.96778 61.68336
# Shear Modulus (GPa) = 21.69981 24.12745 22.91363
#
# Velocity S-wave (km/s) = 3.48909 3.67909 3.58535
# Velocity P-wave (km/s) = 6.95938 7.41998 7.19337
#
# Compressibility (1/GPa) = 0.01742193
#
# Stress axis : x y z
#
# Youngs Moduli (GPa) = 71.87256 66.00473 37.70083
#
# Poissons Ratio (x) = 0.33459 0.20478
# Poissons Ratio (y) = 0.36433 0.32357
# Poissons Ratio (z) = 0.39039 0.56649
#
# Static dielectric constant tensor:
#      x y z
#    x 3.507920 0.000000 0.000000 
#    y 0.000000 3.275080 0.000000 
#    z 0.000000 0.000000 3.195560 
# 
# 
# High freq. dielectric constant tensor:
#      x y z
#    x 1.709330 0.000000 0.000000 
#    y 0.000000 1.680160 0.000000 
#    z 0.000000 0.000000 1.669910 
# 
# From -- ./inp_files/31408.got.cif
#   From: 2010.03.12/outbox.cif.g09.slc.cpg/sg53_16_cif.got.tgz:31408.got - 2010.04.16 14:36:59.
