data_PCOD8218591
_publ_section_title
;
Structure prediction by ZEFSAII (Michael W. Deem and Ramdas Pophale) SiO2 
 PCOD8218591
Probable space group: P M N A
;
_chemical_formula_sum "Si O2"
_cell_formula_units_Z 64
_cell_length_a 9.204025
_cell_length_b 16.178784
_cell_length_c 23.799141
_cell_angle_alpha 90.000000
_cell_angle_beta 90.000000
_cell_angle_gamma 90.000000
_cell_volume 3543.928478
_symmetry_space_group_name_H-M "P M N A"
_symmetry_group_IT_number 53
_symmetry_cell_setting 'orthorhombic'
loop_
_space_group_symop_operation_xyz
x,y,z
1/2-x,-y,1/2+z
x,-y,-z
1/2-x,y,1/2-z
-x,-y,-z
1/2+x,y,1/2-z
-x,y,z
1/2+x,-y,1/2+z
loop_
_atom_site_type_symbol
_atom_site_label
_atom_site_fract_x
_atom_site_fract_y
_atom_site_fract_z
Si Si1 0.670608 0.789391 0.419964
Si Si2 0.669891 0.127042 0.112090
Si Si3 0.337004 0.379031 0.391467
Si Si4 0.830738 0.296231 0.805502
Si Si5 0.336523 0.768645 0.695544
Si Si6 0.170465 0.514244 0.193828
Si Si7 0.829871 0.727925 0.526059
Si Si8 0.664969 0.978181 0.435330
O O1 0.500000 0.776743 0.430915
O O2 0.717712 0.758374 0.358502
O O3 0.755609 0.735347 0.465614
O O4 0.715635 0.884739 0.424985
O O5 0.500000 0.124907 0.124952
O O6 0.753879 0.154244 0.167881
O O7 0.706394 0.189393 0.061163
O O8 0.724798 0.035727 0.098273
O O9 0.500000 0.392678 0.415127
O O10 0.337651 0.307967 0.345617
O O11 0.278490 0.461838 0.360676
O O12 0.232875 0.353386 0.442796
O O13 0.750000 0.263302 0.750000
O O14 0.788476 0.390962 0.818363
O O15 0.000000 0.287020 0.793579
O O16 0.250000 0.739910 0.750000
O O17 0.500000 0.795856 0.711028
O O18 0.250000 0.482492 0.250000
O O19 0.000000 0.500779 0.203689
O O20 0.000000 0.714982 0.518144
O O21 0.500000 0.992204 0.414065
O O22 0.677493 0.000000 0.500000
#
# Coordination Sequence:
#
# PCOD8218591 Si02
#       8
#     8   8   8   8   8   8   8   8
#     4  10  20  35  55  77 102 134 171 209 257 311
#     4  10  20  33  49  72 102 132 166 209 254 299
#     4   9  18  31  49  73 103 137 171 207 249 301
#     4   9  19  36  57  79 103 132 168 211 255 303
#     4  10  19  31  48  70 100 136 171 205 247 299
#     4   9  17  31  52  77 102 132 172 214 255 298
#     4  10  20  32  49  75 105 135 168 209 254 301
#     4  10  19  32  53  77 100 130 169 211 255 305
#
# _framework density 18.059055000000001
#
# number of rings (size 3 to 8) (size 9 to 14) (size 15 to 20)
#    0.000    2.375    1.250    1.500    0.000    3.250 
#    0.000    1.250    0.000    5.250    0.000    0.000 
#    0.000    0.000    0.000    0.000    0.000    0.000 
#
# Total GULP energy -793706.034484 kJ/mol
# GULP energy per Si atom -12401.656789 kJ/mol
# Density = 1.801795 g / cm^3
# Si number density = 18.059055 Si / 1000 Ang^3
#
#
#
# Elastic Constant Matrix: (Units=GPa)
#
#
# Indices 1 2 3 4 5 6 
#
# 1 78.2813 31.8005 49.8293 0.0000 0.0000 0.0000
# 2 31.8005 84.9972 51.2271 0.0000 0.0000 0.0000
# 3 49.8293 51.2271 103.9755 0.0000 0.0000 0.0000
# 4 0.0000 0.0000 0.0000 26.3824 0.0000 0.0000
# 5 0.0000 0.0000 0.0000 0.0000 33.6897 0.0000
# 6 0.0000 0.0000 0.0000 0.0000 0.0000 21.6499
#
#
#
# Elastic Compliance Matrix: (Units=1/GPa)
#
#
# Indices 1 2 3 4 5 6 
#
# 1 0.018684 -0.002267 -0.007837 0.000000 0.000000 0.000000
# 2 -0.002267 0.017009 -0.007294 0.000000 0.000000 0.000000
# 3 -0.007837 -0.007294 0.016967 0.000000 0.000000 0.000000
# 4 0.000000 0.000000 0.000000 0.037904 0.000000 0.000000
# 5 0.000000 0.000000 0.000000 0.000000 0.029683 0.000000
# 6 0.000000 0.000000 0.000000 0.000000 0.000000 0.046190
#
#
# Mechanical properties :
#
#
# Convention : Reuss Voigt Hill
#
# Bulk Modulus (GPa) = 55.97717 59.21863 57.59790
# Shear Modulus (GPa) = 24.13277 25.30422 24.71850
#
# Velocity S-wave (km/s) = 3.65954 3.74731 3.70369
# Velocity P-wave (km/s) = 6.99431 7.18234 7.08895
#
# Compressibility (1/GPa) = 0.01786443
#
# Stress axis : x y z
#
# Youngs Moduli (GPa) = 53.52139 58.79213 58.93768
#
# Poissons Ratio (x) = 0.13328 0.46191
# Poissons Ratio (y) = 0.12133 0.42987
# Poissons Ratio (z) = 0.41946 0.42881
#
# Static dielectric constant tensor:
#      x y z
#    x 3.366940 0.000000 0.000000 
#    y 0.000000 3.325870 0.000000 
#    z 0.000000 0.000000 3.439020 
# 
# 
# High freq. dielectric constant tensor:
#      x y z
#    x 1.700120 0.000000 0.000000 
#    y 0.000000 1.688670 0.000000 
#    z 0.000000 0.000000 1.689540 
# 
# From -- ./inp_files/34337.got.cif
#   From: 2010.03.12/outbox.cif.g09.slc.cpg/sg53_18_cif.got.tgz:34337.got - 2010.04.16 14:36:59.
