data_PCOD8218176
_publ_section_title
;
Structure prediction by ZEFSAII (Michael W. Deem and Ramdas Pophale) SiO2 
 PCOD8218176
Probable space group: P M N A
;
_chemical_formula_sum "Si O2"
_cell_formula_units_Z 64
_cell_length_a 9.183999
_cell_length_b 20.185615
_cell_length_c 19.470731
_cell_angle_alpha 90.000000
_cell_angle_beta 90.000000
_cell_angle_gamma 90.000000
_cell_volume 3609.575002
_symmetry_space_group_name_H-M "P M N A"
_symmetry_group_IT_number 53
_symmetry_cell_setting 'orthorhombic'
loop_
_space_group_symop_operation_xyz
x,y,z
1/2-x,-y,1/2+z
x,-y,-z
1/2-x,y,1/2-z
-x,-y,-z
1/2+x,y,1/2-z
-x,y,z
1/2+x,-y,1/2+z
loop_
_atom_site_type_symbol
_atom_site_label
_atom_site_fract_x
_atom_site_fract_y
_atom_site_fract_z
Si Si1 0.669879 0.984722 0.074482
Si Si2 0.171941 0.649037 0.545724
Si Si3 0.832397 0.259668 0.820494
Si Si4 0.333387 0.384687 0.591665
Si Si5 0.171516 0.793446 0.575001
Si Si6 0.829708 0.166168 0.574886
Si Si7 0.338692 0.509413 0.918632
Si Si8 0.173535 0.903812 0.677295
O O1 0.500000 0.000000 0.067708
O O2 0.730926 0.033366 0.133247
O O3 0.700401 0.909455 0.096331
O O4 0.741901 0.000000 0.000000
O O5 0.249228 0.646557 0.472340
O O6 0.219812 0.716595 0.584136
O O7 0.213770 0.585649 0.593593
O O8 0.000000 0.648067 0.530247
O O9 0.750000 0.249499 0.750000
O O10 0.816750 0.335689 0.844215
O O11 0.764252 0.211730 0.876349
O O12 0.000000 0.240139 0.810233
O O13 0.500000 0.394850 0.569947
O O14 0.269310 0.456060 0.615115
O O15 0.227612 0.822166 0.502521
O O16 0.229775 0.837494 0.638049
O O17 0.000000 0.799940 0.574468
O O18 0.000000 0.184448 0.581904
O O19 0.500000 0.498195 0.887760
O O20 0.341093 0.500000 0.000000
O O21 0.250000 0.906348 0.750000
O O22 0.000000 0.904526 0.687416
#
# Coordination Sequence:
#
# PCOD8218176 Si02
#       8
#     8   8   8   8   8   8   8   8
#     4   9  16  30  55  83 105 133 178 218 251 302
#     4   9  16  28  48  75 100 128 169 210 250 300
#     4  11  24  38  51  72 103 139 177 218 265 319
#     4  10  19  30  46  70 100 130 164 210 260 305
#     4   9  16  29  54  79 101 135 176 213 253 305
#     4  10  18  32  57  81 100 132 175 221 264 305
#     4   8  15  26  43  69  99 128 161 202 247 299
#     4  10  20  35  54  79 109 139 174 213 255 308
#
# _framework density 17.730619000000001
#
# number of rings (size 3 to 8) (size 9 to 14) (size 15 to 20)
#    0.000    2.500    2.500    1.500    0.000    4.250 
#    0.000    3.125    0.000    1.500    0.000    3.500 
#    0.000    0.000    0.000    0.000    0.000    0.000 
#
# Total GULP energy -793313.074959 kJ/mol
# GULP energy per Si atom -12395.516796 kJ/mol
# Density = 1.769026 g / cm^3
# Si number density = 17.730619 Si / 1000 Ang^3
#
#
#
# Elastic Constant Matrix: (Units=GPa)
#
#
# Indices 1 2 3 4 5 6 
#
# 1 60.1248 41.5685 36.9632 0.0000 0.0000 0.0000
# 2 41.5685 150.4058 62.5395 0.0000 0.0000 0.0000
# 3 36.9632 62.5395 109.1063 0.0000 0.0000 0.0000
# 4 0.0000 0.0000 0.0000 20.5003 0.0000 0.0000
# 5 0.0000 0.0000 0.0000 0.0000 21.2576 0.0000
# 6 0.0000 0.0000 0.0000 0.0000 0.0000 5.7771
#
#
#
# Elastic Compliance Matrix: (Units=1/GPa)
#
#
# Indices 1 2 3 4 5 6 
#
# 1 0.022740 -0.004046 -0.005385 0.000000 0.000000 0.000000
# 2 -0.004046 0.009449 -0.004046 0.000000 0.000000 0.000000
# 3 -0.005385 -0.004046 0.013309 0.000000 0.000000 0.000000
# 4 0.000000 0.000000 0.000000 0.048780 0.000000 0.000000
# 5 0.000000 0.000000 0.000000 0.000000 0.047042 0.000000
# 6 0.000000 0.000000 0.000000 0.000000 0.000000 0.173098
#
#
# Mechanical properties :
#
#
# Convention : Reuss Voigt Hill
#
# Bulk Modulus (GPa) = 53.92255 66.86436 60.39345
# Shear Modulus (GPa) = 14.38641 21.41137 17.89889
#
# Velocity S-wave (km/s) = 2.85158 3.47881 3.18069
# Velocity P-wave (km/s) = 6.42807 7.34366 6.90107
#
# Compressibility (1/GPa) = 0.01854512
#
# Stress axis : x y z
#
# Youngs Moduli (GPa) = 43.97628 105.83191 75.13983
#
# Poissons Ratio (x) = 0.42816 0.40461
# Poissons Ratio (y) = 0.17791 0.30398
# Poissons Ratio (z) = 0.23680 0.42815
#
# Static dielectric constant tensor:
#      x y z
#    x 3.066160 0.000000 0.000000 
#    y 0.000000 3.878320 0.000000 
#    z 0.000000 0.000000 3.091240 
# 
# 
# High freq. dielectric constant tensor:
#      x y z
#    x 1.657940 0.000000 0.000000 
#    y 0.000000 1.708120 0.000000 
#    z 0.000000 0.000000 1.651770 
# 
# From -- ./inp_files/26962.got.cif
#   From: 2010.03.12/outbox.cif.g09.slc.cpg/sg53_14_cif.got.tgz:26962.got - 2010.04.16 14:36:59.
