data_PCOD8218700
_publ_section_title
;
Structure prediction by ZEFSAII (Michael W. Deem and Ramdas Pophale) SiO2 
 PCOD8218700
Probable space group: P M N A
;
_chemical_formula_sum "Si O2"
_cell_formula_units_Z 48
_cell_length_a 8.809071
_cell_length_b 16.142549
_cell_length_c 18.680793
_cell_angle_alpha 90.000000
_cell_angle_beta 90.000000
_cell_angle_gamma 90.000000
_cell_volume 2656.424835
_symmetry_space_group_name_H-M "P M N A"
_symmetry_group_IT_number 53
_symmetry_cell_setting 'orthorhombic'
loop_
_space_group_symop_operation_xyz
x,y,z
1/2-x,-y,1/2+z
x,-y,-z
1/2-x,y,1/2-z
-x,-y,-z
1/2+x,y,1/2-z
-x,y,z
1/2+x,-y,1/2+z
loop_
_atom_site_type_symbol
_atom_site_label
_atom_site_fract_x
_atom_site_fract_y
_atom_site_fract_z
Si Si1 0.678481 0.252233 0.540337
Si Si2 0.819974 0.669163 0.325723
Si Si3 0.177930 0.916690 0.967233
Si Si4 0.178252 0.678044 0.596144
Si Si5 0.819143 0.170987 0.174192
Si Si6 0.175777 0.516658 0.676971
O O1 0.500000 0.269421 0.538960
O O2 0.747472 0.268581 0.617658
O O3 0.717098 0.157592 0.521056
O O4 0.758267 0.312215 0.483421
O O5 0.750000 0.694638 0.250000
O O6 0.769486 0.575201 0.345901
O O7 0.000000 0.680310 0.324307
O O8 0.236342 0.894204 0.887036
O O9 0.000000 0.930490 0.961298
O O10 0.254599 0.000000 0.000000
O O11 0.260874 0.738047 0.652621
O O12 0.214652 0.582884 0.615746
O O13 0.000000 0.697379 0.598287
O O14 0.750000 0.143002 0.250000
O O15 0.000000 0.174251 0.179490
O O16 0.250000 0.547164 0.750000
O O17 0.000000 0.512963 0.693544
#
# Coordination Sequence:
#
# PCOD8218700 Si02
#       6
#     8   8   8   8   8   8
#     4  10  20  34  53  77 101 128 164 203 250 303
#     4  10  20  36  54  72  98 132 171 211 250 290
#     4   8  16  33  55  75  98 130 165 203 248 299
#     4  10  19  32  50  73 102 134 168 206 248 293
#     4  10  19  31  50  76 104 133 166 203 249 303
#     4   9  19  32  48  70  97 133 172 209 247 289
#
# _framework density 18.069399000000001
#
# number of rings (size 3 to 8) (size 9 to 14) (size 15 to 20)
#    0.000    2.500    0.000    3.500    0.000    4.000 
#    0.000    4.167    0.000   20.000    0.000    0.000 
#    0.000    0.000    0.000    0.000    0.000    0.000 
#
# Total GULP energy -595128.224371 kJ/mol
# GULP energy per Si atom -12398.504674 kJ/mol
# Density = 1.802827 g / cm^3
# Si number density = 18.069399 Si / 1000 Ang^3
#
#
#
# Elastic Constant Matrix: (Units=GPa)
#
#
# Indices 1 2 3 4 5 6 
#
# 1 67.9366 37.0315 46.2708 0.0000 0.0000 0.0000
# 2 37.0315 89.6468 75.0239 0.0000 0.0000 0.0000
# 3 46.2708 75.0239 145.7684 0.0000 0.0000 0.0000
# 4 0.0000 0.0000 0.0000 22.3632 0.0000 0.0000
# 5 0.0000 0.0000 0.0000 0.0000 36.1518 0.0000
# 6 0.0000 0.0000 0.0000 0.0000 0.0000 17.4642
#
#
#
# Elastic Compliance Matrix: (Units=1/GPa)
#
#
# Indices 1 2 3 4 5 6 
#
# 1 0.020070 -0.005198 -0.003696 0.000000 0.000000 0.000000
# 2 -0.005198 0.020941 -0.009128 0.000000 0.000000 0.000000
# 3 -0.003696 -0.009128 0.012731 0.000000 0.000000 0.000000
# 4 0.000000 0.000000 0.000000 0.044716 0.000000 0.000000
# 5 0.000000 0.000000 0.000000 0.000000 0.027661 0.000000
# 6 0.000000 0.000000 0.000000 0.000000 0.000000 0.057260
#
#
# Mechanical properties :
#
#
# Convention : Reuss Voigt Hill
#
# Bulk Modulus (GPa) = 56.49866 68.88936 62.69401
# Shear Modulus (GPa) = 22.19047 24.86422 23.52734
#
# Velocity S-wave (km/s) = 3.50818 3.71353 3.61231
# Velocity P-wave (km/s) = 6.90980 7.52294 7.22288
#
# Compressibility (1/GPa) = 0.01769954
#
# Stress axis : x y z
#
# Youngs Moduli (GPa) = 49.82604 47.75299 78.54694
#
# Poissons Ratio (x) = 0.24821 0.29027
# Poissons Ratio (y) = 0.25899 0.71698
# Poissons Ratio (z) = 0.18413 0.43589
#
# Static dielectric constant tensor:
#      x y z
#    x 3.294900 0.000000 0.000000 
#    y 0.000000 3.476200 0.000000 
#    z 0.000000 0.000000 3.489820 
# 
# 
# High freq. dielectric constant tensor:
#      x y z
#    x 1.697410 0.000000 0.000000 
#    y 0.000000 1.687700 0.000000 
#    z 0.000000 0.000000 1.701800 
# 
# From -- ./inp_files/26161.got.cif
#   From: 2010.03.12/outbox.cif.g09.slc.cpg/sg53_14_cif.got.tgz:26161.got - 2010.04.16 14:36:59.
