data_PCOD8218356
_publ_section_title
;
Structure prediction by ZEFSAII (Michael W. Deem and Ramdas Pophale) SiO2 
 PCOD8218356
Probable space group: P M N A
;
_chemical_formula_sum "Si O2"
_cell_formula_units_Z 56
_cell_length_a 8.892065
_cell_length_b 19.155077
_cell_length_c 18.495256
_cell_angle_alpha 90.000000
_cell_angle_beta 90.000000
_cell_angle_gamma 90.000000
_cell_volume 3150.263474
_symmetry_space_group_name_H-M "P M N A"
_symmetry_group_IT_number 53
_symmetry_cell_setting 'orthorhombic'
loop_
_space_group_symop_operation_xyz
x,y,z
1/2-x,-y,1/2+z
x,-y,-z
1/2-x,y,1/2-z
-x,-y,-z
1/2+x,y,1/2-z
-x,y,z
1/2+x,-y,1/2+z
loop_
_atom_site_type_symbol
_atom_site_label
_atom_site_fract_x
_atom_site_fract_y
_atom_site_fract_z
Si Si1 0.321212 0.358011 0.824602
Si Si2 0.176742 0.050054 0.328054
Si Si3 0.823491 0.428688 0.530206
Si Si4 0.176504 0.284772 0.465085
Si Si5 0.324797 0.795841 0.826315
Si Si6 0.675216 0.230029 0.603715
Si Si7 0.675495 0.916112 0.327572
O O1 0.250000 0.385529 0.750000
O O2 0.500000 0.357006 0.818190
O O3 0.264988 0.409010 0.889412
O O4 0.265511 0.279857 0.841411
O O5 0.250000 0.046874 0.250000
O O6 0.215484 0.127147 0.358851
O O7 0.000000 0.037444 0.324497
O O8 0.253447 0.984242 0.369139
O O9 0.747556 0.500000 0.500000
O O10 0.784600 0.366513 0.474399
O O11 0.000000 0.439802 0.535876
O O12 0.226545 0.261364 0.385007
O O13 0.269598 0.239663 0.522046
O O14 0.000000 0.270891 0.478632
O O15 0.250000 0.778889 0.750000
O O16 0.500000 0.791438 0.811003
O O17 0.500000 0.248398 0.610439
O O18 0.709536 0.150333 0.622954
O O19 0.750000 0.903173 0.250000
O O20 0.500000 0.928520 0.316285
#
# Coordination Sequence:
#
# PCOD8218356 Si02
#       7
#     8   8   8   8   8   8   8
#     4  10  19  31  50  74 100 131 165 201 238 281
#     4   9  16  27  44  64  88 119 155 195 237 280
#     4   8  15  30  52  74  96 127 162 193 232 282
#     4   9  18  33  52  72  95 124 159 196 236 287
#     4   9  18  32  50  72  94 120 157 199 241 283
#     4  10  20  32  47  69  97 127 160 198 240 286
#     4  10  19  29  43  65  92 122 157 196 237 281
#
# _framework density 17.776291000000001
#
# number of rings (size 3 to 8) (size 9 to 14) (size 15 to 20)
#    0.000    2.714    0.000    3.857    0.000    4.571 
#    0.000    1.429    0.000   15.000    0.000    0.000 
#    0.000    0.000    0.000    0.000    0.000    0.000 
#
# Total GULP energy -694030.501137 kJ/mol
# GULP energy per Si atom -12393.401806 kJ/mol
# Density = 1.773583 g / cm^3
# Si number density = 17.776291 Si / 1000 Ang^3
#
#
#
# Elastic Constant Matrix: (Units=GPa)
#
#
# Indices 1 2 3 4 5 6 
#
# 1 66.1588 44.0027 36.5070 0.0000 0.0000 0.0000
# 2 44.0027 140.6200 78.3883 0.0000 0.0000 0.0000
# 3 36.5070 78.3883 108.9950 0.0000 0.0000 0.0000
# 4 0.0000 0.0000 0.0000 23.9496 0.0000 0.0000
# 5 0.0000 0.0000 0.0000 0.0000 24.2665 0.0000
# 6 0.0000 0.0000 0.0000 0.0000 0.0000 14.9950
#
#
#
# Elastic Compliance Matrix: (Units=1/GPa)
#
#
# Indices 1 2 3 4 5 6 
#
# 1 0.019923 -0.004197 -0.003655 0.000000 0.000000 0.000000
# 2 -0.004197 0.012755 -0.007767 0.000000 0.000000 0.000000
# 3 -0.003655 -0.007767 0.015985 0.000000 0.000000 0.000000
# 4 0.000000 0.000000 0.000000 0.041754 0.000000 0.000000
# 5 0.000000 0.000000 0.000000 0.000000 0.041209 0.000000
# 6 0.000000 0.000000 0.000000 0.000000 0.000000 0.066689
#
#
# Mechanical properties :
#
#
# Convention : Reuss Voigt Hill
#
# Bulk Modulus (GPa) = 57.38900 70.39664 63.89282
# Shear Modulus (GPa) = 21.24392 23.10059 22.17225
#
# Velocity S-wave (km/s) = 3.46073 3.60879 3.53554
# Velocity P-wave (km/s) = 6.95147 7.55327 7.25861
#
# Compressibility (1/GPa) = 0.01742494
#
# Stress axis : x y z
#
# Youngs Moduli (GPa) = 50.19238 78.40364 62.55903
#
# Poissons Ratio (x) = 0.32907 0.22863
# Poissons Ratio (y) = 0.21066 0.48591
# Poissons Ratio (z) = 0.18343 0.60897
#
# Static dielectric constant tensor:
#      x y z
#    x 3.252340 0.000000 0.000000 
#    y 0.000000 3.880570 0.000000 
#    z 0.000000 0.000000 3.190970 
# 
# 
# High freq. dielectric constant tensor:
#      x y z
#    x 1.682710 0.000000 0.000000 
#    y 0.000000 1.689830 0.000000 
#    z 0.000000 0.000000 1.664900 
# 
# From -- ./inp_files/26721.got.cif
#   From: 2010.03.12/outbox.cif.g09.slc.cpg/sg53_14_cif.got.tgz:26721.got - 2010.04.16 14:36:59.
