data_PCOD8218809
_publ_section_title
;
Structure prediction by ZEFSAII (Michael W. Deem and Ramdas Pophale) SiO2 
 PCOD8218809
Probable space group: P M N A
;
_chemical_formula_sum "Si O2"
_cell_formula_units_Z 40
_cell_length_a 8.620222
_cell_length_b 10.239481
_cell_length_c 27.801566
_cell_angle_alpha 90.000000
_cell_angle_beta 90.000000
_cell_angle_gamma 90.000000
_cell_volume 2453.949688
_symmetry_space_group_name_H-M "P M N A"
_symmetry_group_IT_number 53
_symmetry_cell_setting 'orthorhombic'
loop_
_space_group_symop_operation_xyz
x,y,z
1/2-x,-y,1/2+z
x,-y,-z
1/2-x,y,1/2-z
-x,-y,-z
1/2+x,y,1/2-z
-x,y,z
1/2+x,-y,1/2+z
loop_
_atom_site_type_symbol
_atom_site_label
_atom_site_fract_x
_atom_site_fract_y
_atom_site_fract_z
Si Si1 0.817584 0.656890 0.300909
Si Si2 0.324297 0.113172 0.643802
Si Si3 0.176283 0.970257 0.947719
Si Si4 0.318123 0.849362 0.862415
Si Si5 0.183133 0.377897 0.198572
O O1 0.750000 0.704700 0.250000
O O2 0.777346 0.763509 0.341053
O O3 0.743918 0.519982 0.316623
O O4 0.000000 0.639073 0.296376
O O5 0.500000 0.127223 0.663255
O O6 0.321915 0.101904 0.585322
O O7 0.249031 0.978681 0.664711
O O8 0.276549 0.859718 0.919605
O O9 0.000000 0.918817 0.953837
O O10 0.249935 0.000000 0.000000
O O11 0.500000 0.838960 0.854149
O O12 0.235444 0.722224 0.842020
O O13 0.250000 0.334328 0.250000
O O14 0.000000 0.381856 0.202266
#
# Coordination Sequence:
#
# PCOD8218809 Si02
#       5
#     8   8   8   8   8
#     4  11  21  34  51  73 101 135 169 204 246 294
#     4   9  18  33  51  75 101 131 167 205 246 294
#     4   8  16  32  53  75 100 130 164 203 251 301
#     4  10  19  32  50  77 103 130 166 208 249 291
#     4  11  21  35  52  72 100 136 170 204 246 296
#
# _framework density 16.300252
#
# number of rings (size 3 to 8) (size 9 to 14) (size 15 to 20)
#    1.200    1.000    0.000    6.600    0.000    1.200 
#    0.000    4.000    0.000    1.200    0.000    8.400 
#    0.000    0.000    0.000    0.000    0.000    0.000 
#
# Total GULP energy -495714.974236 kJ/mol
# GULP energy per Si atom -12392.874356 kJ/mol
# Density = 1.626315 g / cm^3
# Si number density = 16.300252 Si / 1000 Ang^3
#
#
#
# Elastic Constant Matrix: (Units=GPa)
#
#
# Indices 1 2 3 4 5 6 
#
# 1 137.9385 39.9835 32.8049 0.0000 0.0000 0.0000
# 2 39.9835 89.8501 51.2707 0.0000 0.0000 0.0000
# 3 32.8049 51.2707 80.2038 0.0000 0.0000 0.0000
# 4 0.0000 0.0000 0.0000 6.1766 0.0000 0.0000
# 5 0.0000 0.0000 0.0000 0.0000 23.9368 0.0000
# 6 0.0000 0.0000 0.0000 0.0000 0.0000 30.5852
#
#
#
# Elastic Compliance Matrix: (Units=1/GPa)
#
#
# Indices 1 2 3 4 5 6 
#
# 1 0.008461 -0.002819 -0.001659 0.000000 0.000000 0.000000
# 2 -0.002819 0.018460 -0.010648 0.000000 0.000000 0.000000
# 3 -0.001659 -0.010648 0.019953 0.000000 0.000000 0.000000
# 4 0.000000 0.000000 0.000000 0.161900 0.000000 0.000000
# 5 0.000000 0.000000 0.000000 0.000000 0.041777 0.000000
# 6 0.000000 0.000000 0.000000 0.000000 0.000000 0.032696
#
#
# Mechanical properties :
#
#
# Convention : Reuss Voigt Hill
#
# Bulk Modulus (GPa) = 60.15451 61.79006 60.97229
# Shear Modulus (GPa) = 15.67210 24.40196 20.03703
#
# Velocity S-wave (km/s) = 3.10411 3.87334 3.50987
# Velocity P-wave (km/s) = 7.05914 7.61534 7.34251
#
# Compressibility (1/GPa) = 0.01662386
#
# Stress axis : x y z
#
# Youngs Moduli (GPa) = 118.18712 54.17202 50.11693
#
# Poissons Ratio (x) = 0.15269 0.08314
# Poissons Ratio (y) = 0.33312 0.53363
# Poissons Ratio (z) = 0.19607 0.57680
#
# Static dielectric constant tensor:
#      x y z
#    x 3.186970 0.000000 0.000000 
#    y 0.000000 2.956630 0.000000 
#    z 0.000000 0.000000 2.957720 
# 
# 
# High freq. dielectric constant tensor:
#      x y z
#    x 1.645590 0.000000 0.000000 
#    y 0.000000 1.611430 0.000000 
#    z 0.000000 0.000000 1.604940 
# 
# From -- ./inp_files/37520.got.cif
#   From: 2010.03.12/outbox.cif.g09.slc.cpg/sg53_19_cif.got.tgz:37520.got - 2010.04.16 14:36:59.
