data_PCOD8218373
_publ_section_title
;
Structure prediction by ZEFSAII (Michael W. Deem and Ramdas Pophale) SiO2 
 PCOD8218373
Probable space group: P M N A
;
_chemical_formula_sum "Si O2"
_cell_formula_units_Z 64
_cell_length_a 9.593925
_cell_length_b 14.754771
_cell_length_c 24.388954
_cell_angle_alpha 90.000000
_cell_angle_beta 90.000000
_cell_angle_gamma 90.000000
_cell_volume 3452.406830
_symmetry_space_group_name_H-M "P M N A"
_symmetry_group_IT_number 53
_symmetry_cell_setting 'orthorhombic'
loop_
_space_group_symop_operation_xyz
x,y,z
1/2-x,-y,1/2+z
x,-y,-z
1/2-x,y,1/2-z
-x,-y,-z
1/2+x,y,1/2-z
-x,y,z
1/2+x,-y,1/2+z
loop_
_atom_site_type_symbol
_atom_site_label
_atom_site_fract_x
_atom_site_fract_y
_atom_site_fract_z
Si Si1 0.158307 0.270938 0.377033
Si Si2 0.155642 0.227348 0.499493
Si Si3 0.158785 0.072490 0.634611
Si Si4 0.851765 0.081523 0.962756
Si Si5 0.661096 0.396340 0.697275
Si Si6 0.161169 0.609026 0.802693
Si Si7 0.656918 0.279918 0.878790
Si Si8 0.659132 0.897187 0.801793
O O1 0.176235 0.280513 0.442691
O O2 0.270821 0.341163 0.354200
O O3 0.189092 0.169720 0.353412
O O4 0.000000 0.299191 0.360976
O O5 0.269379 0.150057 0.498947
O O6 0.176880 0.285337 0.555275
O O7 0.000000 0.185164 0.501137
O O8 0.260132 0.043852 0.586439
O O9 0.183240 0.179260 0.646813
O O10 0.000000 0.057535 0.615299
O O11 0.193078 0.002695 0.683794
O O12 0.000000 0.123849 0.941701
O O13 0.893760 0.000000 0.000000
O O14 0.750000 0.366382 0.750000
O O15 0.500000 0.367055 0.705022
O O16 0.673409 0.502641 0.686675
O O17 0.727755 0.346688 0.645253
O O18 0.250000 0.639162 0.750000
O O19 0.000000 0.638170 0.794954
O O20 0.500000 0.311522 0.863398
O O21 0.750000 0.866489 0.750000
O O22 0.500000 0.888450 0.783157
#
# Coordination Sequence:
#
# PCOD8218373 Si02
#       8
#     8   8   8   8   8   8   8   8
#     4  10  20  35  56  80 106 141 182 221 265 315
#     4   9  19  35  54  76 104 141 182 218 259 317
#     4   9  19  35  52  71  99 137 176 210 251 307
#     4  10  19  29  45  72 101 130 170 218 261 299
#     4  10  21  37  58  82 107 137 173 215 266 322
#     4  10  21  37  57  81 107 137 175 220 270 321
#     4   9  18  34  56  81 108 138 176 222 266 311
#     4  10  21  35  51  74 105 140 178 220 266 317
#
# _framework density 18.537792
#
# number of rings (size 3 to 8) (size 9 to 14) (size 15 to 20)
#    0.000    2.375    0.000    3.000    0.000    8.500 
#    0.000    1.875    0.000    3.750    0.000    0.000 
#    0.000    0.000    0.000    0.000    0.000    0.000 
#
# Total GULP energy -793160.159016 kJ/mol
# GULP energy per Si atom -12393.127485 kJ/mol
# Density = 1.849560 g / cm^3
# Si number density = 18.537792 Si / 1000 Ang^3
#
#
#
# Elastic Constant Matrix: (Units=GPa)
#
#
# Indices 1 2 3 4 5 6 
#
# 1 142.1648 47.8162 64.7764 0.0000 0.0000 0.0000
# 2 47.8162 50.9573 41.1983 0.0000 0.0000 0.0000
# 3 64.7764 41.1983 105.1839 0.0000 0.0000 0.0000
# 4 0.0000 0.0000 0.0000 25.9121 0.0000 0.0000
# 5 0.0000 0.0000 0.0000 0.0000 52.0663 0.0000
# 6 0.0000 0.0000 0.0000 0.0000 0.0000 31.6082
#
#
#
# Elastic Compliance Matrix: (Units=1/GPa)
#
#
# Indices 1 2 3 4 5 6 
#
# 1 0.011389 -0.007341 -0.004138 0.000000 0.000000 0.000000
# 2 -0.007341 0.033450 -0.008581 0.000000 0.000000 0.000000
# 3 -0.004138 -0.008581 0.015417 0.000000 0.000000 0.000000
# 4 0.000000 0.000000 0.000000 0.038592 0.000000 0.000000
# 5 0.000000 0.000000 0.000000 0.000000 0.019206 0.000000
# 6 0.000000 0.000000 0.000000 0.000000 0.000000 0.031637
#
#
# Mechanical properties :
#
#
# Convention : Reuss Voigt Hill
#
# Bulk Modulus (GPa) = 49.66403 67.32085 58.49244
# Shear Modulus (GPa) = 25.44222 31.55165 28.49693
#
# Velocity S-wave (km/s) = 3.70868 4.13003 3.92501
# Velocity P-wave (km/s) = 6.72220 7.69007 7.22236
#
# Compressibility (1/GPa) = 0.02013530
#
# Stress axis : x y z
#
# Youngs Moduli (GPa) = 87.80559 29.89509 64.86475
#
# Poissons Ratio (x) = 0.21946 0.26843
# Poissons Ratio (y) = 0.64458 0.55660
# Poissons Ratio (z) = 0.36337 0.25653
#
# Static dielectric constant tensor:
#      x y z
#    x 3.569120 0.000000 0.000000 
#    y 0.000000 3.237000 0.000000 
#    z 0.000000 0.000000 3.332650 
# 
# 
# High freq. dielectric constant tensor:
#      x y z
#    x 1.734950 0.000000 0.000000 
#    y 0.000000 1.699260 0.000000 
#    z 0.000000 0.000000 1.710700 
# 
# From -- ./inp_files/34132.got.cif
#   From: 2010.03.12/outbox.cif.g09.slc.cpg/sg53_18_cif.got.tgz:34132.got - 2010.04.16 14:36:59.
