data_PCOD8218723
_publ_section_title
;
Structure prediction by ZEFSAII (Michael W. Deem and Ramdas Pophale) SiO2 
 PCOD8218723
Probable space group: P M N A
;
_chemical_formula_sum "Si O2"
_cell_formula_units_Z 40
_cell_length_a 8.709251
_cell_length_b 13.772561
_cell_length_c 18.199971
_cell_angle_alpha 90.000000
_cell_angle_beta 90.000000
_cell_angle_gamma 90.000000
_cell_volume 2183.062692
_symmetry_space_group_name_H-M "P M N A"
_symmetry_group_IT_number 53
_symmetry_cell_setting 'orthorhombic'
loop_
_space_group_symop_operation_xyz
x,y,z
1/2-x,-y,1/2+z
x,-y,-z
1/2-x,y,1/2-z
-x,-y,-z
1/2+x,y,1/2-z
-x,y,z
1/2+x,-y,1/2+z
loop_
_atom_site_type_symbol
_atom_site_label
_atom_site_fract_x
_atom_site_fract_y
_atom_site_fract_z
Si Si1 0.819286 0.398584 0.526223
Si Si2 0.318647 0.881562 0.397770
Si Si3 0.817499 0.800743 0.540758
Si Si4 0.319121 0.696962 0.174600
Si Si5 0.318878 0.913267 0.669982
O O1 0.742454 0.500000 0.500000
O O2 0.758961 0.308367 0.477631
O O3 0.777215 0.380541 0.611406
O O4 0.000000 0.404963 0.515870
O O5 0.500000 0.871999 0.406010
O O6 0.243878 0.873507 0.478141
O O7 0.256518 0.800267 0.342644
O O8 0.268839 0.983830 0.363568
O O9 0.749128 0.828359 0.619282
O O10 0.000000 0.807015 0.541660
O O11 0.250000 0.655397 0.250000
O O12 0.500000 0.712677 0.181065
O O13 0.250000 0.900139 0.750000
O O14 0.500000 0.902425 0.674101
#
# Coordination Sequence:
#
# PCOD8218723 Si02
#       5
#     8   8   8   8   8
#     4   8  16  33  55  76  99 131 170 209 253 306
#     4  10  20  34  53  76 104 137 172 210 251 299
#     4  10  20  34  55  79 103 134 170 210 255 304
#     4  10  19  31  51  78 105 133 166 210 262 308
#     4  11  23  36  51  73 104 141 176 211 251 297
#
# _framework density 18.322880999999999
#
# number of rings (size 3 to 8) (size 9 to 14) (size 15 to 20)
#    0.000    2.200    0.000    4.800    0.000    7.200 
#    0.000    1.000    0.000   24.000    0.000    0.000 
#    0.000    0.000    0.000    0.000    0.000    0.000 
#
# Total GULP energy -496052.297482 kJ/mol
# GULP energy per Si atom -12401.307437 kJ/mol
# Density = 1.828118 g / cm^3
# Si number density = 18.322881 Si / 1000 Ang^3
#
#
#
# Elastic Constant Matrix: (Units=GPa)
#
#
# Indices 1 2 3 4 5 6 
#
# 1 50.5244 27.9527 40.5110 0.0000 0.0000 0.0000
# 2 27.9527 105.6690 80.7957 0.0000 0.0000 0.0000
# 3 40.5110 80.7957 163.7214 0.0000 0.0000 0.0000
# 4 0.0000 0.0000 0.0000 34.7600 0.0000 0.0000
# 5 0.0000 0.0000 0.0000 0.0000 37.2475 0.0000
# 6 0.0000 0.0000 0.0000 0.0000 0.0000 16.5860
#
#
#
# Elastic Compliance Matrix: (Units=1/GPa)
#
#
# Indices 1 2 3 4 5 6 
#
# 1 0.025293 -0.003060 -0.004748 0.000000 0.000000 0.000000
# 2 -0.003060 0.015569 -0.006926 0.000000 0.000000 0.000000
# 3 -0.004748 -0.006926 0.010701 0.000000 0.000000 0.000000
# 4 0.000000 0.000000 0.000000 0.028769 0.000000 0.000000
# 5 0.000000 0.000000 0.000000 0.000000 0.026847 0.000000
# 6 0.000000 0.000000 0.000000 0.000000 0.000000 0.060292
#
#
# Mechanical properties :
#
#
# Convention : Reuss Voigt Hill
#
# Bulk Modulus (GPa) = 45.26209 68.71485 56.98847
# Shear Modulus (GPa) = 24.47349 29.09572 26.78461
#
# Velocity S-wave (km/s) = 3.65866 3.98923 3.82751
# Velocity P-wave (km/s) = 6.52716 7.66826 7.12060
#
# Compressibility (1/GPa) = 0.02209355
#
# Stress axis : x y z
#
# Youngs Moduli (GPa) = 39.53719 64.23204 93.45203
#
# Poissons Ratio (x) = 0.19656 0.44373
# Poissons Ratio (y) = 0.12099 0.64723
# Poissons Ratio (z) = 0.18773 0.44486
#
# Static dielectric constant tensor:
#      x y z
#    x 3.298130 0.000000 0.000000 
#    y 0.000000 3.555700 0.000000 
#    z 0.000000 0.000000 3.473480 
# 
# 
# High freq. dielectric constant tensor:
#      x y z
#    x 1.707640 0.000000 0.000000 
#    y 0.000000 1.697390 0.000000 
#    z 0.000000 0.000000 1.717530 
# 
# From -- ./inp_files/19830.got.cif
#   From: 2010.03.12/outbox.cif.g09.slc.cpg/sg53_10_cif.got.tgz:19830.got - 2010.04.16 14:36:59.
