data_PCOD8218024
_publ_section_title
;
Structure prediction by ZEFSAII (Michael W. Deem and Ramdas Pophale) SiO2 
 PCOD8218024
Probable space group: P M N A
;
_chemical_formula_sum "Si O2"
_cell_formula_units_Z 64
_cell_length_a 8.917223
_cell_length_b 11.383582
_cell_length_c 33.456936
_cell_angle_alpha 90.000000
_cell_angle_beta 90.000000
_cell_angle_gamma 90.000000
_cell_volume 3396.211540
_symmetry_space_group_name_H-M "P M N A"
_symmetry_group_IT_number 53
_symmetry_cell_setting 'orthorhombic'
loop_
_space_group_symop_operation_xyz
x,y,z
1/2-x,-y,1/2+z
x,-y,-z
1/2-x,y,1/2-z
-x,-y,-z
1/2+x,y,1/2-z
-x,y,z
1/2+x,-y,1/2+z
loop_
_atom_site_type_symbol
_atom_site_label
_atom_site_fract_x
_atom_site_fract_y
_atom_site_fract_z
Si Si1 0.324188 0.445586 0.709248
Si Si2 0.174517 0.348660 0.875217
Si Si3 0.323493 0.204551 0.132449
Si Si4 0.830009 0.731278 0.990151
Si Si5 0.176660 0.716254 0.790627
Si Si6 0.825279 0.054631 0.068605
Si Si7 0.175859 0.810493 0.435674
Si Si8 0.828164 0.593992 0.914214
O O1 0.250000 0.396419 0.750000
O O2 0.500000 0.433462 0.714887
O O3 0.270485 0.373086 0.670207
O O4 0.278822 0.580542 0.701692
O O5 0.269272 0.241402 0.893253
O O6 0.204866 0.459838 0.903888
O O7 0.000000 0.315330 0.875387
O O8 0.500000 0.192442 0.136838
O O9 0.247004 0.202203 0.175549
O O10 0.259836 0.093236 0.108671
O O11 0.283968 0.326219 0.110859
O O12 0.796893 0.849997 0.965700
O O13 0.803107 0.618520 0.961402
O O14 0.000000 0.730973 0.006447
O O15 0.719488 0.722911 0.027999
O O16 0.250000 0.761312 0.750000
O O17 0.000000 0.733695 0.789106
O O18 0.000000 0.040923 0.078049
O O19 0.758316 0.931827 0.054309
O O20 0.000000 0.830347 0.433923
O O21 0.000000 0.628127 0.902362
#
# Coordination Sequence:
#
# PCOD8218024 Si02
#       8
#     8   8   8   8   8   8   8   8
#     4   9  18  32  54  80 109 142 180 222 263 310
#     4  10  20  37  57  77 108 150 189 223 262 322
#     4  11  20  31  52  82 113 142 172 218 278 329
#     4   9  19  36  59  81 103 138 182 227 273 325
#     4  10  18  31  50  79 113 144 180 219 266 323
#     4  10  21  39  61  79 100 138 186 229 269 324
#     4  12  25  37  52  79 111 142 180 231 280 322
#     4   9  18  35  56  78 106 144 187 223 263 322
#
# _framework density 18.844526999999999
#
# number of rings (size 3 to 8) (size 9 to 14) (size 15 to 20)
#    0.000    2.000    1.250    4.125    0.000    6.000 
#    0.000    2.500    0.000    0.750    0.000    3.500 
#    0.000    0.000    0.000    0.000    0.000    0.000 
#
# Total GULP energy -793706.039623 kJ/mol
# GULP energy per Si atom -12401.656869 kJ/mol
# Density = 1.880164 g / cm^3
# Si number density = 18.844527 Si / 1000 Ang^3
#
#
#
# Elastic Constant Matrix: (Units=GPa)
#
#
# Indices 1 2 3 4 5 6 
#
# 1 93.5590 16.1895 43.2890 0.0000 0.0000 0.0000
# 2 16.1895 33.0678 15.8183 0.0000 0.0000 0.0000
# 3 43.2890 15.8183 115.7760 0.0000 0.0000 0.0000
# 4 0.0000 0.0000 0.0000 24.2413 0.0000 0.0000
# 5 0.0000 0.0000 0.0000 0.0000 35.3441 0.0000
# 6 0.0000 0.0000 0.0000 0.0000 0.0000 20.7369
#
#
#
# Elastic Compliance Matrix: (Units=1/GPa)
#
#
# Indices 1 2 3 4 5 6 
#
# 1 0.013521 -0.004495 -0.004442 0.000000 0.000000 0.000000
# 2 -0.004495 0.033850 -0.002944 0.000000 0.000000 0.000000
# 3 -0.004442 -0.002944 0.010700 0.000000 0.000000 0.000000
# 4 0.000000 0.000000 0.000000 0.041252 0.000000 0.000000
# 5 0.000000 0.000000 0.000000 0.000000 0.028293 0.000000
# 6 0.000000 0.000000 0.000000 0.000000 0.000000 0.048223
#
#
# Mechanical properties :
#
#
# Convention : Reuss Voigt Hill
#
# Bulk Modulus (GPa) = 29.14599 43.66627 36.40613
# Shear Modulus (GPa) = 23.69238 27.20486 25.44862
#
# Velocity S-wave (km/s) = 3.54963 3.80366 3.67884
# Velocity P-wave (km/s) = 5.68330 6.52017 6.11607
#
# Compressibility (1/GPa) = 0.03431003
#
# Stress axis : x y z
#
# Youngs Moduli (GPa) = 73.95718 29.54211 93.45519
#
# Poissons Ratio (x) = 0.13280 0.41508
# Poissons Ratio (y) = 0.33245 0.27514
# Poissons Ratio (z) = 0.32848 0.08698
#
# Static dielectric constant tensor:
#      x y z
#    x 3.358510 0.000000 0.000000 
#    y 0.000000 3.213500 0.000000 
#    z 0.000000 0.000000 3.540630 
# 
# 
# High freq. dielectric constant tensor:
#      x y z
#    x 1.728310 0.000000 0.000000 
#    y 0.000000 1.700780 0.000000 
#    z 0.000000 0.000000 1.739860 
# 
# From -- ./inp_files/38290.got.cif
#   From: 2010.03.12/outbox.cif.g09.slc.cpg/sg53_20_cif.got.tgz:38290.got - 2010.04.16 14:36:59.
