data_PCOD8218831
_publ_section_title
;
Structure prediction by ZEFSAII (Michael W. Deem and Ramdas Pophale) SiO2 
 PCOD8218831
Probable space group: P M N A
;
_chemical_formula_sum "Si O2"
_cell_formula_units_Z 48
_cell_length_a 9.080038
_cell_length_b 30.844522
_cell_length_c 9.565561
_cell_angle_alpha 90.000000
_cell_angle_beta 90.000000
_cell_angle_gamma 90.000000
_cell_volume 2679.021235
_symmetry_space_group_name_H-M "P M N A"
_symmetry_group_IT_number 53
_symmetry_cell_setting 'orthorhombic'
loop_
_space_group_symop_operation_xyz
x,y,z
1/2-x,-y,1/2+z
x,-y,-z
1/2-x,y,1/2-z
-x,-y,-z
1/2+x,y,1/2-z
-x,y,z
1/2+x,-y,1/2+z
loop_
_atom_site_type_symbol
_atom_site_label
_atom_site_fract_x
_atom_site_fract_y
_atom_site_fract_z
Si Si1 0.326184 0.776010 0.100224
Si Si2 0.670867 0.388008 0.391371
Si Si3 0.172876 0.036818 0.601514
Si Si4 0.673195 0.539013 0.399243
Si Si5 0.673200 0.711684 0.607052
Si Si6 0.831692 0.130443 0.606549
O O1 0.250000 0.775621 0.250000
O O2 0.500000 0.765715 0.112607
O O3 0.298788 0.823822 0.027201
O O4 0.245995 0.739401 0.013427
O O5 0.750000 0.403421 0.250000
O O6 0.500000 0.395314 0.362046
O O7 0.722252 0.416596 0.523522
O O8 0.707508 0.338335 0.427364
O O9 0.250000 0.032363 0.750000
O O10 0.205961 0.084542 0.530283
O O11 0.000000 0.029642 0.624609
O O12 0.238061 0.000000 0.500000
O O13 0.723227 0.500000 0.500000
O O14 0.750000 0.535464 0.250000
O O15 0.500000 0.537627 0.371815
O O16 0.750000 0.725787 0.750000
O O17 0.500000 0.720979 0.617335
O O18 0.750000 0.130935 0.750000
O O19 0.000000 0.130036 0.649949
#
# Coordination Sequence:
#
# PCOD8218831 Si02
#       6
#     8   8   8   8   8   8
#     4  10  19  32  51  74  99 128 165 207 249 293
#     4   9  19  35  54  76 101 131 167 205 244 291
#     4   9  17  30  48  69  94 123 156 195 238 286
#     4  10  21  36  54  78 106 134 167 205 245 291
#     4  10  20  35  53  74 102 134 168 205 249 298
#     4   8  15  28  46  67  92 123 158 196 238 285
#
# _framework density 17.916989999999998
#
# number of rings (size 3 to 8) (size 9 to 14) (size 15 to 20)
#    0.000    2.667    0.000    1.500    0.000    3.333 
#    0.000    2.500    0.000    2.000    0.000    0.000 
#    0.000    0.000    0.000    0.000    0.000    0.000 
#
# Total GULP energy -594716.288110 kJ/mol
# GULP energy per Si atom -12389.922669 kJ/mol
# Density = 1.787621 g / cm^3
# Si number density = 17.916990 Si / 1000 Ang^3
#
#
#
# Elastic Constant Matrix: (Units=GPa)
#
#
# Indices 1 2 3 4 5 6 
#
# 1 63.5775 49.9113 45.5619 0.0000 0.0000 0.0000
# 2 49.9113 134.3312 79.1514 0.0000 0.0000 0.0000
# 3 45.5619 79.1514 111.6532 0.0000 0.0000 0.0000
# 4 0.0000 0.0000 0.0000 30.4483 0.0000 0.0000
# 5 0.0000 0.0000 0.0000 0.0000 32.5013 0.0000
# 6 0.0000 0.0000 0.0000 0.0000 0.0000 26.3728
#
#
#
# Elastic Compliance Matrix: (Units=1/GPa)
#
#
# Indices 1 2 3 4 5 6 
#
# 1 0.024379 -0.005489 -0.006057 0.000000 0.000000 0.000000
# 2 -0.005489 0.014020 -0.007699 0.000000 0.000000 0.000000
# 3 -0.006057 -0.007699 0.016886 0.000000 0.000000 0.000000
# 4 0.000000 0.000000 0.000000 0.032843 0.000000 0.000000
# 5 0.000000 0.000000 0.000000 0.000000 0.030768 0.000000
# 6 0.000000 0.000000 0.000000 0.000000 0.000000 0.037918
#
#
# Mechanical properties :
#
#
# Convention : Reuss Voigt Hill
#
# Bulk Modulus (GPa) = 59.54300 73.20124 66.37212
# Shear Modulus (GPa) = 24.88782 26.86030 25.87406
#
# Velocity S-wave (km/s) = 3.73106 3.87609 3.80426
# Velocity P-wave (km/s) = 7.20180 7.80875 7.51141
#
# Compressibility (1/GPa) = 0.01679458
#
# Stress axis : x y z
#
# Youngs Moduli (GPa) = 41.01962 71.32498 59.22119
#
# Poissons Ratio (x) = 0.39151 0.35869
# Poissons Ratio (y) = 0.22516 0.45595
# Poissons Ratio (z) = 0.24845 0.54914
#
# Static dielectric constant tensor:
#      x y z
#    x 2.245590 0.000000 0.000000 
#    y 0.000000 4.024730 0.000000 
#    z 0.000000 0.000000 3.032550 
# 
# 
# High freq. dielectric constant tensor:
#      x y z
#    x 1.697220 0.000000 0.000000 
#    y 0.000000 1.718100 0.000000 
#    z 0.000000 0.000000 1.662700 
# 
# From -- ./inp_files/6746.got.cif
#   From: 2010.03.12/outbox.cif.g09.slc.cpg/sg53_4_cif.got.tgz:6746.got - 2010.04.16 14:36:59.
