data_PCOD8218536
_publ_section_title
;
Structure prediction by ZEFSAII (Michael W. Deem and Ramdas Pophale) SiO2 
 PCOD8218536
Probable space group: P M N A
;
_chemical_formula_sum "Si O2"
_cell_formula_units_Z 64
_cell_length_a 8.937824
_cell_length_b 18.318752
_cell_length_c 23.177818
_cell_angle_alpha 90.000000
_cell_angle_beta 90.000000
_cell_angle_gamma 90.000000
_cell_volume 3794.899072
_symmetry_space_group_name_H-M "P M N A"
_symmetry_group_IT_number 53
_symmetry_cell_setting 'orthorhombic'
loop_
_space_group_symop_operation_xyz
x,y,z
1/2-x,-y,1/2+z
x,-y,-z
1/2-x,y,1/2-z
-x,-y,-z
1/2+x,y,1/2-z
-x,y,z
1/2+x,-y,1/2+z
loop_
_atom_site_type_symbol
_atom_site_label
_atom_site_fract_x
_atom_site_fract_y
_atom_site_fract_z
Si Si1 0.322849 0.093028 0.687201
Si Si2 0.322386 0.764404 0.187310
Si Si3 0.324700 0.628263 0.110205
Si Si4 0.324950 0.220307 0.311762
Si Si5 0.323315 0.495387 0.190225
Si Si6 0.176229 0.365087 0.127336
Si Si7 0.826301 0.062852 0.189131
Si Si8 0.676528 0.582887 0.502528
O O1 0.250000 0.089555 0.750000
O O2 0.500000 0.107606 0.691033
O O3 0.242589 0.161877 0.656432
O O4 0.287480 0.013951 0.655964
O O5 0.250000 0.752663 0.250000
O O6 0.500000 0.769604 0.193924
O O7 0.272667 0.697662 0.147155
O O8 0.500000 0.629863 0.099503
O O9 0.275156 0.554970 0.143032
O O10 0.245182 0.630965 0.048515
O O11 0.250000 0.232740 0.250000
O O12 0.500000 0.225573 0.300090
O O13 0.276016 0.282466 0.356933
O O14 0.282710 0.140624 0.340549
O O15 0.250000 0.519624 0.250000
O O16 0.500000 0.491694 0.198374
O O17 0.262027 0.417149 0.171420
O O18 0.228586 0.380562 0.062254
O O19 0.000000 0.378980 0.134468
O O20 0.750000 0.062298 0.250000
O O21 0.000000 0.061806 0.202326
O O22 0.737873 0.500000 0.500000
O O23 0.500000 0.583838 0.495491
#
# Coordination Sequence:
#
# PCOD8218536 Si02
#       8
#     8   8   8   8   8   8   8   8
#     4   9  15  24  40  63  91 122 154 183 220 268
#     4  10  19  31  46  68  97 125 155 189 231 278
#     4  10  22  36  50  69  92 122 157 194 235 277
#     4   9  17  29  45  66  96 126 153 186 226 272
#     4  11  22  34  49  69  94 124 155 187 229 278
#     4  10  20  34  50  70  94 122 156 194 236 278
#     4   8  14  24  39  61  89 122 153 182 217 265
#     4  10  20  35  54  72  90 117 156 201 242 279
#
# _framework density 16.864744000000002
#
# number of rings (size 3 to 8) (size 9 to 14) (size 15 to 20)
#    0.000    2.375    1.250    2.625    0.000    4.250 
#    0.000    0.000    0.000    0.000    0.000    0.875 
#    0.000    7.000    0.000    0.000    0.000    0.000 
#
# Total GULP energy -793015.945950 kJ/mol
# GULP energy per Si atom -12390.874155 kJ/mol
# Density = 1.682636 g / cm^3
# Si number density = 16.864744 Si / 1000 Ang^3
#
#
#
# Elastic Constant Matrix: (Units=GPa)
#
#
# Indices 1 2 3 4 5 6 
#
# 1 41.4729 32.7120 22.3319 0.0000 0.0000 0.0000
# 2 32.7120 152.6113 40.2095 0.0000 0.0000 0.0000
# 3 22.3319 40.2095 73.4390 0.0000 0.0000 0.0000
# 4 0.0000 0.0000 0.0000 8.4971 0.0000 0.0000
# 5 0.0000 0.0000 0.0000 0.0000 22.4605 0.0000
# 6 0.0000 0.0000 0.0000 0.0000 0.0000 24.5499
#
#
#
# Elastic Compliance Matrix: (Units=1/GPa)
#
#
# Indices 1 2 3 4 5 6 
#
# 1 0.031777 -0.004984 -0.006934 0.000000 0.000000 0.000000
# 2 -0.004984 0.008439 -0.003105 0.000000 0.000000 0.000000
# 3 -0.006934 -0.003105 0.017425 0.000000 0.000000 0.000000
# 4 0.000000 0.000000 0.000000 0.117688 0.000000 0.000000
# 5 0.000000 0.000000 0.000000 0.000000 0.044523 0.000000
# 6 0.000000 0.000000 0.000000 0.000000 0.000000 0.040733
#
#
# Mechanical properties :
#
#
# Convention : Reuss Voigt Hill
#
# Bulk Modulus (GPa) = 36.23836 50.89223 43.56530
# Shear Modulus (GPa) = 16.67608 22.58614 19.63111
#
# Velocity S-wave (km/s) = 3.14795 3.66355 3.41549
# Velocity P-wave (km/s) = 5.89467 6.93813 6.43758
#
# Compressibility (1/GPa) = 0.02759507
#
# Stress axis : x y z
#
# Youngs Moduli (GPa) = 31.46884 118.49651 57.38793
#
# Poissons Ratio (x) = 0.59065 0.39793
# Poissons Ratio (y) = 0.15686 0.17818
# Poissons Ratio (z) = 0.21821 0.36791
#
# Static dielectric constant tensor:
#      x y z
#    x 3.846550 0.000000 0.000000 
#    y 0.000000 4.038880 0.000000 
#    z 0.000000 0.000000 2.853570 
# 
# 
# High freq. dielectric constant tensor:
#      x y z
#    x 1.653880 0.000000 0.000000 
#    y 0.000000 1.672350 0.000000 
#    z 0.000000 0.000000 1.601550 
# 
# From -- ./inp_files/34538.got.cif
#   From: 2010.03.12/outbox.cif.g09.slc.cpg/sg53_18_cif.got.tgz:34538.got - 2010.04.16 14:36:59.
