data_PCOD8218749
_publ_section_title
;
Structure prediction by ZEFSAII (Michael W. Deem and Ramdas Pophale) SiO2 
 PCOD8218749
Probable space group: P M N A
;
_chemical_formula_sum "Si O2"
_cell_formula_units_Z 64
_cell_length_a 8.699858
_cell_length_b 15.752012
_cell_length_c 28.758606
_cell_angle_alpha 90.000000
_cell_angle_beta 90.000000
_cell_angle_gamma 90.000000
_cell_volume 3941.087062
_symmetry_space_group_name_H-M "P M N A"
_symmetry_group_IT_number 53
_symmetry_cell_setting 'orthorhombic'
loop_
_space_group_symop_operation_xyz
x,y,z
1/2-x,-y,1/2+z
x,-y,-z
1/2-x,y,1/2-z
-x,-y,-z
1/2+x,y,1/2-z
-x,y,z
1/2+x,-y,1/2+z
loop_
_atom_site_type_symbol
_atom_site_label
_atom_site_fract_x
_atom_site_fract_y
_atom_site_fract_z
Si Si1 0.682998 0.663214 0.646111
Si Si2 0.178379 0.991648 0.200259
Si Si3 0.681922 0.592276 0.551334
Si Si4 0.319428 0.655453 0.142072
Si Si5 0.317982 0.807228 0.301594
Si Si6 0.817965 0.399107 0.948840
Si Si7 0.818252 0.497197 0.800465
Si Si8 0.682024 0.174306 0.301111
O O1 0.500000 0.664032 0.644871
O O2 0.747643 0.649308 0.593669
O O3 0.740234 0.587073 0.679358
O O4 0.749114 0.752193 0.665451
O O5 0.250000 0.988967 0.250000
O O6 0.218768 0.901393 0.176114
O O7 0.000000 0.996174 0.208831
O O8 0.228774 0.081565 0.176482
O O9 0.500000 0.589382 0.553098
O O10 0.731265 0.629789 0.501105
O O11 0.738318 0.495875 0.557982
O O12 0.500000 0.645053 0.148345
O O13 0.265376 0.742708 0.164631
O O14 0.272797 0.658979 0.087808
O O15 0.234386 0.576878 0.165554
O O16 0.250000 0.797684 0.250000
O O17 0.500000 0.789343 0.299639
O O18 0.000000 0.389259 0.940944
O O19 0.750000 0.481405 0.750000
O O20 0.000000 0.494515 0.796965
O O21 0.750000 0.185958 0.250000
O O22 0.500000 0.184399 0.297061
#
# Coordination Sequence:
#
# PCOD8218749 Si02
#       8
#     8   8   8   8   8   8   8   8
#     4   9  16  27  46  69  92 120 152 183 217 262
#     4   8  15  27  44  65  88 115 146 183 224 261
#     4   8  14  27  49  71  87 113 152 189 225 268
#     4  12  23  33  45  65  91 119 152 188 229 270
#     4  10  19  32  48  66  90 119 152 187 224 268
#     4   9  16  30  51  68  86 114 152 191 227 270
#     4  11  21  33  46  62  91 127 160 185 214 258
#     4   9  16  27  44  67  94 121 149 182 218 260
#
# _framework density 16.239174999999999
#
# number of rings (size 3 to 8) (size 9 to 14) (size 15 to 20)
#    0.000    2.500    1.250    3.375    0.000    0.500 
#    0.000    1.875    0.000    0.000    0.000    0.875 
#    0.000    7.000    0.000    0.000    0.000    0.000 
#
# Total GULP energy -792916.021907 kJ/mol
# GULP energy per Si atom -12389.312842 kJ/mol
# Density = 1.620221 g / cm^3
# Si number density = 16.239175 Si / 1000 Ang^3
#
#
#
# Elastic Constant Matrix: (Units=GPa)
#
#
# Indices 1 2 3 4 5 6 
#
# 1 34.6020 24.0175 21.5650 0.0000 0.0000 0.0000
# 2 24.0175 118.5722 49.9006 0.0000 0.0000 0.0000
# 3 21.5650 49.9006 101.8789 0.0000 0.0000 0.0000
# 4 0.0000 0.0000 0.0000 12.0861 0.0000 0.0000
# 5 0.0000 0.0000 0.0000 0.0000 18.6624 0.0000
# 6 0.0000 0.0000 0.0000 0.0000 0.0000 12.5524
#
#
#
# Elastic Compliance Matrix: (Units=1/GPa)
#
#
# Indices 1 2 3 4 5 6 
#
# 1 0.035569 -0.005084 -0.005039 0.000000 0.000000 0.000000
# 2 -0.005084 0.011350 -0.004483 0.000000 0.000000 0.000000
# 3 -0.005039 -0.004483 0.013078 0.000000 0.000000 0.000000
# 4 0.000000 0.000000 0.000000 0.082740 0.000000 0.000000
# 5 0.000000 0.000000 0.000000 0.000000 0.053584 0.000000
# 6 0.000000 0.000000 0.000000 0.000000 0.000000 0.079666
#
#
# Mechanical properties :
#
#
# Convention : Reuss Voigt Hill
#
# Bulk Modulus (GPa) = 32.48314 49.55769 41.02041
# Shear Modulus (GPa) = 15.84981 19.29818 17.57399
#
# Velocity S-wave (km/s) = 3.12753 3.45102 3.29325
# Velocity P-wave (km/s) = 5.75224 6.81638 6.30679
#
# Compressibility (1/GPa) = 0.03078520
#
# Stress axis : x y z
#
# Youngs Moduli (GPa) = 28.11412 88.10371 76.46402
#
# Poissons Ratio (x) = 0.44794 0.38529
# Poissons Ratio (y) = 0.14294 0.34280
# Poissons Ratio (z) = 0.14166 0.39499
#
# Static dielectric constant tensor:
#      x y z
#    x 3.136300 0.000000 0.000000 
#    y 0.000000 3.583900 0.000000 
#    z 0.000000 0.000000 3.183230 
# 
# 
# High freq. dielectric constant tensor:
#      x y z
#    x 1.609090 0.000000 0.000000 
#    y 0.000000 1.621880 0.000000 
#    z 0.000000 0.000000 1.606010 
# 
# From -- ./inp_files/38399.got.cif
#   From: 2010.03.12/outbox.cif.g09.slc.cpg/sg53_20_cif.got.tgz:38399.got - 2010.04.16 14:36:59.
