data_PCOD8218031
_publ_section_title
;
Structure prediction by ZEFSAII (Michael W. Deem and Ramdas Pophale) SiO2 
 PCOD8218031
Probable space group: P M N A
;
_chemical_formula_sum "Si O2"
_cell_formula_units_Z 40
_cell_length_a 27.933485
_cell_length_b 8.958388
_cell_length_c 8.408245
_cell_angle_alpha 90.000000
_cell_angle_beta 90.000000
_cell_angle_gamma 90.000000
_cell_volume 2104.070794
_symmetry_space_group_name_H-M "P M N A"
_symmetry_group_IT_number 53
_symmetry_cell_setting 'orthorhombic'
loop_
_space_group_symop_operation_xyz
x,y,z
1/2-x,-y,1/2+z
x,-y,-z
1/2-x,y,1/2-z
-x,-y,-z
1/2+x,y,1/2-z
-x,y,z
1/2+x,-y,1/2+z
loop_
_atom_site_type_symbol
_atom_site_label
_atom_site_fract_x
_atom_site_fract_y
_atom_site_fract_z
Si Si1 0.360741 0.688274 0.654177
Si Si2 0.947975 0.332560 0.943350
Si Si3 0.668425 0.172584 0.024930
Si Si4 0.740957 0.657855 0.566476
Si Si5 0.607412 0.408519 0.845150
O O1 0.406922 0.743612 0.553195
O O2 0.352053 0.799887 0.799021
O O3 0.315054 0.692110 0.534271
O O4 0.365487 0.520184 0.723445
O O5 0.935478 0.332583 0.754856
O O6 0.000000 0.252302 0.964838
O O7 0.953103 0.500000 0.000000
O O8 0.724723 0.210782 0.001487
O O9 0.641519 0.274225 0.896768
O O10 0.659236 0.000000 0.000000
O O11 0.758317 0.500000 0.500000
O O12 0.750000 0.644485 0.750000
O O13 0.588387 0.500000 0.000000
#
# Coordination Sequence:
#
# PCOD8218031 Si02
#       5
#     8   8   8   8   8
#     4   9  18  34  52  75 103 132 166 206 254 304
#     4   9  17  31  54  81 102 123 163 217 260 295
#     4  10  20  34  50  72 103 136 171 208 246 294
#     4  10  18  31  51  74 100 132 165 199 243 300
#     4   9  17  32  54  76 101 134 167 203 251 304
#
# _framework density 19.010766
#
# number of rings (size 3 to 8) (size 9 to 14) (size 15 to 20)
#    0.000    2.600    0.000    4.800    0.000    0.400 
#    0.000   19.000    0.000    3.600    0.000    0.000 
#    0.000    0.000    0.000    0.000    0.000    0.000 
#
# Total GULP energy -495648.336966 kJ/mol
# GULP energy per Si atom -12391.208424 kJ/mol
# Density = 1.896750 g / cm^3
# Si number density = 19.010766 Si / 1000 Ang^3
#
#
#
# Elastic Constant Matrix: (Units=GPa)
#
#
# Indices 1 2 3 4 5 6 
#
# 1 164.2889 37.9524 64.6629 0.0000 0.0000 0.0000
# 2 37.9524 89.8958 30.8634 0.0000 0.0000 0.0000
# 3 64.6629 30.8634 81.4375 0.0000 0.0000 0.0000
# 4 0.0000 0.0000 0.0000 13.4527 0.0000 0.0000
# 5 0.0000 0.0000 0.0000 0.0000 1.2826 0.0000
# 6 0.0000 0.0000 0.0000 0.0000 0.0000 2.6265
#
#
#
# Elastic Compliance Matrix: (Units=1/GPa)
#
#
# Indices 1 2 3 4 5 6 
#
# 1 0.009039 -0.001554 -0.006588 0.000000 0.000000 0.000000
# 2 -0.001554 0.013055 -0.003714 0.000000 0.000000 0.000000
# 3 -0.006588 -0.003714 0.018918 0.000000 0.000000 0.000000
# 4 0.000000 0.000000 0.000000 0.074335 0.000000 0.000000
# 5 0.000000 0.000000 0.000000 0.000000 0.779664 0.000000
# 6 0.000000 0.000000 0.000000 0.000000 0.000000 0.380739
#
#
# Mechanical properties :
#
#
# Convention : Reuss Voigt Hill
#
# Bulk Modulus (GPa) = 57.80313 66.95328 62.37821
# Shear Modulus (GPa) = 3.83075 16.94857 10.38966
#
# Velocity S-wave (km/s) = 1.42106 2.98908 2.34030
# Velocity P-wave (km/s) = 5.75882 6.87080 6.33924
#
# Compressibility (1/GPa) = 0.01730010
#
# Stress axis : x y z
#
# Youngs Moduli (GPa) = 110.63321 76.59827 52.86042
#
# Poissons Ratio (x) = 0.11905 0.34825
# Poissons Ratio (y) = 0.17195 0.19630
# Poissons Ratio (z) = 0.72885 0.28445
#
# Static dielectric constant tensor:
#      x y z
#    x 4.365500 0.000000 0.000000 
#    y 0.000000 2.991960 0.000000 
#    z 0.000000 0.000000 3.635120 
# 
# 
# High freq. dielectric constant tensor:
#      x y z
#    x 1.739040 0.000000 0.000000 
#    y 0.000000 1.689870 0.000000 
#    z 0.000000 0.000000 1.746090 
# 
# From -- ./inp_files/11515.got.cif
#   From: 2010.03.12/outbox.cif.g09.slc.cpg/sg53_6_cif.got.tgz:11515.got - 2010.04.16 14:36:59.
