data_PCOD8218885
_publ_section_title
;
Structure prediction by ZEFSAII (Michael W. Deem and Ramdas Pophale) SiO2 
 PCOD8218885
Probable space group: P M N A
;
_chemical_formula_sum "Si O2"
_cell_formula_units_Z 32
_cell_length_a 8.880459
_cell_length_b 20.997906
_cell_length_c 9.277840
_cell_angle_alpha 90.000000
_cell_angle_beta 90.000000
_cell_angle_gamma 90.000000
_cell_volume 1730.048505
_symmetry_space_group_name_H-M "P M N A"
_symmetry_group_IT_number 53
_symmetry_cell_setting 'orthorhombic'
loop_
_space_group_symop_operation_xyz
x,y,z
1/2-x,-y,1/2+z
x,-y,-z
1/2-x,y,1/2-z
-x,-y,-z
1/2+x,y,1/2-z
-x,y,z
1/2+x,-y,1/2+z
loop_
_atom_site_type_symbol
_atom_site_label
_atom_site_fract_x
_atom_site_fract_y
_atom_site_fract_z
Si Si1 0.322475 0.940517 0.093880
Si Si2 0.175520 0.556355 0.903593
Si Si3 0.321761 0.819821 0.907399
Si Si4 0.676111 0.695425 0.594739
O O1 0.250000 0.942514 0.250000
O O2 0.500000 0.943656 0.114323
O O3 0.271937 0.876912 0.011024
O O4 0.264132 0.000000 0.000000
O O5 0.250000 0.552413 0.750000
O O6 0.203630 0.625973 0.978516
O O7 0.000000 0.544956 0.879999
O O8 0.245668 0.500000 0.000000
O O9 0.250000 0.830220 0.750000
O O10 0.500000 0.815819 0.890274
O O11 0.258593 0.754824 0.983411
O O12 0.750000 0.691172 0.750000
O O13 0.500000 0.710722 0.607716
#
# Coordination Sequence:
#
# PCOD8218885 Si02
#       4
#     8   8   8   8
#     4  10  22  38  55  77 103 132 167 204 243 290
#     4   9  18  32  49  71  98 128 165 206 246 292
#     4  10  19  32  52  77 102 128 163 204 245 293
#     4   9  16  28  48  71  97 129 164 202 244 291
#
# _framework density 18.496592
#
# number of rings (size 3 to 8) (size 9 to 14) (size 15 to 20)
#    0.000    2.500    0.000    3.750    0.000    4.000 
#    0.000    1.250    0.000    6.000    0.000    0.000 
#    0.000    0.000    0.000    0.000    0.000    0.000 
#
# Total GULP energy -396537.863395 kJ/mol
# GULP energy per Si atom -12391.808231 kJ/mol
# Density = 1.845449 g / cm^3
# Si number density = 18.496592 Si / 1000 Ang^3
#
#
#
# Elastic Constant Matrix: (Units=GPa)
#
#
# Indices 1 2 3 4 5 6 
#
# 1 65.0061 56.2383 33.2025 0.0000 0.0000 0.0000
# 2 56.2383 211.8538 78.6711 0.0000 0.0000 0.0000
# 3 33.2025 78.6711 90.8359 0.0000 0.0000 0.0000
# 4 0.0000 0.0000 0.0000 32.6492 0.0000 0.0000
# 5 0.0000 0.0000 0.0000 0.0000 22.1156 0.0000
# 6 0.0000 0.0000 0.0000 0.0000 0.0000 55.4165
#
#
#
# Elastic Compliance Matrix: (Units=1/GPa)
#
#
# Indices 1 2 3 4 5 6 
#
# 1 0.021002 -0.004016 -0.004198 0.000000 0.000000 0.000000
# 2 -0.004016 0.007726 -0.005223 0.000000 0.000000 0.000000
# 3 -0.004198 -0.005223 0.017067 0.000000 0.000000 0.000000
# 4 0.000000 0.000000 0.000000 0.030629 0.000000 0.000000
# 5 0.000000 0.000000 0.000000 0.000000 0.045217 0.000000
# 6 0.000000 0.000000 0.000000 0.000000 0.000000 0.018045
#
#
# Mechanical properties :
#
#
# Convention : Reuss Voigt Hill
#
# Bulk Modulus (GPa) = 52.85538 78.21330 65.53434
# Shear Modulus (GPa) = 28.92374 35.34186 32.13280
#
# Velocity S-wave (km/s) = 3.95870 4.37592 4.17253
# Velocity P-wave (km/s) = 7.03796 8.24067 7.66295
#
# Compressibility (1/GPa) = 0.01891955
#
# Stress axis : x y z
#
# Youngs Moduli (GPa) = 47.61458 129.43267 58.59140
#
# Poissons Ratio (x) = 0.51981 0.24599
# Poissons Ratio (y) = 0.19122 0.30605
# Poissons Ratio (z) = 0.19991 0.67608
#
# Static dielectric constant tensor:
#      x y z
#    x 3.403040 0.000000 0.000000 
#    y 0.000000 4.527990 0.000000 
#    z 0.000000 0.000000 3.051070 
# 
# 
# High freq. dielectric constant tensor:
#      x y z
#    x 1.721130 0.000000 0.000000 
#    y 0.000000 1.750220 0.000000 
#    z 0.000000 0.000000 1.673530 
# 
# From -- ./inp_files/6029.got.cif
#   From: 2010.03.12/outbox.cif.g09.slc.cpg/sg53_4_cif.got.tgz:6029.got - 2010.04.16 14:36:59.
