data_PCOD8218318
_publ_section_title
;
Structure prediction by ZEFSAII (Michael W. Deem and Ramdas Pophale) SiO2 
 PCOD8218318
Probable space group: P M N A
;
_chemical_formula_sum "Si O2"
_cell_formula_units_Z 48
_cell_length_a 9.211057
_cell_length_b 11.568701
_cell_length_c 26.093046
_cell_angle_alpha 90.000000
_cell_angle_beta 90.000000
_cell_angle_gamma 90.000000
_cell_volume 2780.474051
_symmetry_space_group_name_H-M "P M N A"
_symmetry_group_IT_number 53
_symmetry_cell_setting 'orthorhombic'
loop_
_space_group_symop_operation_xyz
x,y,z
1/2-x,-y,1/2+z
x,-y,-z
1/2-x,y,1/2-z
-x,-y,-z
1/2+x,y,1/2-z
-x,y,z
1/2+x,-y,1/2+z
loop_
_atom_site_type_symbol
_atom_site_label
_atom_site_fract_x
_atom_site_fract_y
_atom_site_fract_z
Si Si1 0.170808 0.471452 0.442691
Si Si2 0.327301 0.869496 0.803573
Si Si3 0.667120 0.355477 0.855061
Si Si4 0.161906 0.705920 0.879319
Si Si5 0.156563 0.478039 0.206854
Si Si6 0.333557 0.867250 0.199415
O O1 0.220170 0.500000 0.500000
O O2 0.214325 0.584923 0.408775
O O3 0.252681 0.352766 0.426733
O O4 0.000000 0.445913 0.438975
O O5 0.250000 0.833973 0.750000
O O6 0.500000 0.843712 0.799299
O O7 0.258948 0.803650 0.852221
O O8 0.291928 0.002722 0.816360
O O9 0.500000 0.385027 0.845706
O O10 0.757261 0.407353 0.808201
O O11 0.696378 0.217165 0.849888
O O12 0.137055 0.603295 0.840617
O O13 0.000000 0.752255 0.895475
O O14 0.250000 0.411509 0.250000
O O15 0.000000 0.513358 0.229076
O O16 0.250000 0.826228 0.250000
O O17 0.500000 0.861916 0.215482
#
# Coordination Sequence:
#
# PCOD8218318 Si02
#       6
#     8   8   8   8   8   8
#     4   9  18  33  53  74  94 119 153 196 246 293
#     4  10  19  31  47  68  96 128 161 192 225 269
#     4   9  17  30  47  67  92 120 152 190 232 279
#     4  10  20  32  47  68  93 122 156 193 234 279
#     4  10  19  28  40  62  91 120 149 182 223 271
#     4   9  18  30  45  67  95 127 158 189 224 267
#
# _framework density 17.263242999999999
#
# number of rings (size 3 to 8) (size 9 to 14) (size 15 to 20)
#    0.000    2.500    0.000    2.500    0.000    6.333 
#    0.000    0.000    0.000    1.000    0.000    7.000 
#    0.000    0.000    0.000    0.000    0.000    0.000 
#
# Total GULP energy -594702.707511 kJ/mol
# GULP energy per Si atom -12389.639740 kJ/mol
# Density = 1.722395 g / cm^3
# Si number density = 17.263243 Si / 1000 Ang^3
#
#
#
# Elastic Constant Matrix: (Units=GPa)
#
#
# Indices 1 2 3 4 5 6 
#
# 1 91.0940 35.8542 39.6713 0.0000 0.0000 0.0000
# 2 35.8542 89.5149 39.7136 0.0000 0.0000 0.0000
# 3 39.6713 39.7136 83.6389 0.0000 0.0000 0.0000
# 4 0.0000 0.0000 0.0000 22.8075 0.0000 0.0000
# 5 0.0000 0.0000 0.0000 0.0000 22.0125 0.0000
# 6 0.0000 0.0000 0.0000 0.0000 0.0000 25.2134
#
#
#
# Elastic Compliance Matrix: (Units=1/GPa)
#
#
# Indices 1 2 3 4 5 6 
#
# 1 0.014667 -0.003533 -0.005280 0.000000 0.000000 0.000000
# 2 -0.003533 0.015003 -0.005448 0.000000 0.000000 0.000000
# 3 -0.005280 -0.005448 0.017047 0.000000 0.000000 0.000000
# 4 0.000000 0.000000 0.000000 0.043845 0.000000 0.000000
# 5 0.000000 0.000000 0.000000 0.000000 0.045429 0.000000
# 6 0.000000 0.000000 0.000000 0.000000 0.000000 0.039661
#
#
# Mechanical properties :
#
#
# Convention : Reuss Voigt Hill
#
# Bulk Modulus (GPa) = 54.95405 54.96955 54.96180
# Shear Modulus (GPa) = 23.78230 23.94060 23.86145
#
# Velocity S-wave (km/s) = 3.71567 3.72801 3.72184
# Velocity P-wave (km/s) = 7.09298 7.10224 7.09761
#
# Compressibility (1/GPa) = 0.01819702
#
# Stress axis : x y z
#
# Youngs Moduli (GPa) = 68.17875 66.65132 58.65995
#
# Poissons Ratio (x) = 0.23545 0.30970
# Poissons Ratio (y) = 0.24084 0.31960
# Poissons Ratio (z) = 0.35996 0.36315
#
# Static dielectric constant tensor:
#      x y z
#    x 3.639610 0.000000 0.000000 
#    y 0.000000 3.320840 0.000000 
#    z 0.000000 0.000000 3.107700 
# 
# 
# High freq. dielectric constant tensor:
#      x y z
#    x 1.679870 0.000000 0.000000 
#    y 0.000000 1.659540 0.000000 
#    z 0.000000 0.000000 1.632940 
# 
# From -- ./inp_files/36146.got.cif
#   From: 2010.03.12/outbox.cif.g09.slc.cpg/sg53_19_cif.got.tgz:36146.got - 2010.04.16 14:36:59.
