data_PCOD8218621
_publ_section_title
;
Structure prediction by ZEFSAII (Michael W. Deem and Ramdas Pophale) SiO2 
 PCOD8218621
Probable space group: P M N A
;
_chemical_formula_sum "Si O2"
_cell_formula_units_Z 64
_cell_length_a 9.244607
_cell_length_b 21.729491
_cell_length_c 18.378079
_cell_angle_alpha 90.000000
_cell_angle_beta 90.000000
_cell_angle_gamma 90.000000
_cell_volume 3691.799621
_symmetry_space_group_name_H-M "P M N A"
_symmetry_group_IT_number 53
_symmetry_cell_setting 'orthorhombic'
loop_
_space_group_symop_operation_xyz
x,y,z
1/2-x,-y,1/2+z
x,-y,-z
1/2-x,y,1/2-z
-x,-y,-z
1/2+x,y,1/2-z
-x,y,z
1/2+x,-y,1/2+z
loop_
_atom_site_type_symbol
_atom_site_label
_atom_site_fract_x
_atom_site_fract_y
_atom_site_fract_z
Si Si1 0.338531 0.407810 0.040892
Si Si2 0.663200 0.472298 0.885982
Si Si3 0.671267 0.633969 0.321674
Si Si4 0.337381 0.941717 0.448617
Si Si5 0.168734 0.177023 0.037974
Si Si6 0.167352 0.306602 0.972348
Si Si7 0.330255 0.139367 0.175979
Si Si8 0.167843 0.997028 0.322225
O O1 0.500000 0.385866 0.059891
O O2 0.286324 0.456430 0.103070
O O3 0.335540 0.441104 0.964029
O O4 0.239398 0.347571 0.035895
O O5 0.500000 0.469534 0.853623
O O6 0.773440 0.436239 0.833466
O O7 0.750000 0.661180 0.250000
O O8 0.500000 0.633886 0.309690
O O9 0.718854 0.676230 0.390481
O O10 0.500000 0.932097 0.417998
O O11 0.284090 0.882013 0.491743
O O12 0.333469 0.000000 0.500000
O O13 0.225207 0.951918 0.384135
O O14 0.263124 0.179847 0.111225
O O15 0.000000 0.173761 0.059666
O O16 0.204177 0.235860 0.988154
O O17 0.000000 0.321207 0.978653
O O18 0.250000 0.158420 0.250000
O O19 0.500000 0.153263 0.184041
O O20 0.300403 0.067895 0.157788
O O21 0.250000 0.977765 0.250000
O O22 0.000000 0.984934 0.310253
#
# Coordination Sequence:
#
# PCOD8218621 Si02
#       8
#     8   8   8   8   8   8   8   8
#     4   8  14  26  46  70  96 123 153 193 238 287
#     4   8  14  26  45  70  96 122 153 193 242 286
#     4  10  19  31  48  71  99 134 175 214 254 296
#     4  10  19  32  52  75 100 133 169 210 263 312
#     4  10  20  35  53  74 103 136 172 213 256 308
#     4   9  19  33  49  71 100 136 174 212 253 301
#     4  10  20  33  52  77 101 126 158 200 251 309
#     4  10  20  33  51  74 102 130 161 204 255 313
#
# _framework density 17.335718
#
# number of rings (size 3 to 8) (size 9 to 14) (size 15 to 20)
#    0.000    2.625    1.250    1.875    0.000    3.250 
#    0.000    3.125    0.000    2.250    0.000    5.250 
#    0.000    0.000    0.000    0.000    0.000    0.000 
#
# Total GULP energy -793408.423963 kJ/mol
# GULP energy per Si atom -12397.006624 kJ/mol
# Density = 1.729626 g / cm^3
# Si number density = 17.335718 Si / 1000 Ang^3
#
#
#
# Elastic Constant Matrix: (Units=GPa)
#
#
# Indices 1 2 3 4 5 6 
#
# 1 83.3209 38.9827 56.1868 0.0000 0.0000 0.0000
# 2 38.9827 96.9463 45.1612 0.0000 0.0000 0.0000
# 3 56.1868 45.1612 96.7149 0.0000 0.0000 0.0000
# 4 0.0000 0.0000 0.0000 20.3158 0.0000 0.0000
# 5 0.0000 0.0000 0.0000 0.0000 29.6815 0.0000
# 6 0.0000 0.0000 0.0000 0.0000 0.0000 18.8203
#
#
#
# Elastic Compliance Matrix: (Units=1/GPa)
#
#
# Indices 1 2 3 4 5 6 
#
# 1 0.020603 -0.003462 -0.010353 0.000000 0.000000 0.000000
# 2 -0.003462 0.013764 -0.004416 0.000000 0.000000 0.000000
# 3 -0.010353 -0.004416 0.018416 0.000000 0.000000 0.000000
# 4 0.000000 0.000000 0.000000 0.049223 0.000000 0.000000
# 5 0.000000 0.000000 0.000000 0.000000 0.033691 0.000000
# 6 0.000000 0.000000 0.000000 0.000000 0.000000 0.053134
#
#
# Mechanical properties :
#
#
# Convention : Reuss Voigt Hill
#
# Bulk Modulus (GPa) = 61.26727 61.96038 61.61382
# Shear Modulus (GPa) = 21.67009 22.87361 22.27185
#
# Velocity S-wave (km/s) = 3.53941 3.63636 3.58821
# Velocity P-wave (km/s) = 7.21953 7.31094 7.26538
#
# Compressibility (1/GPa) = 0.01632193
#
# Stress axis : x y z
#
# Youngs Moduli (GPa) = 48.53733 72.65241 54.30008
#
# Poissons Ratio (x) = 0.25151 0.56215
# Poissons Ratio (y) = 0.16803 0.23979
# Poissons Ratio (z) = 0.50249 0.32084
#
# Static dielectric constant tensor:
#      x y z
#    x 3.285830 0.000000 0.000000 
#    y 0.000000 3.264210 0.000000 
#    z 0.000000 0.000000 3.399640 
# 
# 
# High freq. dielectric constant tensor:
#      x y z
#    x 1.672360 0.000000 0.000000 
#    y 0.000000 1.649370 0.000000 
#    z 0.000000 0.000000 1.654570 
# 
# From -- ./inp_files/27075.got.cif
#   From: 2010.03.12/outbox.cif.g09.slc.cpg/sg53_14_cif.got.tgz:27075.got - 2010.04.16 14:36:59.
