data_PCOD8218319
_publ_section_title
;
Structure prediction by ZEFSAII (Michael W. Deem and Ramdas Pophale) SiO2 
 PCOD8218319
Probable space group: P M N A
;
_chemical_formula_sum "Si O2"
_cell_formula_units_Z 64
_cell_length_a 9.137138
_cell_length_b 12.295538
_cell_length_c 31.139687
_cell_angle_alpha 90.000000
_cell_angle_beta 90.000000
_cell_angle_gamma 90.000000
_cell_volume 3498.420132
_symmetry_space_group_name_H-M "P M N A"
_symmetry_group_IT_number 53
_symmetry_cell_setting 'orthorhombic'
loop_
_space_group_symop_operation_xyz
x,y,z
1/2-x,-y,1/2+z
x,-y,-z
1/2-x,y,1/2-z
-x,-y,-z
1/2+x,y,1/2-z
-x,y,z
1/2+x,-y,1/2+z
loop_
_atom_site_type_symbol
_atom_site_label
_atom_site_fract_x
_atom_site_fract_y
_atom_site_fract_z
Si Si1 0.172485 0.827595 0.294449
Si Si2 0.332512 0.332095 0.869417
Si Si3 0.665401 0.568737 0.891212
Si Si4 0.669614 0.990634 0.352953
Si Si5 0.667909 0.813135 0.888224
Si Si6 0.657451 0.600825 0.528566
Si Si7 0.170745 0.200027 0.487764
Si Si8 0.330198 0.173590 0.570752
O O1 0.250000 0.800794 0.250000
O O2 0.210952 0.726088 0.325119
O O3 0.239536 0.937409 0.314317
O O4 0.000000 0.843427 0.287754
O O5 0.500000 0.305865 0.881276
O O6 0.310245 0.462352 0.861215
O O7 0.238012 0.283663 0.908858
O O8 0.500000 0.567989 0.909965
O O9 0.690608 0.689046 0.870855
O O10 0.783226 0.552652 0.927600
O O11 0.500000 0.993721 0.339891
O O12 0.695603 0.925541 0.396899
O O13 0.728152 0.112534 0.359373
O O14 0.500000 0.849484 0.882464
O O15 0.713221 0.828616 0.938534
O O16 0.624761 0.500000 0.500000
O O17 0.500000 0.661313 0.535945
O O18 0.777129 0.676354 0.505596
O O19 0.254627 0.135165 0.525743
O O20 0.000000 0.186342 0.495932
O O21 0.500000 0.196751 0.562040
#
# Coordination Sequence:
#
# PCOD8218319 Si02
#       8
#     8   8   8   8   8   8   8   8
#     4  10  20  36  60  87 111 133 159 197 247 303
#     4   9  18  33  54  78 104 135 168 203 250 308
#     4   9  18  32  49  70  97 132 171 206 246 297
#     4  10  21  36  54  76 103 135 171 212 258 308
#     4   9  19  34  50  70  98 136 181 222 256 295
#     4  10  19  28  40  62  92 127 169 216 259 295
#     4  10  20  32  46  65  93 133 178 220 261 306
#     4  10  20  32  47  71 102 133 170 220 270 309
#
# _framework density 18.293973000000001
#
# number of rings (size 3 to 8) (size 9 to 14) (size 15 to 20)
#    0.000    2.375    0.000    3.375    0.000    8.500 
#    0.000    2.500    0.000    0.750    0.000    1.750 
#    0.000    0.000    0.000    0.000    0.000    0.000 
#
# Total GULP energy -793104.002646 kJ/mol
# GULP energy per Si atom -12392.250041 kJ/mol
# Density = 1.825234 g / cm^3
# Si number density = 18.293973 Si / 1000 Ang^3
#
#
#
# Elastic Constant Matrix: (Units=GPa)
#
#
# Indices 1 2 3 4 5 6 
#
# 1 89.0025 33.8460 36.3189 0.0000 0.0000 0.0000
# 2 33.8460 91.2594 26.2050 0.0000 0.0000 0.0000
# 3 36.3189 26.2050 65.9152 0.0000 0.0000 0.0000
# 4 0.0000 0.0000 0.0000 15.6940 0.0000 0.0000
# 5 0.0000 0.0000 0.0000 0.0000 30.7001 0.0000
# 6 0.0000 0.0000 0.0000 0.0000 0.0000 25.1185
#
#
#
# Elastic Compliance Matrix: (Units=1/GPa)
#
#
# Indices 1 2 3 4 5 6 
#
# 1 0.015544 -0.003732 -0.007081 0.000000 0.000000 0.000000
# 2 -0.003732 0.013266 -0.003218 0.000000 0.000000 0.000000
# 3 -0.007081 -0.003218 0.020352 0.000000 0.000000 0.000000
# 4 0.000000 0.000000 0.000000 0.063719 0.000000 0.000000
# 5 0.000000 0.000000 0.000000 0.000000 0.032573 0.000000
# 6 0.000000 0.000000 0.000000 0.000000 0.000000 0.039811
#
#
# Mechanical properties :
#
#
# Convention : Reuss Voigt Hill
#
# Bulk Modulus (GPa) = 47.39188 48.76855 48.08021
# Shear Modulus (GPa) = 22.69011 24.28966 23.48988
#
# Velocity S-wave (km/s) = 3.52562 3.64777 3.58721
# Velocity P-wave (km/s) = 6.52191 6.66767 6.59519
#
# Compressibility (1/GPa) = 0.02110066
#
# Stress axis : x y z
#
# Youngs Moduli (GPa) = 64.33205 75.38223 49.13518
#
# Poissons Ratio (x) = 0.28130 0.34794
# Poissons Ratio (y) = 0.24006 0.15811
# Poissons Ratio (z) = 0.45555 0.24256
#
# Static dielectric constant tensor:
#      x y z
#    x 3.544150 0.000000 0.000000 
#    y 0.000000 3.358770 0.000000 
#    z 0.000000 0.000000 3.143330 
# 
# 
# High freq. dielectric constant tensor:
#      x y z
#    x 1.723810 0.000000 0.000000 
#    y 0.000000 1.704510 0.000000 
#    z 0.000000 0.000000 1.670900 
# 
# From -- ./inp_files/38294.got.cif
#   From: 2010.03.12/outbox.cif.g09.slc.cpg/sg53_20_cif.got.tgz:38294.got - 2010.04.16 14:36:59.
