data_PCOD8218208
_publ_section_title
;
Structure prediction by ZEFSAII (Michael W. Deem and Ramdas Pophale) SiO2 
 PCOD8218208
Probable space group: P M N A
;
_chemical_formula_sum "Si O2"
_cell_formula_units_Z 40
_cell_length_a 10.026148
_cell_length_b 23.111397
_cell_length_c 9.277909
_cell_angle_alpha 90.000000
_cell_angle_beta 90.000000
_cell_angle_gamma 90.000000
_cell_volume 2149.861179
_symmetry_space_group_name_H-M "P M N A"
_symmetry_group_IT_number 53
_symmetry_cell_setting 'orthorhombic'
loop_
_space_group_symop_operation_xyz
x,y,z
1/2-x,-y,1/2+z
x,-y,-z
1/2-x,y,1/2-z
-x,-y,-z
1/2+x,y,1/2-z
-x,y,z
1/2+x,-y,1/2+z
loop_
_atom_site_type_symbol
_atom_site_label
_atom_site_fract_x
_atom_site_fract_y
_atom_site_fract_z
Si Si1 0.244090 0.135158 0.081623
Si Si2 0.500000 0.062309 0.073939
Si Si3 0.000000 0.942661 0.910543
Si Si4 0.256236 0.367422 0.579618
Si Si5 0.163050 0.756828 0.105786
Si Si6 0.500000 0.436911 0.928019
Si Si7 0.000000 0.441739 0.915040
O O1 0.250000 0.150021 0.250000
O O2 0.376328 0.102446 0.028292
O O3 0.128354 0.091749 0.040574
O O4 0.213139 0.194092 0.000780
O O5 0.500000 0.045957 0.241099
O O6 0.500000 0.000000 0.000000
O O7 0.000000 0.000000 0.000000
O O8 0.250000 0.364307 0.750000
O O9 0.289533 0.302448 0.527049
O O10 0.122424 0.396930 0.519322
O O11 0.372828 0.408346 0.526562
O O12 0.250000 0.765311 0.250000
O O13 0.000000 0.757204 0.132326
O O14 0.500000 0.448806 0.757351
O O15 0.500000 0.500000 0.000000
O O16 0.000000 0.500000 0.000000
#
# Coordination Sequence:
#
# PCOD8218208 Si02
#       7
#     8   4   4   8   8   4   4
#     4  10  22  40  60  85 121 159 190 237 301 354
#     4  10  22  37  58  88 118 151 199 238 287 354
#     4  10  20  37  60  82 116 159 193 236 293 344
#     4   9  19  34  56  79 111 146 188 232 290 337
#     4  11  23  39  62  90 117 152 204 251 292 350
#     4  10  20  35  54  82 112 145 183 236 285 344
#     4  10  18  33  54  78 106 147 185 230 283 346
#
# _framework density 18.605851999999999
#
# number of rings (size 3 to 8) (size 9 to 14) (size 15 to 20)
#    0.000    2.000    2.000    1.200    5.600    1.600 
#    0.000    2.000    0.000    0.000    0.000    0.000 
#    0.000    0.000    0.000    0.000    0.000    0.000 
#
# Total GULP energy -495673.629704 kJ/mol
# GULP energy per Si atom -12391.840743 kJ/mol
# Density = 1.856350 g / cm^3
# Si number density = 18.605852 Si / 1000 Ang^3
#
#
#
# Elastic Constant Matrix: (Units=GPa)
#
#
# Indices 1 2 3 4 5 6 
#
# 1 196.2650 105.1179 41.9048 0.0000 0.0000 0.0000
# 2 105.1179 208.6225 64.7333 0.0000 0.0000 0.0000
# 3 41.9048 64.7333 43.2482 0.0000 0.0000 0.0000
# 4 0.0000 0.0000 0.0000 40.2413 0.0000 0.0000
# 5 0.0000 0.0000 0.0000 0.0000 19.0359 0.0000
# 6 0.0000 0.0000 0.0000 0.0000 0.0000 11.2633
#
#
#
# Elastic Compliance Matrix: (Units=1/GPa)
#
#
# Indices 1 2 3 4 5 6 
#
# 1 0.007165 -0.002719 -0.002873 0.000000 0.000000 0.000000
# 2 -0.002719 0.009982 -0.012306 0.000000 0.000000 0.000000
# 3 -0.002873 -0.012306 0.044326 0.000000 0.000000 0.000000
# 4 0.000000 0.000000 0.000000 0.024850 0.000000 0.000000
# 5 0.000000 0.000000 0.000000 0.000000 0.052532 0.000000
# 6 0.000000 0.000000 0.000000 0.000000 0.000000 0.088784
#
#
# Mechanical properties :
#
#
# Convention : Reuss Voigt Hill
#
# Bulk Modulus (GPa) = 38.94591 96.84973 67.89782
# Shear Modulus (GPa) = 18.38283 29.86674 24.12478
#
# Velocity S-wave (km/s) = 3.14668 4.01088 3.60477
# Velocity P-wave (km/s) = 5.84633 8.57997 7.34151
#
# Compressibility (1/GPa) = 0.02567663
#
# Stress axis : x y z
#
# Youngs Moduli (GPa) = 139.57523 100.18389 22.56014
#
# Poissons Ratio (x) = 0.27236 0.06481
# Poissons Ratio (y) = 0.37944 0.27763
# Poissons Ratio (z) = 0.40099 1.23289
#
# Static dielectric constant tensor:
#      x y z
#    x 3.971720 0.000000 0.000000 
#    y 0.000000 3.700790 0.000000 
#    z 0.000000 0.000000 3.108870 
# 
# 
# High freq. dielectric constant tensor:
#      x y z
#    x 1.747710 0.000000 0.000000 
#    y 0.000000 1.742450 0.000000 
#    z 0.000000 0.000000 1.688010 
# 
# From -- ./inp_files/14018.got.cif
#   From: 2010.03.12/outbox.cif.g09.slc.cpg/sg53_8_cif.got.tgz:14018.got - 2010.04.16 14:36:59.
