data_PCOD8218486
_publ_section_title
;
Structure prediction by ZEFSAII (Michael W. Deem and Ramdas Pophale) SiO2 
 PCOD8218486
Probable space group: P M N A
;
_chemical_formula_sum "Si O2"
_cell_formula_units_Z 40
_cell_length_a 9.262719
_cell_length_b 12.593738
_cell_length_c 19.629225
_cell_angle_alpha 90.000000
_cell_angle_beta 90.000000
_cell_angle_gamma 90.000000
_cell_volume 2289.793385
_symmetry_space_group_name_H-M "P M N A"
_symmetry_group_IT_number 53
_symmetry_cell_setting 'orthorhombic'
loop_
_space_group_symop_operation_xyz
x,y,z
1/2-x,-y,1/2+z
x,-y,-z
1/2-x,y,1/2-z
-x,-y,-z
1/2+x,y,1/2-z
-x,y,z
1/2+x,-y,1/2+z
loop_
_atom_site_type_symbol
_atom_site_label
_atom_site_fract_x
_atom_site_fract_y
_atom_site_fract_z
Si Si1 0.833525 0.812677 0.090690
Si Si2 0.332769 0.387189 0.679985
Si Si3 0.165607 0.531770 0.576853
Si Si4 0.840266 0.987865 0.580887
Si Si5 0.332609 0.765253 0.955361
O O1 0.810765 0.732049 0.152800
O O2 0.767480 0.926327 0.113708
O O3 0.000000 0.830099 0.072977
O O4 0.758046 0.763637 0.024604
O O5 0.250000 0.400182 0.750000
O O6 0.500000 0.413009 0.691740
O O7 0.272267 0.471678 0.626676
O O8 0.203059 0.500000 0.500000
O O9 0.194078 0.657501 0.586307
O O10 0.000000 0.502004 0.594018
O O11 0.000000 0.008202 0.611174
O O12 0.840764 0.000000 0.500000
O O13 0.790545 0.865381 0.593554
O O14 0.500000 0.775542 0.977555
#
# Coordination Sequence:
#
# PCOD8218486 Si02
#       5
#     8   8   8   8   8
#     4  10  19  30  47  73 103 132 168 215 260 304
#     4  11  24  38  53  75 105 140 178 221 267 318
#     4  10  19  33  56  80 105 139 177 218 263 316
#     4   8  15  27  45  70 101 133 164 199 244 303
#     4   9  17  30  49  76 105 135 169 206 255 311
#
# _framework density 17.468824000000001
#
# number of rings (size 3 to 8) (size 9 to 14) (size 15 to 20)
#    0.000    2.400    2.000    2.400    0.000    7.200 
#    0.000    0.000    0.000    1.200    0.000    2.800 
#    0.000    0.000    0.000    0.000    0.000    0.000 
#
# Total GULP energy -495892.273376 kJ/mol
# GULP energy per Si atom -12397.306834 kJ/mol
# Density = 1.742906 g / cm^3
# Si number density = 17.468824 Si / 1000 Ang^3
#
#
#
# Elastic Constant Matrix: (Units=GPa)
#
#
# Indices 1 2 3 4 5 6 
#
# 1 117.1951 67.3119 57.2375 0.0000 0.0000 0.0000
# 2 67.3119 143.8201 43.2627 0.0000 0.0000 0.0000
# 3 57.2375 43.2627 68.1466 0.0000 0.0000 0.0000
# 4 0.0000 0.0000 0.0000 13.9980 0.0000 0.0000
# 5 0.0000 0.0000 0.0000 0.0000 -42.1721 0.0000
# 6 0.0000 0.0000 0.0000 0.0000 0.0000 28.0665
#
#
#
# Elastic Compliance Matrix: (Units=1/GPa)
#
#
# Indices 1 2 3 4 5 6 
#
# 1 0.016427 -0.004373 -0.011021 0.000000 0.000000 0.000000
# 2 -0.004373 0.009759 -0.002522 0.000000 0.000000 0.000000
# 3 -0.011021 -0.002522 0.025532 0.000000 0.000000 0.000000
# 4 0.000000 0.000000 0.000000 0.071439 0.000000 0.000000
# 5 0.000000 0.000000 0.000000 0.000000 -0.023712 0.000000
# 6 0.000000 0.000000 0.000000 0.000000 0.000000 0.035630
#
#
# Mechanical properties :
#
#
# Convention : Reuss Voigt Hill
#
# Bulk Modulus (GPa) = 62.95191 73.86509 68.40850
# Shear Modulus (GPa) = 28.37646 10.73513 19.55579
#
# Velocity S-wave (km/s) = 4.03476 2.48166 3.34948
# Velocity P-wave (km/s) = 7.60399 7.11247 7.36234
#
# Compressibility (1/GPa) = 0.01588514
#
# Stress axis : x y z
#
# Youngs Moduli (GPa) = 60.87458 102.47416 39.16597
#
# Poissons Ratio (x) = 0.44813 0.43166
# Poissons Ratio (y) = 0.26621 0.09878
# Poissons Ratio (z) = 0.67091 0.25846
#
# Static dielectric constant tensor:
#      x y z
#    x 3.311390 0.000000 0.000000 
#    y 0.000000 3.942350 0.000000 
#    z 0.000000 0.000000 2.846050 
# 
# 
# High freq. dielectric constant tensor:
#      x y z
#    x 1.679270 0.000000 0.000000 
#    y 0.000000 1.698170 0.000000 
#    z 0.000000 0.000000 1.618080 
# 
# From -- ./inp_files/19899.got.cif
#   From: 2010.03.12/outbox.cif.g09.slc.cpg/sg53_10_cif.got.tgz:19899.got - 2010.04.16 14:36:59.
