data_PCOD8218189
_publ_section_title
;
Structure prediction by ZEFSAII (Michael W. Deem and Ramdas Pophale) SiO2 
 PCOD8218189
Probable space group: P M N A
;
_chemical_formula_sum "Si O2"
_cell_formula_units_Z 56
_cell_length_a 14.296450
_cell_length_b 9.485050
_cell_length_c 18.622425
_cell_angle_alpha 90.000000
_cell_angle_beta 90.000000
_cell_angle_gamma 90.000000
_cell_volume 2525.248188
_symmetry_space_group_name_H-M "P M N A"
_symmetry_group_IT_number 53
_symmetry_cell_setting 'orthorhombic'
loop_
_space_group_symop_operation_xyz
x,y,z
1/2-x,-y,1/2+z
x,-y,-z
1/2-x,y,1/2-z
-x,-y,-z
1/2+x,y,1/2-z
-x,y,z
1/2+x,-y,1/2+z
loop_
_atom_site_type_symbol
_atom_site_label
_atom_site_fract_x
_atom_site_fract_y
_atom_site_fract_z
Si Si1 0.806488 0.343735 0.477274
Si Si2 0.303138 0.037298 0.822978
Si Si3 0.682609 0.114585 0.552863
Si Si4 0.000000 0.230568 0.507490
Si Si5 0.603704 0.314427 0.803245
Si Si6 0.731912 0.562446 0.830038
Si Si7 0.398966 0.643214 0.359082
Si Si8 0.500000 0.021772 0.119969
O O1 0.768966 0.500000 0.500000
O O2 0.753361 0.212170 0.509445
O O3 0.910368 0.331928 0.509565
O O4 0.795291 0.323040 0.390314
O O5 0.250000 0.989712 0.750000
O O6 0.236227 0.011576 0.890755
O O7 0.318285 0.205914 0.829687
O O8 0.406859 0.968446 0.829801
O O9 0.610483 0.222226 0.588750
O O10 0.633275 0.000000 0.500000
O O11 0.000000 0.119816 0.572490
O O12 0.000000 0.155122 0.430839
O O13 0.500000 0.291522 0.837449
O O14 0.639700 0.467659 0.823599
O O15 0.598151 0.289094 0.718986
O O16 0.750000 0.627991 0.750000
O O17 0.819669 0.475802 0.862127
O O18 0.500000 0.572312 0.376818
#
# Coordination Sequence:
#
# PCOD8218189 Si02
#       8
#     8   8   8   4   8   8   8   4
#     4  12  23  40  67  98 132 173 224 271 333 413
#     4  12  20  36  62  93 126 170 222 268 321 387
#     4  12  24  41  62  94 135 173 216 276 337 392
#     4  11  25  42  62  98 140 176 213 267 348 418
#     4  10  18  32  61  97 121 152 210 274 323 377
#     4  10  21  40  63  96 135 171 219 278 339 396
#     4  10  20  38  64  92 121 166 221 274 318 377
#     4  11  24  42  64  96 141 180 211 269 348 404
#
# _framework density 22.176038999999999
#
# number of rings (size 3 to 8) (size 9 to 14) (size 15 to 20)
#    0.000    1.000    6.429    1.500    1.000    0.286 
#    0.000    4.286    0.000    0.000    0.000    0.000 
#    0.000    0.000    0.000    0.000    0.000    0.000 
#
# Total GULP energy -693909.800428 kJ/mol
# GULP energy per Si atom -12391.246436 kJ/mol
# Density = 2.212557 g / cm^3
# Si number density = 22.176039 Si / 1000 Ang^3
#
#
#
# Elastic Constant Matrix: (Units=GPa)
#
#
# Indices 1 2 3 4 5 6 
#
# 1 95.1093 5.3463 34.3615 0.0000 0.0000 0.0000
# 2 5.3463 40.5482 26.4919 0.0000 0.0000 0.0000
# 3 34.3615 26.4919 110.6237 0.0000 0.0000 0.0000
# 4 0.0000 0.0000 0.0000 34.4126 0.0000 0.0000
# 5 0.0000 0.0000 0.0000 0.0000 28.2234 0.0000
# 6 0.0000 0.0000 0.0000 0.0000 0.0000 7.3091
#
#
#
# Elastic Compliance Matrix: (Units=1/GPa)
#
#
# Indices 1 2 3 4 5 6 
#
# 1 0.011877 0.001001 -0.003929 0.000000 0.000000 0.000000
# 2 0.001001 0.029321 -0.007333 0.000000 0.000000 0.000000
# 3 -0.003929 -0.007333 0.012016 0.000000 0.000000 0.000000
# 4 0.000000 0.000000 0.000000 0.029059 0.000000 0.000000
# 5 0.000000 0.000000 0.000000 0.000000 0.035432 0.000000
# 6 0.000000 0.000000 0.000000 0.000000 0.000000 0.136815
#
#
# Mechanical properties :
#
#
# Convention : Reuss Voigt Hill
#
# Bulk Modulus (GPa) = 30.58765 42.07561 36.33163
# Shear Modulus (GPa) = 17.48625 25.99445 21.74035
#
# Velocity S-wave (km/s) = 2.81111 3.42744 3.13446
# Velocity P-wave (km/s) = 4.93553 5.88878 5.43310
#
# Compressibility (1/GPa) = 0.03269294
#
# Stress axis : x y z
#
# Youngs Moduli (GPa) = 84.19314 34.10560 83.22200
#
# Poissons Ratio (x) = -0.03414 0.32698
# Poissons Ratio (y) = -0.08427 0.61023
# Poissons Ratio (z) = 0.33080 0.25008
#
# Static dielectric constant tensor:
#      x y z
#    x 4.150360 0.000000 0.000000 
#    y 0.000000 3.552840 0.000000 
#    z 0.000000 0.000000 4.411270 
# 
# 
# High freq. dielectric constant tensor:
#      x y z
#    x 1.865510 0.000000 0.000000 
#    y 0.000000 1.838940 0.000000 
#    z 0.000000 0.000000 1.890310 
# 
# From -- ./inp_files/32517.got.cif
#   From: 2010.03.12/outbox.cif.g09.slc.cpg/sg53_17_cif.got.tgz:32517.got - 2010.04.16 14:36:59.
