data_PCOD8218390
_publ_section_title
;
Structure prediction by ZEFSAII (Michael W. Deem and Ramdas Pophale) SiO2 
 PCOD8218390
Probable space group: P M N A
;
_chemical_formula_sum "Si O2"
_cell_formula_units_Z 48
_cell_length_a 16.638753
_cell_length_b 5.109468
_cell_length_c 36.556359
_cell_angle_alpha 90.000000
_cell_angle_beta 90.000000
_cell_angle_gamma 90.000000
_cell_volume 3107.845295
_symmetry_space_group_name_H-M "P M N A"
_symmetry_group_IT_number 53
_symmetry_cell_setting 'orthorhombic'
loop_
_space_group_symop_operation_xyz
x,y,z
1/2-x,-y,1/2+z
x,-y,-z
1/2-x,y,1/2-z
-x,-y,-z
1/2+x,y,1/2-z
-x,y,z
1/2+x,-y,1/2+z
loop_
_atom_site_type_symbol
_atom_site_label
_atom_site_fract_x
_atom_site_fract_y
_atom_site_fract_z
Si Si1 0.908991 0.462145 0.724944
Si Si2 0.192935 0.049249 0.285801
Si Si3 0.093475 0.484693 0.959648
Si Si4 0.094550 0.026699 0.085844
Si Si5 0.911672 0.457874 0.809490
Si Si6 0.333393 0.040476 0.337242
O O1 0.854533 0.682884 0.706264
O O2 0.909911 0.534069 0.767401
O O3 0.000000 0.463229 0.709295
O O4 0.871125 0.179601 0.718581
O O5 0.250000 0.070839 0.250000
O O6 0.242969 0.995875 0.322975
O O7 0.127020 0.708207 0.932757
O O8 0.000000 0.545847 0.964010
O O9 0.110230 0.202251 0.942969
O O10 0.133760 0.500000 0.000000
O O11 0.152089 0.972563 0.120426
O O12 0.000000 0.039313 0.097403
O O13 0.854396 0.655524 0.831038
O O14 0.000000 0.495294 0.826300
O O15 0.888052 0.155397 0.813558
#
# Coordination Sequence:
#
# PCOD8218390 Si02
#       6
#     8   8   8   8   8   8
#     4  11  22  36  51  66  85 117 162 203 235 280
#     4  12  21  36  50  69  91 119 158 198 245 290
#     4   9  17  30  47  63  85 119 157 191 217 258
#     4  10  19  30  43  66  93 118 154 191 230 272
#     4  11  20  31  45  64  88 119 154 192 241 283
#     4  12  22  31  47  66  94 123 150 197 248 281
#
# _framework density 15.444785
#
# number of rings (size 3 to 8) (size 9 to 14) (size 15 to 20)
#    0.000    1.167    3.333    5.000    0.000    6.000 
#    0.000    0.000    0.000    0.000    0.000    0.000 
#    0.000    0.000    0.000    0.000    0.000   58.333 
#
# Total GULP energy -595171.009486 kJ/mol
# GULP energy per Si atom -12399.396031 kJ/mol
# Density = 1.540963 g / cm^3
# Si number density = 15.444785 Si / 1000 Ang^3
#
#
#
# Elastic Constant Matrix: (Units=GPa)
#
#
# Indices 1 2 3 4 5 6 
#
# 1 67.0381 16.6099 29.1092 0.0000 0.0000 0.0000
# 2 16.6099 73.1325 4.9439 0.0000 0.0000 0.0000
# 3 29.1092 4.9439 65.6642 0.0000 0.0000 0.0000
# 4 0.0000 0.0000 0.0000 17.6557 0.0000 0.0000
# 5 0.0000 0.0000 0.0000 0.0000 12.3465 0.0000
# 6 0.0000 0.0000 0.0000 0.0000 0.0000 24.8607
#
#
#
# Elastic Compliance Matrix: (Units=1/GPa)
#
#
# Indices 1 2 3 4 5 6 
#
# 1 0.019502 -0.003865 -0.008354 0.000000 0.000000 0.000000
# 2 -0.003865 0.014510 0.000621 0.000000 0.000000 0.000000
# 3 -0.008354 0.000621 0.018886 0.000000 0.000000 0.000000
# 4 0.000000 0.000000 0.000000 0.056639 0.000000 0.000000
# 5 0.000000 0.000000 0.000000 0.000000 0.080994 0.000000
# 6 0.000000 0.000000 0.000000 0.000000 0.000000 0.040224
#
#
# Mechanical properties :
#
#
# Convention : Reuss Voigt Hill
#
# Bulk Modulus (GPa) = 33.66885 34.12896 33.89891
# Shear Modulus (GPa) = 18.95006 21.31738 20.13372
#
# Velocity S-wave (km/s) = 3.50659 3.71918 3.61445
# Velocity P-wave (km/s) = 6.18399 6.37090 6.27814
#
# Compressibility (1/GPa) = 0.02970104
#
# Stress axis : x y z
#
# Youngs Moduli (GPa) = 51.27674 68.92008 52.94989
#
# Poissons Ratio (x) = 0.26634 0.44236
# Poissons Ratio (y) = 0.19816 -0.03287
# Poissons Ratio (z) = 0.42838 -0.04278
#
# Static dielectric constant tensor:
#      x y z
#    x 2.843260 0.000000 0.000000 
#    y 0.000000 3.075530 0.000000 
#    z 0.000000 0.000000 2.877550 
# 
# 
# High freq. dielectric constant tensor:
#      x y z
#    x 1.550450 0.000000 0.000000 
#    y 0.000000 1.618950 0.000000 
#    z 0.000000 0.000000 1.567000 
# 
# From -- ./inp_files/38814.got.cif
#   From: 2010.03.12/outbox.cif.g09.slc.cpg/sg53_20_cif.got.tgz:38814.got - 2010.04.16 14:36:59.
