data_PCOD8218313
_publ_section_title
;
Structure prediction by ZEFSAII (Michael W. Deem and Ramdas Pophale) SiO2 
 PCOD8218313
Probable space group: P M N A
;
_chemical_formula_sum "Si O2"
_cell_formula_units_Z 64
_cell_length_a 8.922588
_cell_length_b 18.521667
_cell_length_c 26.076721
_cell_angle_alpha 90.000000
_cell_angle_beta 90.000000
_cell_angle_gamma 90.000000
_cell_volume 4309.470301
_symmetry_space_group_name_H-M "P M N A"
_symmetry_group_IT_number 53
_symmetry_cell_setting 'orthorhombic'
loop_
_space_group_symop_operation_xyz
x,y,z
1/2-x,-y,1/2+z
x,-y,-z
1/2-x,y,1/2-z
-x,-y,-z
1/2+x,y,1/2-z
-x,y,z
1/2+x,-y,1/2+z
loop_
_atom_site_type_symbol
_atom_site_label
_atom_site_fract_x
_atom_site_fract_y
_atom_site_fract_z
Si Si1 0.326750 0.093419 0.391809
Si Si2 0.172232 0.587243 0.902958
Si Si3 0.827162 0.177884 0.002175
Si Si4 0.174921 0.328564 0.197952
Si Si5 0.834783 0.459768 0.553827
Si Si6 0.676740 0.961076 0.451492
Si Si7 0.177887 0.822194 0.696409
Si Si8 0.323104 0.671502 0.992577
O O1 0.500000 0.100472 0.374826
O O2 0.299050 0.139390 0.443350
O O3 0.219299 0.120257 0.346977
O O4 0.281646 0.008415 0.401146
O O5 0.199484 0.610431 0.844554
O O6 0.228283 0.504565 0.908117
O O7 0.255135 0.643862 0.939354
O O8 0.000000 0.590017 0.918533
O O9 0.725303 0.247585 0.995909
O O10 0.000000 0.201239 0.997454
O O11 0.779123 0.123823 0.955005
O O12 0.250000 0.357791 0.250000
O O13 0.255069 0.255064 0.180057
O O14 0.000000 0.312074 0.207096
O O15 0.843684 0.500000 0.500000
O O16 0.772847 0.379373 0.540749
O O17 0.000000 0.455964 0.578966
O O18 0.500000 0.965628 0.458879
O O19 0.753887 0.000000 0.500000
O O20 0.250000 0.847535 0.750000
O O21 0.000000 0.816848 0.701993
O O22 0.500000 0.667029 0.986224
#
# Coordination Sequence:
#
# PCOD8218313 Si02
#       8
#     8   8   8   8   8   8   8   8
#     4   9  16  28  44  60  81 108 138 170 202 238
#     4  10  19  29  43  61  79 103 137 172 202 236
#     4   9  16  26  42  62  82 108 140 168 196 234
#     4  10  20  32  44  60  81 105 135 169 204 239
#     4   8  16  29  41  55  78 107 136 164 198 240
#     4   7  12  24  41  59  79 105 135 165 197 234
#     4  11  21  31  43  59  80 107 139 172 205 238
#     4  10  19  28  39  58  84 112 138 165 200 239
#
# _framework density 14.851013
#
# number of rings (size 3 to 8) (size 9 to 14) (size 15 to 20)
#    0.000    2.750    0.000    6.000    0.000    8.250 
#    0.000    0.625    0.000    2.250    0.000    0.000 
#    0.000    1.000    0.000    9.000    0.000    5.750 
#
# Total GULP energy -792998.399877 kJ/mol
# GULP energy per Si atom -12390.599998 kJ/mol
# Density = 1.481721 g / cm^3
# Si number density = 14.851013 Si / 1000 Ang^3
#
#
#
# Elastic Constant Matrix: (Units=GPa)
#
#
# Indices 1 2 3 4 5 6 
#
# 1 82.6047 44.1808 41.9833 0.0000 0.0000 0.0000
# 2 44.1808 98.5503 50.3711 0.0000 0.0000 0.0000
# 3 41.9833 50.3711 65.0561 0.0000 0.0000 0.0000
# 4 0.0000 0.0000 0.0000 23.8647 0.0000 0.0000
# 5 0.0000 0.0000 0.0000 0.0000 19.8376 0.0000
# 6 0.0000 0.0000 0.0000 0.0000 0.0000 12.4722
#
#
#
# Elastic Compliance Matrix: (Units=1/GPa)
#
#
# Indices 1 2 3 4 5 6 
#
# 1 0.018789 -0.003684 -0.009273 0.000000 0.000000 0.000000
# 2 -0.003684 0.017515 -0.011184 0.000000 0.000000 0.000000
# 3 -0.009273 -0.011184 0.030015 0.000000 0.000000 0.000000
# 4 0.000000 0.000000 0.000000 0.041903 0.000000 0.000000
# 5 0.000000 0.000000 0.000000 0.000000 0.050409 0.000000
# 6 0.000000 0.000000 0.000000 0.000000 0.000000 0.080178
#
#
# Mechanical properties :
#
#
# Convention : Reuss Voigt Hill
#
# Bulk Modulus (GPa) = 55.44042 57.69794 56.56918
# Shear Modulus (GPa) = 17.05877 18.54662 17.80270
#
# Velocity S-wave (km/s) = 3.39287 3.53774 3.46606
# Velocity P-wave (km/s) = 7.26367 7.45808 7.36151
#
# Compressibility (1/GPa) = 0.01803738
#
# Stress axis : x y z
#
# Youngs Moduli (GPa) = 53.22249 57.09423 33.31625
#
# Poissons Ratio (x) = 0.21031 0.30895
# Poissons Ratio (y) = 0.19605 0.37262
# Poissons Ratio (z) = 0.49355 0.63855
#
# Static dielectric constant tensor:
#      x y z
#    x 2.848290 0.000000 0.000000 
#    y 0.000000 3.149810 0.000000 
#    z 0.000000 0.000000 2.697790 
# 
# 
# High freq. dielectric constant tensor:
#      x y z
#    x 1.568650 0.000000 0.000000 
#    y 0.000000 1.562220 0.000000 
#    z 0.000000 0.000000 1.532390 
# 
# From -- ./inp_files/36475.got.cif
#   From: 2010.03.12/outbox.cif.g09.slc.cpg/sg53_19_cif.got.tgz:36475.got - 2010.04.16 14:36:59.
