data_PCOD8218064
_publ_section_title
;
Structure prediction by ZEFSAII (Michael W. Deem and Ramdas Pophale) SiO2 
 PCOD8218064
Probable space group: P M N A
;
_chemical_formula_sum "Si O2"
_cell_formula_units_Z 40
_cell_length_a 8.535991
_cell_length_b 25.887014
_cell_length_c 9.062527
_cell_angle_alpha 90.000000
_cell_angle_beta 90.000000
_cell_angle_gamma 90.000000
_cell_volume 2002.558540
_symmetry_space_group_name_H-M "P M N A"
_symmetry_group_IT_number 53
_symmetry_cell_setting 'orthorhombic'
loop_
_space_group_symop_operation_xyz
x,y,z
1/2-x,-y,1/2+z
x,-y,-z
1/2-x,y,1/2-z
-x,-y,-z
1/2+x,y,1/2-z
-x,y,z
1/2+x,-y,1/2+z
loop_
_atom_site_type_symbol
_atom_site_label
_atom_site_fract_x
_atom_site_fract_y
_atom_site_fract_z
Si Si1 0.680572 0.052143 0.909668
Si Si2 0.185162 0.550068 0.413101
Si Si3 0.183971 0.855161 0.911047
Si Si4 0.685175 0.654447 0.414489
Si Si5 0.184368 0.760353 0.413396
O O1 0.750000 0.041332 0.750000
O O2 0.500000 0.069927 0.899946
O O3 0.782174 0.096334 0.985574
O O4 0.698587 0.000000 0.000000
O O5 0.244939 0.500000 0.500000
O O6 0.250000 0.544844 0.250000
O O7 0.252453 0.602015 0.492692
O O8 0.000000 0.553848 0.409766
O O9 0.250000 0.867341 0.750000
O O10 0.000000 0.844984 0.903484
O O11 0.268457 0.805253 0.976026
O O12 0.750000 0.653251 0.250000
O O13 0.500000 0.655269 0.416770
O O14 0.750264 0.707196 0.486167
O O15 0.250000 0.771229 0.250000
O O16 0.000000 0.756487 0.399679
#
# Coordination Sequence:
#
# PCOD8218064 Si02
#       5
#     8   8   8   8   8
#     4  11  24  42  65  93 124 159 199 242 289 340
#     4  10  20  34  53  78 108 143 184 229 280 337
#     4  12  25  42  62  87 120 156 195 238 289 344
#     4  10  18  31  53  80 109 143 185 231 282 337
#     4  11  21  37  60  86 115 148 190 237 286 339
#
# _framework density 19.974446
#
# number of rings (size 3 to 8) (size 9 to 14) (size 15 to 20)
#    0.000    1.200    0.000   10.200    0.000    4.800 
#    0.000    1.000    0.000    2.400    0.000    0.000 
#    0.000    0.000    0.000    0.000    0.000    0.000 
#
# Total GULP energy -496056.900169 kJ/mol
# GULP energy per Si atom -12401.422504 kJ/mol
# Density = 1.992898 g / cm^3
# Si number density = 19.974446 Si / 1000 Ang^3
#
#
#
# Elastic Constant Matrix: (Units=GPa)
#
#
# Indices 1 2 3 4 5 6 
#
# 1 118.9343 36.5117 16.1387 0.0000 0.0000 0.0000
# 2 36.5117 136.2177 34.0988 0.0000 0.0000 0.0000
# 3 16.1387 34.0988 80.5946 0.0000 0.0000 0.0000
# 4 0.0000 0.0000 0.0000 16.9075 0.0000 0.0000
# 5 0.0000 0.0000 0.0000 0.0000 24.6348 0.0000
# 6 0.0000 0.0000 0.0000 0.0000 0.0000 36.0077
#
#
#
# Elastic Compliance Matrix: (Units=1/GPa)
#
#
# Indices 1 2 3 4 5 6 
#
# 1 0.009219 -0.002247 -0.000895 0.000000 0.000000 0.000000
# 2 -0.002247 0.008758 -0.003256 0.000000 0.000000 0.000000
# 3 -0.000895 -0.003256 0.013965 0.000000 0.000000 0.000000
# 4 0.000000 0.000000 0.000000 0.059145 0.000000 0.000000
# 5 0.000000 0.000000 0.000000 0.000000 0.040593 0.000000
# 6 0.000000 0.000000 0.000000 0.000000 0.000000 0.027772
#
#
# Mechanical properties :
#
#
# Convention : Reuss Voigt Hill
#
# Bulk Modulus (GPa) = 52.22997 56.58278 54.40637
# Shear Modulus (GPa) = 27.99069 32.10981 30.05025
#
# Velocity S-wave (km/s) = 3.74749 4.01377 3.88291
# Velocity P-wave (km/s) = 6.70299 7.06184 6.88475
#
# Compressibility (1/GPa) = 0.01914610
#
# Stress axis : x y z
#
# Youngs Moduli (GPa) = 108.46794 114.17551 71.61000
#
# Poissons Ratio (x) = 0.25655 0.06412
# Poissons Ratio (y) = 0.24373 0.23314
# Poissons Ratio (z) = 0.09713 0.37172
#
# Static dielectric constant tensor:
#      x y z
#    x 3.833150 0.000000 0.000000 
#    y 0.000000 4.583080 0.000000 
#    z 0.000000 0.000000 3.425500 
# 
# 
# High freq. dielectric constant tensor:
#      x y z
#    x 1.801970 0.000000 0.000000 
#    y 0.000000 1.807980 0.000000 
#    z 0.000000 0.000000 1.749770 
# 
# From -- ./inp_files/6264.got.cif
#   From: 2010.03.12/outbox.cif.g09.slc.cpg/sg53_4_cif.got.tgz:6264.got - 2010.04.16 14:36:59.
