data_PCOD8218798
_publ_section_title
;
Structure prediction by ZEFSAII (Michael W. Deem and Ramdas Pophale) SiO2 
 PCOD8218798
Probable space group: P M N A
;
_chemical_formula_sum "Si O2"
_cell_formula_units_Z 64
_cell_length_a 9.246949
_cell_length_b 15.092272
_cell_length_c 22.192521
_cell_angle_alpha 90.000000
_cell_angle_beta 90.000000
_cell_angle_gamma 90.000000
_cell_volume 3097.132072
_symmetry_space_group_name_H-M "P M N A"
_symmetry_group_IT_number 53
_symmetry_cell_setting 'orthorhombic'
loop_
_space_group_symop_operation_xyz
x,y,z
1/2-x,-y,1/2+z
x,-y,-z
1/2-x,y,1/2-z
-x,-y,-z
1/2+x,y,1/2-z
-x,y,z
1/2+x,-y,1/2+z
loop_
_atom_site_type_symbol
_atom_site_label
_atom_site_fract_x
_atom_site_fract_y
_atom_site_fract_z
Si Si1 0.837847 0.246698 0.931866
Si Si2 0.672399 0.558288 0.443186
Si Si3 0.666622 0.288334 0.308916
Si Si4 0.672015 0.010035 0.310106
Si Si5 0.166250 0.497095 0.188838
Si Si6 0.159666 0.809906 0.196278
Si Si7 0.662475 0.152626 0.120860
Si Si8 0.160262 0.902915 0.489498
O O1 0.778101 0.340263 0.957100
O O2 0.835675 0.256929 0.859518
O O3 0.749636 0.158296 0.944751
O O4 0.000000 0.230879 0.955886
O O5 0.732349 0.500000 0.500000
O O6 0.500000 0.550363 0.441065
O O7 0.730135 0.531562 0.375891
O O8 0.750000 0.254510 0.250000
O O9 0.500000 0.257712 0.305952
O O10 0.680180 0.392256 0.317065
O O11 0.748145 0.240973 0.363704
O O12 0.750000 0.045120 0.250000
O O13 0.500000 0.026483 0.308024
O O14 0.745146 0.065694 0.363063
O O15 0.714875 0.907997 0.321722
O O16 0.250000 0.529445 0.250000
O O17 0.000000 0.526888 0.197047
O O18 0.250000 0.766371 0.250000
O O19 0.000000 0.820653 0.222390
O O20 0.500000 0.152256 0.149243
O O21 0.649860 0.154051 0.049595
O O22 0.000000 0.918157 0.461737
O O23 0.232425 0.000000 0.500000
#
# Coordination Sequence:
#
# PCOD8218798 Si02
#       8
#     8   8   8   8   8   8   8   8
#     4  10  21  37  60  87 114 144 190 242 280 331
#     4   9  19  36  60  88 119 154 194 241 293 350
#     4  10  20  34  54  80 111 146 187 232 284 341
#     4  10  19  32  50  73 106 142 181 226 277 333
#     4   9  19  36  59  86 116 153 195 238 290 350
#     4   9  19  34  53  81 110 141 178 223 275 329
#     4  11  22  34  51  75 105 142 186 234 282 338
#     4  10  23  41  58  79 112 153 192 233 289 350
#
# _framework density 20.664277999999999
#
# number of rings (size 3 to 8) (size 9 to 14) (size 15 to 20)
#    0.000    2.250    0.000    2.250    1.750    3.250 
#    0.000    0.625    0.000    0.750    0.000    0.000 
#    0.000    0.000    0.000    0.000    0.000    0.000 
#
# Total GULP energy -793174.923829 kJ/mol
# GULP energy per Si atom -12393.358185 kJ/mol
# Density = 2.061725 g / cm^3
# Si number density = 20.664278 Si / 1000 Ang^3
#
#
#
# Elastic Constant Matrix: (Units=GPa)
#
#
# Indices 1 2 3 4 5 6 
#
# 1 93.6994 33.6829 34.5568 0.0000 0.0000 0.0000
# 2 33.6829 89.2082 32.9693 0.0000 0.0000 0.0000
# 3 34.5568 32.9693 95.8218 0.0000 0.0000 0.0000
# 4 0.0000 0.0000 0.0000 32.6453 0.0000 0.0000
# 5 0.0000 0.0000 0.0000 0.0000 27.7125 0.0000
# 6 0.0000 0.0000 0.0000 0.0000 0.0000 19.7960
#
#
#
# Elastic Compliance Matrix: (Units=1/GPa)
#
#
# Indices 1 2 3 4 5 6 
#
# 1 0.013309 -0.003725 -0.003518 0.000000 0.000000 0.000000
# 2 -0.003725 0.013885 -0.003434 0.000000 0.000000 0.000000
# 3 -0.003518 -0.003434 0.012886 0.000000 0.000000 0.000000
# 4 0.000000 0.000000 0.000000 0.030632 0.000000 0.000000
# 5 0.000000 0.000000 0.000000 0.000000 0.036085 0.000000
# 6 0.000000 0.000000 0.000000 0.000000 0.000000 0.050515
#
#
# Mechanical properties :
#
#
# Convention : Reuss Voigt Hill
#
# Bulk Modulus (GPa) = 53.40072 53.46082 53.43077
# Shear Modulus (GPa) = 27.04026 27.86546 27.45286
#
# Velocity S-wave (km/s) = 3.62131 3.67616 3.64884
# Velocity P-wave (km/s) = 6.58661 6.62919 6.60793
#
# Compressibility (1/GPa) = 0.01872634
#
# Stress axis : x y z
#
# Youngs Moduli (GPa) = 75.13743 72.01821 77.60143
#
# Poissons Ratio (x) = 0.26826 0.27301
# Poissons Ratio (y) = 0.27988 0.26650
# Poissons Ratio (z) = 0.26434 0.24732
#
# Static dielectric constant tensor:
#      x y z
#    x 3.718960 0.000000 0.000000 
#    y 0.000000 3.633660 0.000000 
#    z 0.000000 0.000000 3.767770 
# 
# 
# High freq. dielectric constant tensor:
#      x y z
#    x 1.788370 0.000000 0.000000 
#    y 0.000000 1.810620 0.000000 
#    z 0.000000 0.000000 1.806460 
# 
# From -- ./inp_files/34332.got.cif
#   From: 2010.03.12/outbox.cif.g09.slc.cpg/sg53_18_cif.got.tgz:34332.got - 2010.04.16 14:36:59.
