data_PCOD8218042
_publ_section_title
;
Structure prediction by ZEFSAII (Michael W. Deem and Ramdas Pophale) SiO2 
 PCOD8218042
Probable space group: P M N A
;
_chemical_formula_sum "Si O2"
_cell_formula_units_Z 64
_cell_length_a 9.079594
_cell_length_b 14.756088
_cell_length_c 24.339444
_cell_angle_alpha 90.000000
_cell_angle_beta 90.000000
_cell_angle_gamma 90.000000
_cell_volume 3260.981379
_symmetry_space_group_name_H-M "P M N A"
_symmetry_group_IT_number 53
_symmetry_cell_setting 'orthorhombic'
loop_
_space_group_symop_operation_xyz
x,y,z
1/2-x,-y,1/2+z
x,-y,-z
1/2-x,y,1/2-z
-x,-y,-z
1/2+x,y,1/2-z
-x,y,z
1/2+x,-y,1/2+z
loop_
_atom_site_type_symbol
_atom_site_label
_atom_site_fract_x
_atom_site_fract_y
_atom_site_fract_z
Si Si1 0.167727 0.629313 0.476331
Si Si2 0.665795 0.842213 0.010108
Si Si3 0.170140 0.883694 0.370105
Si Si4 0.172123 0.825170 0.901932
Si Si5 0.169390 0.294111 0.695905
Si Si6 0.674600 0.040264 0.307938
Si Si7 0.169277 0.436417 0.870489
Si Si8 0.330587 0.621414 0.584097
O O1 0.176729 0.736610 0.478530
O O2 0.274345 0.596196 0.429069
O O3 0.227389 0.589658 0.533805
O O4 0.000000 0.596505 0.466406
O O5 0.500000 0.871522 0.996446
O O6 0.718335 0.892716 0.065946
O O7 0.761541 0.869328 0.957318
O O8 0.190399 0.779341 0.352082
O O9 0.000000 0.912653 0.362051
O O10 0.273936 0.944769 0.332568
O O11 0.227370 0.880059 0.848873
O O12 0.219274 0.720145 0.893738
O O13 0.000000 0.836120 0.908309
O O14 0.250000 0.257548 0.750000
O O15 0.237816 0.390276 0.677842
O O16 0.000000 0.310905 0.709794
O O17 0.750000 0.059397 0.250000
O O18 0.500000 0.037663 0.299861
O O19 0.187094 0.546129 0.867941
O O20 0.000000 0.407454 0.863772
O O21 0.500000 0.625857 0.563702
#
# Coordination Sequence:
#
# PCOD8218042 Si02
#       8
#     8   8   8   8   8   8   8   8
#     4  10  18  31  51  80 116 151 188 230 274 327
#     4   9  18  34  56  85 118 152 186 224 278 340
#     4  10  21  39  61  86 117 148 183 228 280 341
#     4   9  20  39  59  82 115 151 188 236 284 335
#     4  11  23  40  58  80 113 150 191 235 284 340
#     4  11  24  41  62  86 110 143 190 237 285 337
#     4  11  21  33  53  80 111 150 192 231 278 331
#     4   9  19  35  54  79 112 149 189 230 278 334
#
# _framework density 19.625993000000001
#
# number of rings (size 3 to 8) (size 9 to 14) (size 15 to 20)
#    0.000    2.000    1.250    2.250    0.000    7.000 
#    0.000    3.125    0.000    1.500    0.000    0.000 
#    0.000    0.000    0.000    0.000    0.000    0.000 
#
# Total GULP energy -793611.556056 kJ/mol
# GULP energy per Si atom -12400.180563 kJ/mol
# Density = 1.958132 g / cm^3
# Si number density = 19.625993 Si / 1000 Ang^3
#
#
#
# Elastic Constant Matrix: (Units=GPa)
#
#
# Indices 1 2 3 4 5 6 
#
# 1 88.6644 36.6568 51.9537 0.0000 0.0000 0.0000
# 2 36.6568 56.8873 47.3593 0.0000 0.0000 0.0000
# 3 51.9537 47.3593 129.4899 0.0000 0.0000 0.0000
# 4 0.0000 0.0000 0.0000 30.5938 0.0000 0.0000
# 5 0.0000 0.0000 0.0000 0.0000 36.9269 0.0000
# 6 0.0000 0.0000 0.0000 0.0000 0.0000 22.5466
#
#
#
# Elastic Compliance Matrix: (Units=1/GPa)
#
#
# Indices 1 2 3 4 5 6 
#
# 1 0.016683 -0.007444 -0.003971 0.000000 0.000000 0.000000
# 2 -0.007444 0.028596 -0.007472 0.000000 0.000000 0.000000
# 3 -0.003971 -0.007472 0.012048 0.000000 0.000000 0.000000
# 4 0.000000 0.000000 0.000000 0.032686 0.000000 0.000000
# 5 0.000000 0.000000 0.000000 0.000000 0.027081 0.000000
# 6 0.000000 0.000000 0.000000 0.000000 0.000000 0.044353
#
#
# Mechanical properties :
#
#
# Convention : Reuss Voigt Hill
#
# Bulk Modulus (GPa) = 51.14190 60.77569 55.95880
# Shear Modulus (GPa) = 24.30269 27.28492 25.79380
#
# Velocity S-wave (km/s) = 3.52275 3.73264 3.62922
# Velocity P-wave (km/s) = 6.53155 7.04351 6.79236
#
# Compressibility (1/GPa) = 0.01955344
#
# Stress axis : x y z
#
# Youngs Moduli (GPa) = 59.94135 34.97009 82.99803
#
# Poissons Ratio (x) = 0.26033 0.32957
# Poissons Ratio (y) = 0.44622 0.62014
# Poissons Ratio (z) = 0.23802 0.26129
#
# Static dielectric constant tensor:
#      x y z
#    x 3.657330 0.000000 0.000000 
#    y 0.000000 3.690920 0.000000 
#    z 0.000000 0.000000 3.577100 
# 
# 
# High freq. dielectric constant tensor:
#      x y z
#    x 1.766680 0.000000 0.000000 
#    y 0.000000 1.764700 0.000000 
#    z 0.000000 0.000000 1.753250 
# 
# From -- ./inp_files/34272.got.cif
#   From: 2010.03.12/outbox.cif.g09.slc.cpg/sg53_18_cif.got.tgz:34272.got - 2010.04.16 14:36:59.
