data_PCOD8218975
_publ_section_title
;
Structure prediction by ZEFSAII (Michael W. Deem and Ramdas Pophale) SiO2 
 PCOD8218975
Probable space group: P M N A
;
_chemical_formula_sum "Si O2"
_cell_formula_units_Z 48
_cell_length_a 8.807543
_cell_length_b 16.664470
_cell_length_c 18.554791
_cell_angle_alpha 90.000000
_cell_angle_beta 90.000000
_cell_angle_gamma 90.000000
_cell_volume 2723.343009
_symmetry_space_group_name_H-M "P M N A"
_symmetry_group_IT_number 53
_symmetry_cell_setting 'orthorhombic'
loop_
_space_group_symop_operation_xyz
x,y,z
1/2-x,-y,1/2+z
x,-y,-z
1/2-x,y,1/2-z
-x,-y,-z
1/2+x,y,1/2-z
-x,y,z
1/2+x,-y,1/2+z
loop_
_atom_site_type_symbol
_atom_site_label
_atom_site_fract_x
_atom_site_fract_y
_atom_site_fract_z
Si Si1 0.678486 0.352860 0.672800
Si Si2 0.327035 0.238104 0.929393
Si Si3 0.173573 0.911604 0.511672
Si Si4 0.179156 0.231118 0.073063
Si Si5 0.822787 0.647602 0.674349
Si Si6 0.824065 0.508343 0.417267
O O1 0.750000 0.370554 0.750000
O O2 0.500000 0.348249 0.682139
O O3 0.738481 0.267937 0.641291
O O4 0.722842 0.422728 0.617906
O O5 0.500000 0.268918 0.925704
O O6 0.319393 0.140492 0.936822
O O7 0.250440 0.274898 0.002146
O O8 0.270207 0.863148 0.572105
O O9 0.000000 0.918923 0.538771
O O10 0.244061 0.000000 0.500000
O O11 0.244914 0.271912 0.144459
O O12 0.000000 0.238846 0.071493
O O13 0.750000 0.624333 0.750000
O O14 0.787496 0.575291 0.620652
O O15 0.000000 0.663694 0.683911
O O16 0.776473 0.500000 0.500000
O O17 0.000000 0.532255 0.408688
#
# Coordination Sequence:
#
# PCOD8218975 Si02
#       6
#     8   8   8   8   8   8
#     4  12  24  37  55  79 110 146 184 225 273 324
#     4   9  18  34  55  79 109 141 179 221 265 317
#     4   8  16  32  56  83 110 142 178 219 267 319
#     4  10  19  32  53  82 111 140 178 222 270 320
#     4  11  22  36  54  77 108 147 186 227 273 322
#     4  10  22  39  59  80 107 142 182 226 272 319
#
# _framework density 17.625395999999999
#
# number of rings (size 3 to 8) (size 9 to 14) (size 15 to 20)
#    1.000    1.000    0.000    5.000    0.000    4.667 
#    0.000    0.000    0.000    1.000    0.000    4.667 
#    0.000    0.000    0.000    0.000    0.000    0.000 
#
# Total GULP energy -594985.767377 kJ/mol
# GULP energy per Si atom -12395.536820 kJ/mol
# Density = 1.758528 g / cm^3
# Si number density = 17.625396 Si / 1000 Ang^3
#
#
#
# Elastic Constant Matrix: (Units=GPa)
#
#
# Indices 1 2 3 4 5 6 
#
# 1 135.9417 48.9339 53.7447 0.0000 0.0000 0.0000
# 2 48.9339 107.2433 47.5743 0.0000 0.0000 0.0000
# 3 53.7447 47.5743 112.4227 0.0000 0.0000 0.0000
# 4 0.0000 0.0000 0.0000 7.1592 0.0000 0.0000
# 5 0.0000 0.0000 0.0000 0.0000 31.1459 0.0000
# 6 0.0000 0.0000 0.0000 0.0000 0.0000 22.8910
#
#
#
# Elastic Compliance Matrix: (Units=1/GPa)
#
#
# Indices 1 2 3 4 5 6 
#
# 1 0.009768 -0.002937 -0.003427 0.000000 0.000000 0.000000
# 2 -0.002937 0.012363 -0.003828 0.000000 0.000000 0.000000
# 3 -0.003427 -0.003828 0.012153 0.000000 0.000000 0.000000
# 4 0.000000 0.000000 0.000000 0.139681 0.000000 0.000000
# 5 0.000000 0.000000 0.000000 0.000000 0.032107 0.000000
# 6 0.000000 0.000000 0.000000 0.000000 0.000000 0.043685
#
#
# Mechanical properties :
#
#
# Convention : Reuss Voigt Hill
#
# Bulk Modulus (GPa) = 71.93704 72.90149 72.41927
# Shear Modulus (GPa) = 18.19681 25.92953 22.06317
#
# Velocity S-wave (km/s) = 3.21662 3.83971 3.54189
# Velocity P-wave (km/s) = 7.39584 7.81724 7.60946
#
# Compressibility (1/GPa) = 0.01390104
#
# Stress axis : x y z
#
# Youngs Moduli (GPa) = 102.37421 80.88936 82.28434
#
# Poissons Ratio (x) = 0.23756 0.28198
# Poissons Ratio (y) = 0.30066 0.31495
# Poissons Ratio (z) = 0.35083 0.30961
#
# Static dielectric constant tensor:
#      x y z
#    x 3.260890 0.000000 0.000000 
#    y 0.000000 3.247010 0.000000 
#    z 0.000000 0.000000 3.336250 
# 
# 
# High freq. dielectric constant tensor:
#      x y z
#    x 1.690020 0.000000 0.000000 
#    y 0.000000 1.672250 0.000000 
#    z 0.000000 0.000000 1.662510 
# 
# From -- ./inp_files/26408.got.cif
#   From: 2010.03.12/outbox.cif.g09.slc.cpg/sg53_14_cif.got.tgz:26408.got - 2010.04.16 14:36:59.
