data_PCOD8218709
_publ_section_title
;
Structure prediction by ZEFSAII (Michael W. Deem and Ramdas Pophale) SiO2 
 PCOD8218709
Probable space group: P M N A
;
_chemical_formula_sum "Si O2"
_cell_formula_units_Z 56
_cell_length_a 14.622801
_cell_length_b 12.983126
_cell_length_c 15.994301
_cell_angle_alpha 90.000000
_cell_angle_beta 90.000000
_cell_angle_gamma 90.000000
_cell_volume 3036.512732
_symmetry_space_group_name_H-M "P M N A"
_symmetry_group_IT_number 53
_symmetry_cell_setting 'orthorhombic'
loop_
_space_group_symop_operation_xyz
x,y,z
1/2-x,-y,1/2+z
x,-y,-z
1/2-x,y,1/2-z
-x,-y,-z
1/2+x,y,1/2-z
-x,y,z
1/2+x,-y,1/2+z
loop_
_atom_site_type_symbol
_atom_site_label
_atom_site_fract_x
_atom_site_fract_y
_atom_site_fract_z
Si Si1 0.395563 0.160601 0.219364
Si Si2 0.769419 0.295977 0.506275
Si Si3 0.895193 0.893153 0.536178
Si Si4 0.901167 0.446272 0.587518
Si Si5 0.893471 0.038634 0.126723
Si Si6 0.191046 0.624642 0.672960
Si Si7 0.106882 0.162567 0.959450
O O1 0.500000 0.179247 0.244584
O O2 0.385912 0.095083 0.135457
O O3 0.346261 0.094031 0.293095
O O4 0.353853 0.272607 0.208678
O O5 0.833348 0.197104 0.498412
O O6 0.817755 0.365993 0.577152
O O7 0.757354 0.351929 0.415715
O O8 0.670159 0.264464 0.543444
O O9 0.000000 0.870568 0.509945
O O10 0.858575 0.000000 0.500000
O O11 0.915127 0.500000 0.500000
O O12 0.880567 0.533208 0.656742
O O13 0.000000 0.394853 0.611420
O O14 0.000000 0.028116 0.143229
O O15 0.860209 0.921035 0.110261
O O16 0.873910 0.111057 0.048549
O O17 0.250000 0.581981 0.750000
O O18 0.000000 0.193266 0.948954
#
# Coordination Sequence:
#
# PCOD8218709 Si02
#       7
#     8   8   8   8   8   8   8
#     4   9  16  29  49  72 101 132 163 211 266 308
#     4  10  19  31  53  76 102 140 175 216 257 320
#     4   9  18  30  46  72 104 135 170 212 258 311
#     4   9  18  34  56  78 101 134 175 218 268 323
#     4   8  15  27  45  71 102 137 175 208 247 303
#     4  10  19  31  50  79 106 126 167 223 272 313
#     4   9  17  29  47  71 103 142 178 211 246 302
#
# _framework density 18.442207
#
# number of rings (size 3 to 8) (size 9 to 14) (size 15 to 20)
#    0.000    2.857    0.000    2.571    2.000    3.429 
#    0.000    0.714    3.143    5.571    0.000    0.000 
#    0.000    0.000    0.000    0.000    0.000    0.000 
#
# Total GULP energy -693848.487723 kJ/mol
# GULP energy per Si atom -12390.151566 kJ/mol
# Density = 1.840023 g / cm^3
# Si number density = 18.442207 Si / 1000 Ang^3
#
#
#
# Elastic Constant Matrix: (Units=GPa)
#
#
# Indices 1 2 3 4 5 6 
#
# 1 84.2335 51.2601 33.3830 0.0000 0.0000 0.0000
# 2 51.2601 82.5073 46.4368 0.0000 0.0000 0.0000
# 3 33.3830 46.4368 80.1804 0.0000 0.0000 0.0000
# 4 0.0000 0.0000 0.0000 30.4377 0.0000 0.0000
# 5 0.0000 0.0000 0.0000 0.0000 -17.4038 0.0000
# 6 0.0000 0.0000 0.0000 0.0000 0.0000 36.1230
#
#
#
# Elastic Compliance Matrix: (Units=1/GPa)
#
#
# Indices 1 2 3 4 5 6 
#
# 1 0.019228 -0.011039 -0.001613 0.000000 0.000000 0.000000
# 2 -0.011039 0.024318 -0.009488 0.000000 0.000000 0.000000
# 3 -0.001613 -0.009488 0.018638 0.000000 0.000000 0.000000
# 4 0.000000 0.000000 0.000000 0.032854 0.000000 0.000000
# 5 0.000000 0.000000 0.000000 0.000000 -0.057459 0.000000
# 6 0.000000 0.000000 0.000000 0.000000 0.000000 0.027683
#
#
# Mechanical properties :
#
#
# Convention : Reuss Voigt Hill
#
# Bulk Modulus (GPa) = 55.84625 56.56457 56.20541
# Shear Modulus (GPa) = 43.28595 17.55415 30.42005
#
# Velocity S-wave (km/s) = 4.84996 3.08855 4.06578
# Velocity P-wave (km/s) = 7.85559 6.59217 7.25145
#
# Compressibility (1/GPa) = 0.01790630
#
# Stress axis : x y z
#
# Youngs Moduli (GPa) = 52.00651 41.12134 53.65263
#
# Poissons Ratio (x) = 0.45392 0.08653
# Poissons Ratio (y) = 0.57408 0.50906
# Poissons Ratio (z) = 0.08387 0.39017
#
# Static dielectric constant tensor:
#      x y z
#    x 3.526800 0.000000 0.000000 
#    y 0.000000 3.450750 0.000000 
#    z 0.000000 0.000000 3.598960 
# 
# 
# High freq. dielectric constant tensor:
#      x y z
#    x 1.711760 0.000000 0.000000 
#    y 0.000000 1.699420 0.000000 
#    z 0.000000 0.000000 1.694860 
# 
# From -- ./inp_files/22958.got.cif
#   From: 2010.03.12/outbox.cif.g09.slc.cpg/sg53_12_cif.got.tgz:22958.got - 2010.04.16 14:36:59.
