data_PCOD8218661
_publ_section_title
;
Structure prediction by ZEFSAII (Michael W. Deem and Ramdas Pophale) SiO2 
 PCOD8218661
Probable space group: P M N A
;
_chemical_formula_sum "Si O2"
_cell_formula_units_Z 64
_cell_length_a 15.057723
_cell_length_b 16.825236
_cell_length_c 14.071996
_cell_angle_alpha 90.000000
_cell_angle_beta 90.000000
_cell_angle_gamma 90.000000
_cell_volume 3565.136571
_symmetry_space_group_name_H-M "P M N A"
_symmetry_group_IT_number 53
_symmetry_cell_setting 'orthorhombic'
loop_
_space_group_symop_operation_xyz
x,y,z
1/2-x,-y,1/2+z
x,-y,-z
1/2-x,y,1/2-z
-x,-y,-z
1/2+x,y,1/2-z
-x,y,z
1/2+x,-y,1/2+z
loop_
_atom_site_type_symbol
_atom_site_label
_atom_site_fract_x
_atom_site_fract_y
_atom_site_fract_z
Si Si1 0.399236 0.989445 0.295263
Si Si2 0.602257 0.160431 0.586154
Si Si3 0.152985 0.527536 0.221900
Si Si4 0.400489 0.661958 0.417984
Si Si5 0.594801 0.448169 0.093802
Si Si6 0.785393 0.078832 0.063026
Si Si7 0.715736 0.422160 0.436214
Si Si8 0.096187 0.948192 0.593151
O O1 0.500000 0.007497 0.327307
O O2 0.371524 0.901002 0.330109
O O3 0.337135 0.057647 0.340253
O O4 0.388650 0.992186 0.181844
O O5 0.500000 0.148183 0.556023
O O6 0.619613 0.250055 0.622657
O O7 0.662676 0.147356 0.492895
O O8 0.250000 0.558890 0.250000
O O9 0.106020 0.599127 0.166821
O O10 0.097799 0.506950 0.315513
O O11 0.160738 0.447563 0.157323
O O12 0.500000 0.657428 0.459470
O O13 0.334414 0.645953 0.505974
O O14 0.500000 0.400505 0.100236
O O15 0.683765 0.393105 0.091981
O O16 0.592322 0.500000 0.000000
O O17 0.683782 0.107921 0.085673
O O18 0.782552 0.000000 0.000000
O O19 0.725689 0.500000 0.500000
O O20 0.000000 0.902693 0.605903
O O21 0.088863 0.000000 0.500000
#
# Coordination Sequence:
#
# PCOD8218661 Si02
#       8
#     8   8   8   8   8   8   8   8
#     4   9  16  28  48  71  94 121 156 198 240 282
#     4   9  18  31  48  74 102 125 153 194 245 294
#     4   9  17  30  47  71  99 127 159 199 242 287
#     4  10  19  31  49  74 103 130 157 194 245 298
#     4   9  16  27  46  68  90 121 162 203 238 276
#     4   9  16  28  47  69  93 121 154 193 238 284
#     4   8  16  29  46  69  96 121 154 199 243 285
#     4   9  17  28  44  67  93 121 157 198 233 270
#
# _framework density 17.951626999999998
#
# number of rings (size 3 to 8) (size 9 to 14) (size 15 to 20)
#    0.000    3.000    0.000    1.875    0.000    4.250 
#    0.000    3.750    0.000    5.250    0.000    1.750 
#    0.000    0.000    0.000    0.000    0.000    0.000 
#
# Total GULP energy -792836.021440 kJ/mol
# GULP energy per Si atom -12388.062835 kJ/mol
# Density = 1.791077 g / cm^3
# Si number density = 17.951627 Si / 1000 Ang^3
#
#
#
# Elastic Constant Matrix: (Units=GPa)
#
#
# Indices 1 2 3 4 5 6 
#
# 1 118.8204 24.0967 38.5417 0.0000 0.0000 0.0000
# 2 24.0967 33.5199 23.1593 0.0000 0.0000 0.0000
# 3 38.5417 23.1593 113.5999 0.0000 0.0000 0.0000
# 4 0.0000 0.0000 0.0000 11.3153 0.0000 0.0000
# 5 0.0000 0.0000 0.0000 0.0000 18.8721 0.0000
# 6 0.0000 0.0000 0.0000 0.0000 0.0000 13.0374
#
#
#
# Elastic Compliance Matrix: (Units=1/GPa)
#
#
# Indices 1 2 3 4 5 6 
#
# 1 0.010353 -0.005838 -0.002322 0.000000 0.000000 0.000000
# 2 -0.005838 0.038016 -0.005769 0.000000 0.000000 0.000000
# 3 -0.002322 -0.005769 0.010767 0.000000 0.000000 0.000000
# 4 0.000000 0.000000 0.000000 0.088376 0.000000 0.000000
# 5 0.000000 0.000000 0.000000 0.000000 0.052988 0.000000
# 6 0.000000 0.000000 0.000000 0.000000 0.000000 0.076702
#
#
# Mechanical properties :
#
#
# Convention : Reuss Voigt Hill
#
# Bulk Modulus (GPa) = 31.97314 48.61507 40.29411
# Shear Modulus (GPa) = 15.84842 20.65445 18.25143
#
# Velocity S-wave (km/s) = 2.97449 3.39567 3.19203
# Velocity P-wave (km/s) = 5.44483 6.52028 6.00667
#
# Compressibility (1/GPa) = 0.03127625
#
# Stress axis : x y z
#
# Youngs Moduli (GPa) = 96.58687 26.30461 92.87650
#
# Poissons Ratio (x) = 0.15357 0.21570
# Poissons Ratio (y) = 0.56389 0.53585
# Poissons Ratio (z) = 0.22432 0.15176
#
# Static dielectric constant tensor:
#      x y z
#    x 4.040360 0.000000 0.000000 
#    y 0.000000 2.844220 0.000000 
#    z 0.000000 0.000000 3.459530 
# 
# 
# High freq. dielectric constant tensor:
#      x y z
#    x 1.720900 0.000000 0.000000 
#    y 0.000000 1.622070 0.000000 
#    z 0.000000 0.000000 1.700890 
# 
# From -- ./inp_files/23050.got.cif
#   From: 2010.03.12/outbox.cif.g09.slc.cpg/sg53_12_cif.got.tgz:23050.got - 2010.04.16 14:36:59.
