data_PCOD8218037
_publ_section_title
;
Structure prediction by ZEFSAII (Michael W. Deem and Ramdas Pophale) SiO2 
 PCOD8218037
Probable space group: P M N A
;
_chemical_formula_sum "Si O2"
_cell_formula_units_Z 40
_cell_length_a 7.784682
_cell_length_b 14.209955
_cell_length_c 19.875022
_cell_angle_alpha 90.000000
_cell_angle_beta 90.000000
_cell_angle_gamma 90.000000
_cell_volume 2198.574554
_symmetry_space_group_name_H-M "P M N A"
_symmetry_group_IT_number 53
_symmetry_cell_setting 'orthorhombic'
loop_
_space_group_symop_operation_xyz
x,y,z
1/2-x,-y,1/2+z
x,-y,-z
1/2-x,y,1/2-z
-x,-y,-z
1/2+x,y,1/2-z
-x,y,z
1/2+x,-y,1/2+z
loop_
_atom_site_type_symbol
_atom_site_label
_atom_site_fract_x
_atom_site_fract_y
_atom_site_fract_z
Si Si1 0.694925 0.447998 0.934910
Si Si2 0.199112 0.589956 0.826334
Si Si3 0.500000 0.879204 0.067337
Si Si4 0.500000 0.913206 0.909328
Si Si5 0.303443 0.218175 0.395693
Si Si6 0.190521 0.247056 0.948618
O O1 0.500000 0.419052 0.951539
O O2 0.697744 0.515146 0.870467
O O3 0.797400 0.352378 0.919482
O O4 0.776489 0.500000 0.000000
O O5 0.250000 0.573617 0.750000
O O6 0.247804 0.695784 0.847451
O O7 0.000000 0.571268 0.838838
O O8 0.329175 0.820839 0.086794
O O9 0.500000 0.976327 0.109419
O O10 0.500000 0.901598 0.988948
O O11 0.327310 0.866600 0.878675
O O12 0.500000 0.184436 0.383523
O O13 0.276205 0.252874 0.471713
O O14 0.000000 0.207195 0.933080
#
# Coordination Sequence:
#
# PCOD8218037 Si02
#       6
#     8   8   4   4   8   8
#     4  11  21  32  54  80 108 148 187 226 271 334
#     4  11  23  36  51  77 114 145 183 228 275 329
#     4   9  18  32  44  81 104 135 176 221 272 314
#     4   9  18  30  53  68 109 138 169 221 270 319
#     4   9  19  32  50  75 103 143 180 216 269 329
#     4  10  18  31  51  75 108 143 180 220 267 323
#
# _framework density 18.193605999999999
#
# number of rings (size 3 to 8) (size 9 to 14) (size 15 to 20)
#    0.000    2.000    3.000    1.200    2.800    1.600 
#    0.000    4.000    0.000    0.000    0.000    1.400 
#    0.000    0.000    0.000    0.000    0.000    0.000 
#
# Total GULP energy -496061.286622 kJ/mol
# GULP energy per Si atom -12401.532166 kJ/mol
# Density = 1.815220 g / cm^3
# Si number density = 18.193606 Si / 1000 Ang^3
#
#
#
# Elastic Constant Matrix: (Units=GPa)
#
#
# Indices 1 2 3 4 5 6 
#
# 1 115.1894 63.5779 17.2970 0.0000 0.0000 0.0000
# 2 63.5779 136.6667 35.2360 0.0000 0.0000 0.0000
# 3 17.2970 35.2360 64.0354 0.0000 0.0000 0.0000
# 4 0.0000 0.0000 0.0000 11.7972 0.0000 0.0000
# 5 0.0000 0.0000 0.0000 0.0000 16.8243 0.0000
# 6 0.0000 0.0000 0.0000 0.0000 0.0000 26.4175
#
#
#
# Elastic Compliance Matrix: (Units=1/GPa)
#
#
# Indices 1 2 3 4 5 6 
#
# 1 0.011683 -0.005385 -0.000192 0.000000 0.000000 0.000000
# 2 -0.005385 0.011009 -0.004603 0.000000 0.000000 0.000000
# 3 -0.000192 -0.004603 0.018201 0.000000 0.000000 0.000000
# 4 0.000000 0.000000 0.000000 0.084766 0.000000 0.000000
# 5 0.000000 0.000000 0.000000 0.000000 0.059438 0.000000
# 6 0.000000 0.000000 0.000000 0.000000 0.000000 0.037854
#
#
# Mechanical properties :
#
#
# Convention : Reuss Voigt Hill
#
# Bulk Modulus (GPa) = 48.70603 60.90147 54.80375
# Shear Modulus (GPa) = 19.98758 24.32653 22.15705
#
# Velocity S-wave (km/s) = 3.31812 3.66059 3.49355
# Velocity P-wave (km/s) = 6.44274 7.17031 6.81624
#
# Compressibility (1/GPa) = 0.02053134
#
# Stress axis : x y z
#
# Youngs Moduli (GPa) = 85.59785 90.83406 54.94109
#
# Poissons Ratio (x) = 0.48915 0.01057
# Poissons Ratio (y) = 0.46096 0.25291
# Poissons Ratio (z) = 0.01647 0.41813
#
# Static dielectric constant tensor:
#      x y z
#    x 3.533410 0.000000 0.000000 
#    y 0.000000 3.378220 0.000000 
#    z 0.000000 0.000000 2.924000 
# 
# 
# High freq. dielectric constant tensor:
#      x y z
#    x 1.722810 0.000000 0.000000 
#    y 0.000000 1.698610 0.000000 
#    z 0.000000 0.000000 1.649450 
# 
# From -- ./inp_files/25878.got.cif
#   From: 2010.03.12/outbox.cif.g09.slc.cpg/sg53_13_cif.got.tgz:25878.got - 2010.04.16 14:36:59.
