data_PCOD8218706
_publ_section_title
;
Structure prediction by ZEFSAII (Michael W. Deem and Ramdas Pophale) SiO2 
 PCOD8218706
Probable space group: P M N A
;
_chemical_formula_sum "Si O2"
_cell_formula_units_Z 56
_cell_length_a 9.099494
_cell_length_b 18.885452
_cell_length_c 18.305257
_cell_angle_alpha 90.000000
_cell_angle_beta 90.000000
_cell_angle_gamma 90.000000
_cell_volume 3145.722851
_symmetry_space_group_name_H-M "P M N A"
_symmetry_group_IT_number 53
_symmetry_cell_setting 'orthorhombic'
loop_
_space_group_symop_operation_xyz
x,y,z
1/2-x,-y,1/2+z
x,-y,-z
1/2-x,y,1/2-z
-x,-y,-z
1/2+x,y,1/2-z
-x,y,z
1/2+x,-y,1/2+z
loop_
_atom_site_type_symbol
_atom_site_label
_atom_site_fract_x
_atom_site_fract_y
_atom_site_fract_z
Si Si1 0.668177 0.432941 0.175197
Si Si2 0.172987 0.279090 0.328110
Si Si3 0.669981 0.213037 0.457075
Si Si4 0.671113 0.721709 0.088234
Si Si5 0.671765 0.863124 0.173240
Si Si6 0.328502 0.414686 0.827120
Si Si7 0.670080 0.929484 0.459384
O O1 0.750000 0.435563 0.250000
O O2 0.500000 0.432066 0.197383
O O3 0.704632 0.357902 0.136088
O O4 0.703386 0.507888 0.134280
O O5 0.250000 0.272135 0.250000
O O6 0.243480 0.221341 0.381310
O O7 0.000000 0.264377 0.319567
O O8 0.500000 0.230626 0.444710
O O9 0.734232 0.267161 0.516097
O O10 0.695788 0.133348 0.483352
O O11 0.500000 0.720490 0.066242
O O12 0.702577 0.782870 0.147546
O O13 0.727514 0.647025 0.119783
O O14 0.750000 0.876317 0.250000
O O15 0.500000 0.878231 0.182414
O O16 0.735630 0.917798 0.113702
O O17 0.250000 0.407807 0.750000
O O18 0.500000 0.403400 0.812307
O O19 0.500000 0.934990 0.436121
O O20 0.724761 0.000000 0.500000
#
# Coordination Sequence:
#
# PCOD8218706 Si02
#       7
#     8   8   8   8   8   8   8
#     4   8  15  27  44  66  91 123 161 201 243 284
#     4  10  19  33  53  74  97 125 161 204 246 288
#     4  10  20  34  53  75  97 123 157 196 241 293
#     4   9  18  31  47  69  99 133 165 199 239 285
#     4  10  19  31  50  77 106 135 168 202 238 284
#     4   9  16  27  44  67  95 127 165 204 242 283
#     4   9  19  37  58  77 100 130 162 199 245 294
#
# _framework density 17.801949
#
# number of rings (size 3 to 8) (size 9 to 14) (size 15 to 20)
#    0.000    2.714    0.000    1.714    0.000    2.571 
#    0.000    1.429    0.000    4.286    0.000    0.000 
#    0.000    0.000    0.000    0.000    0.000    0.000 
#
# Total GULP energy -693993.429406 kJ/mol
# GULP energy per Si atom -12392.739811 kJ/mol
# Density = 1.776143 g / cm^3
# Si number density = 17.801949 Si / 1000 Ang^3
#
#
#
# Elastic Constant Matrix: (Units=GPa)
#
#
# Indices 1 2 3 4 5 6 
#
# 1 85.3888 43.2694 60.9423 0.0000 0.0000 0.0000
# 2 43.2694 87.7155 57.6100 0.0000 0.0000 0.0000
# 3 60.9423 57.6100 107.3259 0.0000 0.0000 0.0000
# 4 0.0000 0.0000 0.0000 24.4640 0.0000 0.0000
# 5 0.0000 0.0000 0.0000 0.0000 34.1939 0.0000
# 6 0.0000 0.0000 0.0000 0.0000 0.0000 22.7384
#
#
#
# Elastic Compliance Matrix: (Units=1/GPa)
#
#
# Indices 1 2 3 4 5 6 
#
# 1 0.020483 -0.003808 -0.009587 0.000000 0.000000 0.000000
# 2 -0.003808 0.018316 -0.007670 0.000000 0.000000 0.000000
# 3 -0.009587 -0.007670 0.018878 0.000000 0.000000 0.000000
# 4 0.000000 0.000000 0.000000 0.040876 0.000000 0.000000
# 5 0.000000 0.000000 0.000000 0.000000 0.029245 0.000000
# 6 0.000000 0.000000 0.000000 0.000000 0.000000 0.043978
#
#
# Mechanical properties :
#
#
# Convention : Reuss Voigt Hill
#
# Bulk Modulus (GPa) = 64.31384 67.11930 65.71657
# Shear Modulus (GPa) = 22.82198 24.18648 23.50423
#
# Velocity S-wave (km/s) = 3.58438 3.68998 3.63756
# Velocity P-wave (km/s) = 7.30316 7.47929 7.39175
#
# Compressibility (1/GPa) = 0.01554875
#
# Stress axis : x y z
#
# Youngs Moduli (GPa) = 48.82181 54.59720 52.97207
#
# Poissons Ratio (x) = 0.20788 0.50783
# Poissons Ratio (y) = 0.18589 0.40627
# Poissons Ratio (z) = 0.46804 0.41874
#
# Static dielectric constant tensor:
#      x y z
#    x 3.286520 0.000000 0.000000 
#    y 0.000000 3.657020 0.000000 
#    z 0.000000 0.000000 3.006930 
# 
# 
# High freq. dielectric constant tensor:
#      x y z
#    x 1.695050 0.000000 0.000000 
#    y 0.000000 1.692000 0.000000 
#    z 0.000000 0.000000 1.664630 
# 
# From -- ./inp_files/26668.got.cif
#   From: 2010.03.12/outbox.cif.g09.slc.cpg/sg53_14_cif.got.tgz:26668.got - 2010.04.16 14:36:59.
