data_PCOD8218925
_publ_section_title
;
Structure prediction by ZEFSAII (Michael W. Deem and Ramdas Pophale) SiO2 
 PCOD8218925
Probable space group: P M N A
;
_chemical_formula_sum "Si O2"
_cell_formula_units_Z 48
_cell_length_a 9.457620
_cell_length_b 13.344858
_cell_length_c 18.992833
_cell_angle_alpha 90.000000
_cell_angle_beta 90.000000
_cell_angle_gamma 90.000000
_cell_volume 2397.096771
_symmetry_space_group_name_H-M "P M N A"
_symmetry_group_IT_number 53
_symmetry_cell_setting 'orthorhombic'
loop_
_space_group_symop_operation_xyz
x,y,z
1/2-x,-y,1/2+z
x,-y,-z
1/2-x,y,1/2-z
-x,-y,-z
1/2+x,y,1/2-z
-x,y,z
1/2+x,-y,1/2+z
loop_
_atom_site_type_symbol
_atom_site_label
_atom_site_fract_x
_atom_site_fract_y
_atom_site_fract_z
Si Si1 0.661608 0.097429 0.539988
Si Si2 0.666449 0.573377 0.176752
Si Si3 0.660844 0.628579 0.903862
Si Si4 0.342568 0.004553 0.687088
Si Si5 0.660823 0.291149 0.950334
Si Si6 0.666485 0.223097 0.318923
O O1 0.500000 0.114328 0.514753
O O2 0.671776 0.079802 0.622939
O O3 0.748594 0.196672 0.523865
O O4 0.724154 0.000000 0.500000
O O5 0.750000 0.581382 0.250000
O O6 0.500000 0.576963 0.193309
O O7 0.707254 0.473189 0.134448
O O8 0.711938 0.663830 0.124546
O O9 0.500000 0.656556 0.881952
O O10 0.771054 0.714538 0.883044
O O11 0.671254 0.622770 0.989137
O O12 0.250000 0.048348 0.750000
O O13 0.500000 0.000788 0.717003
O O14 0.297833 0.892573 0.664389
O O15 0.500000 0.254296 0.942627
O O16 0.750000 0.259604 0.250000
O O17 0.500000 0.243580 0.310004
#
# Coordination Sequence:
#
# PCOD8218925 Si02
#       6
#     8   8   8   8   8   8
#     4  10  21  38  58  81 111 146 184 228 278 328
#     4  10  22  40  60  83 113 148 185 226 274 329
#     4  10  20  36  58  82 110 145 184 227 276 329
#     4   9  19  34  52  75 106 144 182 224 275 329
#     4  10  22  39  59  83 111 145 185 229 276 327
#     4  10  19  32  52  80 113 147 185 230 279 330
#
# _framework density 20.024224
#
# number of rings (size 3 to 8) (size 9 to 14) (size 15 to 20)
#    0.000    2.167    0.000    2.500    0.000    9.000 
#    0.000    3.333    0.000    3.000    0.000    0.000 
#    0.000    0.000    0.000    0.000    0.000    0.000 
#
# Total GULP energy -595129.567388 kJ/mol
# GULP energy per Si atom -12398.532654 kJ/mol
# Density = 1.997865 g / cm^3
# Si number density = 20.024224 Si / 1000 Ang^3
#
#
#
# Elastic Constant Matrix: (Units=GPa)
#
#
# Indices 1 2 3 4 5 6 
#
# 1 73.2380 38.2441 42.4263 0.0000 0.0000 0.0000
# 2 38.2441 86.4169 42.8702 0.0000 0.0000 0.0000
# 3 42.4263 42.8702 107.8812 0.0000 0.0000 0.0000
# 4 0.0000 0.0000 0.0000 30.0459 0.0000 0.0000
# 5 0.0000 0.0000 0.0000 0.0000 33.1824 0.0000
# 6 0.0000 0.0000 0.0000 0.0000 0.0000 19.3033
#
#
#
# Elastic Compliance Matrix: (Units=1/GPa)
#
#
# Indices 1 2 3 4 5 6 
#
# 1 0.020015 -0.006169 -0.005420 0.000000 0.000000 0.000000
# 2 -0.006169 0.016315 -0.004057 0.000000 0.000000 0.000000
# 3 -0.005420 -0.004057 0.013013 0.000000 0.000000 0.000000
# 4 0.000000 0.000000 0.000000 0.033282 0.000000 0.000000
# 5 0.000000 0.000000 0.000000 0.000000 0.030137 0.000000
# 6 0.000000 0.000000 0.000000 0.000000 0.000000 0.051805
#
#
# Mechanical properties :
#
#
# Convention : Reuss Voigt Hill
#
# Bulk Modulus (GPa) = 55.39872 57.17969 56.28921
# Shear Modulus (GPa) = 24.76773 26.10600 25.43687
#
# Velocity S-wave (km/s) = 3.52076 3.61462 3.56800
# Velocity P-wave (km/s) = 6.65233 6.78513 6.71906
#
# Compressibility (1/GPa) = 0.01805096
#
# Stress axis : x y z
#
# Youngs Moduli (GPa) = 49.96190 61.29472 76.84547
#
# Poissons Ratio (x) = 0.37813 0.41649
# Poissons Ratio (y) = 0.30822 0.31177
# Poissons Ratio (z) = 0.27079 0.24868
#
# Static dielectric constant tensor:
#      x y z
#    x 3.556030 0.000000 0.000000 
#    y 0.000000 3.484890 0.000000 
#    z 0.000000 0.000000 3.694320 
# 
# 
# High freq. dielectric constant tensor:
#      x y z
#    x 1.772320 0.000000 0.000000 
#    y 0.000000 1.771050 0.000000 
#    z 0.000000 0.000000 1.792470 
# 
# From -- ./inp_files/26242.got.cif
#   From: 2010.03.12/outbox.cif.g09.slc.cpg/sg53_14_cif.got.tgz:26242.got - 2010.04.16 14:36:59.
