data_PCOD8218902
_publ_section_title
;
Structure prediction by ZEFSAII (Michael W. Deem and Ramdas Pophale) SiO2 
 PCOD8218902
Probable space group: P M N A
;
_chemical_formula_sum "Si O2"
_cell_formula_units_Z 40
_cell_length_a 8.933702
_cell_length_b 26.124721
_cell_length_c 9.178520
_cell_angle_alpha 90.000000
_cell_angle_beta 90.000000
_cell_angle_gamma 90.000000
_cell_volume 2142.179117
_symmetry_space_group_name_H-M "P M N A"
_symmetry_group_IT_number 53
_symmetry_cell_setting 'orthorhombic'
loop_
_space_group_symop_operation_xyz
x,y,z
1/2-x,-y,1/2+z
x,-y,-z
1/2-x,y,1/2-z
-x,-y,-z
1/2+x,y,1/2-z
-x,y,z
1/2+x,-y,1/2+z
loop_
_atom_site_type_symbol
_atom_site_label
_atom_site_fract_x
_atom_site_fract_y
_atom_site_fract_z
Si Si1 0.323774 0.048052 0.593485
Si Si2 0.675201 0.245284 0.093668
Si Si3 0.176535 0.451552 0.594610
Si Si4 0.677239 0.853880 0.591629
Si Si5 0.674371 0.357750 0.094510
O O1 0.250000 0.046841 0.750000
O O2 0.500000 0.045126 0.615440
O O3 0.274977 0.099310 0.510109
O O4 0.265382 0.000000 0.500000
O O5 0.750000 0.247896 0.250000
O O6 0.500000 0.233075 0.106409
O O7 0.757511 0.197804 0.013206
O O8 0.703474 0.301342 0.022815
O O9 0.227193 0.500000 0.500000
O O10 0.250000 0.456649 0.750000
O O11 0.236794 0.400023 0.516875
O O12 0.000000 0.449731 0.615298
O O13 0.750000 0.861913 0.750000
O O14 0.500000 0.849608 0.609103
O O15 0.750000 0.364675 0.250000
O O16 0.500000 0.366302 0.122823
#
# Coordination Sequence:
#
# PCOD8218902 Si02
#       5
#     8   8   8   8   8
#     4  10  22  38  55  77 103 132 168 208 251 301
#     4   9  16  28  48  73 102 134 168 205 246 292
#     4  10  21  36  53  75 102 131 167 209 252 301
#     4  10  19  32  52  78 105 133 169 208 247 295
#     4   9  18  32  51  76 103 132 168 208 248 295
#
# _framework density 18.672575999999999
#
# number of rings (size 3 to 8) (size 9 to 14) (size 15 to 20)
#    0.000    2.400    0.000    3.600    0.000    4.000 
#    0.000    1.000    0.000    4.800    0.000    0.000 
#    0.000    0.000    0.000    0.000    0.000    0.000 
#
# Total GULP energy -495802.239151 kJ/mol
# GULP energy per Si atom -12395.055979 kJ/mol
# Density = 1.863008 g / cm^3
# Si number density = 18.672576 Si / 1000 Ang^3
#
#
#
# Elastic Constant Matrix: (Units=GPa)
#
#
# Indices 1 2 3 4 5 6 
#
# 1 60.4179 56.3663 40.6798 0.0000 0.0000 0.0000
# 2 56.3663 208.3548 88.2795 0.0000 0.0000 0.0000
# 3 40.6798 88.2795 119.2553 0.0000 0.0000 0.0000
# 4 0.0000 0.0000 0.0000 32.2591 0.0000 0.0000
# 5 0.0000 0.0000 0.0000 0.0000 27.6164 0.0000
# 6 0.0000 0.0000 0.0000 0.0000 0.0000 47.8554
#
#
#
# Elastic Compliance Matrix: (Units=1/GPa)
#
#
# Indices 1 2 3 4 5 6 
#
# 1 0.023968 -0.004400 -0.004919 0.000000 0.000000 0.000000
# 2 -0.004400 0.007801 -0.004273 0.000000 0.000000 0.000000
# 3 -0.004919 -0.004273 0.013227 0.000000 0.000000 0.000000
# 4 0.000000 0.000000 0.000000 0.030999 0.000000 0.000000
# 5 0.000000 0.000000 0.000000 0.000000 0.036210 0.000000
# 6 0.000000 0.000000 0.000000 0.000000 0.000000 0.020896
#
#
# Mechanical properties :
#
#
# Convention : Reuss Voigt Hill
#
# Bulk Modulus (GPa) = 56.14542 84.29770 70.22156
# Shear Modulus (GPa) = 30.08015 35.05967 32.56991
#
# Velocity S-wave (km/s) = 4.01799 4.33783 4.18097
# Velocity P-wave (km/s) = 7.18744 8.38643 7.80998
#
# Compressibility (1/GPa) = 0.01781089
#
# Stress axis : x y z
#
# Youngs Moduli (GPa) = 41.72185 128.19666 75.60472
#
# Poissons Ratio (x) = 0.56408 0.37188
# Poissons Ratio (y) = 0.18358 0.32309
# Poissons Ratio (z) = 0.20522 0.54784
#
# Static dielectric constant tensor:
#      x y z
#    x 3.408960 0.000000 0.000000 
#    y 0.000000 4.460040 0.000000 
#    z 0.000000 0.000000 3.106150 
# 
# 
# High freq. dielectric constant tensor:
#      x y z
#    x 1.725000 0.000000 0.000000 
#    y 0.000000 1.755840 0.000000 
#    z 0.000000 0.000000 1.691300 
# 
# From -- ./inp_files/6434.got.cif
#   From: 2010.03.12/outbox.cif.g09.slc.cpg/sg53_4_cif.got.tgz:6434.got - 2010.04.16 14:36:59.
