data_PCOD8218878
_publ_section_title
;
Structure prediction by ZEFSAII (Michael W. Deem and Ramdas Pophale) SiO2 
 PCOD8218878
Probable space group: P M N A
;
_chemical_formula_sum "Si O2"
_cell_formula_units_Z 56
_cell_length_a 9.091343
_cell_length_b 19.212544
_cell_length_c 17.777577
_cell_angle_alpha 90.000000
_cell_angle_beta 90.000000
_cell_angle_gamma 90.000000
_cell_volume 3105.170751
_symmetry_space_group_name_H-M "P M N A"
_symmetry_group_IT_number 53
_symmetry_cell_setting 'orthorhombic'
loop_
_space_group_symop_operation_xyz
x,y,z
1/2-x,-y,1/2+z
x,-y,-z
1/2-x,y,1/2-z
-x,-y,-z
1/2+x,y,1/2-z
-x,y,z
1/2+x,-y,1/2+z
loop_
_atom_site_type_symbol
_atom_site_label
_atom_site_fract_x
_atom_site_fract_y
_atom_site_fract_z
Si Si1 0.668715 0.851179 0.471836
Si Si2 0.173065 0.332814 0.326829
Si Si3 0.837102 0.434337 0.946930
Si Si4 0.169557 0.703423 0.970129
Si Si5 0.674898 0.058327 0.670408
Si Si6 0.833942 0.951170 0.571899
Si Si7 0.670330 0.508197 0.824021
O O1 0.500000 0.872254 0.485931
O O2 0.692589 0.768143 0.473154
O O3 0.716661 0.881185 0.390127
O O4 0.759807 0.880244 0.543029
O O5 0.250000 0.308359 0.250000
O O6 0.234719 0.286137 0.394825
O O7 0.215610 0.412921 0.345144
O O8 0.000000 0.321545 0.318553
O O9 0.716530 0.452331 0.885456
O O10 0.000000 0.419496 0.912743
O O11 0.849252 0.500000 0.000000
O O12 0.776228 0.366007 0.988199
O O13 0.000000 0.696028 0.945703
O O14 0.750000 0.077371 0.750000
O O15 0.500000 0.051480 0.681440
O O16 0.740214 0.985354 0.639583
O O17 0.000000 0.937035 0.600614
O O18 0.834219 0.000000 0.500000
O O19 0.750000 0.483178 0.750000
O O20 0.500000 0.503155 0.809308
#
# Coordination Sequence:
#
# PCOD8218878 Si02
#       7
#     8   8   8   8   8   8   8
#     4   9  19  35  54  77 108 146 180 215 260 314
#     4  10  20  33  51  74  99 129 168 216 269 323
#     4  10  19  32  52  76 102 135 176 222 269 318
#     4  10  20  35  54  76 106 143 180 218 266 321
#     4  10  19  33  55  82 110 141 178 216 258 305
#     4   9  17  31  53  79 105 133 168 210 252 299
#     4  10  20  33  51  73  99 129 167 219 273 324
#
# _framework density 18.034435999999999
#
# number of rings (size 3 to 8) (size 9 to 14) (size 15 to 20)
#    0.000    2.286    1.429    1.714    0.000    4.857 
#    0.000    1.429    0.000    5.143    0.000    0.000 
#    0.000    0.000    0.000    0.000    0.000    0.000 
#
# Total GULP energy -694300.879864 kJ/mol
# GULP energy per Si atom -12398.229998 kJ/mol
# Density = 1.799339 g / cm^3
# Si number density = 18.034436 Si / 1000 Ang^3
#
#
#
# Elastic Constant Matrix: (Units=GPa)
#
#
# Indices 1 2 3 4 5 6 
#
# 1 85.4603 28.4800 53.1849 0.0000 0.0000 0.0000
# 2 28.4800 83.3149 41.9843 0.0000 0.0000 0.0000
# 3 53.1849 41.9843 110.6296 0.0000 0.0000 0.0000
# 4 0.0000 0.0000 0.0000 28.5350 0.0000 0.0000
# 5 0.0000 0.0000 0.0000 0.0000 35.8092 0.0000
# 6 0.0000 0.0000 0.0000 0.0000 0.0000 20.8798
#
#
#
# Elastic Compliance Matrix: (Units=1/GPa)
#
#
# Indices 1 2 3 4 5 6 
#
# 1 0.016986 -0.002091 -0.007373 0.000000 0.000000 0.000000
# 2 -0.002091 0.015098 -0.004724 0.000000 0.000000 0.000000
# 3 -0.007373 -0.004724 0.014376 0.000000 0.000000 0.000000
# 4 0.000000 0.000000 0.000000 0.035045 0.000000 0.000000
# 5 0.000000 0.000000 0.000000 0.000000 0.027926 0.000000
# 6 0.000000 0.000000 0.000000 0.000000 0.000000 0.047893
#
#
# Mechanical properties :
#
#
# Convention : Reuss Voigt Hill
#
# Bulk Modulus (GPa) = 55.29587 58.52258 56.90923
# Shear Modulus (GPa) = 26.07837 27.42850 26.75344
#
# Velocity S-wave (km/s) = 3.80680 3.90410 3.85575
# Velocity P-wave (km/s) = 7.07461 7.26936 7.17264
#
# Compressibility (1/GPa) = 0.01808453
#
# Stress axis : x y z
#
# Youngs Moduli (GPa) = 58.87032 66.23260 69.55839
#
# Poissons Ratio (x) = 0.13852 0.51282
# Poissons Ratio (y) = 0.12312 0.32862
# Poissons Ratio (z) = 0.43402 0.31291
#
# Static dielectric constant tensor:
#      x y z
#    x 3.495450 0.000000 0.000000 
#    y 0.000000 3.218680 0.000000 
#    z 0.000000 0.000000 3.016650 
# 
# 
# High freq. dielectric constant tensor:
#      x y z
#    x 1.706490 0.000000 0.000000 
#    y 0.000000 1.677290 0.000000 
#    z 0.000000 0.000000 1.688410 
# 
# From -- ./inp_files/26676.got.cif
#   From: 2010.03.12/outbox.cif.g09.slc.cpg/sg53_14_cif.got.tgz:26676.got - 2010.04.16 14:36:59.
