data_PCOD8218314
_publ_section_title
;
Structure prediction by ZEFSAII (Michael W. Deem and Ramdas Pophale) SiO2 
 PCOD8218314
Probable space group: P M N A
;
_chemical_formula_sum "Si O2"
_cell_formula_units_Z 64
_cell_length_a 8.856175
_cell_length_b 18.498837
_cell_length_c 26.535137
_cell_angle_alpha 90.000000
_cell_angle_beta 90.000000
_cell_angle_gamma 90.000000
_cell_volume 4347.223308
_symmetry_space_group_name_H-M "P M N A"
_symmetry_group_IT_number 53
_symmetry_cell_setting 'orthorhombic'
loop_
_space_group_symop_operation_xyz
x,y,z
1/2-x,-y,1/2+z
x,-y,-z
1/2-x,y,1/2-z
-x,-y,-z
1/2+x,y,1/2-z
-x,y,z
1/2+x,-y,1/2+z
loop_
_atom_site_type_symbol
_atom_site_label
_atom_site_fract_x
_atom_site_fract_y
_atom_site_fract_z
Si Si1 0.321982 0.087338 0.102034
Si Si2 0.830264 0.958931 0.052444
Si Si3 0.319382 0.404441 0.399616
Si Si4 0.822097 0.833065 0.499805
Si Si5 0.319328 0.321394 0.498051
Si Si6 0.321568 0.160647 0.302080
Si Si7 0.177963 0.673617 0.801140
Si Si8 0.334841 0.542341 0.448044
O O1 0.500000 0.086204 0.110159
O O2 0.275364 0.138946 0.055368
O O3 0.242071 0.114881 0.152033
O O4 0.264567 0.005884 0.092376
O O5 0.000000 0.947057 0.072866
O O6 0.750199 0.882062 0.044063
O O7 0.832702 0.000000 0.000000
O O8 0.500000 0.409217 0.400165
O O9 0.268283 0.348557 0.442865
O O10 0.257343 0.374859 0.346696
O O11 0.251814 0.485948 0.409696
O O12 0.761051 0.753311 0.490748
O O13 0.000000 0.835414 0.493043
O O14 0.500000 0.312908 0.500933
O O15 0.258171 0.379929 0.539895
O O16 0.250000 0.131907 0.250000
O O17 0.500000 0.151165 0.299404
O O18 0.273564 0.243766 0.310680
O O19 0.250000 0.643373 0.750000
O O20 0.000000 0.666582 0.796964
O O21 0.353605 0.500000 0.500000
O O22 0.500000 0.559580 0.425781
#
# Coordination Sequence:
#
# PCOD8218314 Si02
#       8
#     8   8   8   8   8   8   8   8
#     4  10  19  30  43  59  81 109 138 167 202 241
#     4   9  17  29  44  60  78 103 136 170 200 235
#     4   8  13  23  39  57  76 101 133 166 200 235
#     4  10  19  28  39  58  85 112 135 163 201 243
#     4   9  15  24  40  59  77 100 133 167 197 236
#     4  10  19  30  43  60  82 108 139 173 206 238
#     4   9  17  27  39  55  77 104 134 168 200 231
#     4   7  11  20  36  57  76  95 125 165 200 231
#
# _framework density 14.722041000000001
#
# number of rings (size 3 to 8) (size 9 to 14) (size 15 to 20)
#    0.000    3.000    0.000    3.750    0.000    4.500 
#    0.000    0.625    0.000    4.125    0.000    0.000 
#    0.000    1.000    0.000    7.000    0.000    3.250 
#
# Total GULP energy -793075.099797 kJ/mol
# GULP energy per Si atom -12391.798434 kJ/mol
# Density = 1.468853 g / cm^3
# Si number density = 14.722041 Si / 1000 Ang^3
#
#
#
# Elastic Constant Matrix: (Units=GPa)
#
#
# Indices 1 2 3 4 5 6 
#
# 1 43.9076 30.1310 25.0888 0.0000 0.0000 0.0000
# 2 30.1310 117.0325 56.5494 0.0000 0.0000 0.0000
# 3 25.0888 56.5494 84.7469 0.0000 0.0000 0.0000
# 4 0.0000 0.0000 0.0000 22.2177 0.0000 0.0000
# 5 0.0000 0.0000 0.0000 0.0000 20.1465 0.0000
# 6 0.0000 0.0000 0.0000 0.0000 0.0000 14.3385
#
#
#
# Elastic Compliance Matrix: (Units=1/GPa)
#
#
# Indices 1 2 3 4 5 6 
#
# 1 0.029223 -0.004934 -0.005359 0.000000 0.000000 0.000000
# 2 -0.004934 0.013444 -0.007510 0.000000 0.000000 0.000000
# 3 -0.005359 -0.007510 0.018397 0.000000 0.000000 0.000000
# 4 0.000000 0.000000 0.000000 0.045009 0.000000 0.000000
# 5 0.000000 0.000000 0.000000 0.000000 0.049636 0.000000
# 6 0.000000 0.000000 0.000000 0.000000 0.000000 0.069742
#
#
# Mechanical properties :
#
#
# Convention : Reuss Voigt Hill
#
# Bulk Modulus (GPa) = 39.27986 52.13616 45.70801
# Shear Modulus (GPa) = 18.54980 20.26840 19.40910
#
# Velocity S-wave (km/s) = 3.55350 3.71447 3.63488
# Velocity P-wave (km/s) = 6.60117 7.34077 6.98077
#
# Compressibility (1/GPa) = 0.02545834
#
# Stress axis : x y z
#
# Youngs Moduli (GPa) = 34.21924 74.38383 54.35553
#
# Poissons Ratio (x) = 0.36705 0.29128
# Poissons Ratio (y) = 0.16885 0.40820
# Poissons Ratio (z) = 0.18337 0.55861
#
# Static dielectric constant tensor:
#      x y z
#    x 2.719060 0.000000 0.000000 
#    y 0.000000 3.016120 0.000000 
#    z 0.000000 0.000000 2.790310 
# 
# 
# High freq. dielectric constant tensor:
#      x y z
#    x 1.550960 0.000000 0.000000 
#    y 0.000000 1.557290 0.000000 
#    z 0.000000 0.000000 1.532080 
# 
# From -- ./inp_files/36539.got.cif
#   From: 2010.03.12/outbox.cif.g09.slc.cpg/sg53_19_cif.got.tgz:36539.got - 2010.04.16 14:36:59.
