data_PCOD8218137
_publ_section_title
;
Structure prediction by ZEFSAII (Michael W. Deem and Ramdas Pophale) SiO2 
 PCOD8218137
Probable space group: P M N A
;
_chemical_formula_sum "Si O2"
_cell_formula_units_Z 56
_cell_length_a 8.647875
_cell_length_b 15.964237
_cell_length_c 19.773210
_cell_angle_alpha 90.000000
_cell_angle_beta 90.000000
_cell_angle_gamma 90.000000
_cell_volume 2729.824636
_symmetry_space_group_name_H-M "P M N A"
_symmetry_group_IT_number 53
_symmetry_cell_setting 'orthorhombic'
loop_
_space_group_symop_operation_xyz
x,y,z
1/2-x,-y,1/2+z
x,-y,-z
1/2-x,y,1/2-z
-x,-y,-z
1/2+x,y,1/2-z
-x,y,z
1/2+x,-y,1/2+z
loop_
_atom_site_type_symbol
_atom_site_label
_atom_site_fract_x
_atom_site_fract_y
_atom_site_fract_z
Si Si1 0.821740 0.068193 0.553990
Si Si2 0.178626 0.741438 0.446624
Si Si3 0.681728 0.340490 0.678821
Si Si4 0.683305 0.330460 0.084645
Si Si5 0.681063 0.005796 0.321218
Si Si6 0.816064 0.520546 0.677790
Si Si7 0.183750 0.817226 0.677739
O O1 0.800173 0.163000 0.527363
O O2 0.721919 0.062389 0.622314
O O3 0.000000 0.048942 0.570872
O O4 0.759834 0.000000 0.500000
O O5 0.279044 0.725542 0.379766
O O6 0.237049 0.679533 0.506672
O O7 0.000000 0.723925 0.428856
O O8 0.750000 0.308051 0.750000
O O9 0.500000 0.350624 0.687174
O O10 0.754604 0.429377 0.658349
O O11 0.500000 0.327507 0.087256
O O12 0.742327 0.416513 0.118793
O O13 0.748342 0.251696 0.126163
O O14 0.750000 0.975555 0.250000
O O15 0.500000 0.016759 0.312260
O O16 0.754803 0.092923 0.345744
O O17 0.750000 0.550574 0.750000
O O18 0.000000 0.518805 0.682675
O O19 0.250000 0.792135 0.750000
O O20 0.000000 0.820041 0.680656
#
# Coordination Sequence:
#
# PCOD8218137 Si02
#       7
#     8   8   8   8   8   8   8
#     4  10  21  39  63  86 112 148 188 232 283 340
#     4  10  21  39  61  85 112 147 188 229 278 333
#     4  11  23  41  62  85 113 147 188 234 284 334
#     4   9  19  34  56  84 115 151 189 227 272 334
#     4  11  22  36  55  80 111 146 188 236 285 337
#     4  10  19  35  59  87 117 151 190 229 273 326
#     4  10  18  32  53  80 114 151 191 232 279 333
#
# _framework density 20.514137000000002
#
# number of rings (size 3 to 8) (size 9 to 14) (size 15 to 20)
#    0.000    1.857    0.000    6.429    0.000    4.286 
#    0.000    9.286    0.000    0.000    0.000    0.000 
#    0.000    0.000    0.000    0.000    0.000    0.000 
#
# Total GULP energy -694463.924627 kJ/mol
# GULP energy per Si atom -12401.141511 kJ/mol
# Density = 2.046745 g / cm^3
# Si number density = 20.514137 Si / 1000 Ang^3
#
#
#
# Elastic Constant Matrix: (Units=GPa)
#
#
# Indices 1 2 3 4 5 6 
#
# 1 96.9434 25.0509 32.0296 0.0000 0.0000 0.0000
# 2 25.0509 79.6097 54.5766 0.0000 0.0000 0.0000
# 3 32.0296 54.5766 120.0033 0.0000 0.0000 0.0000
# 4 0.0000 0.0000 0.0000 41.0559 0.0000 0.0000
# 5 0.0000 0.0000 0.0000 0.0000 30.5145 0.0000
# 6 0.0000 0.0000 0.0000 0.0000 0.0000 25.5053
#
#
#
# Elastic Compliance Matrix: (Units=1/GPa)
#
#
# Indices 1 2 3 4 5 6 
#
# 1 0.011576 -0.002215 -0.002082 0.000000 0.000000 0.000000
# 2 -0.002215 0.018676 -0.007902 0.000000 0.000000 0.000000
# 3 -0.002082 -0.007902 0.012483 0.000000 0.000000 0.000000
# 4 0.000000 0.000000 0.000000 0.024357 0.000000 0.000000
# 5 0.000000 0.000000 0.000000 0.000000 0.032771 0.000000
# 6 0.000000 0.000000 0.000000 0.000000 0.000000 0.039208
#
#
# Mechanical properties :
#
#
# Convention : Reuss Voigt Hill
#
# Bulk Modulus (GPa) = 54.54076 57.76338 56.15207
# Shear Modulus (GPa) = 29.48440 31.74175 30.61308
#
# Velocity S-wave (km/s) = 3.79525 3.93785 3.86721
# Velocity P-wave (km/s) = 6.77125 6.99247 6.88275
#
# Compressibility (1/GPa) = 0.01833491
#
# Stress axis : x y z
#
# Youngs Moduli (GPa) = 86.38834 53.54520 80.11013
#
# Poissons Ratio (x) = 0.11861 0.16681
# Poissons Ratio (y) = 0.19135 0.63306
# Poissons Ratio (z) = 0.17988 0.42314
#
# Static dielectric constant tensor:
#      x y z
#    x 3.543730 0.000000 0.000000 
#    y 0.000000 3.747630 0.000000 
#    z 0.000000 0.000000 3.796390 
# 
# 
# High freq. dielectric constant tensor:
#      x y z
#    x 1.787160 0.000000 0.000000 
#    y 0.000000 1.799630 0.000000 
#    z 0.000000 0.000000 1.808520 
# 
# From -- ./inp_files/30823.got.cif
#   From: 2010.03.12/outbox.cif.g09.slc.cpg/sg53_16_cif.got.tgz:30823.got - 2010.04.16 14:36:59.
