data_PCOD8218460
_publ_section_title
;
Structure prediction by ZEFSAII (Michael W. Deem and Ramdas Pophale) SiO2 
 PCOD8218460
Probable space group: P M N A
;
_chemical_formula_sum "Si O2"
_cell_formula_units_Z 64
_cell_length_a 9.261339
_cell_length_b 30.120447
_cell_length_c 13.477175
_cell_angle_alpha 90.000000
_cell_angle_beta 90.000000
_cell_angle_gamma 90.000000
_cell_volume 3759.534389
_symmetry_space_group_name_H-M "P M N A"
_symmetry_group_IT_number 53
_symmetry_cell_setting 'orthorhombic'
loop_
_space_group_symop_operation_xyz
x,y,z
1/2-x,-y,1/2+z
x,-y,-z
1/2-x,y,1/2-z
-x,-y,-z
1/2+x,y,1/2-z
-x,y,z
1/2+x,-y,1/2+z
loop_
_atom_site_type_symbol
_atom_site_label
_atom_site_fract_x
_atom_site_fract_y
_atom_site_fract_z
Si Si1 0.331752 0.744283 0.150135
Si Si2 0.334265 0.051219 0.514825
Si Si3 0.333537 0.517819 0.652499
Si Si4 0.169985 0.124710 0.146122
Si Si5 0.161668 0.816176 0.502462
Si Si6 0.160465 0.106956 0.656493
Si Si7 0.332401 0.429867 0.541424
Si Si8 0.831157 0.358058 0.650297
O O1 0.250000 0.759336 0.250000
O O2 0.500000 0.753478 0.169699
O O3 0.279705 0.771974 0.053354
O O4 0.299810 0.693131 0.125452
O O5 0.500000 0.059067 0.543852
O O6 0.296854 0.080304 0.417324
O O7 0.237200 0.064646 0.607898
O O8 0.298738 0.000000 0.500000
O O9 0.250000 0.532059 0.750000
O O10 0.500000 0.514681 0.679598
O O11 0.281686 0.470029 0.612463
O O12 0.305848 0.555912 0.571641
O O13 0.250000 0.118631 0.250000
O O14 0.000000 0.131511 0.163546
O O15 0.231505 0.168622 0.090461
O O16 0.155651 0.853540 0.420126
O O17 0.000000 0.808379 0.545990
O O18 0.250000 0.123903 0.750000
O O19 0.000000 0.092880 0.689484
O O20 0.500000 0.418279 0.559426
O O21 0.233582 0.387069 0.561081
O O22 0.750000 0.372727 0.750000
O O23 0.000000 0.367594 0.663281
#
# Coordination Sequence:
#
# PCOD8218460 Si02
#       8
#     8   8   8   8   8   8   8   8
#     4   9  18  31  48  72 101 129 156 189 231 281
#     4   9  19  35  51  69  95 125 157 192 230 274
#     4   9  18  31  47  67  92 122 158 199 241 282
#     4  10  20  34  53  74  96 124 159 199 239 279
#     4   9  18  33  51  71  96 124 155 193 233 274
#     4  10  19  30  47  70  95 123 153 186 226 271
#     4   9  18  32  47  66  94 126 158 196 239 282
#     4  10  19  30  46  70  98 128 159 191 231 280
#
# _framework density 17.023385000000001
#
# number of rings (size 3 to 8) (size 9 to 14) (size 15 to 20)
#    0.000    2.625    0.000    2.625    0.000    4.750 
#    0.000    2.500    0.000    0.750    0.000    1.750 
#    0.000    0.000    0.000    0.000    0.000    0.000 
#
# Total GULP energy -793561.763495 kJ/mol
# GULP energy per Si atom -12399.402555 kJ/mol
# Density = 1.698464 g / cm^3
# Si number density = 17.023385 Si / 1000 Ang^3
#
#
#
# Elastic Constant Matrix: (Units=GPa)
#
#
# Indices 1 2 3 4 5 6 
#
# 1 84.0679 38.1668 45.6693 0.0000 0.0000 0.0000
# 2 38.1668 81.6604 33.5369 0.0000 0.0000 0.0000
# 3 45.6693 33.5369 82.0242 0.0000 0.0000 0.0000
# 4 0.0000 0.0000 0.0000 18.8412 0.0000 0.0000
# 5 0.0000 0.0000 0.0000 0.0000 35.0897 0.0000
# 6 0.0000 0.0000 0.0000 0.0000 0.0000 23.6491
#
#
#
# Elastic Compliance Matrix: (Units=1/GPa)
#
#
# Indices 1 2 3 4 5 6 
#
# 1 0.018851 -0.005408 -0.008285 0.000000 0.000000 0.000000
# 2 -0.005408 0.016269 -0.003640 0.000000 0.000000 0.000000
# 3 -0.008285 -0.003640 0.018293 0.000000 0.000000 0.000000
# 4 0.000000 0.000000 0.000000 0.053075 0.000000 0.000000
# 5 0.000000 0.000000 0.000000 0.000000 0.028498 0.000000
# 6 0.000000 0.000000 0.000000 0.000000 0.000000 0.042285
#
#
# Mechanical properties :
#
#
# Convention : Reuss Voigt Hill
#
# Bulk Modulus (GPa) = 53.34567 53.61094 53.47831
# Shear Modulus (GPa) = 22.91620 24.20796 23.56208
#
# Velocity S-wave (km/s) = 3.67299 3.77509 3.72439
# Velocity P-wave (km/s) = 7.02798 7.11074 7.06948
#
# Compressibility (1/GPa) = 0.01874566
#
# Stress axis : x y z
#
# Youngs Moduli (GPa) = 53.04741 61.46770 54.66669
#
# Poissons Ratio (x) = 0.33244 0.45289
# Poissons Ratio (y) = 0.28690 0.19901
# Poissons Ratio (z) = 0.43948 0.22377
#
# Static dielectric constant tensor:
#      x y z
#    x 3.316220 0.000000 0.000000 
#    y 0.000000 3.166170 0.000000 
#    z 0.000000 0.000000 3.138610 
# 
# 
# High freq. dielectric constant tensor:
#      x y z
#    x 1.662900 0.000000 0.000000 
#    y 0.000000 1.647160 0.000000 
#    z 0.000000 0.000000 1.644410 
# 
# From -- ./inp_files/14250.got.cif
#   From: 2010.03.12/outbox.cif.g09.slc.cpg/sg53_8_cif.got.tgz:14250.got - 2010.04.16 14:36:59.
