data_PCOD8218023
_publ_section_title
;
Structure prediction by ZEFSAII (Michael W. Deem and Ramdas Pophale) SiO2 
 PCOD8218023
Probable space group: P M N A
;
_chemical_formula_sum "Si O2"
_cell_formula_units_Z 64
_cell_length_a 9.042839
_cell_length_b 22.260981
_cell_length_c 15.584235
_cell_angle_alpha 90.000000
_cell_angle_beta 90.000000
_cell_angle_gamma 90.000000
_cell_volume 3137.144954
_symmetry_space_group_name_H-M "P M N A"
_symmetry_group_IT_number 53
_symmetry_cell_setting 'orthorhombic'
loop_
_space_group_symop_operation_xyz
x,y,z
1/2-x,-y,1/2+z
x,-y,-z
1/2-x,y,1/2-z
-x,-y,-z
1/2+x,y,1/2-z
-x,y,z
1/2+x,-y,1/2+z
loop_
_atom_site_type_symbol
_atom_site_label
_atom_site_fract_x
_atom_site_fract_y
_atom_site_fract_z
Si Si1 0.670001 0.639318 0.336045
Si Si2 0.675676 0.754605 0.905422
Si Si3 0.666141 0.117447 0.898154
Si Si4 0.824174 0.567684 0.000447
Si Si5 0.834267 0.001394 0.897518
Si Si6 0.176352 0.641142 0.834997
Si Si7 0.171538 0.234674 0.914410
Si Si8 0.163770 0.112781 0.397456
O O1 0.750000 0.618216 0.250000
O O2 0.500000 0.621861 0.325700
O O3 0.738288 0.602933 0.416706
O O4 0.690032 0.710507 0.348768
O O5 0.500000 0.743174 0.908716
O O6 0.757851 0.707859 0.844401
O O7 0.711310 0.820780 0.866584
O O8 0.739970 0.747954 0.000537
O O9 0.500000 0.123481 0.861824
O O10 0.738989 0.056803 0.860576
O O11 0.761427 0.175318 0.869330
O O12 0.665388 0.113859 0.000097
O O13 0.770097 0.600859 0.914617
O O14 0.000000 0.568327 0.002799
O O15 0.761802 0.500000 0.000000
O O16 0.000000 0.009217 0.863851
O O17 0.772447 0.938267 0.860869
O O18 0.827777 0.000000 0.000000
O O19 0.250000 0.612521 0.750000
O O20 0.000000 0.643959 0.826538
O O21 0.000000 0.223669 0.938135
O O22 0.000000 0.096638 0.364758
#
# Coordination Sequence:
#
# PCOD8218023 Si02
#       8
#     8   8   8   8   8   8   8   8
#     4  10  21  37  58  87 117 154 195 237 288 340
#     4  10  19  32  52  78 108 146 190 238 292 347
#     4   9  16  25  39  62  94 136 182 230 288 343
#     4   9  19  39  64  88 120 160 195 232 285 343
#     4   9  15  22  34  57  91 132 178 229 283 338
#     4  11  22  38  60  88 120 156 197 242 289 343
#     4  10  18  31  50  75 107 143 189 238 292 349
#     4   8  15  25  38  60  93 133 177 227 283 340
#
# _framework density 20.400715999999999
#
# number of rings (size 3 to 8) (size 9 to 14) (size 15 to 20)
#    0.000    2.500    1.250    2.625    0.000    6.500 
#    0.000    0.000    0.000    2.625    0.000    0.875 
#    0.000    2.000    0.000    0.000    0.000    0.000 
#
# Total GULP energy -793515.220093 kJ/mol
# GULP energy per Si atom -12398.675314 kJ/mol
# Density = 2.035428 g / cm^3
# Si number density = 20.400716 Si / 1000 Ang^3
#
#
#
# Elastic Constant Matrix: (Units=GPa)
#
#
# Indices 1 2 3 4 5 6 
#
# 1 109.7668 58.4594 38.4810 0.0000 0.0000 0.0000
# 2 58.4594 150.7647 50.1519 0.0000 0.0000 0.0000
# 3 38.4810 50.1519 93.8846 0.0000 0.0000 0.0000
# 4 0.0000 0.0000 0.0000 5.5067 0.0000 0.0000
# 5 0.0000 0.0000 0.0000 0.0000 22.5343 0.0000
# 6 0.0000 0.0000 0.0000 0.0000 0.0000 21.3616
#
#
#
# Elastic Compliance Matrix: (Units=1/GPa)
#
#
# Indices 1 2 3 4 5 6 
#
# 1 0.012135 -0.003710 -0.002992 0.000000 0.000000 0.000000
# 2 -0.003710 0.009201 -0.003394 0.000000 0.000000 0.000000
# 3 -0.002992 -0.003394 0.013691 0.000000 0.000000 0.000000
# 4 0.000000 0.000000 0.000000 0.181598 0.000000 0.000000
# 5 0.000000 0.000000 0.000000 0.000000 0.044377 0.000000
# 6 0.000000 0.000000 0.000000 0.000000 0.000000 0.046813
#
#
# Mechanical properties :
#
#
# Convention : Reuss Voigt Hill
#
# Bulk Modulus (GPa) = 67.41279 72.06674 69.73976
# Shear Modulus (GPa) = 15.01721 23.70211 19.35966
#
# Velocity S-wave (km/s) = 2.71608 3.41226 3.08388
# Velocity P-wave (km/s) = 6.55379 7.13631 6.85125
#
# Compressibility (1/GPa) = 0.01483398
#
# Stress axis : x y z
#
# Youngs Moduli (GPa) = 82.40601 108.68968 73.04184
#
# Poissons Ratio (x) = 0.40325 0.21854
# Poissons Ratio (y) = 0.30574 0.24791
# Poissons Ratio (z) = 0.24656 0.36890
#
# Static dielectric constant tensor:
#      x y z
#    x 3.661730 0.000000 0.000000 
#    y 0.000000 3.960330 0.000000 
#    z 0.000000 0.000000 3.274850 
# 
# 
# High freq. dielectric constant tensor:
#      x y z
#    x 1.789540 0.000000 0.000000 
#    y 0.000000 1.803850 0.000000 
#    z 0.000000 0.000000 1.762270 
# 
# From -- ./inp_files/26781.got.cif
#   From: 2010.03.12/outbox.cif.g09.slc.cpg/sg53_14_cif.got.tgz:26781.got - 2010.04.16 14:36:59.
