data_PCOD8218087
_publ_section_title
;
Structure prediction by ZEFSAII (Michael W. Deem and Ramdas Pophale) SiO2 
 PCOD8218087
Probable space group: P M N A
;
_chemical_formula_sum "Si O2"
_cell_formula_units_Z 64
_cell_length_a 16.847799
_cell_length_b 22.456710
_cell_length_c 8.703308
_cell_angle_alpha 90.000000
_cell_angle_beta 90.000000
_cell_angle_gamma 90.000000
_cell_volume 3292.862955
_symmetry_space_group_name_H-M "P M N A"
_symmetry_group_IT_number 53
_symmetry_cell_setting 'orthorhombic'
loop_
_space_group_symop_operation_xyz
x,y,z
1/2-x,-y,1/2+z
x,-y,-z
1/2-x,y,1/2-z
-x,-y,-z
1/2+x,y,1/2-z
-x,y,z
1/2+x,-y,1/2+z
loop_
_atom_site_type_symbol
_atom_site_label
_atom_site_fract_x
_atom_site_fract_y
_atom_site_fract_z
Si Si1 0.248735 0.728114 0.423955
Si Si2 0.590372 0.936142 0.572157
Si Si3 0.771305 0.865933 0.075025
Si Si4 0.166609 0.650442 0.834296
Si Si5 0.318746 0.047885 0.132831
Si Si6 0.172186 0.520540 0.840173
Si Si7 0.092131 0.679015 0.537292
Si Si8 0.092935 0.446633 0.603151
O O1 0.250000 0.705874 0.250000
O O2 0.276001 0.795557 0.443510
O O3 0.314840 0.688098 0.512144
O O4 0.156203 0.726230 0.475899
O O5 0.500000 0.916630 0.548601
O O6 0.642763 0.889992 0.475242
O O7 0.606985 0.937485 0.756540
O O8 0.608695 0.000000 0.500000
O O9 0.750000 0.884260 0.250000
O O10 0.706894 0.892196 0.955908
O O11 0.250000 0.647417 0.750000
O O12 0.128959 0.584550 0.862323
O O13 0.100863 0.679990 0.722357
O O14 0.250000 0.024733 0.250000
O O15 0.338788 0.000000 0.000000
O O16 0.250000 0.534192 0.750000
O O17 0.119636 0.465751 0.773727
O O18 0.204819 0.500000 0.000000
O O19 0.123186 0.616407 0.462235
O O20 0.000000 0.693884 0.493745
O O21 0.127366 0.500000 0.500000
O O22 0.000000 0.443799 0.596067
#
# Coordination Sequence:
#
# PCOD8218087 Si02
#       8
#     8   8   8   8   8   8   8   8
#     4  10  23  40  61  84 114 154 201 249 297 351
#     4  10  21  36  58  92 130 161 193 244 301 344
#     4  10  20  39  60  83 115 161 207 247 293 348
#     4   9  20  36  53  78 108 146 188 236 288 349
#     4  10  18  31  56  87 120 159 208 246 287 349
#     4  11  23  32  53  83 111 142 188 234 284 345
#     4  10  21  39  61  83 112 149 190 241 298 355
#     4  10  20  36  56  78 110 144 176 223 293 359
#
# _framework density 19.435974999999999
#
# number of rings (size 3 to 8) (size 9 to 14) (size 15 to 20)
#    0.000    2.000    1.250    3.000    5.250    5.000 
#    0.000    6.250    0.000    0.000    0.000    0.000 
#    0.000    0.000    0.000    0.000    0.000    0.000 
#
# Total GULP energy -792902.061610 kJ/mol
# GULP energy per Si atom -12389.094713 kJ/mol
# Density = 1.939174 g / cm^3
# Si number density = 19.435975 Si / 1000 Ang^3
#
#
#
# Elastic Constant Matrix: (Units=GPa)
#
#
# Indices 1 2 3 4 5 6 
#
# 1 66.8088 34.8411 38.2682 0.0000 0.0000 0.0000
# 2 34.8411 80.9697 54.3239 0.0000 0.0000 0.0000
# 3 38.2682 54.3239 147.6772 0.0000 0.0000 0.0000
# 4 0.0000 0.0000 0.0000 33.6110 0.0000 0.0000
# 5 0.0000 0.0000 0.0000 0.0000 21.2263 0.0000
# 6 0.0000 0.0000 0.0000 0.0000 0.0000 22.1598
#
#
#
# Elastic Compliance Matrix: (Units=1/GPa)
#
#
# Indices 1 2 3 4 5 6 
#
# 1 0.020071 -0.006834 -0.002687 0.000000 0.000000 0.000000
# 2 -0.006834 0.018724 -0.005117 0.000000 0.000000 0.000000
# 3 -0.002687 -0.005117 0.009350 0.000000 0.000000 0.000000
# 4 0.000000 0.000000 0.000000 0.029752 0.000000 0.000000
# 5 0.000000 0.000000 0.000000 0.000000 0.047111 0.000000
# 6 0.000000 0.000000 0.000000 0.000000 0.000000 0.045127
#
#
# Mechanical properties :
#
#
# Convention : Reuss Voigt Hill
#
# Bulk Modulus (GPa) = 52.99547 61.14690 57.07118
# Shear Modulus (GPa) = 24.30719 26.60095 25.45407
#
# Velocity S-wave (km/s) = 3.54026 3.70353 3.62282
# Velocity P-wave (km/s) = 6.63605 7.05813 6.85034
#
# Compressibility (1/GPa) = 0.01886954
#
# Stress axis : x y z
#
# Youngs Moduli (GPa) = 49.82280 53.40818 106.95011
#
# Poissons Ratio (x) = 0.36497 0.28741
# Poissons Ratio (y) = 0.34047 0.54724
# Poissons Ratio (z) = 0.13389 0.27328
#
# Static dielectric constant tensor:
#      x y z
#    x 3.430610 0.000000 0.000000 
#    y 0.000000 3.602220 0.000000 
#    z 0.000000 0.000000 3.807560 
# 
# 
# High freq. dielectric constant tensor:
#      x y z
#    x 1.736100 0.000000 0.000000 
#    y 0.000000 1.746840 0.000000 
#    z 0.000000 0.000000 1.768340 
# 
# From -- ./inp_files/10235.got.cif
#   From: 2010.03.12/outbox.cif.g09.slc.cpg/sg53_6_cif.got.tgz:10235.got - 2010.04.16 14:36:59.
