data_PCOD8218140
_publ_section_title
;
Structure prediction by ZEFSAII (Michael W. Deem and Ramdas Pophale) SiO2 
 PCOD8218140
Probable space group: P M N A
;
_chemical_formula_sum "Si O2"
_cell_formula_units_Z 48
_cell_length_a 9.517544
_cell_length_b 29.194932
_cell_length_c 9.245217
_cell_angle_alpha 90.000000
_cell_angle_beta 90.000000
_cell_angle_gamma 90.000000
_cell_volume 2568.913438
_symmetry_space_group_name_H-M "P M N A"
_symmetry_group_IT_number 53
_symmetry_cell_setting 'orthorhombic'
loop_
_space_group_symop_operation_xyz
x,y,z
1/2-x,-y,1/2+z
x,-y,-z
1/2-x,y,1/2-z
-x,-y,-z
1/2+x,y,1/2-z
-x,y,z
1/2+x,-y,1/2+z
loop_
_atom_site_type_symbol
_atom_site_label
_atom_site_fract_x
_atom_site_fract_y
_atom_site_fract_z
Si Si1 0.253685 0.890758 0.921216
Si Si2 0.337288 0.793437 0.893658
Si Si3 0.165830 0.707961 0.396962
Si Si4 0.000000 0.950616 0.926544
Si Si5 0.340586 0.537242 0.611390
Si Si6 0.334281 0.358318 0.398843
Si Si7 0.500000 0.953156 0.916913
O O1 0.250000 0.886550 0.750000
O O2 0.274121 0.838520 0.974616
O O3 0.121874 0.917677 0.982420
O O4 0.373174 0.923865 0.975687
O O5 0.250000 0.780479 0.750000
O O6 0.500000 0.802331 0.849425
O O7 0.323340 0.753030 0.006843
O O8 0.250000 0.717576 0.250000
O O9 0.250734 0.667809 0.476304
O O10 0.000000 0.695300 0.371177
O O11 0.000000 0.960254 0.755513
O O12 0.000000 0.000000 0.000000
O O13 0.282405 0.500000 0.500000
O O14 0.250000 0.529715 0.750000
O O15 0.500000 0.526126 0.652844
O O16 0.326048 0.588858 0.552550
O O17 0.250000 0.349553 0.250000
O O18 0.500000 0.343237 0.383407
O O19 0.500000 0.000000 0.000000
#
# Coordination Sequence:
#
# PCOD8218140 Si02
#       7
#     8   8   8   4   8   8   4
#     4   9  18  33  53  77 103 132 175 217 261 314
#     4  10  21  37  60  85 107 139 185 230 275 330
#     4  11  24  41  58  83 117 151 186 232 291 348
#     4  10  20  34  50  78 106 134 174 216 259 314
#     4   9  19  35  55  82 116 152 193 239 286 336
#     4  10  20  37  60  86 115 152 198 243 284 336
#     4  10  18  32  54  74 102 138 168 212 259 314
#
# _framework density 18.684941999999999
#
# number of rings (size 3 to 8) (size 9 to 14) (size 15 to 20)
#    0.000    2.167    0.833    2.000    3.500    4.333 
#    0.000    3.333    0.000    0.000    0.000    0.000 
#    0.000    0.000    0.000    0.000    0.000    0.000 
#
# Total GULP energy -594778.056623 kJ/mol
# GULP energy per Si atom -12391.209513 kJ/mol
# Density = 1.864241 g / cm^3
# Si number density = 18.684942 Si / 1000 Ang^3
#
#
#
# Elastic Constant Matrix: (Units=GPa)
#
#
# Indices 1 2 3 4 5 6 
#
# 1 158.5882 69.7874 52.0580 0.0000 0.0000 0.0000
# 2 69.7874 127.1536 54.1635 0.0000 0.0000 0.0000
# 3 52.0580 54.1635 70.9684 0.0000 0.0000 0.0000
# 4 0.0000 0.0000 0.0000 34.2605 0.0000 0.0000
# 5 0.0000 0.0000 0.0000 0.0000 29.0368 0.0000
# 6 0.0000 0.0000 0.0000 0.0000 0.0000 21.6233
#
#
#
# Elastic Compliance Matrix: (Units=1/GPa)
#
#
# Indices 1 2 3 4 5 6 
#
# 1 0.009101 -0.003188 -0.004243 0.000000 0.000000 0.000000
# 2 -0.003188 0.012769 -0.007407 0.000000 0.000000 0.000000
# 3 -0.004243 -0.007407 0.022857 0.000000 0.000000 0.000000
# 4 0.000000 0.000000 0.000000 0.029188 0.000000 0.000000
# 5 0.000000 0.000000 0.000000 0.000000 0.034439 0.000000
# 6 0.000000 0.000000 0.000000 0.000000 0.000000 0.046246
#
#
# Mechanical properties :
#
#
# Convention : Reuss Voigt Hill
#
# Bulk Modulus (GPa) = 66.44203 78.74757 72.59480
# Shear Modulus (GPa) = 26.41387 29.03087 27.72237
#
# Velocity S-wave (km/s) = 3.76393 3.94598 3.85603
# Velocity P-wave (km/s) = 7.38416 7.93709 7.66561
#
# Compressibility (1/GPa) = 0.01505072
#
# Stress axis : x y z
#
# Youngs Moduli (GPa) = 109.87459 78.31249 43.75082
#
# Poissons Ratio (x) = 0.24964 0.18565
# Poissons Ratio (y) = 0.35024 0.32408
# Poissons Ratio (z) = 0.46623 0.58009
#
# Static dielectric constant tensor:
#      x y z
#    x 4.154600 0.000000 0.000000 
#    y 0.000000 3.728160 0.000000 
#    z 0.000000 0.000000 3.151310 
# 
# 
# High freq. dielectric constant tensor:
#      x y z
#    x 1.746930 0.000000 0.000000 
#    y 0.000000 1.743460 0.000000 
#    z 0.000000 0.000000 1.693890 
# 
# From -- ./inp_files/6808.got.cif
#   From: 2010.03.12/outbox.cif.g09.slc.cpg/sg53_4_cif.got.tgz:6808.got - 2010.04.16 14:36:59.
