data_PCOD8218626
_publ_section_title
;
Structure prediction by ZEFSAII (Michael W. Deem and Ramdas Pophale) SiO2 
 PCOD8218626
Probable space group: P M N A
;
_chemical_formula_sum "Si O2"
_cell_formula_units_Z 40
_cell_length_a 8.953063
_cell_length_b 13.683194
_cell_length_c 18.122195
_cell_angle_alpha 90.000000
_cell_angle_beta 90.000000
_cell_angle_gamma 90.000000
_cell_volume 2220.086644
_symmetry_space_group_name_H-M "P M N A"
_symmetry_group_IT_number 53
_symmetry_cell_setting 'orthorhombic'
loop_
_space_group_symop_operation_xyz
x,y,z
1/2-x,-y,1/2+z
x,-y,-z
1/2-x,y,1/2-z
-x,-y,-z
1/2+x,y,1/2-z
-x,y,z
1/2+x,-y,1/2+z
loop_
_atom_site_type_symbol
_atom_site_label
_atom_site_fract_x
_atom_site_fract_y
_atom_site_fract_z
Si Si1 0.675195 0.676760 0.674766
Si Si2 0.173434 0.392758 0.469724
Si Si3 0.675980 0.916607 0.326565
Si Si4 0.325881 0.882369 0.610935
Si Si5 0.324041 0.214275 0.536535
O O1 0.750000 0.640274 0.750000
O O2 0.500000 0.656791 0.678065
O O3 0.742477 0.614907 0.607962
O O4 0.711263 0.791477 0.663966
O O5 0.201942 0.500000 0.500000
O O6 0.239241 0.316999 0.529477
O O7 0.000000 0.370163 0.457400
O O8 0.750000 0.886034 0.250000
O O9 0.500000 0.925623 0.314642
O O10 0.715468 0.832355 0.385009
O O11 0.746786 0.019245 0.355595
O O12 0.500000 0.902833 0.605043
O O13 0.267216 0.858747 0.528406
O O14 0.500000 0.233821 0.526750
#
# Coordination Sequence:
#
# PCOD8218626 Si02
#       5
#     8   8   8   8   8
#     4  10  19  32  53  80 108 135 165 205 252 299
#     4  10  21  37  56  76  99 129 167 213 261 306
#     4  10  19  31  48  72 104 138 170 203 242 292
#     4   8  15  29  50  74 100 132 168 204 243 292
#     4   9  18  33  53  74  97 131 171 209 250 298
#
# _framework density 18.017315
#
# number of rings (size 3 to 8) (size 9 to 14) (size 15 to 20)
#    0.000    2.600    0.000    3.600    0.000    4.800 
#    0.000    5.000    0.000    8.400    0.000    0.000 
#    0.000    0.000    0.000    0.000    0.000    0.000 
#
# Total GULP energy -495979.592930 kJ/mol
# GULP energy per Si atom -12399.489823 kJ/mol
# Density = 1.797631 g / cm^3
# Si number density = 18.017315 Si / 1000 Ang^3
#
#
#
# Elastic Constant Matrix: (Units=GPa)
#
#
# Indices 1 2 3 4 5 6 
#
# 1 74.8261 53.3110 64.8443 0.0000 0.0000 0.0000
# 2 53.3110 99.6720 68.4116 0.0000 0.0000 0.0000
# 3 64.8443 68.4116 145.3544 0.0000 0.0000 0.0000
# 4 0.0000 0.0000 0.0000 16.9964 0.0000 0.0000
# 5 0.0000 0.0000 0.0000 0.0000 32.2567 0.0000
# 6 0.0000 0.0000 0.0000 0.0000 0.0000 21.7302
#
#
#
# Elastic Compliance Matrix: (Units=1/GPa)
#
#
# Indices 1 2 3 4 5 6 
#
# 1 0.026178 -0.008843 -0.007517 0.000000 0.000000 0.000000
# 2 -0.008843 0.017808 -0.004436 0.000000 0.000000 0.000000
# 3 -0.007517 -0.004436 0.012321 0.000000 0.000000 0.000000
# 4 0.000000 0.000000 0.000000 0.058836 0.000000 0.000000
# 5 0.000000 0.000000 0.000000 0.000000 0.031001 0.000000
# 6 0.000000 0.000000 0.000000 0.000000 0.000000 0.046019
#
#
# Mechanical properties :
#
#
# Convention : Reuss Voigt Hill
#
# Bulk Modulus (GPa) = 67.95555 76.99849 72.47702
# Shear Modulus (GPa) = 20.95035 23.08236 22.01635
#
# Velocity S-wave (km/s) = 3.41367 3.58316 3.49944
# Velocity P-wave (km/s) = 7.30316 7.74256 7.52607
#
# Compressibility (1/GPa) = 0.01471550
#
# Stress axis : x y z
#
# Youngs Moduli (GPa) = 38.19958 56.15611 81.16245
#
# Poissons Ratio (x) = 0.49657 0.61007
# Poissons Ratio (y) = 0.33779 0.36006
# Poissons Ratio (z) = 0.28713 0.24913
#
# Static dielectric constant tensor:
#      x y z
#    x 3.169320 0.000000 0.000000 
#    y 0.000000 3.254150 0.000000 
#    z 0.000000 0.000000 3.373290 
# 
# 
# High freq. dielectric constant tensor:
#      x y z
#    x 1.681380 0.000000 0.000000 
#    y 0.000000 1.685230 0.000000 
#    z 0.000000 0.000000 1.702460 
# 
# From -- ./inp_files/19884.got.cif
#   From: 2010.03.12/outbox.cif.g09.slc.cpg/sg53_10_cif.got.tgz:19884.got - 2010.04.16 14:36:59.
