data_PCOD8218738
_publ_section_title
;
Structure prediction by ZEFSAII (Michael W. Deem and Ramdas Pophale) SiO2 
 PCOD8218738
Probable space group: P M N A
;
_chemical_formula_sum "Si O2"
_cell_formula_units_Z 56
_cell_length_a 22.322747
_cell_length_b 9.661817
_cell_length_c 12.550880
_cell_angle_alpha 90.000000
_cell_angle_beta 90.000000
_cell_angle_gamma 90.000000
_cell_volume 2706.952417
_symmetry_space_group_name_H-M "P M N A"
_symmetry_group_IT_number 53
_symmetry_cell_setting 'orthorhombic'
loop_
_space_group_symop_operation_xyz
x,y,z
1/2-x,-y,1/2+z
x,-y,-z
1/2-x,y,1/2-z
-x,-y,-z
1/2+x,y,1/2-z
-x,y,z
1/2+x,-y,1/2+z
loop_
_atom_site_type_symbol
_atom_site_label
_atom_site_fract_x
_atom_site_fract_y
_atom_site_fract_z
Si Si1 0.931791 0.126232 0.673157
Si Si2 0.567381 0.875697 0.422820
Si Si3 0.931707 0.424533 0.602106
Si Si4 0.155658 0.901371 0.688006
Si Si5 0.717569 0.108479 0.406180
Si Si6 0.068211 0.668904 0.756210
Si Si7 0.363301 0.654314 0.531701
O O1 0.930989 0.089875 0.798699
O O2 0.905607 0.275311 0.636761
O O3 0.000000 0.104544 0.631423
O O4 0.883784 0.017918 0.627656
O O5 0.500000 0.843353 0.460058
O O6 0.607159 0.738051 0.434651
O O7 0.592228 0.000000 0.500000
O O8 0.899961 0.500000 0.500000
O O9 0.926141 0.518078 0.705822
O O10 0.000000 0.397648 0.569124
O O11 0.212345 0.870967 0.614448
O O12 0.180000 0.947886 0.804663
O O13 0.113161 0.768285 0.693636
O O14 0.696043 0.263971 0.432772
O O15 0.706295 0.000000 0.500000
O O16 0.085973 0.652500 0.878175
O O17 0.000000 0.725797 0.748028
O O18 0.344098 0.500000 0.500000
#
# Coordination Sequence:
#
# PCOD8218738 Si02
#       7
#     8   8   8   8   8   8   8
#     4  10  19  33  56  85 113 142 182 230 282 346
#     4  10  19  31  53  88 125 153 176 215 284 360
#     4   9  19  35  52  74 110 151 184 221 274 331
#     4  10  21  37  58  82 107 143 190 234 280 336
#     4  10  22  40  57  76 109 149 190 237 282 324
#     4  10  20  35  57  86 119 148 176 224 288 347
#     4  11  21  34  56  85 117 151 187 227 277 344
#
# _framework density 20.687470999999999
#
# number of rings (size 3 to 8) (size 9 to 14) (size 15 to 20)
#    0.000    2.000    0.000    4.714    0.000    4.571 
#    0.000    2.143    0.000    9.857    0.000    0.000 
#    0.000    0.000    0.000    0.000    0.000    0.000 
#
# Total GULP energy -694147.368507 kJ/mol
# GULP energy per Si atom -12395.488723 kJ/mol
# Density = 2.064039 g / cm^3
# Si number density = 20.687471 Si / 1000 Ang^3
#
#
#
# Elastic Constant Matrix: (Units=GPa)
#
#
# Indices 1 2 3 4 5 6 
#
# 1 133.1296 62.4765 21.5239 0.0000 0.0000 0.0000
# 2 62.4765 140.1387 18.4783 0.0000 0.0000 0.0000
# 3 21.5239 18.4783 41.1328 0.0000 0.0000 0.0000
# 4 0.0000 0.0000 0.0000 29.8419 0.0000 0.0000
# 5 0.0000 0.0000 0.0000 0.0000 10.5032 0.0000
# 6 0.0000 0.0000 0.0000 0.0000 0.0000 22.5250
#
#
#
# Elastic Compliance Matrix: (Units=1/GPa)
#
#
# Indices 1 2 3 4 5 6 
#
# 1 0.009929 -0.003977 -0.003409 0.000000 0.000000 0.000000
# 2 -0.003977 0.009178 -0.002042 0.000000 0.000000 0.000000
# 3 -0.003409 -0.002042 0.027013 0.000000 0.000000 0.000000
# 4 0.000000 0.000000 0.000000 0.033510 0.000000 0.000000
# 5 0.000000 0.000000 0.000000 0.000000 0.095209 0.000000
# 6 0.000000 0.000000 0.000000 0.000000 0.000000 0.044395
#
#
# Mechanical properties :
#
#
# Convention : Reuss Voigt Hill
#
# Bulk Modulus (GPa) = 36.67887 57.70651 47.19269
# Shear Modulus (GPa) = 20.22833 26.70216 23.46525
#
# Velocity S-wave (km/s) = 3.13038 3.59659 3.37155
# Velocity P-wave (km/s) = 5.55285 6.72326 6.16589
#
# Compressibility (1/GPa) = 0.02726365
#
# Stress axis : x y z
#
# Youngs Moduli (GPa) = 100.71472 108.95514 37.01962
#
# Poissons Ratio (x) = 0.43332 0.12620
# Poissons Ratio (y) = 0.40055 0.07559
# Poissons Ratio (z) = 0.34334 0.22249
#
# Static dielectric constant tensor:
#      x y z
#    x 3.779200 0.000000 0.000000 
#    y 0.000000 3.769550 0.000000 
#    z 0.000000 0.000000 3.662850 
# 
# 
# High freq. dielectric constant tensor:
#      x y z
#    x 1.799530 0.000000 0.000000 
#    y 0.000000 1.806890 0.000000 
#    z 0.000000 0.000000 1.802760 
# 
# From -- ./inp_files/24341.got.cif
#   From: 2010.03.12/outbox.cif.g09.slc.cpg/sg53_13_cif.got.tgz:24341.got - 2010.04.16 14:36:59.
