data_PCOD8218922
_publ_section_title
;
Structure prediction by ZEFSAII (Michael W. Deem and Ramdas Pophale) SiO2 
 PCOD8218922
Probable space group: P M N A
;
_chemical_formula_sum "Si O2"
_cell_formula_units_Z 64
_cell_length_a 9.103883
_cell_length_b 11.189580
_cell_length_c 33.523505
_cell_angle_alpha 90.000000
_cell_angle_beta 90.000000
_cell_angle_gamma 90.000000
_cell_volume 3414.993431
_symmetry_space_group_name_H-M "P M N A"
_symmetry_group_IT_number 53
_symmetry_cell_setting 'orthorhombic'
loop_
_space_group_symop_operation_xyz
x,y,z
1/2-x,-y,1/2+z
x,-y,-z
1/2-x,y,1/2-z
-x,-y,-z
1/2+x,y,1/2-z
-x,y,z
1/2+x,-y,1/2+z
loop_
_atom_site_type_symbol
_atom_site_label
_atom_site_fract_x
_atom_site_fract_y
_atom_site_fract_z
Si Si1 0.670915 0.265606 0.444072
Si Si2 0.167750 0.345526 0.857942
Si Si3 0.170421 0.755033 0.478601
Si Si4 0.328178 0.137265 0.126303
Si Si5 0.829958 0.131778 0.604151
Si Si6 0.327381 0.484700 0.790059
Si Si7 0.165237 0.542166 0.058250
Si Si8 0.328601 0.758749 0.790046
O O1 0.500000 0.235045 0.442882
O O2 0.744271 0.199288 0.482037
O O3 0.741318 0.224497 0.402804
O O4 0.703207 0.405357 0.449720
O O5 0.227599 0.215111 0.869049
O O6 0.270078 0.399627 0.824394
O O7 0.179920 0.434789 0.894953
O O8 0.000000 0.333535 0.843184
O O9 0.203287 0.847356 0.442708
O O10 0.222229 0.622714 0.466334
O O11 0.000000 0.749949 0.489210
O O12 0.500000 0.163853 0.120971
O O13 0.279143 0.162855 0.171871
O O14 0.287784 0.002337 0.115305
O O15 0.000000 0.160620 0.613412
O O16 0.250000 0.440867 0.750000
O O17 0.500000 0.468003 0.785595
O O18 0.284600 0.621842 0.799155
O O19 0.000000 0.573074 0.043607
O O20 0.250000 0.806277 0.750000
O O21 0.500000 0.771514 0.781972
#
# Coordination Sequence:
#
# PCOD8218922 Si02
#       8
#     8   8   8   8   8   8   8   8
#     4  11  22  34  51  77 108 139 171 215 269 318
#     4  10  19  33  54  77 102 134 172 213 259 311
#     4  10  20  34  53  76 102 137 179 220 263 311
#     4  10  21  38  57  77 103 138 181 221 257 304
#     4   9  20  38  56  73 100 140 181 221 262 305
#     4  10  19  32  52  80 111 137 165 204 254 312
#     4   9  19  34  51  74 105 137 169 211 266 323
#     4   9  19  35  57  83 109 137 167 206 256 308
#
# _framework density 18.740886
#
# number of rings (size 3 to 8) (size 9 to 14) (size 15 to 20)
#    0.000    2.250    0.000    2.625    0.000    5.500 
#    0.000    3.125    0.000    1.500    0.000    0.000 
#    0.000    0.000    0.000    0.000    0.000    0.000 
#
# Total GULP energy -793780.635546 kJ/mol
# GULP energy per Si atom -12402.822430 kJ/mol
# Density = 1.869823 g / cm^3
# Si number density = 18.740886 Si / 1000 Ang^3
#
#
#
# Elastic Constant Matrix: (Units=GPa)
#
#
# Indices 1 2 3 4 5 6 
#
# 1 85.5466 33.1054 58.8425 0.0000 0.0000 0.0000
# 2 33.1054 36.4423 42.2438 0.0000 0.0000 0.0000
# 3 58.8425 42.2438 137.0265 0.0000 0.0000 0.0000
# 4 0.0000 0.0000 0.0000 19.2200 0.0000 0.0000
# 5 0.0000 0.0000 0.0000 0.0000 35.8899 0.0000
# 6 0.0000 0.0000 0.0000 0.0000 0.0000 22.8470
#
#
#
# Elastic Compliance Matrix: (Units=1/GPa)
#
#
# Indices 1 2 3 4 5 6 
#
# 1 0.019718 -0.012600 -0.004583 0.000000 0.000000 0.000000
# 2 -0.012600 0.050752 -0.010236 0.000000 0.000000 0.000000
# 3 -0.004583 -0.010236 0.012421 0.000000 0.000000 0.000000
# 4 0.000000 0.000000 0.000000 0.052029 0.000000 0.000000
# 5 0.000000 0.000000 0.000000 0.000000 0.027863 0.000000
# 6 0.000000 0.000000 0.000000 0.000000 0.000000 0.043769
#
#
# Mechanical properties :
#
#
# Convention : Reuss Voigt Hill
#
# Bulk Modulus (GPa) = 35.64505 58.59988 47.12247
# Shear Modulus (GPa) = 18.46786 23.91297 21.19041
#
# Velocity S-wave (km/s) = 3.14256 3.57596 3.36624
# Velocity P-wave (km/s) = 5.67705 6.95603 6.34883
#
# Compressibility (1/GPa) = 0.02805439
#
# Stress axis : x y z
#
# Youngs Moduli (GPa) = 50.71554 19.70373 80.50616
#
# Poissons Ratio (x) = 0.24826 0.36895
# Poissons Ratio (y) = 0.63901 0.82403
# Poissons Ratio (z) = 0.23243 0.20168
#
# Static dielectric constant tensor:
#      x y z
#    x 3.471800 0.000000 0.000000 
#    y 0.000000 3.267890 0.000000 
#    z 0.000000 0.000000 3.607310 
# 
# 
# High freq. dielectric constant tensor:
#      x y z
#    x 1.732910 0.000000 0.000000 
#    y 0.000000 1.710310 0.000000 
#    z 0.000000 0.000000 1.736530 
# 
# From -- ./inp_files/38161.got.cif
#   From: 2010.03.12/outbox.cif.g09.slc.cpg/sg53_20_cif.got.tgz:38161.got - 2010.04.16 14:36:59.
