data_PCOD8218351
_publ_section_title
;
Structure prediction by ZEFSAII (Michael W. Deem and Ramdas Pophale) SiO2 
 PCOD8218351
Probable space group: P M N A
;
_chemical_formula_sum "Si O2"
_cell_formula_units_Z 64
_cell_length_a 8.833493
_cell_length_b 18.258028
_cell_length_c 26.199780
_cell_angle_alpha 90.000000
_cell_angle_beta 90.000000
_cell_angle_gamma 90.000000
_cell_volume 4225.557176
_symmetry_space_group_name_H-M "P M N A"
_symmetry_group_IT_number 53
_symmetry_cell_setting 'orthorhombic'
loop_
_space_group_symop_operation_xyz
x,y,z
1/2-x,-y,1/2+z
x,-y,-z
1/2-x,y,1/2-z
-x,-y,-z
1/2+x,y,1/2-z
-x,y,z
1/2+x,-y,1/2+z
loop_
_atom_site_type_symbol
_atom_site_label
_atom_site_fract_x
_atom_site_fract_y
_atom_site_fract_z
Si Si1 0.333689 0.038442 0.945818
Si Si2 0.178833 0.826677 0.506287
Si Si3 0.822496 0.587004 0.897061
Si Si4 0.322266 0.091461 0.399651
Si Si5 0.170416 0.456881 0.552587
Si Si6 0.822225 0.161882 0.303178
Si Si7 0.322931 0.328506 0.500498
Si Si8 0.822166 0.669459 0.696675
O O1 0.500000 0.038108 0.919569
O O2 0.279137 0.121469 0.957701
O O3 0.216449 0.993853 0.910793
O O4 0.346932 0.000000 0.000000
O O5 0.259222 0.854230 0.557465
O O6 0.233622 0.746412 0.492373
O O7 0.000000 0.827781 0.516639
O O8 0.752526 0.506438 0.905049
O O9 0.785335 0.639057 0.944916
O O10 0.748182 0.620771 0.847375
O O11 0.000000 0.578466 0.888892
O O12 0.500000 0.101841 0.396693
O O13 0.249284 0.111233 0.346060
O O14 0.167976 0.500000 0.500000
O O15 0.264852 0.382479 0.544934
O O16 0.000000 0.438469 0.570580
O O17 0.750000 0.137165 0.250000
O O18 0.782342 0.246238 0.314984
O O19 0.000000 0.148742 0.300781
O O20 0.500000 0.315072 0.507755
O O21 0.750000 0.644544 0.750000
O O22 0.000000 0.656066 0.699226
#
# Coordination Sequence:
#
# PCOD8218351 Si02
#       8
#     8   8   8   8   8   8   8   8
#     4   8  16  30  44  59  82 112 144 178 215 254
#     4  10  19  30  44  62  86 116 148 180 215 256
#     4  10  19  30  44  62  86 115 146 179 215 255
#     4  11  20  29  44  64  86 114 147 180 217 259
#     4   9  17  29  44  61  83 112 145 178 212 253
#     4  10  20  33  47  63  86 114 146 183 219 255
#     4  10  19  29  43  64  89 115 144 179 217 257
#     4  10  20  32  46  63  84 112 145 181 218 254
#
# _framework density 15.145930999999999
#
# number of rings (size 3 to 8) (size 9 to 14) (size 15 to 20)
#    0.000    2.250    0.000    4.875    0.000    9.250 
#    0.000    0.000    0.000    0.000    0.000    0.000 
#    0.000    1.000    0.000    5.500    0.000    5.875 
#
# Total GULP energy -793596.943199 kJ/mol
# GULP energy per Si atom -12399.952237 kJ/mol
# Density = 1.511146 g / cm^3
# Si number density = 15.145931 Si / 1000 Ang^3
#
#
#
# Elastic Constant Matrix: (Units=GPa)
#
#
# Indices 1 2 3 4 5 6 
#
# 1 84.3928 37.4665 47.2628 0.0000 0.0000 0.0000
# 2 37.4665 86.5067 51.7420 0.0000 0.0000 0.0000
# 3 47.2628 51.7420 83.7894 0.0000 0.0000 0.0000
# 4 0.0000 0.0000 0.0000 25.6792 0.0000 0.0000
# 5 0.0000 0.0000 0.0000 0.0000 25.5889 0.0000
# 6 0.0000 0.0000 0.0000 0.0000 0.0000 37.0389
#
#
#
# Elastic Compliance Matrix: (Units=1/GPa)
#
#
# Indices 1 2 3 4 5 6 
#
# 1 0.017706 -0.002688 -0.008328 0.000000 0.000000 0.000000
# 2 -0.002688 0.018738 -0.010055 0.000000 0.000000 0.000000
# 3 -0.008328 -0.010055 0.022842 0.000000 0.000000 0.000000
# 4 0.000000 0.000000 0.000000 0.038942 0.000000 0.000000
# 5 0.000000 0.000000 0.000000 0.000000 0.039079 0.000000
# 6 0.000000 0.000000 0.000000 0.000000 0.000000 0.026999
#
#
# Mechanical properties :
#
#
# Convention : Reuss Voigt Hill
#
# Bulk Modulus (GPa) = 58.32768 58.62573 58.47671
# Shear Modulus (GPa) = 23.56678 25.54255 24.55467
#
# Velocity S-wave (km/s) = 3.94887 4.11107 4.03079
# Velocity P-wave (km/s) = 7.70620 7.83108 7.76889
#
# Compressibility (1/GPa) = 0.01714452
#
# Stress axis : x y z
#
# Youngs Moduli (GPa) = 56.47656 53.36705 43.77970
#
# Poissons Ratio (x) = 0.14343 0.36460
# Poissons Ratio (y) = 0.15178 0.44022
# Poissons Ratio (z) = 0.47034 0.53662
#
# Static dielectric constant tensor:
#      x y z
#    x 3.075840 0.000000 0.000000 
#    y 0.000000 3.080690 0.000000 
#    z 0.000000 0.000000 2.717430 
# 
# 
# High freq. dielectric constant tensor:
#      x y z
#    x 1.600000 0.000000 0.000000 
#    y 0.000000 1.571140 0.000000 
#    z 0.000000 0.000000 1.545480 
# 
# From -- ./inp_files/34481.got.cif
#   From: 2010.03.12/outbox.cif.g09.slc.cpg/sg53_18_cif.got.tgz:34481.got - 2010.04.16 14:36:59.
