data_PCOD8218680
_publ_section_title
;
Structure prediction by ZEFSAII (Michael W. Deem and Ramdas Pophale) SiO2 
 PCOD8218680
Probable space group: P M N A
;
_chemical_formula_sum "Si O2"
_cell_formula_units_Z 56
_cell_length_a 9.539631
_cell_length_b 15.149585
_cell_length_c 20.536275
_cell_angle_alpha 90.000000
_cell_angle_beta 90.000000
_cell_angle_gamma 90.000000
_cell_volume 2967.932255
_symmetry_space_group_name_H-M "P M N A"
_symmetry_group_IT_number 53
_symmetry_cell_setting 'orthorhombic'
loop_
_space_group_symop_operation_xyz
x,y,z
1/2-x,-y,1/2+z
x,-y,-z
1/2-x,y,1/2-z
-x,-y,-z
1/2+x,y,1/2-z
-x,y,z
1/2+x,-y,1/2+z
loop_
_atom_site_type_symbol
_atom_site_label
_atom_site_fract_x
_atom_site_fract_y
_atom_site_fract_z
Si Si1 0.334101 0.583582 0.457826
Si Si2 0.844790 0.181069 0.125958
Si Si3 0.335242 0.450125 0.687034
Si Si4 0.845492 0.351138 0.195263
Si Si5 0.337162 0.960046 0.811397
Si Si6 0.338622 0.065878 0.942911
Si Si7 0.161296 0.219718 0.982507
O O1 0.271258 0.500000 0.500000
O O2 0.500000 0.571814 0.459039
O O3 0.284914 0.589692 0.382038
O O4 0.286606 0.678407 0.486969
O O5 0.839222 0.287093 0.133599
O O6 0.727346 0.134712 0.169490
O O7 0.818493 0.168019 0.050156
O O8 0.000000 0.145705 0.146018
O O9 0.250000 0.412238 0.750000
O O10 0.500000 0.433680 0.699662
O O11 0.294410 0.552102 0.675981
O O12 0.750000 0.307388 0.250000
O O13 0.000000 0.357917 0.225035
O O14 0.250000 0.998418 0.750000
O O15 0.500000 0.948076 0.792872
O O16 0.316978 0.023326 0.872518
O O17 0.500000 0.088447 0.957241
O O18 0.254938 0.158276 0.936071
O O19 0.283275 0.000000 0.000000
O O20 0.000000 0.218389 0.958888
#
# Coordination Sequence:
#
# PCOD8218680 Si02
#       7
#     8   8   8   8   8   8   8
#     4   9  17  32  55  83 113 145 184 231 280 327
#     4  10  19  31  49  77 110 139 174 222 277 331
#     4   9  17  31  51  72 101 142 184 225 271 324
#     4   9  17  28  43  67  99 136 175 215 264 324
#     4  11  23  38  57  80 109 144 182 225 276 332
#     4  10  21  40  60  79 108 147 184 221 275 336
#     4  10  20  33  56  86 109 139 187 235 274 323
#
# _framework density 18.868354
#
# number of rings (size 3 to 8) (size 9 to 14) (size 15 to 20)
#    0.000    2.286    1.429    1.714    0.000    6.571 
#    0.000    1.429    0.000    6.857    0.000    0.000 
#    0.000    0.000    0.000    0.000    0.000    0.000 
#
# Total GULP energy -693892.125311 kJ/mol
# GULP energy per Si atom -12390.930809 kJ/mol
# Density = 1.882541 g / cm^3
# Si number density = 18.868354 Si / 1000 Ang^3
#
#
#
# Elastic Constant Matrix: (Units=GPa)
#
#
# Indices 1 2 3 4 5 6 
#
# 1 74.9643 40.7629 43.4209 0.0000 0.0000 0.0000
# 2 40.7629 93.4812 30.4035 0.0000 0.0000 0.0000
# 3 43.4209 30.4035 102.6287 0.0000 0.0000 0.0000
# 4 0.0000 0.0000 0.0000 24.4856 0.0000 0.0000
# 5 0.0000 0.0000 0.0000 0.0000 28.2087 0.0000
# 6 0.0000 0.0000 0.0000 0.0000 0.0000 22.5653
#
#
#
# Elastic Compliance Matrix: (Units=1/GPa)
#
#
# Indices 1 2 3 4 5 6 
#
# 1 0.021106 -0.006971 -0.006865 0.000000 0.000000 0.000000
# 2 -0.006971 0.014140 -0.001240 0.000000 0.000000 0.000000
# 3 -0.006865 -0.001240 0.013016 0.000000 0.000000 0.000000
# 4 0.000000 0.000000 0.000000 0.040840 0.000000 0.000000
# 5 0.000000 0.000000 0.000000 0.000000 0.035450 0.000000
# 6 0.000000 0.000000 0.000000 0.000000 0.000000 0.044316
#
#
# Mechanical properties :
#
#
# Convention : Reuss Voigt Hill
#
# Bulk Modulus (GPa) = 55.21368 55.58322 55.39845
# Shear Modulus (GPa) = 24.38356 25.48439 24.93398
#
# Velocity S-wave (km/s) = 3.59876 3.67909 3.63915
# Velocity P-wave (km/s) = 6.82599 6.89710 6.86164
#
# Compressibility (1/GPa) = 0.01811145
#
# Stress axis : x y z
#
# Youngs Moduli (GPa) = 47.37892 70.72026 76.83135
#
# Poissons Ratio (x) = 0.49298 0.52743
# Poissons Ratio (y) = 0.33027 0.09525
# Poissons Ratio (z) = 0.32525 0.08767
#
# Static dielectric constant tensor:
#      x y z
#    x 3.791180 0.000000 0.000000 
#    y 0.000000 3.312160 0.000000 
#    z 0.000000 0.000000 3.597040 
# 
# 
# High freq. dielectric constant tensor:
#      x y z
#    x 1.711390 0.000000 0.000000 
#    y 0.000000 1.720000 0.000000 
#    z 0.000000 0.000000 1.734060 
# 
# From -- ./inp_files/30745.got.cif
#   From: 2010.03.12/outbox.cif.g09.slc.cpg/sg53_16_cif.got.tgz:30745.got - 2010.04.16 14:36:59.
