data_PCOD8218892
_publ_section_title
;
Structure prediction by ZEFSAII (Michael W. Deem and Ramdas Pophale) SiO2 
 PCOD8218892
Probable space group: P M N A
;
_chemical_formula_sum "Si O2"
_cell_formula_units_Z 48
_cell_length_a 8.855682
_cell_length_b 18.359353
_cell_length_c 15.271966
_cell_angle_alpha 90.000000
_cell_angle_beta 90.000000
_cell_angle_gamma 90.000000
_cell_volume 2482.986360
_symmetry_space_group_name_H-M "P M N A"
_symmetry_group_IT_number 53
_symmetry_cell_setting 'orthorhombic'
loop_
_space_group_symop_operation_xyz
x,y,z
1/2-x,-y,1/2+z
x,-y,-z
1/2-x,y,1/2-z
-x,-y,-z
1/2+x,y,1/2-z
-x,y,z
1/2+x,-y,1/2+z
loop_
_atom_site_type_symbol
_atom_site_label
_atom_site_fract_x
_atom_site_fract_y
_atom_site_fract_z
Si Si1 0.174664 0.334154 0.518326
Si Si2 0.169158 0.036805 0.905820
Si Si3 0.176916 0.589364 0.660606
Si Si4 0.823564 0.833267 0.483824
Si Si5 0.321096 0.434757 0.659044
Si Si6 0.822883 0.902690 0.663819
O O1 0.207216 0.353951 0.417304
O O2 0.217038 0.250287 0.532956
O O3 0.281034 0.379883 0.581591
O O4 0.000000 0.349888 0.541120
O O5 0.238785 0.117857 0.911502
O O6 0.000000 0.042589 0.868411
O O7 0.267931 0.986428 0.842315
O O8 0.171789 0.000000 0.000000
O O9 0.250000 0.620713 0.750000
O O10 0.253705 0.513235 0.634798
O O11 0.000000 0.576061 0.676073
O O12 0.768844 0.855207 0.581067
O O13 0.000000 0.849003 0.474504
O O14 0.250000 0.406132 0.750000
O O15 0.500000 0.440379 0.668911
O O16 0.750000 0.866530 0.750000
O O17 0.000000 0.901604 0.674199
#
# Coordination Sequence:
#
# PCOD8218892 Si02
#       6
#     8   8   8   8   8   8
#     4  10  21  37  56  80 112 148 182 220 272 328
#     4   9  17  31  51  73  97 127 165 207 248 294
#     4  10  20  35  56  81 111 146 183 225 270 319
#     4   9  19  35  53  74 104 140 173 209 259 316
#     4  11  22  37  58  81 106 139 182 231 277 324
#     4  10  19  32  52  77 104 136 173 213 258 308
#
# _framework density 19.33156
#
# number of rings (size 3 to 8) (size 9 to 14) (size 15 to 20)
#    0.000    2.167    0.000    4.500    0.000    7.333 
#    0.000    0.833    0.000    4.000    0.000    0.000 
#    0.000    0.000    0.000    0.000    0.000    0.000 
#
# Total GULP energy -595259.226852 kJ/mol
# GULP energy per Si atom -12401.233893 kJ/mol
# Density = 1.928756 g / cm^3
# Si number density = 19.331560 Si / 1000 Ang^3
#
#
#
# Elastic Constant Matrix: (Units=GPa)
#
#
# Indices 1 2 3 4 5 6 
#
# 1 93.9643 22.9557 19.0966 0.0000 0.0000 0.0000
# 2 22.9557 64.2183 5.0285 0.0000 0.0000 0.0000
# 3 19.0966 5.0285 42.6572 0.0000 0.0000 0.0000
# 4 0.0000 0.0000 0.0000 17.5736 0.0000 0.0000
# 5 0.0000 0.0000 0.0000 0.0000 34.4425 0.0000
# 6 0.0000 0.0000 0.0000 0.0000 0.0000 21.8694
#
#
#
# Elastic Compliance Matrix: (Units=1/GPa)
#
#
# Indices 1 2 3 4 5 6 
#
# 1 0.012710 -0.004136 -0.005202 0.000000 0.000000 0.000000
# 2 -0.004136 0.017063 -0.000160 0.000000 0.000000 0.000000
# 3 -0.005202 -0.000160 0.025791 0.000000 0.000000 0.000000
# 4 0.000000 0.000000 0.000000 0.056903 0.000000 0.000000
# 5 0.000000 0.000000 0.000000 0.000000 0.029034 0.000000
# 6 0.000000 0.000000 0.000000 0.000000 0.000000 0.045726
#
#
# Mechanical properties :
#
#
# Convention : Reuss Voigt Hill
#
# Bulk Modulus (GPa) = 27.34708 32.77794 30.06251
# Shear Modulus (GPa) = 22.89247 25.02770 23.96008
#
# Velocity S-wave (km/s) = 3.44496 3.60203 3.52437
# Velocity P-wave (km/s) = 5.47729 5.85594 5.66978
#
# Compressibility (1/GPa) = 0.03656697
#
# Stress axis : x y z
#
# Youngs Moduli (GPa) = 78.67766 58.60680 38.77387
#
# Poissons Ratio (x) = 0.24240 0.20172
# Poissons Ratio (y) = 0.32541 0.00620
# Poissons Ratio (z) = 0.40932 0.00937
#
# Static dielectric constant tensor:
#      x y z
#    x 3.589960 0.000000 0.000000 
#    y 0.000000 3.433720 0.000000 
#    z 0.000000 0.000000 3.540810 
# 
# 
# High freq. dielectric constant tensor:
#      x y z
#    x 1.758940 0.000000 0.000000 
#    y 0.000000 1.740510 0.000000 
#    z 0.000000 0.000000 1.746910 
# 
# From -- ./inp_files/20137.got.cif
#   From: 2010.03.12/outbox.cif.g09.slc.cpg/sg53_11_cif.got.tgz:20137.got - 2010.04.16 14:36:59.
