data_PCOD8218683
_publ_section_title
;
Structure prediction by ZEFSAII (Michael W. Deem and Ramdas Pophale) SiO2 
 PCOD8218683
Probable space group: P M N A
;
_chemical_formula_sum "Si O2"
_cell_formula_units_Z 64
_cell_length_a 9.182839
_cell_length_b 27.059454
_cell_length_c 14.689978
_cell_angle_alpha 90.000000
_cell_angle_beta 90.000000
_cell_angle_gamma 90.000000
_cell_volume 3650.204067
_symmetry_space_group_name_H-M "P M N A"
_symmetry_group_IT_number 53
_symmetry_cell_setting 'orthorhombic'
loop_
_space_group_symop_operation_xyz
x,y,z
1/2-x,-y,1/2+z
x,-y,-z
1/2-x,y,1/2-z
-x,-y,-z
1/2+x,y,1/2-z
-x,y,z
1/2+x,-y,1/2+z
loop_
_atom_site_type_symbol
_atom_site_label
_atom_site_fract_x
_atom_site_fract_y
_atom_site_fract_z
Si Si1 0.670316 0.420256 0.660825
Si Si2 0.826643 0.082859 0.838424
Si Si3 0.831701 0.309696 0.341071
Si Si4 0.330692 0.619207 0.530563
Si Si5 0.169262 0.194125 0.341740
Si Si6 0.157337 0.018835 0.100913
Si Si7 0.825994 0.120071 0.034843
Si Si8 0.668855 0.532086 0.661877
O O1 0.750000 0.399047 0.750000
O O2 0.500000 0.418806 0.679825
O O3 0.711192 0.385845 0.575398
O O4 0.721475 0.476417 0.639883
O O5 0.750000 0.107154 0.750000
O O6 0.000000 0.082013 0.826142
O O7 0.762510 0.026184 0.846580
O O8 0.785383 0.114215 0.928200
O O9 0.750000 0.327340 0.250000
O O10 0.765838 0.337323 0.427945
O O11 0.808471 0.251963 0.358184
O O12 0.000000 0.323566 0.329682
O O13 0.500000 0.632696 0.543450
O O14 0.294252 0.566670 0.576638
O O15 0.250000 0.176856 0.250000
O O16 0.243012 0.167791 0.428052
O O17 0.000000 0.179925 0.334053
O O18 0.234765 0.072550 0.093452
O O19 0.000000 0.027236 0.147595
O O20 0.129277 0.000000 0.000000
O O21 0.000000 0.125244 0.046202
O O22 0.750000 0.553591 0.750000
O O23 0.500000 0.532827 0.685062
#
# Coordination Sequence:
#
# PCOD8218683 Si02
#       8
#     8   8   8   8   8   8   8   8
#     4   9  18  32  48  68  97 132 166 199 235 276
#     4   9  17  29  46  69  99 134 166 197 235 278
#     4  10  21  36  53  74  99 124 152 191 240 291
#     4  10  19  31  50  73  97 128 163 198 238 283
#     4  10  21  36  53  73  97 124 154 193 241 290
#     4   7  12  25  43  63  90 124 159 193 230 272
#     4   9  17  31  51  72  96 128 164 200 238 282
#     4   9  17  29  45  68  99 131 161 194 233 278
#
# _framework density 17.533266000000001
#
# number of rings (size 3 to 8) (size 9 to 14) (size 15 to 20)
#    0.000    2.875    0.000    3.000    0.000    6.000 
#    0.000    1.875    0.000    6.750    0.000    0.000 
#    0.000    0.000    0.000    0.000    0.000    0.000 
#
# Total GULP energy -793161.976943 kJ/mol
# GULP energy per Si atom -12393.155890 kJ/mol
# Density = 1.749336 g / cm^3
# Si number density = 17.533266 Si / 1000 Ang^3
#
#
#
# Elastic Constant Matrix: (Units=GPa)
#
#
# Indices 1 2 3 4 5 6 
#
# 1 68.8573 41.7879 60.2636 0.0000 0.0000 0.0000
# 2 41.7879 61.6560 52.3461 0.0000 0.0000 0.0000
# 3 60.2636 52.3461 132.6746 0.0000 0.0000 0.0000
# 4 0.0000 0.0000 0.0000 25.6633 0.0000 0.0000
# 5 0.0000 0.0000 0.0000 0.0000 31.6047 0.0000
# 6 0.0000 0.0000 0.0000 0.0000 0.0000 -6.3399
#
#
#
# Elastic Compliance Matrix: (Units=1/GPa)
#
#
# Indices 1 2 3 4 5 6 
#
# 1 0.029786 -0.013084 -0.008367 0.000000 0.000000 0.000000
# 2 -0.013084 0.030136 -0.005947 0.000000 0.000000 0.000000
# 3 -0.008367 -0.005947 0.013684 0.000000 0.000000 0.000000
# 4 0.000000 0.000000 0.000000 0.038966 0.000000 0.000000
# 5 0.000000 0.000000 0.000000 0.000000 0.031641 0.000000
# 6 0.000000 0.000000 0.000000 0.000000 0.000000 -0.157730
#
#
# Mechanical properties :
#
#
# Convention : Reuss Voigt Hill
#
# Bulk Modulus (GPa) = 53.16395 63.55369 58.35882
# Shear Modulus (GPa) = 105.15442 17.43829 61.29636
#
# Velocity S-wave (km/s) = 7.75270 3.15712 5.91912
# Velocity P-wave (km/s) = 10.51317 7.04387 8.94827
#
# Compressibility (1/GPa) = 0.01880974
#
# Stress axis : x y z
#
# Youngs Moduli (GPa) = 33.57260 33.18324 73.07715
#
# Poissons Ratio (x) = 0.43417 0.61146
# Poissons Ratio (y) = 0.43926 0.43458
# Poissons Ratio (z) = 0.28091 0.19734
#
# Static dielectric constant tensor:
#      x y z
#    x 3.109950 0.000000 0.000000 
#    y 0.000000 3.187290 0.000000 
#    z 0.000000 0.000000 3.370390 
# 
# 
# High freq. dielectric constant tensor:
#      x y z
#    x 1.662580 0.000000 0.000000 
#    y 0.000000 1.659350 0.000000 
#    z 0.000000 0.000000 1.673000 
# 
# From -- ./inp_files/21073.got.cif
#   From: 2010.03.12/outbox.cif.g09.slc.cpg/sg53_11_cif.got.tgz:21073.got - 2010.04.16 14:36:59.
