data_PCOD8218469
_publ_section_title
;
Structure prediction by ZEFSAII (Michael W. Deem and Ramdas Pophale) SiO2 
 PCOD8218469
Probable space group: P M N A
;
_chemical_formula_sum "Si O2"
_cell_formula_units_Z 64
_cell_length_a 9.665703
_cell_length_b 15.461961
_cell_length_c 25.061378
_cell_angle_alpha 90.000000
_cell_angle_beta 90.000000
_cell_angle_gamma 90.000000
_cell_volume 3745.441057
_symmetry_space_group_name_H-M "P M N A"
_symmetry_group_IT_number 53
_symmetry_cell_setting 'orthorhombic'
loop_
_space_group_symop_operation_xyz
x,y,z
1/2-x,-y,1/2+z
x,-y,-z
1/2-x,y,1/2-z
-x,-y,-z
1/2+x,y,1/2-z
-x,y,z
1/2+x,-y,1/2+z
loop_
_atom_site_type_symbol
_atom_site_label
_atom_site_fract_x
_atom_site_fract_y
_atom_site_fract_z
Si Si1 0.843075 0.132858 0.568827
Si Si2 0.845436 0.951075 0.611538
Si Si3 0.336549 0.626862 0.527389
Si Si4 0.843064 0.007255 0.797321
Si Si5 0.845251 0.193278 0.838088
Si Si6 0.837622 0.450558 0.916766
Si Si7 0.158015 0.787887 0.540615
Si Si8 0.337324 0.381964 0.698352
O O1 0.757092 0.183038 0.613028
O O2 0.788844 0.164714 0.512252
O O3 0.000000 0.161094 0.578855
O O4 0.828634 0.028794 0.568985
O O5 0.719232 0.961725 0.651351
O O6 0.827412 0.856882 0.587381
O O7 0.000000 0.959185 0.637575
O O8 0.500000 0.643850 0.528476
O O9 0.298052 0.548023 0.567000
O O10 0.285339 0.610015 0.466110
O O11 0.256316 0.707381 0.552510
O O12 0.750000 0.971748 0.750000
O O13 0.000000 0.976172 0.789967
O O14 0.832660 0.111181 0.799181
O O15 0.810535 0.279362 0.805190
O O16 0.000000 0.199651 0.861886
O O17 0.780838 0.424841 0.857597
O O18 0.000000 0.438533 0.914181
O O19 0.000000 0.755853 0.535441
O O20 0.250000 0.416173 0.750000
O O21 0.500000 0.403258 0.707356
#
# Coordination Sequence:
#
# PCOD8218469 Si02
#       8
#     8   8   8   8   8   8   8   8
#     4   9  17  29  46  67  94 129 161 187 222 272
#     4   9  18  32  47  64  92 128 159 188 227 275
#     4   9  17  32  54  73  90 120 159 197 238 282
#     4  10  19  31  47  67  91 120 157 197 235 273
#     4   9  18  30  45  68  96 124 156 193 227 265
#     4   8  16  32  52  72  94 122 157 193 232 282
#     4  10  19  30  46  71  99 123 151 190 235 277
#     4  10  19  31  47  69  98 128 156 187 227 278
#
# _framework density 17.087440000000001
#
# number of rings (size 3 to 8) (size 9 to 14) (size 15 to 20)
#    0.000    2.750    0.000    2.625    0.000    4.500 
#    0.000    2.500    0.000    4.500    0.000    3.500 
#    0.000    0.000    0.000    0.000    0.000    0.000 
#
# Total GULP energy -793149.251660 kJ/mol
# GULP energy per Si atom -12392.957057 kJ/mol
# Density = 1.704855 g / cm^3
# Si number density = 17.087440 Si / 1000 Ang^3
#
#
#
# Elastic Constant Matrix: (Units=GPa)
#
#
# Indices 1 2 3 4 5 6 
#
# 1 78.2442 39.0567 39.7371 0.0000 0.0000 0.0000
# 2 39.0567 78.3130 32.6080 0.0000 0.0000 0.0000
# 3 39.7371 32.6080 78.5564 0.0000 0.0000 0.0000
# 4 0.0000 0.0000 0.0000 14.3295 0.0000 0.0000
# 5 0.0000 0.0000 0.0000 0.0000 15.0843 0.0000
# 6 0.0000 0.0000 0.0000 0.0000 0.0000 25.3944
#
#
#
# Elastic Compliance Matrix: (Units=1/GPa)
#
#
# Indices 1 2 3 4 5 6 
#
# 1 0.019887 -0.006927 -0.007184 0.000000 0.000000 0.000000
# 2 -0.006927 0.017850 -0.003906 0.000000 0.000000 0.000000
# 3 -0.007184 -0.003906 0.017985 0.000000 0.000000 0.000000
# 4 0.000000 0.000000 0.000000 0.069786 0.000000 0.000000
# 5 0.000000 0.000000 0.000000 0.000000 0.066294 0.000000
# 6 0.000000 0.000000 0.000000 0.000000 0.000000 0.039379
#
#
# Mechanical properties :
#
#
# Convention : Reuss Voigt Hill
#
# Bulk Modulus (GPa) = 50.79082 50.87971 50.83526
# Shear Modulus (GPa) = 18.26310 19.20910 18.73610
#
# Velocity S-wave (km/s) = 3.27280 3.35649 3.31491
# Velocity P-wave (km/s) = 6.63854 6.69792 6.66830
#
# Compressibility (1/GPa) = 0.01968860
#
# Stress axis : x y z
#
# Youngs Moduli (GPa) = 50.28499 56.02261 55.60182
#
# Poissons Ratio (x) = 0.38804 0.39946
# Poissons Ratio (y) = 0.34830 0.21716
# Poissons Ratio (z) = 0.36127 0.21880
#
# Static dielectric constant tensor:
#      x y z
#    x 3.126630 0.000000 0.000000 
#    y 0.000000 3.081820 0.000000 
#    z 0.000000 0.000000 3.210520 
# 
# 
# High freq. dielectric constant tensor:
#      x y z
#    x 1.651630 0.000000 0.000000 
#    y 0.000000 1.642010 0.000000 
#    z 0.000000 0.000000 1.649060 
# 
# From -- ./inp_files/34155.got.cif
#   From: 2010.03.12/outbox.cif.g09.slc.cpg/sg53_18_cif.got.tgz:34155.got - 2010.04.16 14:36:59.
