data_PCOD8218596
_publ_section_title
;
Structure prediction by ZEFSAII (Michael W. Deem and Ramdas Pophale) SiO2 
 PCOD8218596
Probable space group: P M N A
;
_chemical_formula_sum "Si O2"
_cell_formula_units_Z 64
_cell_length_a 8.943500
_cell_length_b 15.364458
_cell_length_c 28.497645
_cell_angle_alpha 90.000000
_cell_angle_beta 90.000000
_cell_angle_gamma 90.000000
_cell_volume 3915.919253
_symmetry_space_group_name_H-M "P M N A"
_symmetry_group_IT_number 53
_symmetry_cell_setting 'orthorhombic'
loop_
_space_group_symop_operation_xyz
x,y,z
1/2-x,-y,1/2+z
x,-y,-z
1/2-x,y,1/2-z
-x,-y,-z
1/2+x,y,1/2-z
-x,y,z
1/2+x,-y,1/2+z
loop_
_atom_site_type_symbol
_atom_site_label
_atom_site_fract_x
_atom_site_fract_y
_atom_site_fract_z
Si Si1 0.325795 0.340543 0.605898
Si Si2 0.324557 0.817646 0.551247
Si Si3 0.822657 0.386670 0.201685
Si Si4 0.672935 0.163753 0.556899
Si Si5 0.326060 0.586312 0.296499
Si Si6 0.823134 0.505853 0.447399
Si Si7 0.668029 0.008066 0.055539
Si Si8 0.322064 0.336240 0.108231
O O1 0.500000 0.361782 0.598994
O O2 0.286818 0.242602 0.591413
O O3 0.277237 0.354045 0.659821
O O4 0.234266 0.404631 0.573384
O O5 0.500000 0.806464 0.561000
O O6 0.285232 0.809466 0.496196
O O7 0.231756 0.744504 0.577705
O O8 0.270548 0.910933 0.571079
O O9 0.750000 0.352359 0.250000
O O10 0.775723 0.487158 0.193767
O O11 0.753398 0.330988 0.159322
O O12 0.000000 0.373477 0.203348
O O13 0.500000 0.137864 0.559104
O O14 0.765450 0.081424 0.576076
O O15 0.250000 0.624512 0.250000
O O16 0.500000 0.590126 0.287235
O O17 0.759219 0.500000 0.500000
O O18 0.765358 0.423876 0.417415
O O19 0.000000 0.507781 0.447620
O O20 0.500000 0.021481 0.074631
O O21 0.669951 0.000000 0.000000
O O22 0.500000 0.333587 0.113386
#
# Coordination Sequence:
#
# PCOD8218596 Si02
#       8
#     8   8   8   8   8   8   8   8
#     4  10  19  32  48  69  94 125 162 198 236 281
#     4  10  19  31  48  70  96 128 163 199 239 285
#     4  10  19  33  51  70  93 122 160 203 247 288
#     4   9  18  31  48  70  97 127 161 199 239 286
#     4   9  18  31  48  68  91 120 157 200 242 282
#     4  10  21  33  44  63  95 132 165 196 231 275
#     4   9  17  30  48  69  94 124 158 198 242 286
#     4  11  21  32  47  69  97 129 164 200 240 285
#
# _framework density 16.343544999999999
#
# number of rings (size 3 to 8) (size 9 to 14) (size 15 to 20)
#    0.000    2.250    1.250    2.250    0.000    4.250 
#    0.000    0.000    0.000    0.000    0.000    0.875 
#    0.000    2.000    0.000    0.000    0.000    0.000 
#
# Total GULP energy -793713.629275 kJ/mol
# GULP energy per Si atom -12401.775457 kJ/mol
# Density = 1.630635 g / cm^3
# Si number density = 16.343545 Si / 1000 Ang^3
#
#
#
# Elastic Constant Matrix: (Units=GPa)
#
#
# Indices 1 2 3 4 5 6 
#
# 1 50.3452 21.3743 28.3637 0.0000 0.0000 0.0000
# 2 21.3743 57.9095 23.5741 0.0000 0.0000 0.0000
# 3 28.3637 23.5741 83.4147 0.0000 0.0000 0.0000
# 4 0.0000 0.0000 0.0000 4.0569 0.0000 0.0000
# 5 0.0000 0.0000 0.0000 0.0000 24.7800 0.0000
# 6 0.0000 0.0000 0.0000 0.0000 0.0000 29.4688
#
#
#
# Elastic Compliance Matrix: (Units=1/GPa)
#
#
# Indices 1 2 3 4 5 6 
#
# 1 0.026868 -0.007004 -0.007157 0.000000 0.000000 0.000000
# 2 -0.007004 0.021339 -0.003649 0.000000 0.000000 0.000000
# 3 -0.007157 -0.003649 0.015453 0.000000 0.000000 0.000000
# 4 0.000000 0.000000 0.000000 0.246495 0.000000 0.000000
# 5 0.000000 0.000000 0.000000 0.000000 0.040355 0.000000
# 6 0.000000 0.000000 0.000000 0.000000 0.000000 0.033934
#
#
# Mechanical properties :
#
#
# Convention : Reuss Voigt Hill
#
# Bulk Modulus (GPa) = 35.66187 37.58817 36.62502
# Shear Modulus (GPa) = 11.64386 19.55163 15.59774
#
# Velocity S-wave (km/s) = 2.67206 3.46250 3.09263
# Velocity P-wave (km/s) = 5.60245 6.24771 5.93386
#
# Compressibility (1/GPa) = 0.02804115
#
# Stress axis : x y z
#
# Youngs Moduli (GPa) = 37.21856 46.86283 64.71172
#
# Poissons Ratio (x) = 0.32821 0.46313
# Poissons Ratio (y) = 0.26066 0.23614
# Poissons Ratio (z) = 0.26637 0.17101
#
# Static dielectric constant tensor:
#      x y z
#    x 3.107940 0.000000 0.000000 
#    y 0.000000 3.053180 0.000000 
#    z 0.000000 0.000000 3.112180 
# 
# 
# High freq. dielectric constant tensor:
#      x y z
#    x 1.636750 0.000000 0.000000 
#    y 0.000000 1.615760 0.000000 
#    z 0.000000 0.000000 1.610500 
# 
# From -- ./inp_files/38429.got.cif
#   From: 2010.03.12/outbox.cif.g09.slc.cpg/sg53_20_cif.got.tgz:38429.got - 2010.04.16 14:36:59.
