data_PCOD8218692
_publ_section_title
;
Structure prediction by ZEFSAII (Michael W. Deem and Ramdas Pophale) SiO2 
 PCOD8218692
Probable space group: P M N A
;
_chemical_formula_sum "Si O2"
_cell_formula_units_Z 60
_cell_length_a 22.675421
_cell_length_b 11.984678
_cell_length_c 12.112301
_cell_angle_alpha 90.000000
_cell_angle_beta 90.000000
_cell_angle_gamma 90.000000
_cell_volume 3291.610083
_symmetry_space_group_name_H-M "P M N A"
_symmetry_group_IT_number 53
_symmetry_cell_setting 'orthorhombic'
loop_
_space_group_symop_operation_xyz
x,y,z
1/2-x,-y,1/2+z
x,-y,-z
1/2-x,y,1/2-z
-x,-y,-z
1/2+x,y,1/2-z
-x,y,z
1/2+x,-y,1/2+z
loop_
_atom_site_type_symbol
_atom_site_label
_atom_site_fract_x
_atom_site_fract_y
_atom_site_fract_z
Si Si1 0.933558 0.287927 0.621334
Si Si2 0.624940 0.878006 0.956257
Si Si3 0.750000 0.574639 0.750000
Si Si4 0.644693 0.870833 0.530803
Si Si5 0.761327 0.262993 0.452796
Si Si6 0.178974 0.423688 0.604262
Si Si7 0.432174 0.916693 0.728960
Si Si8 0.565043 0.163228 0.659862
O O1 0.911474 0.182563 0.551863
O O2 0.889519 0.391406 0.609900
O O3 0.932548 0.259065 0.749829
O O4 0.000000 0.321564 0.584644
O O5 0.681444 0.807184 0.915595
O O6 0.581094 0.882956 0.853511
O O7 0.644313 0.000000 0.000000
O O8 0.761140 0.651273 0.857566
O O9 0.696739 0.489656 0.783558
O O10 0.710382 0.826043 0.530842
O O11 0.610977 0.849948 0.646085
O O12 0.609811 0.803714 0.436495
O O13 0.645278 0.000000 0.500000
O O14 0.777331 0.320344 0.571590
O O15 0.186510 0.500000 0.500000
O O16 0.500000 0.887621 0.701520
O O17 0.418420 0.047097 0.717493
O O18 0.500000 0.153948 0.606974
#
# Coordination Sequence:
#
# PCOD8218692 Si02
#       8
#     8   8   4   8   8   8   8   8
#     4  10  20  34  55  83 111 143 182 225 275 327
#     4  11  20  33  53  82 119 149 176 217 265 333
#     4  10  20  40  60  72 104 138 182 238 274 322
#     4  10  20  34  52  79 114 147 176 217 264 321
#     4  10  21  36  55  82 108 140 183 220 277 332
#     4   9  21  37  56  80 101 136 185 232 283 326
#     4  10  19  31  50  75 107 152 187 209 253 313
#     4   9  18  32  50  75 107 144 183 216 253 313
#
# _framework density 18.228161
#
# number of rings (size 3 to 8) (size 9 to 14) (size 15 to 20)
#    0.000    2.133    1.333    2.000    1.867    2.400 
#    0.000    0.000    0.000    1.600    0.000    1.867 
#    0.000    0.000    0.000    0.000    0.000    0.000 
#
# Total GULP energy -743641.530273 kJ/mol
# GULP energy per Si atom -12394.025505 kJ/mol
# Density = 1.818667 g / cm^3
# Si number density = 18.228161 Si / 1000 Ang^3
#
#
#
# Elastic Constant Matrix: (Units=GPa)
#
#
# Indices 1 2 3 4 5 6 
#
# 1 109.1207 26.0347 34.4250 0.0000 0.0000 0.0000
# 2 26.0347 45.4869 16.8049 0.0000 0.0000 0.0000
# 3 34.4250 16.8049 75.0253 0.0000 0.0000 0.0000
# 4 0.0000 0.0000 0.0000 16.4901 0.0000 0.0000
# 5 0.0000 0.0000 0.0000 0.0000 23.4522 0.0000
# 6 0.0000 0.0000 0.0000 0.0000 0.0000 28.7560
#
#
#
# Elastic Compliance Matrix: (Units=1/GPa)
#
#
# Indices 1 2 3 4 5 6 
#
# 1 0.011726 -0.005150 -0.004227 0.000000 0.000000 0.000000
# 2 -0.005150 0.026230 -0.003512 0.000000 0.000000 0.000000
# 3 -0.004227 -0.003512 0.016055 0.000000 0.000000 0.000000
# 4 0.000000 0.000000 0.000000 0.060642 0.000000 0.000000
# 5 0.000000 0.000000 0.000000 0.000000 0.042640 0.000000
# 6 0.000000 0.000000 0.000000 0.000000 0.000000 0.034775
#
#
# Mechanical properties :
#
#
# Convention : Reuss Voigt Hill
#
# Bulk Modulus (GPa) = 35.41993 42.68469 39.05231
# Shear Modulus (GPa) = 22.00143 23.89755 22.94949
#
# Velocity S-wave (km/s) = 3.47796 3.62473 3.55211
# Velocity P-wave (km/s) = 5.96673 6.40203 6.18821
#
# Compressibility (1/GPa) = 0.02823269
#
# Stress axis : x y z
#
# Youngs Moduli (GPa) = 85.27738 38.12496 62.28561
#
# Poissons Ratio (x) = 0.19635 0.26329
# Poissons Ratio (y) = 0.43918 0.21875
# Poissons Ratio (z) = 0.36047 0.13390
#
# Static dielectric constant tensor:
#      x y z
#    x 3.422360 0.000000 0.000000 
#    y 0.000000 3.395910 0.000000 
#    z 0.000000 0.000000 3.497560 
# 
# 
# High freq. dielectric constant tensor:
#      x y z
#    x 1.708590 0.000000 0.000000 
#    y 0.000000 1.689130 0.000000 
#    z 0.000000 0.000000 1.708600 
# 
# From -- ./inp_files/17927.got.cif
#   From: 2010.03.12/outbox.cif.g09.slc.cpg/sg53_9_cif.got.tgz:17927.got - 2010.04.16 14:36:59.
