data_PCOD8218690
_publ_section_title
;
Structure prediction by ZEFSAII (Michael W. Deem and Ramdas Pophale) SiO2 
 PCOD8218690
Probable space group: P M N A
;
_chemical_formula_sum "Si O2"
_cell_formula_units_Z 40
_cell_length_a 16.607484
_cell_length_b 5.111747
_cell_length_c 25.196220
_cell_angle_alpha 90.000000
_cell_angle_beta 90.000000
_cell_angle_gamma 90.000000
_cell_volume 2138.989168
_symmetry_space_group_name_H-M "P M N A"
_symmetry_group_IT_number 53
_symmetry_cell_setting 'orthorhombic'
loop_
_space_group_symop_operation_xyz
x,y,z
1/2-x,-y,1/2+z
x,-y,-z
1/2-x,y,1/2-z
-x,-y,-z
1/2+x,y,1/2-z
-x,y,z
1/2+x,-y,1/2+z
loop_
_atom_site_type_symbol
_atom_site_label
_atom_site_fract_x
_atom_site_fract_y
_atom_site_fract_z
Si Si1 0.000000 0.940355 0.646711
Si Si2 0.910667 0.500453 0.937006
Si Si3 0.175413 0.537492 0.711163
Si Si4 0.670888 0.961642 0.140171
Si Si5 0.500000 0.559155 0.212686
Si Si6 0.313646 0.000460 0.562858
O O1 0.000000 0.133570 0.698386
O O2 0.081463 0.005640 0.614775
O O3 0.000000 0.633856 0.661635
O O4 0.864453 0.754609 0.916893
O O5 0.000000 0.497806 0.912158
O O6 0.862868 0.249537 0.916792
O O7 0.916761 0.500000 0.000000
O O8 0.250000 0.489412 0.750000
O O9 0.183971 0.826616 0.686780
O O10 0.087042 0.505057 0.741084
O O11 0.181946 0.326443 0.664070
O O12 0.728038 0.005977 0.090520
O O13 0.299806 0.000000 0.500000
#
# Coordination Sequence:
#
# PCOD8218690 Si02
#       6
#     4   8   8   8   4   8
#     4   8  16  30  49  72  94 128 166 196 231 292
#     4   9  17  30  49  69  92 131 178 208 236 291
#     4  10  19  33  55  75  97 132 167 207 254 298
#     4  10  19  33  52  76 102 128 170 205 245 299
#     4   8  16  30  50  72  93 124 165 202 232 304
#     4  10  19  31  50  75 102 133 168 210 250 291
#
# _framework density 18.700422
#
# number of rings (size 3 to 8) (size 9 to 14) (size 15 to 20)
#    0.000    2.600    0.000    2.400    0.000    2.400 
#    0.000    0.500   13.200    0.000    0.000   12.600 
#    0.000    0.000    0.000    0.000    0.000    0.000 
#
# Total GULP energy -495627.444999 kJ/mol
# GULP energy per Si atom -12390.686125 kJ/mol
# Density = 1.865786 g / cm^3
# Si number density = 18.700422 Si / 1000 Ang^3
#
#
#
# Elastic Constant Matrix: (Units=GPa)
#
#
# Indices 1 2 3 4 5 6 
#
# 1 212.0950 43.7144 47.1379 0.0000 0.0000 0.0000
# 2 43.7144 122.9281 12.1205 0.0000 0.0000 0.0000
# 3 47.1379 12.1205 26.5475 0.0000 0.0000 0.0000
# 4 0.0000 0.0000 0.0000 139.0319 0.0000 0.0000
# 5 0.0000 0.0000 0.0000 0.0000 33.1966 0.0000
# 6 0.0000 0.0000 0.0000 0.0000 0.0000 28.9508
#
#
#
# Elastic Compliance Matrix: (Units=1/GPa)
#
#
# Indices 1 2 3 4 5 6 
#
# 1 0.008051 -0.001522 -0.013601 0.000000 0.000000 0.000000
# 2 -0.001522 0.008806 -0.001318 0.000000 0.000000 0.000000
# 3 -0.013601 -0.001318 0.062420 0.000000 0.000000 0.000000
# 4 0.000000 0.000000 0.000000 0.007193 0.000000 0.000000
# 5 0.000000 0.000000 0.000000 0.000000 0.030124 0.000000
# 6 0.000000 0.000000 0.000000 0.000000 0.000000 0.034541
#
#
# Mechanical properties :
#
#
# Convention : Reuss Voigt Hill
#
# Bulk Modulus (GPa) = 21.55382 63.05734 42.30558
# Shear Modulus (GPa) = 25.06483 57.47571 41.27027
#
# Velocity S-wave (km/s) = 3.66503 5.54993 4.70288
# Velocity P-wave (km/s) = 5.42778 8.65228 7.22228
#
# Compressibility (1/GPa) = 0.04639549
#
# Stress axis : x y z
#
# Youngs Moduli (GPa) = 124.20141 113.55834 16.02044
#
# Poissons Ratio (x) = 0.17285 0.21790
# Poissons Ratio (y) = 0.18905 0.02111
# Poissons Ratio (z) = 1.68929 0.14965
#
# Static dielectric constant tensor:
#      x y z
#    x 3.978820 0.000000 0.000000 
#    y 0.000000 3.683400 0.000000 
#    z 0.000000 0.000000 2.686980 
# 
# 
# High freq. dielectric constant tensor:
#      x y z
#    x 1.756370 0.000000 0.000000 
#    y 0.000000 1.753240 0.000000 
#    z 0.000000 0.000000 1.645030 
# 
# From -- ./inp_files/35168.got.cif
#   From: 2010.03.12/outbox.cif.g09.slc.cpg/sg53_18_cif.got.tgz:35168.got - 2010.04.16 14:36:59.
