data_PCOD8218880
_publ_section_title
;
Structure prediction by ZEFSAII (Michael W. Deem and Ramdas Pophale) SiO2 
 PCOD8218880
Probable space group: P M N A
;
_chemical_formula_sum "Si O2"
_cell_formula_units_Z 64
_cell_length_a 9.201089
_cell_length_b 11.689622
_cell_length_c 33.559752
_cell_angle_alpha 90.000000
_cell_angle_beta 90.000000
_cell_angle_gamma 90.000000
_cell_volume 3609.594716
_symmetry_space_group_name_H-M "P M N A"
_symmetry_group_IT_number 53
_symmetry_cell_setting 'orthorhombic'
loop_
_space_group_symop_operation_xyz
x,y,z
1/2-x,-y,1/2+z
x,-y,-z
1/2-x,y,1/2-z
-x,-y,-z
1/2+x,y,1/2-z
-x,y,z
1/2+x,-y,1/2+z
loop_
_atom_site_type_symbol
_atom_site_label
_atom_site_fract_x
_atom_site_fract_y
_atom_site_fract_z
Si Si1 0.163021 0.293997 0.713520
Si Si2 0.332141 0.243514 0.517817
Si Si3 0.173319 0.444680 0.290970
Si Si4 0.828008 0.625164 0.870026
Si Si5 0.332940 0.949707 0.063565
Si Si6 0.666014 0.183166 0.431230
Si Si7 0.329608 0.405758 0.584572
Si Si8 0.662869 0.221971 0.870370
O O1 0.250000 0.240623 0.750000
O O2 0.214019 0.422248 0.702057
O O3 0.182915 0.206817 0.676879
O O4 0.000000 0.301651 0.728632
O O5 0.500000 0.221228 0.528912
O O6 0.244918 0.130934 0.531349
O O7 0.311516 0.262054 0.470635
O O8 0.276610 0.358757 0.540991
O O9 0.250000 0.402079 0.250000
O O10 0.240914 0.376299 0.328444
O O11 0.000000 0.423002 0.288875
O O12 0.794188 0.744704 0.891987
O O13 0.767882 0.527730 0.900752
O O14 0.000000 0.610626 0.861557
O O15 0.500000 0.958118 0.050712
O O16 0.313787 0.898626 0.107973
O O17 0.268261 0.074981 0.064943
O O18 0.500000 0.140679 0.429149
O O19 0.500000 0.417478 0.584356
O O20 0.282503 0.311796 0.616349
O O21 0.500000 0.269697 0.879526
#
# Coordination Sequence:
#
# PCOD8218880 Si02
#       8
#     8   8   8   8   8   8   8   8
#     4   9  17  28  45  71 100 126 152 187 238 295
#     4   9  18  33  52  73  98 130 165 208 258 303
#     4  10  19  32  52  76 103 134 164 200 244 293
#     4  10  20  33  50  74 104 135 168 208 246 294
#     4  10  20  33  52  73  95 126 169 216 254 295
#     4  10  21  35  50  70 100 135 171 209 249 293
#     4   9  17  29  48  73  98 127 165 202 246 298
#     4   9  17  31  48  69  98 128 157 197 249 297
#
# _framework density 17.730521
#
# number of rings (size 3 to 8) (size 9 to 14) (size 15 to 20)
#    0.000    2.500    1.250    1.125    0.000    4.500 
#    0.000    2.500    0.000    0.750    0.000    8.750 
#    0.000    0.000    0.000    0.000    0.000    0.000 
#
# Total GULP energy -793201.219874 kJ/mol
# GULP energy per Si atom -12393.769061 kJ/mol
# Density = 1.769017 g / cm^3
# Si number density = 17.730521 Si / 1000 Ang^3
#
#
#
# Elastic Constant Matrix: (Units=GPa)
#
#
# Indices 1 2 3 4 5 6 
#
# 1 46.6981 20.2646 42.0852 0.0000 0.0000 0.0000
# 2 20.2646 46.0497 29.6756 0.0000 0.0000 0.0000
# 3 42.0852 29.6756 122.1684 0.0000 0.0000 0.0000
# 4 0.0000 0.0000 0.0000 21.0202 0.0000 0.0000
# 5 0.0000 0.0000 0.0000 0.0000 27.4687 0.0000
# 6 0.0000 0.0000 0.0000 0.0000 0.0000 7.8372
#
#
#
# Elastic Compliance Matrix: (Units=1/GPa)
#
#
# Indices 1 2 3 4 5 6 
#
# 1 0.033779 -0.008733 -0.009515 0.000000 0.000000 0.000000
# 2 -0.008733 0.028004 -0.003794 0.000000 0.000000 0.000000
# 3 -0.009515 -0.003794 0.012385 0.000000 0.000000 0.000000
# 4 0.000000 0.000000 0.000000 0.047573 0.000000 0.000000
# 5 0.000000 0.000000 0.000000 0.000000 0.036405 0.000000
# 6 0.000000 0.000000 0.000000 0.000000 0.000000 0.127596
#
#
# Mechanical properties :
#
#
# Convention : Reuss Voigt Hill
#
# Bulk Modulus (GPa) = 33.24087 44.32968 38.78528
# Shear Modulus (GPa) = 14.71223 19.45794 17.08509
#
# Velocity S-wave (km/s) = 2.88370 3.31634 3.10755
# Velocity P-wave (km/s) = 5.46591 6.30240 5.89900
#
# Compressibility (1/GPa) = 0.03008345
#
# Stress axis : x y z
#
# Youngs Moduli (GPa) = 29.60418 35.70973 80.74420
#
# Poissons Ratio (x) = 0.31185 0.76829
# Poissons Ratio (y) = 0.25853 0.30633
# Poissons Ratio (z) = 0.28169 0.13548
#
# Static dielectric constant tensor:
#      x y z
#    x 3.316380 0.000000 0.000000 
#    y 0.000000 3.044630 0.000000 
#    z 0.000000 0.000000 3.447230 
# 
# 
# High freq. dielectric constant tensor:
#      x y z
#    x 1.685020 0.000000 0.000000 
#    y 0.000000 1.650550 0.000000 
#    z 0.000000 0.000000 1.691760 
# 
# From -- ./inp_files/38146.got.cif
#   From: 2010.03.12/outbox.cif.g09.slc.cpg/sg53_20_cif.got.tgz:38146.got - 2010.04.16 14:36:59.
