data_PCOD8218220
_publ_section_title
;
Structure prediction by ZEFSAII (Michael W. Deem and Ramdas Pophale) SiO2 
 PCOD8218220
Probable space group: P M N A
;
_chemical_formula_sum "Si O2"
_cell_formula_units_Z 48
_cell_length_a 8.525635
_cell_length_b 9.562746
_cell_length_c 30.604056
_cell_angle_alpha 90.000000
_cell_angle_beta 90.000000
_cell_angle_gamma 90.000000
_cell_volume 2495.102229
_symmetry_space_group_name_H-M "P M N A"
_symmetry_group_IT_number 53
_symmetry_cell_setting 'orthorhombic'
loop_
_space_group_symop_operation_xyz
x,y,z
1/2-x,-y,1/2+z
x,-y,-z
1/2-x,y,1/2-z
-x,-y,-z
1/2+x,y,1/2-z
-x,y,z
1/2+x,-y,1/2+z
loop_
_atom_site_type_symbol
_atom_site_label
_atom_site_fract_x
_atom_site_fract_y
_atom_site_fract_z
Si Si1 0.316424 0.523380 0.369225
Si Si2 0.819383 0.183655 0.612452
Si Si3 0.684822 0.683571 0.797937
Si Si4 0.684290 0.091783 0.355489
Si Si5 0.180617 0.154730 0.981460
Si Si6 0.184062 0.285904 0.067795
O O1 0.500000 0.557479 0.367267
O O2 0.219128 0.665031 0.368258
O O3 0.269964 0.429724 0.328217
O O4 0.275023 0.440085 0.414207
O O5 0.782513 0.177319 0.561282
O O6 0.000000 0.150282 0.619881
O O7 0.720766 0.071846 0.640418
O O8 0.750000 0.660214 0.750000
O O9 0.500000 0.660015 0.799178
O O10 0.728072 0.840098 0.813990
O O11 0.500000 0.115949 0.349138
O O12 0.750232 0.168593 0.399017
O O13 0.000000 0.186127 0.969166
O O14 0.247536 0.261141 0.018669
O O15 0.199414 0.000000 0.000000
O O16 0.000000 0.260395 0.065648
#
# Coordination Sequence:
#
# PCOD8218220 Si02
#       6
#     8   8   8   8   8   8
#     4  10  21  39  60  83 114 157 199 240 290 349
#     4  12  24  36  52  83 121 156 193 245 300 344
#     4  11  22  40  65  94 120 148 184 230 282 345
#     4  10  19  37  61  85 112 150 193 236 283 342
#     4  10  18  33  56  80 109 152 202 249 291 344
#     4   8  16  32  56  81 105 144 198 243 282 335
#
# _framework density 19.237687999999999
#
# number of rings (size 3 to 8) (size 9 to 14) (size 15 to 20)
#    0.000    1.833    1.667    5.000    0.000    1.000 
#    0.000    5.833    0.000    0.000    0.000    0.000 
#    0.000    0.000    0.000    0.000    0.000    0.000 
#
# Total GULP energy -595211.323364 kJ/mol
# GULP energy per Si atom -12400.235903 kJ/mol
# Density = 1.919390 g / cm^3
# Si number density = 19.237688 Si / 1000 Ang^3
#
#
#
# Elastic Constant Matrix: (Units=GPa)
#
#
# Indices 1 2 3 4 5 6 
#
# 1 60.8049 9.3524 14.3712 0.0000 0.0000 0.0000
# 2 9.3524 89.0956 24.6286 0.0000 0.0000 0.0000
# 3 14.3712 24.6286 87.5763 0.0000 0.0000 0.0000
# 4 0.0000 0.0000 0.0000 24.4565 0.0000 0.0000
# 5 0.0000 0.0000 0.0000 0.0000 28.7966 0.0000
# 6 0.0000 0.0000 0.0000 0.0000 0.0000 27.4052
#
#
#
# Elastic Compliance Matrix: (Units=1/GPa)
#
#
# Indices 1 2 3 4 5 6 
#
# 1 0.017211 -0.001112 -0.002511 0.000000 0.000000 0.000000
# 2 -0.001112 0.012242 -0.003260 0.000000 0.000000 0.000000
# 3 -0.002511 -0.003260 0.012748 0.000000 0.000000 0.000000
# 4 0.000000 0.000000 0.000000 0.040889 0.000000 0.000000
# 5 0.000000 0.000000 0.000000 0.000000 0.034726 0.000000
# 6 0.000000 0.000000 0.000000 0.000000 0.000000 0.036489
#
#
# Mechanical properties :
#
#
# Convention : Reuss Voigt Hill
#
# Bulk Modulus (GPa) = 35.17140 37.13123 36.15131
# Shear Modulus (GPa) = 28.16105 28.73997 28.45051
#
# Velocity S-wave (km/s) = 3.83018 3.86935 3.84981
# Velocity P-wave (km/s) = 6.15488 6.26942 6.21242
#
# Compressibility (1/GPa) = 0.02843220
#
# Stress axis : x y z
#
# Youngs Moduli (GPa) = 58.10337 81.68683 78.44632
#
# Poissons Ratio (x) = 0.09087 0.19701
# Poissons Ratio (y) = 0.06463 0.25575
# Poissons Ratio (z) = 0.14592 0.26631
#
# Static dielectric constant tensor:
#      x y z
#    x 3.391310 0.000000 0.000000 
#    y 0.000000 3.530880 0.000000 
#    z 0.000000 0.000000 3.623110 
# 
# 
# High freq. dielectric constant tensor:
#      x y z
#    x 1.737900 0.000000 0.000000 
#    y 0.000000 1.748290 0.000000 
#    z 0.000000 0.000000 1.739500 
# 
# From -- ./inp_files/37686.got.cif
#   From: 2010.03.12/outbox.cif.g09.slc.cpg/sg53_19_cif.got.tgz:37686.got - 2010.04.16 14:36:59.
