data_PCOD8218299
_publ_section_title
;
Structure prediction by ZEFSAII (Michael W. Deem and Ramdas Pophale) SiO2 
 PCOD8218299
Probable space group: P M N A
;
_chemical_formula_sum "Si O2"
_cell_formula_units_Z 64
_cell_length_a 8.622506
_cell_length_b 15.419599
_cell_length_c 23.843740
_cell_angle_alpha 90.000000
_cell_angle_beta 90.000000
_cell_angle_gamma 90.000000
_cell_volume 3170.158398
_symmetry_space_group_name_H-M "P M N A"
_symmetry_group_IT_number 53
_symmetry_cell_setting 'orthorhombic'
loop_
_space_group_symop_operation_xyz
x,y,z
1/2-x,-y,1/2+z
x,-y,-z
1/2-x,y,1/2-z
-x,-y,-z
1/2+x,y,1/2-z
-x,y,z
1/2+x,-y,1/2+z
loop_
_atom_site_type_symbol
_atom_site_label
_atom_site_fract_x
_atom_site_fract_y
_atom_site_fract_z
Si Si1 0.817193 0.007055 0.188577
Si Si2 0.178417 0.602557 0.998840
Si Si3 0.317846 0.503822 0.689397
Si Si4 0.819753 0.347266 0.384963
Si Si5 0.318842 0.345364 0.619354
Si Si6 0.319066 0.899980 0.998880
Si Si7 0.318498 0.151871 0.614377
Si Si8 0.182290 0.166605 0.113069
O O1 0.750000 0.015036 0.250000
O O2 0.757687 0.086883 0.150968
O O3 0.000000 0.007848 0.193001
O O4 0.759943 0.917786 0.159873
O O5 0.283711 0.643446 0.950627
O O6 0.000000 0.630718 0.988613
O O7 0.194485 0.500000 0.000000
O O8 0.247708 0.639951 0.056884
O O9 0.250000 0.521209 0.750000
O O10 0.500000 0.496609 0.695494
O O11 0.278467 0.583100 0.649124
O O12 0.247165 0.414450 0.663298
O O13 0.770596 0.251613 0.364871
O O14 0.000000 0.361952 0.373045
O O15 0.500000 0.365363 0.615004
O O16 0.285071 0.247439 0.639748
O O17 0.500000 0.888937 0.985539
O O18 0.279109 0.857258 0.057997
O O19 0.221103 0.851552 0.951540
O O20 0.268775 0.000000 0.000000
O O21 0.500000 0.139006 0.600371
O O22 0.000000 0.181152 0.119436
#
# Coordination Sequence:
#
# PCOD8218299 Si02
#       8
#     8   8   8   8   8   8   8   8
#     4  10  23  40  61  86 115 154 204 250 299 354
#     4  10  18  35  62  91 121 162 202 240 296 360
#     4  11  23  43  64  88 119 160 206 252 304 361
#     4  12  25  40  61  93 125 159 199 253 310 364
#     4   9  19  36  62  89 120 157 198 244 295 355
#     4  11  22  36  59  93 128 160 194 247 310 362
#     4  10  20  38  62  90 120 161 206 242 291 364
#     4  11  23  41  63  88 119 162 206 250 301 368
#
# _framework density 20.188265999999999
#
# number of rings (size 3 to 8) (size 9 to 14) (size 15 to 20)
#    0.000    1.500    2.500    3.000    0.000    4.250 
#    0.000    2.500    0.000    0.000    0.000    0.000 
#    0.000    0.000    0.000    0.000    0.000    0.000 
#
# Total GULP energy -793865.162887 kJ/mol
# GULP energy per Si atom -12404.143170 kJ/mol
# Density = 2.014232 g / cm^3
# Si number density = 20.188266 Si / 1000 Ang^3
#
#
#
# Elastic Constant Matrix: (Units=GPa)
#
#
# Indices 1 2 3 4 5 6 
#
# 1 45.0008 20.6873 17.3934 0.0000 0.0000 0.0000
# 2 20.6873 137.0338 38.8842 0.0000 0.0000 0.0000
# 3 17.3934 38.8842 103.0671 0.0000 0.0000 0.0000
# 4 0.0000 0.0000 0.0000 1.4593 0.0000 0.0000
# 5 0.0000 0.0000 0.0000 0.0000 31.7882 0.0000
# 6 0.0000 0.0000 0.0000 0.0000 0.0000 39.3552
#
#
#
# Elastic Compliance Matrix: (Units=1/GPa)
#
#
# Indices 1 2 3 4 5 6 
#
# 1 0.024731 -0.002855 -0.003097 0.000000 0.000000 0.000000
# 2 -0.002855 0.008502 -0.002726 0.000000 0.000000 0.000000
# 3 -0.003097 -0.002726 0.011253 0.000000 0.000000 0.000000
# 4 0.000000 0.000000 0.000000 0.685280 0.000000 0.000000
# 5 0.000000 0.000000 0.000000 0.000000 0.031458 0.000000
# 6 0.000000 0.000000 0.000000 0.000000 0.000000 0.025410
#
#
# Mechanical properties :
#
#
# Convention : Reuss Voigt Hill
#
# Bulk Modulus (GPa) = 36.85677 48.78129 42.81903
# Shear Modulus (GPa) = 6.14981 28.39631 17.27306
#
# Velocity S-wave (km/s) = 1.74724 3.75450 2.92824
# Velocity P-wave (km/s) = 4.72934 6.55825 5.71740
#
# Compressibility (1/GPa) = 0.02713206
#
# Stress axis : x y z
#
# Youngs Moduli (GPa) = 40.43497 117.62080 88.86260
#
# Poissons Ratio (x) = 0.33579 0.27516
# Poissons Ratio (y) = 0.11544 0.24222
# Poissons Ratio (z) = 0.12521 0.32060
#
# Static dielectric constant tensor:
#      x y z
#    x 3.436680 0.000000 0.000000 
#    y 0.000000 3.944730 0.000000 
#    z 0.000000 0.000000 3.024180 
# 
# 
# High freq. dielectric constant tensor:
#      x y z
#    x 1.769760 0.000000 0.000000 
#    y 0.000000 1.807900 0.000000 
#    z 0.000000 0.000000 1.783370 
# 
# From -- ./inp_files/34352.got.cif
#   From: 2010.03.12/outbox.cif.g09.slc.cpg/sg53_18_cif.got.tgz:34352.got - 2010.04.16 14:36:59.
