data_PCOD8218317
_publ_section_title
;
Structure prediction by ZEFSAII (Michael W. Deem and Ramdas Pophale) SiO2 
 PCOD8218317
Probable space group: P M N A
;
_chemical_formula_sum "Si O2"
_cell_formula_units_Z 64
_cell_length_a 8.684048
_cell_length_b 18.497821
_cell_length_c 26.255578
_cell_angle_alpha 90.000000
_cell_angle_beta 90.000000
_cell_angle_gamma 90.000000
_cell_volume 4217.590121
_symmetry_space_group_name_H-M "P M N A"
_symmetry_group_IT_number 53
_symmetry_cell_setting 'orthorhombic'
loop_
_space_group_symop_operation_xyz
x,y,z
1/2-x,-y,1/2+z
x,-y,-z
1/2-x,y,1/2-z
-x,-y,-z
1/2+x,y,1/2-z
-x,y,z
1/2+x,-y,1/2+z
loop_
_atom_site_type_symbol
_atom_site_label
_atom_site_fract_x
_atom_site_fract_y
_atom_site_fract_z
Si Si1 0.331972 0.456327 0.551739
Si Si2 0.681952 0.830457 0.695585
Si Si3 0.316826 0.322573 0.494661
Si Si4 0.316631 0.592311 0.605934
Si Si5 0.318132 0.677131 0.804149
Si Si6 0.827023 0.041627 0.947149
Si Si7 0.180427 0.086120 0.395428
Si Si8 0.180648 0.833605 0.502244
O O1 0.354059 0.500000 0.500000
O O2 0.500000 0.437678 0.573963
O O3 0.251541 0.379779 0.537419
O O4 0.251362 0.511432 0.591748
O O5 0.750000 0.853749 0.750000
O O6 0.500000 0.823862 0.700228
O O7 0.749211 0.753532 0.677728
O O8 0.726893 0.890183 0.654357
O O9 0.500000 0.312956 0.499993
O O10 0.274825 0.351133 0.438537
O O11 0.230848 0.248385 0.504378
O O12 0.500000 0.590333 0.614501
O O13 0.228392 0.615234 0.656464
O O14 0.250000 0.654108 0.750000
O O15 0.500000 0.684561 0.800166
O O16 0.757401 0.121017 0.956439
O O17 0.000000 0.048949 0.925929
O O18 0.724757 0.997089 0.906734
O O19 0.823556 0.000000 0.000000
O O20 0.232795 0.136894 0.442483
O O21 0.000000 0.092242 0.384798
O O22 0.000000 0.841795 0.496256
#
# Coordination Sequence:
#
# PCOD8218317 Si02
#       8
#     8   8   8   8   8   8   8   8
#     4   7  12  24  41  60  81 107 139 172 205 244
#     4  11  21  33  47  63  84 111 144 179 214 248
#     4   9  16  26  42  62  84 112 144 174 204 246
#     4   9  16  28  45  62  82 110 143 176 211 249
#     4  11  21  32  44  60  83 110 142 178 215 250
#     4   9  17  29  44  61  81 108 143 178 210 248
#     4  10  19  31  45  62  86 114 143 174 212 254
#     4  10  19  28  40  60  87 116 143 175 213 250
#
# _framework density 15.174543
#
# number of rings (size 3 to 8) (size 9 to 14) (size 15 to 20)
#    0.000    2.500    0.000    6.375    0.000    5.500 
#    0.000    0.625    0.000    2.250    0.000    0.000 
#    0.000    1.000    0.000    8.500    0.000    4.500 
#
# Total GULP energy -793217.036469 kJ/mol
# GULP energy per Si atom -12394.016195 kJ/mol
# Density = 1.514001 g / cm^3
# Si number density = 15.174543 Si / 1000 Ang^3
#
#
#
# Elastic Constant Matrix: (Units=GPa)
#
#
# Indices 1 2 3 4 5 6 
#
# 1 76.5085 30.6437 32.2472 0.0000 0.0000 0.0000
# 2 30.6437 99.3028 47.3090 0.0000 0.0000 0.0000
# 3 32.2472 47.3090 72.2125 0.0000 0.0000 0.0000
# 4 0.0000 0.0000 0.0000 25.2837 0.0000 0.0000
# 5 0.0000 0.0000 0.0000 0.0000 19.6858 0.0000
# 6 0.0000 0.0000 0.0000 0.0000 0.0000 18.4723
#
#
#
# Elastic Compliance Matrix: (Units=1/GPa)
#
#
# Indices 1 2 3 4 5 6 
#
# 1 0.016452 -0.002292 -0.005845 0.000000 0.000000 0.000000
# 2 -0.002292 0.014959 -0.008776 0.000000 0.000000 0.000000
# 3 -0.005845 -0.008776 0.022208 0.000000 0.000000 0.000000
# 4 0.000000 0.000000 0.000000 0.039551 0.000000 0.000000
# 5 0.000000 0.000000 0.000000 0.000000 0.050798 0.000000
# 6 0.000000 0.000000 0.000000 0.000000 0.000000 0.054135
#
#
# Mechanical properties :
#
#
# Convention : Reuss Voigt Hill
#
# Bulk Modulus (GPa) = 50.52722 52.04707 51.28715
# Shear Modulus (GPa) = 20.96192 21.87663 21.41928
#
# Velocity S-wave (km/s) = 3.72073 3.80105 3.76111
# Velocity P-wave (km/s) = 7.19918 7.32375 7.26173
#
# Compressibility (1/GPa) = 0.01979131
#
# Stress axis : x y z
#
# Youngs Moduli (GPa) = 60.78208 66.85056 45.02888
#
# Poissons Ratio (x) = 0.15324 0.26320
# Poissons Ratio (y) = 0.13933 0.39519
# Poissons Ratio (z) = 0.35528 0.58671
#
# Static dielectric constant tensor:
#      x y z
#    x 2.867760 0.000000 0.000000 
#    y 0.000000 3.050540 0.000000 
#    z 0.000000 0.000000 2.785110 
# 
# 
# High freq. dielectric constant tensor:
#      x y z
#    x 1.582010 0.000000 0.000000 
#    y 0.000000 1.573750 0.000000 
#    z 0.000000 0.000000 1.548230 
# 
# From -- ./inp_files/34463.got.cif
#   From: 2010.03.12/outbox.cif.g09.slc.cpg/sg53_18_cif.got.tgz:34463.got - 2010.04.16 14:36:59.
