data_PCOD8218763
_publ_section_title
;
Structure prediction by ZEFSAII (Michael W. Deem and Ramdas Pophale) SiO2 
 PCOD8218763
Probable space group: P M N A
;
_chemical_formula_sum "Si O2"
_cell_formula_units_Z 64
_cell_length_a 8.883193
_cell_length_b 27.759212
_cell_length_c 14.707809
_cell_angle_alpha 90.000000
_cell_angle_beta 90.000000
_cell_angle_gamma 90.000000
_cell_volume 3626.805059
_symmetry_space_group_name_H-M "P M N A"
_symmetry_group_IT_number 53
_symmetry_cell_setting 'orthorhombic'
loop_
_space_group_symop_operation_xyz
x,y,z
1/2-x,-y,1/2+z
x,-y,-z
1/2-x,y,1/2-z
-x,-y,-z
1/2+x,y,1/2-z
-x,y,z
1/2+x,-y,1/2+z
loop_
_atom_site_type_symbol
_atom_site_label
_atom_site_fract_x
_atom_site_fract_y
_atom_site_fract_z
Si Si1 0.674788 0.607116 0.537628
Si Si2 0.822629 0.920867 0.342179
Si Si3 0.176986 0.698488 0.844791
Si Si4 0.176956 0.424299 0.839987
Si Si5 0.820023 0.798871 0.653495
Si Si6 0.821549 0.114053 0.469486
Si Si7 0.832568 0.517076 0.602467
Si Si8 0.677913 0.030203 0.157483
O O1 0.500000 0.593401 0.542506
O O2 0.707575 0.660195 0.575451
O O3 0.729022 0.603549 0.432116
O O4 0.760548 0.570146 0.603991
O O5 0.750000 0.900685 0.250000
O O6 0.766679 0.887517 0.425775
O O7 0.000000 0.918607 0.330311
O O8 0.770066 0.975605 0.362817
O O9 0.250000 0.680845 0.750000
O O10 0.255529 0.747500 0.877971
O O11 0.000000 0.706952 0.828969
O O12 0.250000 0.399653 0.750000
O O13 0.230458 0.479843 0.841847
O O14 0.000000 0.422359 0.828629
O O15 0.750000 0.813760 0.750000
O O16 0.763131 0.837772 0.579638
O O17 0.000000 0.796730 0.661195
O O18 0.761432 0.065653 0.420809
O O19 0.000000 0.113163 0.466145
O O20 0.840610 0.500000 0.500000
O O21 0.000000 0.519019 0.645363
O O22 0.750000 0.049302 0.250000
O O23 0.500000 0.033235 0.166665
#
# Coordination Sequence:
#
# PCOD8218763 Si02
#       8
#     8   8   8   8   8   8   8   8
#     4   9  19  34  51  70  96 129 161 196 237 281
#     4   9  17  30  46  65  91 123 159 194 227 267
#     4  10  20  35  53  73  96 122 153 190 236 285
#     4  10  19  32  49  70  98 131 164 197 235 276
#     4  10  19  32  50  72  96 120 148 186 233 282
#     4   9  17  29  47  68  91 123 158 188 226 279
#     4   9  17  29  46  69  96 126 160 195 229 270
#     4   9  16  27  44  66  93 124 155 189 228 271
#
# _framework density 17.646386
#
# number of rings (size 3 to 8) (size 9 to 14) (size 15 to 20)
#    0.000    2.625    0.000    3.000    0.000    5.000 
#    0.000    3.750    0.000    3.750    0.000    5.250 
#    0.000    0.000    0.000    0.000    0.000    0.000 
#
# Total GULP energy -793370.405491 kJ/mol
# GULP energy per Si atom -12396.412586 kJ/mol
# Density = 1.760622 g / cm^3
# Si number density = 17.646386 Si / 1000 Ang^3
#
#
#
# Elastic Constant Matrix: (Units=GPa)
#
#
# Indices 1 2 3 4 5 6 
#
# 1 58.1249 32.5844 35.2238 0.0000 0.0000 0.0000
# 2 32.5844 96.9574 70.9085 0.0000 0.0000 0.0000
# 3 35.2238 70.9085 131.4242 0.0000 0.0000 0.0000
# 4 0.0000 0.0000 0.0000 27.1861 0.0000 0.0000
# 5 0.0000 0.0000 0.0000 0.0000 26.3386 0.0000
# 6 0.0000 0.0000 0.0000 0.0000 0.0000 -14.2034
#
#
#
# Elastic Compliance Matrix: (Units=1/GPa)
#
#
# Indices 1 2 3 4 5 6 
#
# 1 0.021957 -0.005080 -0.003144 0.000000 0.000000 0.000000
# 2 -0.005080 0.018211 -0.008464 0.000000 0.000000 0.000000
# 3 -0.003144 -0.008464 0.013018 0.000000 0.000000 0.000000
# 4 0.000000 0.000000 0.000000 0.036783 0.000000 0.000000
# 5 0.000000 0.000000 0.000000 0.000000 0.037967 0.000000
# 6 0.000000 0.000000 0.000000 0.000000 0.000000 -0.070406
#
#
# Mechanical properties :
#
#
# Convention : Reuss Voigt Hill
#
# Bulk Modulus (GPa) = 50.47784 62.66000 56.56892
# Shear Modulus (GPa) = 51.27597 17.71691 34.49644
#
# Velocity S-wave (km/s) = 5.39635 3.17203 4.42619
# Velocity P-wave (km/s) = 8.21552 7.00010 7.63204
#
# Compressibility (1/GPa) = 0.01981067
#
# Stress axis : x y z
#
# Youngs Moduli (GPa) = 45.54278 54.91151 76.81432
#
# Poissons Ratio (x) = 0.27894 0.24152
# Poissons Ratio (y) = 0.23134 0.65017
# Poissons Ratio (z) = 0.14320 0.46478
#
# Static dielectric constant tensor:
#      x y z
#    x 3.251740 0.000000 0.000000 
#    y 0.000000 3.219570 0.000000 
#    z 0.000000 0.000000 3.335820 
# 
# 
# High freq. dielectric constant tensor:
#      x y z
#    x 1.676480 0.000000 0.000000 
#    y 0.000000 1.659470 0.000000 
#    z 0.000000 0.000000 1.682280 
# 
# From -- ./inp_files/21065.got.cif
#   From: 2010.03.12/outbox.cif.g09.slc.cpg/sg53_11_cif.got.tgz:21065.got - 2010.04.16 14:36:59.
