data_PCOD8218015
_publ_section_title
;
Structure prediction by ZEFSAII (Michael W. Deem and Ramdas Pophale) SiO2 
 PCOD8218015
Probable space group: P M N A
;
_chemical_formula_sum "Si O2"
_cell_formula_units_Z 48
_cell_length_a 9.101176
_cell_length_b 10.123940
_cell_length_c 29.418977
_cell_angle_alpha 90.000000
_cell_angle_beta 90.000000
_cell_angle_gamma 90.000000
_cell_volume 2710.657473
_symmetry_space_group_name_H-M "P M N A"
_symmetry_group_IT_number 53
_symmetry_cell_setting 'orthorhombic'
loop_
_space_group_symop_operation_xyz
x,y,z
1/2-x,-y,1/2+z
x,-y,-z
1/2-x,y,1/2-z
-x,-y,-z
1/2+x,y,1/2-z
-x,y,z
1/2+x,-y,1/2+z
loop_
_atom_site_type_symbol
_atom_site_label
_atom_site_fract_x
_atom_site_fract_y
_atom_site_fract_z
Si Si1 0.163963 0.526019 0.706816
Si Si2 0.331515 0.634157 0.523770
Si Si3 0.333005 0.788548 0.205591
Si Si4 0.166349 0.518991 0.880300
Si Si5 0.329162 0.863854 0.025308
Si Si6 0.673193 0.215992 0.614169
O O1 0.250000 0.584478 0.750000
O O2 0.168030 0.368718 0.707737
O O3 0.235443 0.576778 0.660175
O O4 0.000000 0.581676 0.709042
O O5 0.280128 0.500000 0.500000
O O6 0.500000 0.666437 0.509955
O O7 0.314475 0.617519 0.577714
O O8 0.225910 0.749993 0.508195
O O9 0.250000 0.845775 0.250000
O O10 0.500000 0.842163 0.204605
O O11 0.247160 0.835860 0.160634
O O12 0.211031 0.370094 0.894461
O O13 0.000000 0.515735 0.862350
O O14 0.500000 0.841696 0.036025
O O15 0.240322 0.865524 0.072429
O O16 0.298965 0.000000 0.000000
O O17 0.500000 0.190039 0.617034
#
# Coordination Sequence:
#
# PCOD8218015 Si02
#       6
#     8   8   8   8   8   8
#     4   9  16  25  39  62  95 131 165 199 245 299
#     4  10  19  35  55  77 101 131 171 213 256 305
#     4   9  16  26  41  66  98 131 166 205 251 303
#     4   9  17  29  47  71  99 127 162 209 254 300
#     4  11  24  38  51  73 105 139 175 216 260 309
#     4  10  18  31  50  71  98 133 170 211 258 305
#
# _framework density 17.707882000000001
#
# number of rings (size 3 to 8) (size 9 to 14) (size 15 to 20)
#    0.000    2.333    1.667    2.000    0.000    7.000 
#    0.000    0.000    0.000    0.000    0.000    1.167 
#    0.000    2.667    0.000    0.000    0.000    0.000 
#
# Total GULP energy -595261.181987 kJ/mol
# GULP energy per Si atom -12401.274625 kJ/mol
# Density = 1.766758 g / cm^3
# Si number density = 17.707882 Si / 1000 Ang^3
#
#
#
# Elastic Constant Matrix: (Units=GPa)
#
#
# Indices 1 2 3 4 5 6 
#
# 1 132.8438 36.1623 81.9128 0.0000 0.0000 0.0000
# 2 36.1623 48.4702 33.9777 0.0000 0.0000 0.0000
# 3 81.9128 33.9777 141.3433 0.0000 0.0000 0.0000
# 4 0.0000 0.0000 0.0000 11.6784 0.0000 0.0000
# 5 0.0000 0.0000 0.0000 0.0000 40.4680 0.0000
# 6 0.0000 0.0000 0.0000 0.0000 0.0000 14.6409
#
#
#
# Elastic Compliance Matrix: (Units=1/GPa)
#
#
# Indices 1 2 3 4 5 6 
#
# 1 0.012716 -0.005197 -0.006120 0.000000 0.000000 0.000000
# 2 -0.005197 0.026936 -0.003464 0.000000 0.000000 0.000000
# 3 -0.006120 -0.003464 0.011454 0.000000 0.000000 0.000000
# 4 0.000000 0.000000 0.000000 0.085628 0.000000 0.000000
# 5 0.000000 0.000000 0.000000 0.000000 0.024711 0.000000
# 6 0.000000 0.000000 0.000000 0.000000 0.000000 0.068302
#
#
# Mechanical properties :
#
#
# Convention : Reuss Voigt Hill
#
# Bulk Modulus (GPa) = 46.41263 69.64032 58.02647
# Shear Modulus (GPa) = 18.76243 24.73110 21.74676
#
# Velocity S-wave (km/s) = 3.25861 3.74119 3.50820
# Velocity P-wave (km/s) = 6.35807 7.62067 7.01782
#
# Compressibility (1/GPa) = 0.02154586
#
# Stress axis : x y z
#
# Youngs Moduli (GPa) = 78.64114 37.12444 87.30335
#
# Poissons Ratio (x) = 0.19293 0.53430
# Poissons Ratio (y) = 0.40869 0.30238
# Poissons Ratio (z) = 0.48129 0.12858
#
# Static dielectric constant tensor:
#      x y z
#    x 3.429150 0.000000 0.000000 
#    y 0.000000 2.737730 0.000000 
#    z 0.000000 0.000000 3.444770 
# 
# 
# High freq. dielectric constant tensor:
#      x y z
#    x 1.697090 0.000000 0.000000 
#    y 0.000000 1.614460 0.000000 
#    z 0.000000 0.000000 1.704070 
# 
# From -- ./inp_files/37696.got.cif
#   From: 2010.03.12/outbox.cif.g09.slc.cpg/sg53_19_cif.got.tgz:37696.got - 2010.04.16 14:36:59.
