data_PCOD8218585
_publ_section_title
;
Structure prediction by ZEFSAII (Michael W. Deem and Ramdas Pophale) SiO2 
 PCOD8218585
Probable space group: P M N A
;
_chemical_formula_sum "Si O2"
_cell_formula_units_Z 56
_cell_length_a 9.037448
_cell_length_b 20.583131
_cell_length_c 16.773869
_cell_angle_alpha 90.000000
_cell_angle_beta 90.000000
_cell_angle_gamma 90.000000
_cell_volume 3120.257936
_symmetry_space_group_name_H-M "P M N A"
_symmetry_group_IT_number 53
_symmetry_cell_setting 'orthorhombic'
loop_
_space_group_symop_operation_xyz
x,y,z
1/2-x,-y,1/2+z
x,-y,-z
1/2-x,y,1/2-z
-x,-y,-z
1/2+x,y,1/2-z
-x,y,z
1/2+x,-y,1/2+z
loop_
_atom_site_type_symbol
_atom_site_label
_atom_site_fract_x
_atom_site_fract_y
_atom_site_fract_z
Si Si1 0.170865 0.857579 0.483827
Si Si2 0.168155 0.662860 0.172903
Si Si3 0.328061 0.582121 0.944734
Si Si4 0.662029 0.956996 0.578141
Si Si5 0.169068 0.289892 0.519210
Si Si6 0.176037 0.081297 0.833427
Si Si7 0.170271 0.468429 0.898918
O O1 0.223716 0.898999 0.560741
O O2 0.196238 0.783204 0.509971
O O3 0.261348 0.872817 0.403457
O O4 0.000000 0.873420 0.467036
O O5 0.250000 0.690607 0.250000
O O6 0.228391 0.696641 0.094303
O O7 0.185033 0.584045 0.171634
O O8 0.000000 0.684305 0.180516
O O9 0.500000 0.567233 0.931507
O O10 0.234681 0.540963 0.877897
O O11 0.296220 0.660072 0.945747
O O12 0.273625 0.557523 0.030502
O O13 0.500000 0.927716 0.598883
O O14 0.647588 0.000000 0.500000
O O15 0.716101 0.005532 0.648345
O O16 0.000000 0.300569 0.546956
O O17 0.250000 0.101475 0.750000
O O18 0.000000 0.091399 0.829255
O O19 0.000000 0.474191 0.926136
#
# Coordination Sequence:
#
# PCOD8218585 Si02
#       7
#     8   8   8   8   8   8   8
#     4  10  19  31  48  69  94 125 157 188 225 272
#     4  10  20  31  44  61  85 118 151 183 220 263
#     4   9  15  25  42  61  81 107 137 172 213 251
#     4   8  16  31  48  67  92 119 149 189 231 270
#     4   9  19  32  44  63  91 119 149 181 214 259
#     4  10  20  33  49  70  95 122 154 191 230 272
#     4   9  16  26  40  60  82 104 136 178 218 253
#
# _framework density 17.947234000000002
#
# number of rings (size 3 to 8) (size 9 to 14) (size 15 to 20)
#    0.000    2.714    0.000    3.857    0.000    7.143 
#    0.000    0.000    0.000    0.000    0.000    1.000 
#    0.000    0.000    0.000    0.000    0.000    0.000 
#
# Total GULP energy -693760.331576 kJ/mol
# GULP energy per Si atom -12388.577350 kJ/mol
# Density = 1.790639 g / cm^3
# Si number density = 17.947234 Si / 1000 Ang^3
#
#
#
# Elastic Constant Matrix: (Units=GPa)
#
#
# Indices 1 2 3 4 5 6 
#
# 1 84.2441 37.8423 5.1233 0.0000 0.0000 0.0000
# 2 37.8423 100.5207 3.5516 0.0000 0.0000 0.0000
# 3 5.1233 3.5516 8.3560 0.0000 0.0000 0.0000
# 4 0.0000 0.0000 0.0000 14.4114 0.0000 0.0000
# 5 0.0000 0.0000 0.0000 0.0000 21.0742 0.0000
# 6 0.0000 0.0000 0.0000 0.0000 0.0000 26.7788
#
#
#
# Elastic Compliance Matrix: (Units=1/GPa)
#
#
# Indices 1 2 3 4 5 6 
#
# 1 0.014651 -0.005277 -0.006740 0.000000 0.000000 0.000000
# 2 -0.005277 0.012001 -0.001865 0.000000 0.000000 0.000000
# 3 -0.006740 -0.001865 0.124599 0.000000 0.000000 0.000000
# 4 0.000000 0.000000 0.000000 0.069390 0.000000 0.000000
# 5 0.000000 0.000000 0.000000 0.000000 0.047451 0.000000
# 6 0.000000 0.000000 0.000000 0.000000 0.000000 0.037343
#
#
# Mechanical properties :
#
#
# Convention : Reuss Voigt Hill
#
# Bulk Modulus (GPa) = 8.09807 31.79503 19.94655
# Shear Modulus (GPa) = 13.35610 22.22645 17.79128
#
# Velocity S-wave (km/s) = 2.73094 3.52296 3.15192
# Velocity P-wave (km/s) = 3.80342 5.85684 4.93804
#
# Compressibility (1/GPa) = 0.12348629
#
# Stress axis : x y z
#
# Youngs Moduli (GPa) = 68.25609 83.32768 8.02575
#
# Poissons Ratio (x) = 0.43975 0.05409
# Poissons Ratio (y) = 0.36021 0.01497
# Poissons Ratio (z) = 0.46002 0.15541
#
# Static dielectric constant tensor:
#      x y z
#    x 3.457650 0.000000 0.000000 
#    y 0.000000 3.817710 0.000000 
#    z 0.000000 0.000000 2.998860 
# 
# 
# High freq. dielectric constant tensor:
#      x y z
#    x 1.710030 0.000000 0.000000 
#    y 0.000000 1.695580 0.000000 
#    z 0.000000 0.000000 1.635360 
# 
# From -- ./inp_files/26707.got.cif
#   From: 2010.03.12/outbox.cif.g09.slc.cpg/sg53_14_cif.got.tgz:26707.got - 2010.04.16 14:36:59.
