data_PCOD8218398
_publ_section_title
;
Structure prediction by ZEFSAII (Michael W. Deem and Ramdas Pophale) SiO2 
 PCOD8218398
Probable space group: P M N A
;
_chemical_formula_sum "Si O2"
_cell_formula_units_Z 56
_cell_length_a 9.323309
_cell_length_b 19.003020
_cell_length_c 18.552027
_cell_angle_alpha 90.000000
_cell_angle_beta 90.000000
_cell_angle_gamma 90.000000
_cell_volume 3286.881684
_symmetry_space_group_name_H-M "P M N A"
_symmetry_group_IT_number 53
_symmetry_cell_setting 'orthorhombic'
loop_
_space_group_symop_operation_xyz
x,y,z
1/2-x,-y,1/2+z
x,-y,-z
1/2-x,y,1/2-z
-x,-y,-z
1/2+x,y,1/2-z
-x,y,z
1/2+x,-y,1/2+z
loop_
_atom_site_type_symbol
_atom_site_label
_atom_site_fract_x
_atom_site_fract_y
_atom_site_fract_z
Si Si1 0.829280 0.461089 0.175149
Si Si2 0.658553 0.796475 0.519817
Si Si3 0.829631 0.352479 0.054993
Si Si4 0.658518 0.250044 0.644052
Si Si5 0.168998 0.399054 0.901719
Si Si6 0.168176 0.923935 0.475080
Si Si7 0.832060 0.878071 0.316568
O O1 0.750000 0.450195 0.250000
O O2 0.782472 0.395952 0.124815
O O3 0.769251 0.531699 0.136928
O O4 0.000000 0.463789 0.187286
O O5 0.500000 0.817627 0.548120
O O6 0.722477 0.729184 0.563836
O O7 0.647862 0.770377 0.438734
O O8 0.759278 0.864854 0.525469
O O9 0.000000 0.350700 0.046606
O O10 0.765534 0.388968 0.982326
O O11 0.500000 0.238360 0.679088
O O12 0.706075 0.331690 0.648599
O O13 0.777925 0.202807 0.682898
O O14 0.000000 0.408152 0.909551
O O15 0.210053 0.915980 0.391100
O O16 0.000000 0.915308 0.486603
O O17 0.223523 0.000000 0.500000
O O18 0.750000 0.916518 0.250000
O O19 0.000000 0.880394 0.302221
#
# Coordination Sequence:
#
# PCOD8218398 Si02
#       7
#     8   8   8   8   8   8   8
#     4  10  19  30  44  63  89 119 152 191 234 274
#     4   8  14  26  46  70  89 107 140 183 219 255
#     4   8  14  27  48  68  85 112 153 194 225 260
#     4   8  14  26  43  64  89 112 139 178 220 261
#     4   8  14  26  46  68  86 112 153 193 224 260
#     4   9  18  32  49  70  95 120 145 177 221 268
#     4  10  19  30  45  65  91 122 151 177 211 261
#
# _framework density 17.037426
#
# number of rings (size 3 to 8) (size 9 to 14) (size 15 to 20)
#    0.000    3.286    0.000    2.571    0.000    3.143 
#    0.000    2.857    0.000    4.286    0.000    6.000 
#    0.000    0.000    0.000    0.000    0.000    0.000 
#
# Total GULP energy -693928.744205 kJ/mol
# GULP energy per Si atom -12391.584718 kJ/mol
# Density = 1.699865 g / cm^3
# Si number density = 17.037426 Si / 1000 Ang^3
#
#
#
# Elastic Constant Matrix: (Units=GPa)
#
#
# Indices 1 2 3 4 5 6 
#
# 1 45.1357 38.6643 30.9211 0.0000 0.0000 0.0000
# 2 38.6643 144.2837 60.0515 0.0000 0.0000 0.0000
# 3 30.9211 60.0515 88.6409 0.0000 0.0000 0.0000
# 4 0.0000 0.0000 0.0000 16.3159 0.0000 0.0000
# 5 0.0000 0.0000 0.0000 0.0000 20.9599 0.0000
# 6 0.0000 0.0000 0.0000 0.0000 0.0000 17.7990
#
#
#
# Elastic Compliance Matrix: (Units=1/GPa)
#
#
# Indices 1 2 3 4 5 6 
#
# 1 0.031929 -0.005460 -0.007439 0.000000 0.000000 0.000000
# 2 -0.005460 0.010586 -0.005267 0.000000 0.000000 0.000000
# 3 -0.007439 -0.005267 0.017445 0.000000 0.000000 0.000000
# 4 0.000000 0.000000 0.000000 0.061290 0.000000 0.000000
# 5 0.000000 0.000000 0.000000 0.000000 0.047710 0.000000
# 6 0.000000 0.000000 0.000000 0.000000 0.000000 0.056183
#
#
# Mechanical properties :
#
#
# Convention : Reuss Voigt Hill
#
# Bulk Modulus (GPa) = 42.32346 59.70379 51.01363
# Shear Modulus (GPa) = 18.56318 20.90986 19.73652
#
# Velocity S-wave (km/s) = 3.30442 3.50707 3.40725
# Velocity P-wave (km/s) = 6.28127 7.17762 6.74435
#
# Compressibility (1/GPa) = 0.02362756
#
# Stress axis : x y z
#
# Youngs Moduli (GPa) = 31.31973 94.46334 57.32375
#
# Poissons Ratio (x) = 0.51577 0.42643
# Poissons Ratio (y) = 0.17100 0.30193
# Poissons Ratio (z) = 0.23299 0.49755
#
# Static dielectric constant tensor:
#      x y z
#    x 2.935710 0.000000 0.000000 
#    y 0.000000 3.463970 0.000000 
#    z 0.000000 0.000000 3.136530 
# 
# 
# High freq. dielectric constant tensor:
#      x y z
#    x 1.625410 0.000000 0.000000 
#    y 0.000000 1.653980 0.000000 
#    z 0.000000 0.000000 1.637100 
# 
# From -- ./inp_files/31061.got.cif
#   From: 2010.03.12/outbox.cif.g09.slc.cpg/sg53_16_cif.got.tgz:31061.got - 2010.04.16 14:36:59.
