data_PCOD8218475
_publ_section_title
;
Structure prediction by ZEFSAII (Michael W. Deem and Ramdas Pophale) SiO2 
 PCOD8218475
Probable space group: P M N A
;
_chemical_formula_sum "Si O2"
_cell_formula_units_Z 48
_cell_length_a 9.265211
_cell_length_b 13.553828
_cell_length_c 23.766142
_cell_angle_alpha 90.000000
_cell_angle_beta 90.000000
_cell_angle_gamma 90.000000
_cell_volume 2984.530159
_symmetry_space_group_name_H-M "P M N A"
_symmetry_group_IT_number 53
_symmetry_cell_setting 'orthorhombic'
loop_
_space_group_symop_operation_xyz
x,y,z
1/2-x,-y,1/2+z
x,-y,-z
1/2-x,y,1/2-z
-x,-y,-z
1/2+x,y,1/2-z
-x,y,z
1/2+x,-y,1/2+z
loop_
_atom_site_type_symbol
_atom_site_label
_atom_site_fract_x
_atom_site_fract_y
_atom_site_fract_z
Si Si1 0.670806 0.545725 0.583513
Si Si2 0.832865 0.045054 0.411497
Si Si3 0.168902 0.876072 0.806292
Si Si4 0.331941 0.353227 0.305199
Si Si5 0.829605 0.651235 0.027604
Si Si6 0.166059 0.847050 0.475721
O O1 0.500000 0.556121 0.583270
O O2 0.732743 0.584428 0.642682
O O3 0.714523 0.431707 0.573655
O O4 0.729052 0.614625 0.533024
O O5 0.731520 0.063456 0.358434
O O6 0.786092 0.117278 0.462257
O O7 0.000000 0.062869 0.395536
O O8 0.807839 0.932897 0.430557
O O9 0.250000 0.911217 0.750000
O O10 0.198729 0.761131 0.817420
O O11 0.000000 0.898958 0.799834
O O12 0.250000 0.390267 0.250000
O O13 0.500000 0.373654 0.295948
O O14 0.757606 0.753784 0.044324
O O15 0.000000 0.666755 0.026577
O O16 0.000000 0.816192 0.477002
#
# Coordination Sequence:
#
# PCOD8218475 Si02
#       6
#     8   8   8   8   8   8
#     4   8  15  28  45  65  90 117 144 179 222 262
#     4   9  18  32  47  64  91 124 151 180 224 271
#     4  10  19  30  47  70  93 118 149 185 223 264
#     4   9  17  29  44  64  90 117 144 176 216 261
#     4   9  16  28  47  67  87 115 149 183 220 264
#     4   9  18  31  46  66  93 121 147 183 230 268
#
# _framework density 16.082934000000002
#
# number of rings (size 3 to 8) (size 9 to 14) (size 15 to 20)
#    0.000    3.000    0.000    3.500    0.000    3.333 
#    0.000    5.000    0.000    1.000    0.000    4.667 
#    0.000    0.000    0.000    0.000    0.000    0.000 
#
# Total GULP energy -595114.562337 kJ/mol
# GULP energy per Si atom -12398.220049 kJ/mol
# Density = 1.604633 g / cm^3
# Si number density = 16.082934 Si / 1000 Ang^3
#
#
#
# Elastic Constant Matrix: (Units=GPa)
#
#
# Indices 1 2 3 4 5 6 
#
# 1 59.0988 41.1390 49.9476 0.0000 0.0000 0.0000
# 2 41.1390 90.5925 48.5529 0.0000 0.0000 0.0000
# 3 49.9476 48.5529 125.5116 0.0000 0.0000 0.0000
# 4 0.0000 0.0000 0.0000 24.7137 0.0000 0.0000
# 5 0.0000 0.0000 0.0000 0.0000 28.1591 0.0000
# 6 0.0000 0.0000 0.0000 0.0000 0.0000 25.4724
#
#
#
# Elastic Compliance Matrix: (Units=1/GPa)
#
#
# Indices 1 2 3 4 5 6 
#
# 1 0.030681 -0.009321 -0.008604 0.000000 0.000000 0.000000
# 2 -0.009321 0.016758 -0.002773 0.000000 0.000000 0.000000
# 3 -0.008604 -0.002773 0.012464 0.000000 0.000000 0.000000
# 4 0.000000 0.000000 0.000000 0.040463 0.000000 0.000000
# 5 0.000000 0.000000 0.000000 0.000000 0.035513 0.000000
# 6 0.000000 0.000000 0.000000 0.000000 0.000000 0.039258
#
#
# Mechanical properties :
#
#
# Convention : Reuss Voigt Hill
#
# Bulk Modulus (GPa) = 54.03569 61.60909 57.82239
# Shear Modulus (GPa) = 22.45159 24.70659 23.57909
#
# Velocity S-wave (km/s) = 3.74035 3.92369 3.83311
# Velocity P-wave (km/s) = 7.23358 7.67577 7.45795
#
# Compressibility (1/GPa) = 0.01850629
#
# Stress axis : x y z
#
# Youngs Moduli (GPa) = 32.59361 59.67454 80.23145
#
# Poissons Ratio (x) = 0.55625 0.69028
# Poissons Ratio (y) = 0.30382 0.22248
# Poissons Ratio (z) = 0.28042 0.16548
#
# Static dielectric constant tensor:
#      x y z
#    x 2.856260 0.000000 0.000000 
#    y 0.000000 2.963250 0.000000 
#    z 0.000000 0.000000 3.132060 
# 
# 
# High freq. dielectric constant tensor:
#      x y z
#    x 1.604740 0.000000 0.000000 
#    y 0.000000 1.607740 0.000000 
#    z 0.000000 0.000000 1.612470 
# 
# From -- ./inp_files/31909.got.cif
#   From: 2010.03.12/outbox.cif.g09.slc.cpg/sg53_16_cif.got.tgz:31909.got - 2010.04.16 14:36:59.
