data_PCOD8218430
_publ_section_title
;
Structure prediction by ZEFSAII (Michael W. Deem and Ramdas Pophale) SiO2 
 PCOD8218430
Probable space group: P M N A
;
_chemical_formula_sum "Si O2"
_cell_formula_units_Z 48
_cell_length_a 14.988266
_cell_length_b 11.936285
_cell_length_c 14.867446
_cell_angle_alpha 90.000000
_cell_angle_beta 90.000000
_cell_angle_gamma 90.000000
_cell_volume 2659.848750
_symmetry_space_group_name_H-M "P M N A"
_symmetry_group_IT_number 53
_symmetry_cell_setting 'orthorhombic'
loop_
_space_group_symop_operation_xyz
x,y,z
1/2-x,-y,1/2+z
x,-y,-z
1/2-x,y,1/2-z
-x,-y,-z
1/2+x,y,1/2-z
-x,y,z
1/2+x,-y,1/2+z
loop_
_atom_site_type_symbol
_atom_site_label
_atom_site_fract_x
_atom_site_fract_y
_atom_site_fract_z
Si Si1 0.401553 0.666636 0.654959
Si Si2 0.657478 0.481108 0.788334
Si Si3 0.342129 0.152203 0.207544
Si Si4 0.898473 0.706537 0.406221
Si Si5 0.101665 0.044586 0.591931
Si Si6 0.213829 0.335864 0.425621
O O1 0.500000 0.667663 0.609007
O O2 0.394434 0.554179 0.714370
O O3 0.396325 0.775801 0.719280
O O4 0.322772 0.668211 0.580080
O O5 0.750000 0.435384 0.750000
O O6 0.601047 0.372724 0.818214
O O7 0.677360 0.557167 0.874257
O O8 0.250000 0.113155 0.250000
O O9 0.326357 0.224836 0.118645
O O10 0.390676 0.039098 0.176535
O O11 0.864440 0.831428 0.380626
O O12 0.824505 0.656721 0.474283
O O13 0.000000 0.705927 0.445839
O O14 0.000000 0.059808 0.566638
O O15 0.150364 0.000000 0.500000
#
# Coordination Sequence:
#
# PCOD8218430 Si02
#       6
#     8   8   8   8   8   8
#     4   9  17  31  53  73  97 129 163 205 243 285
#     4   9  19  33  48  70 101 130 162 201 242 294
#     4   9  17  30  48  72  98 127 164 203 245 289
#     4  11  21  31  50  76 102 133 162 197 250 298
#     4  10  19  30  45  69 102 130 155 196 245 290
#     4   9  18  31  47  74 101 125 163 206 245 287
#
# _framework density 18.046139
#
# number of rings (size 3 to 8) (size 9 to 14) (size 15 to 20)
#    0.000    2.500    1.667    3.500    0.000    4.667 
#    0.000    0.000    0.000    9.000    0.000   10.500 
#    0.000    0.000    0.000    0.000    0.000    0.000 
#
# Total GULP energy -594738.185978 kJ/mol
# GULP energy per Si atom -12390.378875 kJ/mol
# Density = 1.800507 g / cm^3
# Si number density = 18.046139 Si / 1000 Ang^3
#
#
#
# Elastic Constant Matrix: (Units=GPa)
#
#
# Indices 1 2 3 4 5 6 
#
# 1 99.2122 30.3201 19.8055 0.0000 0.0000 0.0000
# 2 30.3201 108.8920 32.5792 0.0000 0.0000 0.0000
# 3 19.8055 32.5792 45.4158 0.0000 0.0000 0.0000
# 4 0.0000 0.0000 0.0000 13.1839 0.0000 0.0000
# 5 0.0000 0.0000 0.0000 0.0000 24.0571 0.0000
# 6 0.0000 0.0000 0.0000 0.0000 0.0000 22.1788
#
#
#
# Elastic Compliance Matrix: (Units=1/GPa)
#
#
# Indices 1 2 3 4 5 6 
#
# 1 0.011423 -0.002152 -0.003438 0.000000 0.000000 0.000000
# 2 -0.002152 0.012098 -0.007740 0.000000 0.000000 0.000000
# 3 -0.003438 -0.007740 0.029071 0.000000 0.000000 0.000000
# 4 0.000000 0.000000 0.000000 0.075850 0.000000 0.000000
# 5 0.000000 0.000000 0.000000 0.000000 0.041568 0.000000
# 6 0.000000 0.000000 0.000000 0.000000 0.000000 0.045088
#
#
# Mechanical properties :
#
#
# Convention : Reuss Voigt Hill
#
# Bulk Modulus (GPa) = 38.56270 46.54772 42.55521
# Shear Modulus (GPa) = 19.96782 23.27165 21.61973
#
# Velocity S-wave (km/s) = 3.33000 3.59495 3.46501
# Velocity P-wave (km/s) = 6.01669 6.56363 6.29610
#
# Compressibility (1/GPa) = 0.02593180
#
# Stress axis : x y z
#
# Youngs Moduli (GPa) = 87.53949 82.65499 34.39911
#
# Poissons Ratio (x) = 0.17789 0.11826
# Poissons Ratio (y) = 0.18840 0.26626
# Poissons Ratio (z) = 0.30094 0.63978
#
# Static dielectric constant tensor:
#      x y z
#    x 3.211770 0.000000 0.000000 
#    y 0.000000 3.439040 0.000000 
#    z 0.000000 0.000000 3.008510 
# 
# 
# High freq. dielectric constant tensor:
#      x y z
#    x 1.687680 0.000000 0.000000 
#    y 0.000000 1.705600 0.000000 
#    z 0.000000 0.000000 1.659110 
# 
# From -- ./inp_files/22653.got.cif
#   From: 2010.03.12/outbox.cif.g09.slc.cpg/sg53_12_cif.got.tgz:22653.got - 2010.04.16 14:36:59.
