data_PCOD8218976
_publ_section_title
;
Structure prediction by ZEFSAII (Michael W. Deem and Ramdas Pophale) SiO2 
 PCOD8218976
Probable space group: P M N A
;
_chemical_formula_sum "Si O2"
_cell_formula_units_Z 56
_cell_length_a 13.725864
_cell_length_b 15.523242
_cell_length_c 12.630432
_cell_angle_alpha 90.000000
_cell_angle_beta 90.000000
_cell_angle_gamma 90.000000
_cell_volume 2691.164991
_symmetry_space_group_name_H-M "P M N A"
_symmetry_group_IT_number 53
_symmetry_cell_setting 'orthorhombic'
loop_
_space_group_symop_operation_xyz
x,y,z
1/2-x,-y,1/2+z
x,-y,-z
1/2-x,y,1/2-z
-x,-y,-z
1/2+x,y,1/2-z
-x,y,z
1/2+x,-y,1/2+z
loop_
_atom_site_type_symbol
_atom_site_label
_atom_site_fract_x
_atom_site_fract_y
_atom_site_fract_z
Si Si1 0.889454 0.980073 0.701103
Si Si2 0.251863 0.754627 0.496488
Si Si3 0.797178 0.070173 0.085881
Si Si4 0.613725 0.549423 0.161013
Si Si5 0.111677 0.672993 0.158410
Si Si6 0.108759 0.821908 0.320709
Si Si7 0.386210 0.626345 0.932343
O O1 0.817400 0.943162 0.611915
O O2 0.866427 0.937558 0.813272
O O3 0.000000 0.958766 0.666563
O O4 0.871215 0.081266 0.715526
O O5 0.313395 0.832132 0.547044
O O6 0.324856 0.682273 0.447945
O O7 0.184139 0.796401 0.408789
O O8 0.183756 0.708622 0.586311
O O9 0.831101 0.000000 0.000000
O O10 0.500000 0.544431 0.179230
O O11 0.656352 0.596875 0.265877
O O12 0.651035 0.451625 0.143127
O O13 0.632605 0.604894 0.055999
O O14 0.121921 0.763804 0.217493
O O15 0.000000 0.653232 0.127533
O O16 0.000000 0.810049 0.367303
O O17 0.500000 0.647114 0.911467
#
# Coordination Sequence:
#
# PCOD8218976 Si02
#       7
#     8   8   8   8   8   8   8
#     4  10  23  41  59  79 116 166 206 245 303 367
#     4  12  21  31  56  88 119 151 191 251 300 346
#     4  11  23  38  57  85 121 156 206 261 303 355
#     4   8  15  30  50  76 113 146 177 223 285 355
#     4  10  20  32  51  85 122 154 190 237 294 355
#     4  10  19  32  53  82 114 148 192 242 293 345
#     4   9  17  30  51  82 116 146 179 231 296 352
#
# _framework density 20.808831999999999
#
# number of rings (size 3 to 8) (size 9 to 14) (size 15 to 20)
#    0.000    2.000    2.857    2.571    2.000    2.286 
#    0.000    0.000    0.000    6.857    0.000    4.000 
#    0.000    0.000    0.000    0.000    0.000    0.000 
#
# Total GULP energy -694229.589523 kJ/mol
# GULP energy per Si atom -12396.956956 kJ/mol
# Density = 2.076147 g / cm^3
# Si number density = 20.808832 Si / 1000 Ang^3
#
#
#
# Elastic Constant Matrix: (Units=GPa)
#
#
# Indices 1 2 3 4 5 6 
#
# 1 58.2589 26.1988 17.5339 0.0000 0.0000 0.0000
# 2 26.1988 116.5484 30.9040 0.0000 0.0000 0.0000
# 3 17.5339 30.9040 49.3376 0.0000 0.0000 0.0000
# 4 0.0000 0.0000 0.0000 37.7818 0.0000 0.0000
# 5 0.0000 0.0000 0.0000 0.0000 18.7913 0.0000
# 6 0.0000 0.0000 0.0000 0.0000 0.0000 21.3574
#
#
#
# Elastic Compliance Matrix: (Units=1/GPa)
#
#
# Indices 1 2 3 4 5 6 
#
# 1 0.020143 -0.003154 -0.005183 0.000000 0.000000 0.000000
# 2 -0.003154 0.010783 -0.005633 0.000000 0.000000 0.000000
# 3 -0.005183 -0.005633 0.025639 0.000000 0.000000 0.000000
# 4 0.000000 0.000000 0.000000 0.026468 0.000000 0.000000
# 5 0.000000 0.000000 0.000000 0.000000 0.053216 0.000000
# 6 0.000000 0.000000 0.000000 0.000000 0.000000 0.046822
#
#
# Mechanical properties :
#
#
# Convention : Reuss Voigt Hill
#
# Bulk Modulus (GPa) = 34.93496 41.49093 38.21295
# Shear Modulus (GPa) = 22.67034 25.55333 24.11183
#
# Velocity S-wave (km/s) = 3.30427 3.50809 3.40771
# Velocity P-wave (km/s) = 5.60202 6.03252 5.82125
#
# Compressibility (1/GPa) = 0.02862462
#
# Stress axis : x y z
#
# Youngs Moduli (GPa) = 49.64540 92.74072 39.00280
#
# Poissons Ratio (x) = 0.29246 0.20216
# Poissons Ratio (y) = 0.15656 0.21972
# Poissons Ratio (z) = 0.25732 0.52244
#
# Static dielectric constant tensor:
#      x y z
#    x 3.802470 0.000000 0.000000 
#    y 0.000000 4.102270 0.000000 
#    z 0.000000 0.000000 3.568470 
# 
# 
# High freq. dielectric constant tensor:
#      x y z
#    x 1.812740 0.000000 0.000000 
#    y 0.000000 1.813890 0.000000 
#    z 0.000000 0.000000 1.775970 
# 
# From -- ./inp_files/16063.got.cif
#   From: 2010.03.12/outbox.cif.g09.slc.cpg/sg53_9_cif.got.tgz:16063.got - 2010.04.16 14:36:59.
