data_PCOD8218579
_publ_section_title
;
Structure prediction by ZEFSAII (Michael W. Deem and Ramdas Pophale) SiO2 
 PCOD8218579
Probable space group: P M N A
;
_chemical_formula_sum "Si O2"
_cell_formula_units_Z 40
_cell_length_a 18.750842
_cell_length_b 22.273918
_cell_length_c 5.102101
_cell_angle_alpha 90.000000
_cell_angle_beta 90.000000
_cell_angle_gamma 90.000000
_cell_volume 2130.916550
_symmetry_space_group_name_H-M "P M N A"
_symmetry_group_IT_number 53
_symmetry_cell_setting 'orthorhombic'
loop_
_space_group_symop_operation_xyz
x,y,z
1/2-x,-y,1/2+z
x,-y,-z
1/2-x,y,1/2-z
-x,-y,-z
1/2+x,y,1/2-z
-x,y,z
1/2+x,-y,1/2+z
loop_
_atom_site_type_symbol
_atom_site_label
_atom_site_fract_x
_atom_site_fract_y
_atom_site_fract_z
Si Si1 0.580791 0.844246 0.619622
Si Si2 0.080619 0.769138 0.364207
Si Si3 0.917289 0.359993 0.521758
Si Si4 0.833557 0.038211 0.247273
Si Si5 0.917321 0.565805 0.962746
O O1 0.500000 0.866307 0.561264
O O2 0.615457 0.812483 0.359683
O O3 0.626652 0.899219 0.725033
O O4 0.582500 0.796850 0.850518
O O5 0.118791 0.704163 0.401466
O O6 0.000000 0.759112 0.261793
O O7 0.882309 0.393392 0.268768
O O8 0.000000 0.346969 0.459157
O O9 0.905586 0.402914 0.763485
O O10 0.750000 0.052146 0.250000
O O11 0.857485 0.000000 0.500000
O O12 0.856969 0.000000 0.000000
O O13 0.000000 0.557119 0.887666
O O14 0.881736 0.500000 0.000000
#
# Coordination Sequence:
#
# PCOD8218579 Si02
#       5
#     8   8   8   8   8
#     4  10  19  31  48  69  91 115 149 189 223 264
#     4   9  17  28  42  62  86 113 147 187 229 268
#     4   9  15  23  34  48  72 105 140 181 223 258
#     4  10  21  36  52  70  93 120 148 179 220 272
#     4   9  15  21  30  46  69 102 146 187 217 252
#
# _framework density 18.771265
#
# number of rings (size 3 to 8) (size 9 to 14) (size 15 to 20)
#    0.000    2.600    0.000    3.000    0.000    8.000 
#    0.000    0.000    0.000    0.000    0.000    0.000 
#    0.000    0.000    0.000    0.000    0.000   56.000 
#
# Total GULP energy -495698.901048 kJ/mol
# GULP energy per Si atom -12392.472526 kJ/mol
# Density = 1.872854 g / cm^3
# Si number density = 18.771265 Si / 1000 Ang^3
#
#
#
# Elastic Constant Matrix: (Units=GPa)
#
#
# Indices 1 2 3 4 5 6 
#
# 1 13.3055 21.3875 8.9154 0.0000 0.0000 0.0000
# 2 21.3875 127.1350 33.2408 0.0000 0.0000 0.0000
# 3 8.9154 33.2408 114.8779 0.0000 0.0000 0.0000
# 4 0.0000 0.0000 0.0000 36.9449 0.0000 0.0000
# 5 0.0000 0.0000 0.0000 0.0000 14.5048 0.0000
# 6 0.0000 0.0000 0.0000 0.0000 0.0000 -5.2635
#
#
#
# Elastic Compliance Matrix: (Units=1/GPa)
#
#
# Indices 1 2 3 4 5 6 
#
# 1 0.104128 -0.016665 -0.003259 0.000000 0.000000 0.000000
# 2 -0.016665 0.011177 -0.001941 0.000000 0.000000 0.000000
# 3 -0.003259 -0.001941 0.009519 0.000000 0.000000 0.000000
# 4 0.000000 0.000000 0.000000 0.027067 0.000000 0.000000
# 5 0.000000 0.000000 0.000000 0.000000 0.068943 0.000000
# 6 0.000000 0.000000 0.000000 0.000000 0.000000 -0.189988
#
#
# Mechanical properties :
#
#
# Convention : Reuss Voigt Hill
#
# Bulk Modulus (GPa) = 12.33129 42.48955 27.41042
# Shear Modulus (GPa) = 49.20934 22.02223 35.61578
#
# Velocity S-wave (km/s) = 5.12564 3.42890 4.36059
# Velocity P-wave (km/s) = 6.45082 6.19363 6.32353
#
# Compressibility (1/GPa) = 0.08109451
#
# Stress axis : x y z
#
# Youngs Moduli (GPa) = 9.60357 89.47294 105.04896
#
# Poissons Ratio (x) = 1.49107 0.34236
# Poissons Ratio (y) = 0.16004 0.20387
# Poissons Ratio (z) = 0.03130 0.17364
#
# Static dielectric constant tensor:
#      x y z
#    x 2.760140 0.000000 0.000000 
#    y 0.000000 3.660840 0.000000 
#    z 0.000000 0.000000 3.630470 
# 
# 
# High freq. dielectric constant tensor:
#      x y z
#    x 1.632350 0.000000 0.000000 
#    y 0.000000 1.752240 0.000000 
#    z 0.000000 0.000000 1.754070 
# 
# From -- ./inp_files/2090.got.cif
#   From: 2010.03.12/outbox.cif.g09.slc.cpg/sg53_2_cif.got.tgz:2090.got - 2010.04.16 14:36:59.
