data_PCOD8218953
_publ_section_title
;
Structure prediction by ZEFSAII (Michael W. Deem and Ramdas Pophale) SiO2 
 PCOD8218953
Probable space group: P M N A
;
_chemical_formula_sum "Si O2"
_cell_formula_units_Z 64
_cell_length_a 9.128383
_cell_length_b 19.935308
_cell_length_c 19.356576
_cell_angle_alpha 90.000000
_cell_angle_beta 90.000000
_cell_angle_gamma 90.000000
_cell_volume 3522.454082
_symmetry_space_group_name_H-M "P M N A"
_symmetry_group_IT_number 53
_symmetry_cell_setting 'orthorhombic'
loop_
_space_group_symop_operation_xyz
x,y,z
1/2-x,-y,1/2+z
x,-y,-z
1/2-x,y,1/2-z
-x,-y,-z
1/2+x,y,1/2-z
-x,y,z
1/2+x,-y,1/2+z
loop_
_atom_site_type_symbol
_atom_site_label
_atom_site_fract_x
_atom_site_fract_y
_atom_site_fract_z
Si Si1 0.166742 0.525659 0.180002
Si Si2 0.327172 0.671054 0.324194
Si Si3 0.668237 0.727364 0.913684
Si Si4 0.327888 0.765763 0.067989
Si Si5 0.331987 0.044011 0.399243
Si Si6 0.828277 0.379861 0.176126
Si Si7 0.169099 0.148624 0.317941
Si Si8 0.831276 0.901111 0.049120
O O1 0.250000 0.525535 0.250000
O O2 0.201737 0.596354 0.141679
O O3 0.202264 0.454493 0.142771
O O4 0.000000 0.525797 0.202350
O O5 0.250000 0.677012 0.250000
O O6 0.500000 0.685204 0.315761
O O7 0.257587 0.724498 0.374793
O O8 0.500000 0.705834 0.903796
O O9 0.769901 0.671309 0.880382
O O10 0.698941 0.798676 0.878607
O O11 0.710294 0.734334 0.993697
O O12 0.500000 0.763519 0.082942
O O13 0.275160 0.842212 0.073066
O O14 0.500000 0.060126 0.381850
O O15 0.231469 0.076381 0.340279
O O16 0.289106 0.076133 0.472388
O O17 0.305415 0.964158 0.400015
O O18 0.750000 0.369822 0.250000
O O19 0.000000 0.366915 0.187830
O O20 0.250000 0.175558 0.250000
O O21 0.000000 0.140365 0.300394
O O22 0.000000 0.877336 0.052396
#
# Coordination Sequence:
#
# PCOD8218953 Si02
#       8
#     8   8   8   8   8   8   8   8
#     4   8  16  31  52  78 105 135 177 222 268 324
#     4  10  20  37  60  84 109 139 175 221 276 332
#     4  10  22  37  51  75 110 147 187 226 266 319
#     4  11  22  37  56  82 113 144 181 225 269 322
#     4   9  18  34  56  81 106 135 176 222 265 318
#     4  10  19  32  53  79 107 143 184 228 273 319
#     4  11  22  36  53  77 110 149 187 228 273 319
#     4   9  18  34  57  82 107 137 175 218 266 319
#
# _framework density 18.169150999999999
#
# number of rings (size 3 to 8) (size 9 to 14) (size 15 to 20)
#    0.000    2.250    1.250    2.625    0.000    4.500 
#    0.000    2.500    0.000    6.750    0.000    0.000 
#    0.000    0.000    0.000    0.000    0.000    0.000 
#
# Total GULP energy -793261.344833 kJ/mol
# GULP energy per Si atom -12394.708513 kJ/mol
# Density = 1.812780 g / cm^3
# Si number density = 18.169151 Si / 1000 Ang^3
#
#
#
# Elastic Constant Matrix: (Units=GPa)
#
#
# Indices 1 2 3 4 5 6 
#
# 1 99.6197 66.5905 48.8485 0.0000 0.0000 0.0000
# 2 66.5905 127.4658 46.9366 0.0000 0.0000 0.0000
# 3 48.8485 46.9366 78.8316 0.0000 0.0000 0.0000
# 4 0.0000 0.0000 0.0000 25.0516 0.0000 0.0000
# 5 0.0000 0.0000 0.0000 0.0000 28.3845 0.0000
# 6 0.0000 0.0000 0.0000 0.0000 0.0000 27.2732
#
#
#
# Elastic Compliance Matrix: (Units=1/GPa)
#
#
# Indices 1 2 3 4 5 6 
#
# 1 0.018111 -0.006825 -0.007159 0.000000 0.000000 0.000000
# 2 -0.006825 0.012621 -0.003285 0.000000 0.000000 0.000000
# 3 -0.007159 -0.003285 0.019077 0.000000 0.000000 0.000000
# 4 0.000000 0.000000 0.000000 0.039918 0.000000 0.000000
# 5 0.000000 0.000000 0.000000 0.000000 0.035230 0.000000
# 6 0.000000 0.000000 0.000000 0.000000 0.000000 0.036666
#
#
# Mechanical properties :
#
#
# Convention : Reuss Voigt Hill
#
# Bulk Modulus (GPa) = 65.48574 70.07426 67.78000
# Shear Modulus (GPa) = 24.84465 25.71130 25.27798
#
# Velocity S-wave (km/s) = 3.70186 3.76587 3.73400
# Velocity P-wave (km/s) = 7.37511 7.58686 7.48173
#
# Compressibility (1/GPa) = 0.01527050
#
# Stress axis : x y z
#
# Youngs Moduli (GPa) = 55.21555 79.23572 52.41920
#
# Poissons Ratio (x) = 0.54082 0.37525
# Poissons Ratio (y) = 0.37687 0.17219
# Poissons Ratio (z) = 0.39527 0.26028
#
# Static dielectric constant tensor:
#      x y z
#    x 3.410420 0.000000 0.000000 
#    y 0.000000 3.855100 0.000000 
#    z 0.000000 0.000000 3.057410 
# 
# 
# High freq. dielectric constant tensor:
#      x y z
#    x 1.713420 0.000000 0.000000 
#    y 0.000000 1.717610 0.000000 
#    z 0.000000 0.000000 1.673540 
# 
# From -- ./inp_files/31114.got.cif
#   From: 2010.03.12/outbox.cif.g09.slc.cpg/sg53_16_cif.got.tgz:31114.got - 2010.04.16 14:36:59.
