data_PCOD8218869
_publ_section_title
;
Structure prediction by ZEFSAII (Michael W. Deem and Ramdas Pophale) SiO2 
 PCOD8218869
Probable space group: P M N A
;
_chemical_formula_sum "Si O2"
_cell_formula_units_Z 56
_cell_length_a 9.100523
_cell_length_b 13.768079
_cell_length_c 24.182060
_cell_angle_alpha 90.000000
_cell_angle_beta 90.000000
_cell_angle_gamma 90.000000
_cell_volume 3029.932791
_symmetry_space_group_name_H-M "P M N A"
_symmetry_group_IT_number 53
_symmetry_cell_setting 'orthorhombic'
loop_
_space_group_symop_operation_xyz
x,y,z
1/2-x,-y,1/2+z
x,-y,-z
1/2-x,y,1/2-z
-x,-y,-z
1/2+x,y,1/2-z
-x,y,z
1/2+x,-y,1/2+z
loop_
_atom_site_type_symbol
_atom_site_label
_atom_site_fract_x
_atom_site_fract_y
_atom_site_fract_z
Si Si1 0.832223 0.849704 0.383829
Si Si2 0.833314 0.334605 0.694174
Si Si3 0.670549 0.218364 0.305394
Si Si4 0.827980 0.271089 0.970057
Si Si5 0.171597 0.008111 0.806280
Si Si6 0.328711 0.450523 0.607201
Si Si7 0.825577 0.667266 0.911424
O O1 0.821701 0.761605 0.341686
O O2 0.760458 0.816807 0.441739
O O3 0.741334 0.939354 0.359170
O O4 0.000000 0.881742 0.394134
O O5 0.750000 0.311549 0.750000
O O6 0.757826 0.423939 0.662791
O O7 0.000000 0.363445 0.707115
O O8 0.750000 0.254856 0.250000
O O9 0.500000 0.241094 0.297583
O O10 0.736364 0.276731 0.357721
O O11 0.699360 0.105254 0.315917
O O12 0.794445 0.374211 0.941211
O O13 0.000000 0.246306 0.966425
O O14 0.770174 0.279606 0.032938
O O15 0.250000 0.043418 0.750000
O O16 0.000000 0.034043 0.801575
O O17 0.500000 0.452109 0.622039
O O18 0.271887 0.555887 0.588079
O O19 0.000000 0.670538 0.911483
#
# Coordination Sequence:
#
# PCOD8218869 Si02
#       7
#     8   8   8   8   8   8   8
#     4  10  20  33  50  73 101 131 163 202 248 297
#     4  10  20  32  46  68  99 131 162 199 245 295
#     4   9  19  35  53  74 100 128 162 204 246 291
#     4   9  17  31  52  76 101 130 166 205 244 290
#     4  10  19  32  52  75  98 128 164 202 246 294
#     4   9  17  30  50  74  99 129 166 206 245 288
#     4   9  17  32  54  76  98 129 168 206 244 289
#
# _framework density 18.482258000000002
#
# number of rings (size 3 to 8) (size 9 to 14) (size 15 to 20)
#    0.000    2.571    0.000    2.143    0.000    5.714 
#    0.000    4.286    0.000    7.714    0.000    0.000 
#    0.000    0.000    0.000    0.000    0.000    0.000 
#
# Total GULP energy -694477.795517 kJ/mol
# GULP energy per Si atom -12401.389206 kJ/mol
# Density = 1.844019 g / cm^3
# Si number density = 18.482258 Si / 1000 Ang^3
#
#
#
# Elastic Constant Matrix: (Units=GPa)
#
#
# Indices 1 2 3 4 5 6 
#
# 1 78.7327 30.5285 45.4953 0.0000 0.0000 0.0000
# 2 30.5285 59.5719 42.0096 0.0000 0.0000 0.0000
# 3 45.4953 42.0096 120.6374 0.0000 0.0000 0.0000
# 4 0.0000 0.0000 0.0000 28.5597 0.0000 0.0000
# 5 0.0000 0.0000 0.0000 0.0000 28.6687 0.0000
# 6 0.0000 0.0000 0.0000 0.0000 0.0000 18.3129
#
#
#
# Elastic Compliance Matrix: (Units=1/GPa)
#
#
# Indices 1 2 3 4 5 6 
#
# 1 0.017613 -0.005755 -0.004638 0.000000 0.000000 0.000000
# 2 -0.005755 0.024131 -0.006233 0.000000 0.000000 0.000000
# 3 -0.004638 -0.006233 0.012209 0.000000 0.000000 0.000000
# 4 0.000000 0.000000 0.000000 0.035014 0.000000 0.000000
# 5 0.000000 0.000000 0.000000 0.000000 0.034881 0.000000
# 6 0.000000 0.000000 0.000000 0.000000 0.000000 0.054606
#
#
# Mechanical properties :
#
#
# Convention : Reuss Voigt Hill
#
# Bulk Modulus (GPa) = 48.30755 55.00099 51.65427
# Shear Modulus (GPa) = 22.87207 24.50215 23.68711
#
# Velocity S-wave (km/s) = 3.52165 3.64498 3.58385
# Velocity P-wave (km/s) = 6.53682 6.89478 6.71818
#
# Compressibility (1/GPa) = 0.02070070
#
# Stress axis : x y z
#
# Youngs Moduli (GPa) = 56.77657 41.44034 81.90764
#
# Poissons Ratio (x) = 0.23850 0.37990
# Poissons Ratio (y) = 0.32676 0.51051
# Poissons Ratio (z) = 0.26334 0.25829
#
# Static dielectric constant tensor:
#      x y z
#    x 3.355830 0.000000 0.000000 
#    y 0.000000 3.339970 0.000000 
#    z 0.000000 0.000000 3.548390 
# 
# 
# High freq. dielectric constant tensor:
#      x y z
#    x 1.703520 0.000000 0.000000 
#    y 0.000000 1.706920 0.000000 
#    z 0.000000 0.000000 1.718380 
# 
# From -- ./inp_files/30862.got.cif
#   From: 2010.03.12/outbox.cif.g09.slc.cpg/sg53_16_cif.got.tgz:30862.got - 2010.04.16 14:36:59.
