data_PCOD8218839
_publ_section_title
;
Structure prediction by ZEFSAII (Michael W. Deem and Ramdas Pophale) SiO2 
 PCOD8218839
Probable space group: P M N A
;
_chemical_formula_sum "Si O2"
_cell_formula_units_Z 56
_cell_length_a 8.899181
_cell_length_b 18.346749
_cell_length_c 17.903331
_cell_angle_alpha 90.000000
_cell_angle_beta 90.000000
_cell_angle_gamma 90.000000
_cell_volume 2923.095474
_symmetry_space_group_name_H-M "P M N A"
_symmetry_group_IT_number 53
_symmetry_cell_setting 'orthorhombic'
loop_
_space_group_symop_operation_xyz
x,y,z
1/2-x,-y,1/2+z
x,-y,-z
1/2-x,y,1/2-z
-x,-y,-z
1/2+x,y,1/2-z
-x,y,z
1/2+x,-y,1/2+z
loop_
_atom_site_type_symbol
_atom_site_label
_atom_site_fract_x
_atom_site_fract_y
_atom_site_fract_z
Si Si1 0.824193 0.491104 0.327102
Si Si2 0.322952 0.360704 0.410506
Si Si3 0.822234 0.904057 0.168448
Si Si4 0.823740 0.216894 0.169630
Si Si5 0.174783 0.059670 0.170815
Si Si6 0.174180 0.374317 0.567750
Si Si7 0.677224 0.761789 0.169146
O O1 0.750000 0.516329 0.250000
O O2 0.755792 0.415056 0.353245
O O3 0.789017 0.552195 0.388247
O O4 0.000000 0.481268 0.314167
O O5 0.500000 0.371482 0.403872
O O6 0.270987 0.279152 0.387646
O O7 0.273740 0.375944 0.494326
O O8 0.750000 0.906471 0.250000
O O9 0.744058 0.834724 0.128449
O O10 0.000000 0.890210 0.172898
O O11 0.785340 0.982894 0.128137
O O12 0.750000 0.228278 0.250000
O O13 0.780912 0.137218 0.132471
O O14 0.000000 0.222482 0.183235
O O15 0.250000 0.058551 0.250000
O O16 0.000000 0.058601 0.186902
O O17 0.221694 0.305874 0.617765
O O18 0.000000 0.370481 0.544799
O O19 0.750000 0.749348 0.250000
O O20 0.500000 0.769371 0.178904
#
# Coordination Sequence:
#
# PCOD8218839 Si02
#       7
#     8   8   8   8   8   8   8
#     4  11  23  40  61  83 108 136 170 212 257 306
#     4  11  23  37  56  81 108 139 175 214 257 308
#     4   9  15  24  42  69  99 131 166 207 256 304
#     4   9  18  32  50  75 104 135 172 213 256 302
#     4   8  14  25  42  66  98 131 165 207 253 301
#     4  10  23  40  56  76 105 141 175 211 257 307
#     4  10  19  32  51  75 103 134 171 215 261 308
#
# _framework density 19.157772999999999
#
# number of rings (size 3 to 8) (size 9 to 14) (size 15 to 20)
#    0.000    2.286    0.000    3.857    0.000    6.857 
#    0.000    0.000    0.000    0.857    0.000    6.000 
#    0.000    0.000    0.000    0.000    0.000    0.000 
#
# Total GULP energy -693858.101165 kJ/mol
# GULP energy per Si atom -12390.323235 kJ/mol
# Density = 1.911417 g / cm^3
# Si number density = 19.157773 Si / 1000 Ang^3
#
#
#
# Elastic Constant Matrix: (Units=GPa)
#
#
# Indices 1 2 3 4 5 6 
#
# 1 66.9694 38.6946 25.4918 0.0000 0.0000 0.0000
# 2 38.6946 132.0654 15.7354 0.0000 0.0000 0.0000
# 3 25.4918 15.7354 52.2230 0.0000 0.0000 0.0000
# 4 0.0000 0.0000 0.0000 34.7496 0.0000 0.0000
# 5 0.0000 0.0000 0.0000 0.0000 23.3352 0.0000
# 6 0.0000 0.0000 0.0000 0.0000 0.0000 26.5889
#
#
#
# Elastic Compliance Matrix: (Units=1/GPa)
#
#
# Indices 1 2 3 4 5 6 
#
# 1 0.021289 -0.005186 -0.008830 0.000000 0.000000 0.000000
# 2 -0.005186 0.009117 -0.000216 0.000000 0.000000 0.000000
# 3 -0.008830 -0.000216 0.023524 0.000000 0.000000 0.000000
# 4 0.000000 0.000000 0.000000 0.028777 0.000000 0.000000
# 5 0.000000 0.000000 0.000000 0.000000 0.042854 0.000000
# 6 0.000000 0.000000 0.000000 0.000000 0.000000 0.037610
#
#
# Mechanical properties :
#
#
# Convention : Reuss Voigt Hill
#
# Bulk Modulus (GPa) = 39.26477 45.67794 42.47136
# Shear Modulus (GPa) = 24.98469 28.35712 26.67090
#
# Velocity S-wave (km/s) = 3.61523 3.85150 3.73523
# Velocity P-wave (km/s) = 6.16169 6.60859 6.38905
#
# Compressibility (1/GPa) = 0.02546812
#
# Stress axis : x y z
#
# Youngs Moduli (GPa) = 46.97163 109.68403 42.51029
#
# Poissons Ratio (x) = 0.56879 0.37535
# Poissons Ratio (y) = 0.24358 0.00917
# Poissons Ratio (z) = 0.41474 0.02367
#
# Static dielectric constant tensor:
#      x y z
#    x 3.506390 0.000000 0.000000 
#    y 0.000000 4.558660 0.000000 
#    z 0.000000 0.000000 3.109740 
# 
# 
# High freq. dielectric constant tensor:
#      x y z
#    x 1.751020 0.000000 0.000000 
#    y 0.000000 1.781750 0.000000 
#    z 0.000000 0.000000 1.696530 
# 
# From -- ./inp_files/20654.got.cif
#   From: 2010.03.12/outbox.cif.g09.slc.cpg/sg53_11_cif.got.tgz:20654.got - 2010.04.16 14:36:59.
