data_PCOD8218293
_publ_section_title
;
Structure prediction by ZEFSAII (Michael W. Deem and Ramdas Pophale) SiO2 
 PCOD8218293
Probable space group: P M N A
;
_chemical_formula_sum "Si O2"
_cell_formula_units_Z 56
_cell_length_a 9.064766
_cell_length_b 19.035023
_cell_length_c 16.060306
_cell_angle_alpha 90.000000
_cell_angle_beta 90.000000
_cell_angle_gamma 90.000000
_cell_volume 2771.174150
_symmetry_space_group_name_H-M "P M N A"
_symmetry_group_IT_number 53
_symmetry_cell_setting 'orthorhombic'
loop_
_space_group_symop_operation_xyz
x,y,z
1/2-x,-y,1/2+z
x,-y,-z
1/2-x,y,1/2-z
-x,-y,-z
1/2+x,y,1/2-z
-x,y,z
1/2+x,-y,1/2+z
loop_
_atom_site_type_symbol
_atom_site_label
_atom_site_fract_x
_atom_site_fract_y
_atom_site_fract_z
Si Si1 0.175084 0.079975 0.501576
Si Si2 0.176764 0.836507 0.335308
Si Si3 0.334892 0.700724 0.905149
Si Si4 0.824828 0.538671 0.414648
Si Si5 0.666305 0.304268 0.909183
Si Si6 0.327721 0.152813 0.165798
Si Si7 0.673258 0.581476 0.669067
O O1 0.232922 0.116634 0.586618
O O2 0.237617 0.115239 0.416710
O O3 0.000000 0.085782 0.500335
O O4 0.230266 0.000000 0.500000
O O5 0.250000 0.864723 0.250000
O O6 0.234205 0.755708 0.349256
O O7 0.000000 0.839943 0.328069
O O8 0.500000 0.670792 0.887682
O O9 0.297250 0.763980 0.842984
O O10 0.218244 0.637040 0.901916
O O11 0.328028 0.729900 0.998959
O O12 0.779565 0.500000 0.500000
O O13 0.759572 0.618153 0.408453
O O14 0.742549 0.495466 0.343113
O O15 0.000000 0.536200 0.402357
O O16 0.500000 0.317102 0.880511
O O17 0.250000 0.125352 0.250000
O O18 0.500000 0.136419 0.174658
O O19 0.750000 0.614751 0.750000
O O20 0.500000 0.575396 0.678001
#
# Coordination Sequence:
#
# PCOD8218293 Si02
#       7
#     8   8   8   8   8   8   8
#     4   9  18  35  60  87 116 154 194 228 273 341
#     4  10  20  37  60  86 116 152 196 240 282 335
#     4  10  18  35  59  81 107 145 190 232 283 342
#     4  10  19  35  59  80 103 142 187 232 288 347
#     4   9  17  33  59  83 106 144 191 233 281 343
#     4  10  20  34  57  86 116 149 189 235 281 337
#     4  12  25  38  53  78 112 145 183 232 285 340
#
# _framework density 20.208041000000001
#
# number of rings (size 3 to 8) (size 9 to 14) (size 15 to 20)
#    0.000    2.000    2.857    1.714    0.000    3.143 
#    0.000    3.571    0.000    0.857    0.000    0.000 
#    0.000    0.000    0.000    0.000    0.000    0.000 
#
# Total GULP energy -694039.491551 kJ/mol
# GULP energy per Si atom -12393.562349 kJ/mol
# Density = 2.016205 g / cm^3
# Si number density = 20.208041 Si / 1000 Ang^3
#
#
#
# Elastic Constant Matrix: (Units=GPa)
#
#
# Indices 1 2 3 4 5 6 
#
# 1 42.8764 33.2916 30.7082 0.0000 0.0000 0.0000
# 2 33.2916 119.8317 62.1164 0.0000 0.0000 0.0000
# 3 30.7082 62.1164 131.1882 0.0000 0.0000 0.0000
# 4 0.0000 0.0000 0.0000 23.2247 0.0000 0.0000
# 5 0.0000 0.0000 0.0000 0.0000 29.3568 0.0000
# 6 0.0000 0.0000 0.0000 0.0000 0.0000 12.2408
#
#
#
# Elastic Compliance Matrix: (Units=1/GPa)
#
#
# Indices 1 2 3 4 5 6 
#
# 1 0.031447 -0.006522 -0.004273 0.000000 0.000000 0.000000
# 2 -0.006522 0.012412 -0.004350 0.000000 0.000000 0.000000
# 3 -0.004273 -0.004350 0.010683 0.000000 0.000000 0.000000
# 4 0.000000 0.000000 0.000000 0.043058 0.000000 0.000000
# 5 0.000000 0.000000 0.000000 0.000000 0.034064 0.000000
# 6 0.000000 0.000000 0.000000 0.000000 0.000000 0.081694
#
#
# Mechanical properties :
#
#
# Convention : Reuss Voigt Hill
#
# Bulk Modulus (GPa) = 41.23458 60.68098 50.95778
# Shear Modulus (GPa) = 19.86246 24.14979 22.00613
#
# Velocity S-wave (km/s) = 3.13852 3.46071 3.30355
# Velocity P-wave (km/s) = 5.79509 6.78690 6.31051
#
# Compressibility (1/GPa) = 0.02425149
#
# Stress axis : x y z
#
# Youngs Moduli (GPa) = 31.79959 80.56760 93.60885
#
# Poissons Ratio (x) = 0.52543 0.40000
# Poissons Ratio (y) = 0.20738 0.40723
# Poissons Ratio (z) = 0.13588 0.35050
#
# Static dielectric constant tensor:
#      x y z
#    x 3.129710 0.000000 0.000000 
#    y 0.000000 3.768260 0.000000 
#    z 0.000000 0.000000 3.734810 
# 
# 
# High freq. dielectric constant tensor:
#      x y z
#    x 1.736150 0.000000 0.000000 
#    y 0.000000 1.793220 0.000000 
#    z 0.000000 0.000000 1.794300 
# 
# From -- ./inp_files/20566.got.cif
#   From: 2010.03.12/outbox.cif.g09.slc.cpg/sg53_11_cif.got.tgz:20566.got - 2010.04.16 14:36:59.
