data_PCOD8218829
_publ_section_title
;
Structure prediction by ZEFSAII (Michael W. Deem and Ramdas Pophale) SiO2 
 PCOD8218829
Probable space group: P M N A
;
_chemical_formula_sum "Si O2"
_cell_formula_units_Z 56
_cell_length_a 9.283146
_cell_length_b 19.292033
_cell_length_c 18.026924
_cell_angle_alpha 90.000000
_cell_angle_beta 90.000000
_cell_angle_gamma 90.000000
_cell_volume 3228.455501
_symmetry_space_group_name_H-M "P M N A"
_symmetry_group_IT_number 53
_symmetry_cell_setting 'orthorhombic'
loop_
_space_group_symop_operation_xyz
x,y,z
1/2-x,-y,1/2+z
x,-y,-z
1/2-x,y,1/2-z
-x,-y,-z
1/2+x,y,1/2-z
-x,y,z
1/2+x,-y,1/2+z
loop_
_atom_site_type_symbol
_atom_site_label
_atom_site_fract_x
_atom_site_fract_y
_atom_site_fract_z
Si Si1 0.827294 0.950541 0.328546
Si Si2 0.657268 0.434087 0.050625
Si Si3 0.836242 0.718834 0.535901
Si Si4 0.663173 0.051402 0.431735
Si Si5 0.655770 0.435309 0.313964
Si Si6 0.665264 0.855355 0.035233
Si Si7 0.840015 0.727684 0.817991
O O1 0.750000 0.934932 0.250000
O O2 0.790275 0.886447 0.384497
O O3 0.000000 0.959557 0.317917
O O4 0.757223 0.019872 0.364037
O O5 0.500000 0.423980 0.088835
O O6 0.696845 0.360705 0.010306
O O7 0.777627 0.454352 0.108144
O O8 0.650184 0.500000 0.000000
O O9 0.812192 0.771569 0.466504
O O10 0.736759 0.741705 0.604194
O O11 0.000000 0.725335 0.564153
O O12 0.500000 0.068393 0.404144
O O13 0.741899 0.118596 0.464890
O O14 0.656468 0.000000 0.500000
O O15 0.750000 0.470337 0.250000
O O16 0.500000 0.470222 0.310703
O O17 0.646683 0.353532 0.302715
O O18 0.500000 0.876669 0.020224
O O19 0.750000 0.761674 0.750000
O O20 0.000000 0.760964 0.820172
#
# Coordination Sequence:
#
# PCOD8218829 Si02
#       7
#     8   8   8   8   8   8   8
#     4  10  19  32  51  74  99 127 161 197 233 274
#     4   9  17  29  46  68  93 123 160 201 243 288
#     4   9  17  30  47  67  93 126 162 198 239 286
#     4   9  17  30  49  72  96 121 150 186 228 274
#     4   9  16  26  42  63  86 112 144 184 231 283
#     4   9  18  32  50  71  96 128 162 197 238 283
#     4   9  16  26  41  62  87 115 147 185 229 278
#
# _framework density 17.345753999999999
#
# number of rings (size 3 to 8) (size 9 to 14) (size 15 to 20)
#    0.000    2.857    0.000    1.714    0.000    6.571 
#    0.000    0.714    0.000    4.286    0.000    2.000 
#    0.000    0.000    0.000    0.000    0.000    0.000 
#
# Total GULP energy -693732.781402 kJ/mol
# GULP energy per Si atom -12388.085382 kJ/mol
# Density = 1.730627 g / cm^3
# Si number density = 17.345754 Si / 1000 Ang^3
#
#
#
# Elastic Constant Matrix: (Units=GPa)
#
#
# Indices 1 2 3 4 5 6 
#
# 1 124.6134 30.8569 56.3794 0.0000 0.0000 0.0000
# 2 30.8569 73.0588 44.0522 0.0000 0.0000 0.0000
# 3 56.3794 44.0522 90.7468 0.0000 0.0000 0.0000
# 4 0.0000 0.0000 0.0000 15.9521 0.0000 0.0000
# 5 0.0000 0.0000 0.0000 0.0000 62.5188 0.0000
# 6 0.0000 0.0000 0.0000 0.0000 0.0000 18.7302
#
#
#
# Elastic Compliance Matrix: (Units=1/GPa)
#
#
# Indices 1 2 3 4 5 6 
#
# 1 0.011192 -0.000755 -0.006587 0.000000 0.000000 0.000000
# 2 -0.000755 0.019403 -0.008950 0.000000 0.000000 0.000000
# 3 -0.006587 -0.008950 0.019456 0.000000 0.000000 0.000000
# 4 0.000000 0.000000 0.000000 0.062688 0.000000 0.000000
# 5 0.000000 0.000000 0.000000 0.000000 0.015995 0.000000
# 6 0.000000 0.000000 0.000000 0.000000 0.000000 0.053390
#
#
# Mechanical properties :
#
#
# Convention : Reuss Voigt Hill
#
# Bulk Modulus (GPa) = 57.24810 61.22178 59.23494
# Shear Modulus (GPa) = 22.67267 29.91560 26.29413
#
# Velocity S-wave (km/s) = 3.61931 4.15741 3.89766
# Velocity P-wave (km/s) = 7.10926 7.64310 7.38101
#
# Compressibility (1/GPa) = 0.01746783
#
# Stress axis : x y z
#
# Youngs Moduli (GPa) = 89.35034 51.53823 51.39706
#
# Poissons Ratio (x) = 0.03894 0.33853
# Poissons Ratio (y) = 0.06750 0.45999
# Poissons Ratio (z) = 0.58852 0.46125
#
# Static dielectric constant tensor:
#      x y z
#    x 3.741920 0.000000 0.000000 
#    y 0.000000 3.045420 0.000000 
#    z 0.000000 0.000000 3.035800 
# 
# 
# High freq. dielectric constant tensor:
#      x y z
#    x 1.687890 0.000000 0.000000 
#    y 0.000000 1.639170 0.000000 
#    z 0.000000 0.000000 1.645480 
# 
# From -- ./inp_files/26701.got.cif
#   From: 2010.03.12/outbox.cif.g09.slc.cpg/sg53_14_cif.got.tgz:26701.got - 2010.04.16 14:36:59.
