data_PCOD8218729
_publ_section_title
;
Structure prediction by ZEFSAII (Michael W. Deem and Ramdas Pophale) SiO2 
 PCOD8218729
Probable space group: P M N A
;
_chemical_formula_sum "Si O2"
_cell_formula_units_Z 64
_cell_length_a 9.108541
_cell_length_b 15.186169
_cell_length_c 23.788749
_cell_angle_alpha 90.000000
_cell_angle_beta 90.000000
_cell_angle_gamma 90.000000
_cell_volume 3290.551181
_symmetry_space_group_name_H-M "P M N A"
_symmetry_group_IT_number 53
_symmetry_cell_setting 'orthorhombic'
loop_
_space_group_symop_operation_xyz
x,y,z
1/2-x,-y,1/2+z
x,-y,-z
1/2-x,y,1/2-z
-x,-y,-z
1/2+x,y,1/2-z
-x,y,z
1/2+x,-y,1/2+z
loop_
_atom_site_type_symbol
_atom_site_label
_atom_site_fract_x
_atom_site_fract_y
_atom_site_fract_z
Si Si1 0.828302 0.184539 0.393955
Si Si2 0.834177 0.167477 0.520602
Si Si3 0.330444 0.120856 0.626336
Si Si4 0.173570 0.030240 0.308369
Si Si5 0.168862 0.642943 0.902245
Si Si6 0.667326 0.295290 0.693720
Si Si7 0.169556 0.451065 0.882316
Si Si8 0.333270 0.368834 0.982816
O O1 0.775751 0.156628 0.456610
O O2 0.787068 0.108010 0.351238
O O3 0.750116 0.274356 0.373513
O O4 0.000000 0.205439 0.396060
O O5 0.731498 0.112293 0.562882
O O6 0.828413 0.268945 0.539044
O O7 0.000000 0.130391 0.525703
O O8 0.500000 0.091740 0.626664
O O9 0.309023 0.220337 0.647162
O O10 0.238599 0.059899 0.668110
O O11 0.250000 0.054388 0.250000
O O12 0.000000 0.019554 0.299668
O O13 0.186657 0.553924 0.864876
O O14 0.000000 0.669030 0.909534
O O15 0.234871 0.620995 0.962546
O O16 0.750000 0.269768 0.750000
O O17 0.500000 0.302859 0.711658
O O18 0.722995 0.388620 0.668634
O O19 0.269489 0.433612 0.936264
O O20 0.000000 0.428847 0.897305
O O21 0.500000 0.396682 0.996713
#
# Coordination Sequence:
#
# PCOD8218729 Si02
#       8
#     8   8   8   8   8   8   8   8
#     4   9  21  41  61  84 117 153 190 238 291 342
#     4   9  18  34  56  84 117 153 189 228 284 345
#     4  11  22  37  60  88 117 151 188 233 287 345
#     4  11  24  43  65  87 114 148 191 242 290 343
#     4  10  20  33  55  82 113 150 188 235 287 337
#     4  10  22  38  55  77 111 150 191 236 284 340
#     4  10  20  35  52  77 112 150 191 235 284 334
#     4  10  19  31  51  81 116 153 191 231 275 333
#
# _framework density 19.449628000000001
#
# number of rings (size 3 to 8) (size 9 to 14) (size 15 to 20)
#    0.000    2.000    1.250    3.000    0.000    8.500 
#    0.000    3.125    0.000    3.000    0.000    0.000 
#    0.000    0.000    0.000    0.000    0.000    0.000 
#
# Total GULP energy -793648.783351 kJ/mol
# GULP energy per Si atom -12400.762240 kJ/mol
# Density = 1.940536 g / cm^3
# Si number density = 19.449628 Si / 1000 Ang^3
#
#
#
# Elastic Constant Matrix: (Units=GPa)
#
#
# Indices 1 2 3 4 5 6 
#
# 1 85.6042 45.1511 43.7611 0.0000 0.0000 0.0000
# 2 45.1511 77.7234 43.7218 0.0000 0.0000 0.0000
# 3 43.7611 43.7218 87.3222 0.0000 0.0000 0.0000
# 4 0.0000 0.0000 0.0000 25.4219 0.0000 0.0000
# 5 0.0000 0.0000 0.0000 0.0000 29.7117 0.0000
# 6 0.0000 0.0000 0.0000 0.0000 0.0000 22.8068
#
#
#
# Elastic Compliance Matrix: (Units=1/GPa)
#
#
# Indices 1 2 3 4 5 6 
#
# 1 0.018519 -0.007708 -0.005421 0.000000 0.000000 0.000000
# 2 -0.007708 0.021119 -0.006711 0.000000 0.000000 0.000000
# 3 -0.005421 -0.006711 0.017529 0.000000 0.000000 0.000000
# 4 0.000000 0.000000 0.000000 0.039336 0.000000 0.000000
# 5 0.000000 0.000000 0.000000 0.000000 0.033657 0.000000
# 6 0.000000 0.000000 0.000000 0.000000 0.000000 0.043846
#
#
# Mechanical properties :
#
#
# Convention : Reuss Voigt Hill
#
# Bulk Modulus (GPa) = 57.19031 57.32422 57.25727
# Shear Modulus (GPa) = 22.77735 23.45580 23.11657
#
# Velocity S-wave (km/s) = 3.42584 3.47648 3.45125
# Velocity P-wave (km/s) = 6.71689 6.75661 6.73678
#
# Compressibility (1/GPa) = 0.01748548
#
# Stress axis : x y z
#
# Youngs Moduli (GPa) = 53.99977 47.34974 57.04869
#
# Poissons Ratio (x) = 0.36499 0.30926
# Poissons Ratio (y) = 0.41625 0.38288
# Poissons Ratio (z) = 0.29273 0.31778
#
# Static dielectric constant tensor:
#      x y z
#    x 3.590150 0.000000 0.000000 
#    y 0.000000 3.630760 0.000000 
#    z 0.000000 0.000000 3.371440 
# 
# 
# High freq. dielectric constant tensor:
#      x y z
#    x 1.761880 0.000000 0.000000 
#    y 0.000000 1.760790 0.000000 
#    z 0.000000 0.000000 1.736450 
# 
# From -- ./inp_files/34325.got.cif
#   From: 2010.03.12/outbox.cif.g09.slc.cpg/sg53_18_cif.got.tgz:34325.got - 2010.04.16 14:36:59.
