data_PCOD8218509
_publ_section_title
;
Structure prediction by ZEFSAII (Michael W. Deem and Ramdas Pophale) SiO2 
 PCOD8218509
Probable space group: P M N A
;
_chemical_formula_sum "Si O2"
_cell_formula_units_Z 64
_cell_length_a 8.852701
_cell_length_b 19.660292
_cell_length_c 18.820611
_cell_angle_alpha 90.000000
_cell_angle_beta 90.000000
_cell_angle_gamma 90.000000
_cell_volume 3275.664985
_symmetry_space_group_name_H-M "P M N A"
_symmetry_group_IT_number 53
_symmetry_cell_setting 'orthorhombic'
loop_
_space_group_symop_operation_xyz
x,y,z
1/2-x,-y,1/2+z
x,-y,-z
1/2-x,y,1/2-z
-x,-y,-z
1/2+x,y,1/2-z
-x,y,z
1/2+x,-y,1/2+z
loop_
_atom_site_type_symbol
_atom_site_label
_atom_site_fract_x
_atom_site_fract_y
_atom_site_fract_z
Si Si1 0.670084 0.092618 0.935061
Si Si2 0.171636 0.776801 0.034688
Si Si3 0.826677 0.634376 0.447791
Si Si4 0.670366 0.052778 0.098817
Si Si5 0.679258 0.584924 0.582504
Si Si6 0.828551 0.182445 0.128436
Si Si7 0.677888 0.691175 0.821244
Si Si8 0.826056 0.466363 0.673948
O O1 0.500000 0.110848 0.911904
O O2 0.773521 0.158254 0.918936
O O3 0.727115 0.025471 0.892061
O O4 0.673585 0.073662 0.017169
O O5 0.269499 0.711324 0.054075
O O6 0.000000 0.760442 0.054832
O O7 0.190223 0.795500 0.952791
O O8 0.732735 0.584746 0.500574
O O9 0.809861 0.604223 0.368625
O O10 0.000000 0.633730 0.473158
O O11 0.500000 0.059729 0.128111
O O12 0.779904 0.104134 0.141035
O O13 0.500000 0.581902 0.585466
O O14 0.740270 0.656352 0.612296
O O15 0.747311 0.524722 0.628476
O O16 0.717638 0.229020 0.175333
O O17 0.000000 0.191973 0.154691
O O18 0.750000 0.659041 0.750000
O O19 0.500000 0.678385 0.822575
O O20 0.750000 0.457213 0.750000
O O21 0.000000 0.487094 0.684871
#
# Coordination Sequence:
#
# PCOD8218509 Si02
#       8
#     8   8   8   8   8   8   8   8
#     4   8  14  25  42  66 100 138 180 222 269 325
#     4  10  19  30  49  77 111 144 181 228 279 330
#     4  11  23  39  61  87 116 151 190 231 279 337
#     4   8  14  25  42  65  95 138 181 221 270 325
#     4  12  24  40  62  88 116 147 186 231 281 335
#     4  10  19  31  47  72 105 141 183 231 279 332
#     4  12  24  38  56  77 108 148 190 237 285 340
#     4  11  25  44  64  88 116 149 188 230 280 336
#
# _framework density 19.538018000000001
#
# number of rings (size 3 to 8) (size 9 to 14) (size 15 to 20)
#    0.000    1.750    1.250    5.250    0.000    5.000 
#    0.000    2.500    0.000    0.000    0.000    0.875 
#    0.000    4.000    0.000    0.000    0.000    0.000 
#
# Total GULP energy -793522.540514 kJ/mol
# GULP energy per Si atom -12398.789696 kJ/mol
# Density = 1.949355 g / cm^3
# Si number density = 19.538018 Si / 1000 Ang^3
#
#
#
# Elastic Constant Matrix: (Units=GPa)
#
#
# Indices 1 2 3 4 5 6 
#
# 1 149.2572 57.7991 41.2773 0.0000 0.0000 0.0000
# 2 57.7991 105.9877 33.9765 0.0000 0.0000 0.0000
# 3 41.2773 33.9765 60.6763 0.0000 0.0000 0.0000
# 4 0.0000 0.0000 0.0000 14.8644 0.0000 0.0000
# 5 0.0000 0.0000 0.0000 0.0000 25.0972 0.0000
# 6 0.0000 0.0000 0.0000 0.0000 0.0000 32.0234
#
#
#
# Elastic Compliance Matrix: (Units=1/GPa)
#
#
# Indices 1 2 3 4 5 6 
#
# 1 0.009316 -0.003716 -0.004257 0.000000 0.000000 0.000000
# 2 -0.003716 0.012981 -0.004741 0.000000 0.000000 0.000000
# 3 -0.004257 -0.004741 0.022032 0.000000 0.000000 0.000000
# 4 0.000000 0.000000 0.000000 0.067275 0.000000 0.000000
# 5 0.000000 0.000000 0.000000 0.000000 0.039845 0.000000
# 6 0.000000 0.000000 0.000000 0.000000 0.000000 0.031227
#
#
# Mechanical properties :
#
#
# Convention : Reuss Voigt Hill
#
# Bulk Modulus (GPa) = 52.90656 64.66966 58.78811
# Shear Modulus (GPa) = 23.32046 26.58824 24.95435
#
# Velocity S-wave (km/s) = 3.45859 3.69297 3.57770
# Velocity P-wave (km/s) = 6.56405 7.16626 6.87175
#
# Compressibility (1/GPa) = 0.01890125
#
# Stress axis : x y z
#
# Youngs Moduli (GPa) = 107.34239 77.03387 45.38910
#
# Poissons Ratio (x) = 0.28624 0.19322
# Poissons Ratio (y) = 0.39886 0.21520
# Poissons Ratio (z) = 0.45694 0.36524
#
# Static dielectric constant tensor:
#      x y z
#    x 3.664960 0.000000 0.000000 
#    y 0.000000 3.868500 0.000000 
#    z 0.000000 0.000000 3.251940 
# 
# 
# High freq. dielectric constant tensor:
#      x y z
#    x 1.769320 0.000000 0.000000 
#    y 0.000000 1.772660 0.000000 
#    z 0.000000 0.000000 1.714630 
# 
# From -- ./inp_files/31223.got.cif
#   From: 2010.03.12/outbox.cif.g09.slc.cpg/sg53_16_cif.got.tgz:31223.got - 2010.04.16 14:36:59.
