data_PCOD8218232
_publ_section_title
;
Structure prediction by ZEFSAII (Michael W. Deem and Ramdas Pophale) SiO2 
 PCOD8218232
Probable space group: P M N A
;
_chemical_formula_sum "Si O2"
_cell_formula_units_Z 48
_cell_length_a 13.019414
_cell_length_b 11.338633
_cell_length_c 15.366934
_cell_angle_alpha 90.000000
_cell_angle_beta 90.000000
_cell_angle_gamma 90.000000
_cell_volume 2268.503020
_symmetry_space_group_name_H-M "P M N A"
_symmetry_group_IT_number 53
_symmetry_cell_setting 'orthorhombic'
loop_
_space_group_symop_operation_xyz
x,y,z
1/2-x,-y,1/2+z
x,-y,-z
1/2-x,y,1/2-z
-x,-y,-z
1/2+x,y,1/2-z
-x,y,z
1/2+x,-y,1/2+z
loop_
_atom_site_type_symbol
_atom_site_label
_atom_site_fract_x
_atom_site_fract_y
_atom_site_fract_z
Si Si1 0.381984 0.868817 0.574775
Si Si2 0.879526 0.225601 0.387783
Si Si3 0.382243 0.450001 0.597235
Si Si4 0.621163 0.325223 0.292595
Si Si5 0.721991 0.984017 0.150166
Si Si6 0.749749 0.240308 0.944240
O O1 0.500000 0.897043 0.582279
O O2 0.334920 0.778249 0.646102
O O3 0.323494 0.990348 0.592860
O O4 0.355337 0.815008 0.481479
O O5 0.836925 0.305249 0.305960
O O6 0.862050 0.085194 0.370825
O O7 0.826150 0.272230 0.475843
O O8 0.000000 0.246604 0.398334
O O9 0.375846 0.500000 0.500000
O O10 0.500000 0.405318 0.613664
O O11 0.351578 0.547301 0.668975
O O12 0.292509 0.352323 0.609247
O O13 0.500000 0.305897 0.294002
O O14 0.750000 0.978578 0.250000
O O15 0.689019 0.852808 0.118055
#
# Coordination Sequence:
#
# PCOD8218232 Si02
#       6
#     8   8   8   8   8   8
#     4  10  18  33  57  86 118 149 191 250 307 359
#     4  10  21  40  63  90 122 164 218 260 294 355
#     4  10  19  36  60  88 123 155 193 247 312 373
#     4   9  17  32  61  91 112 152 207 251 296 353
#     4  11  23  37  55  85 126 161 205 250 306 370
#     4  11  23  35  57  92 125 161 195 249 312 367
#
# _framework density 21.159327000000001
#
# number of rings (size 3 to 8) (size 9 to 14) (size 15 to 20)
#    0.000    1.833    3.333    2.500    0.000    3.333 
#    0.000    1.667    0.000    0.500    0.000    5.833 
#    0.000    0.000    0.000    0.000    0.000    0.000 
#
# Total GULP energy -594845.892391 kJ/mol
# GULP energy per Si atom -12392.622758 kJ/mol
# Density = 2.111117 g / cm^3
# Si number density = 21.159327 Si / 1000 Ang^3
#
#
#
# Elastic Constant Matrix: (Units=GPa)
#
#
# Indices 1 2 3 4 5 6 
#
# 1 51.3462 32.1746 23.2915 0.0000 0.0000 0.0000
# 2 32.1746 123.7663 46.9274 0.0000 0.0000 0.0000
# 3 23.2915 46.9274 56.6120 0.0000 0.0000 0.0000
# 4 0.0000 0.0000 0.0000 45.7613 0.0000 0.0000
# 5 0.0000 0.0000 0.0000 0.0000 6.5524 0.0000
# 6 0.0000 0.0000 0.0000 0.0000 0.0000 16.7638
#
#
#
# Elastic Compliance Matrix: (Units=1/GPa)
#
#
# Indices 1 2 3 4 5 6 
#
# 1 0.025118 -0.003808 -0.007177 0.000000 0.000000 0.000000
# 2 -0.003808 0.012361 -0.008679 0.000000 0.000000 0.000000
# 3 -0.007177 -0.008679 0.027811 0.000000 0.000000 0.000000
# 4 0.000000 0.000000 0.000000 0.021853 0.000000 0.000000
# 5 0.000000 0.000000 0.000000 0.000000 0.152617 0.000000
# 6 0.000000 0.000000 0.000000 0.000000 0.000000 0.059652
#
#
# Mechanical properties :
#
#
# Convention : Reuss Voigt Hill
#
# Bulk Modulus (GPa) = 38.52044 48.50128 43.51086
# Shear Modulus (GPa) = 14.39286 22.43754 18.41520
#
# Velocity S-wave (km/s) = 2.61092 3.25993 2.95330
# Velocity P-wave (km/s) = 5.22816 6.09436 5.67780
#
# Compressibility (1/GPa) = 0.02596025
#
# Stress axis : x y z
#
# Youngs Moduli (GPa) = 39.81256 80.90220 35.95643
#
# Poissons Ratio (x) = 0.30811 0.25807
# Poissons Ratio (y) = 0.15162 0.31207
# Poissons Ratio (z) = 0.28574 0.70217
#
# Static dielectric constant tensor:
#      x y z
#    x 3.677100 0.000000 0.000000 
#    y 0.000000 3.832940 0.000000 
#    z 0.000000 0.000000 3.916310 
# 
# 
# High freq. dielectric constant tensor:
#      x y z
#    x 1.825780 0.000000 0.000000 
#    y 0.000000 1.815370 0.000000 
#    z 0.000000 0.000000 1.824280 
# 
# From -- ./inp_files/22665.got.cif
#   From: 2010.03.12/outbox.cif.g09.slc.cpg/sg53_12_cif.got.tgz:22665.got - 2010.04.16 14:36:59.
