data_PCOD8218963
_publ_section_title
;
Structure prediction by ZEFSAII (Michael W. Deem and Ramdas Pophale) SiO2 
 PCOD8218963
Probable space group: P M N A
;
_chemical_formula_sum "Si O2"
_cell_formula_units_Z 48
_cell_length_a 8.958436
_cell_length_b 10.368045
_cell_length_c 27.943046
_cell_angle_alpha 90.000000
_cell_angle_beta 90.000000
_cell_angle_gamma 90.000000
_cell_volume 2595.391121
_symmetry_space_group_name_H-M "P M N A"
_symmetry_group_IT_number 53
_symmetry_cell_setting 'orthorhombic'
loop_
_space_group_symop_operation_xyz
x,y,z
1/2-x,-y,1/2+z
x,-y,-z
1/2-x,y,1/2-z
-x,-y,-z
1/2+x,y,1/2-z
-x,y,z
1/2+x,-y,1/2+z
loop_
_atom_site_type_symbol
_atom_site_label
_atom_site_fract_x
_atom_site_fract_y
_atom_site_fract_z
Si Si1 0.174740 0.255256 0.897100
Si Si2 0.177169 0.003196 0.054582
Si Si3 0.676435 0.629702 0.298334
Si Si4 0.668346 0.492608 0.943644
Si Si5 0.325883 0.356884 0.202341
Si Si6 0.827209 0.755042 0.602387
O O1 0.241259 0.121503 0.917308
O O2 0.214790 0.271256 0.841069
O O3 0.235724 0.372472 0.927667
O O4 0.000000 0.256198 0.905184
O O5 0.000000 0.006276 0.055321
O O6 0.233624 0.127774 0.082146
O O7 0.236696 0.000000 0.000000
O O8 0.750000 0.686134 0.250000
O O9 0.500000 0.612820 0.291398
O O10 0.747718 0.491707 0.311074
O O11 0.500000 0.473654 0.924611
O O12 0.734064 0.624340 0.921812
O O13 0.674650 0.500000 0.000000
O O14 0.250000 0.297938 0.250000
O O15 0.500000 0.383710 0.211761
O O16 0.303047 0.255265 0.159536
O O17 0.000000 0.776330 0.589283
#
# Coordination Sequence:
#
# PCOD8218963 Si02
#       6
#     8   8   8   8   8   8
#     4  10  21  36  54  80 109 140 182 226 271 325
#     4  10  22  39  57  78 109 149 188 227 273 325
#     4  10  19  32  53  80 109 140 176 220 273 325
#     4  10  20  34  54  80 109 140 178 227 276 322
#     4  10  19  33  54  81 112 141 177 223 272 326
#     4  10  21  36  54  81 111 141 182 226 270 327
#
# _framework density 18.494322
#
# number of rings (size 3 to 8) (size 9 to 14) (size 15 to 20)
#    0.000    2.000    1.667    3.000    0.000    4.000 
#    0.000    0.833    0.000    4.000    0.000    0.000 
#    0.000    0.000    0.000    0.000    0.000    0.000 
#
# Total GULP energy -595228.899015 kJ/mol
# GULP energy per Si atom -12400.602063 kJ/mol
# Density = 1.845223 g / cm^3
# Si number density = 18.494322 Si / 1000 Ang^3
#
#
#
# Elastic Constant Matrix: (Units=GPa)
#
#
# Indices 1 2 3 4 5 6 
#
# 1 45.5832 22.8229 42.1083 0.0000 0.0000 0.0000
# 2 22.8229 121.5078 68.7195 0.0000 0.0000 0.0000
# 3 42.1083 68.7195 132.6150 0.0000 0.0000 0.0000
# 4 0.0000 0.0000 0.0000 32.5676 0.0000 0.0000
# 5 0.0000 0.0000 0.0000 0.0000 26.8945 0.0000
# 6 0.0000 0.0000 0.0000 0.0000 0.0000 27.7920
#
#
#
# Elastic Compliance Matrix: (Units=1/GPa)
#
#
# Indices 1 2 3 4 5 6 
#
# 1 0.031055 -0.000363 -0.009673 0.000000 0.000000 0.000000
# 2 -0.000363 0.011646 -0.005920 0.000000 0.000000 0.000000
# 3 -0.009673 -0.005920 0.013679 0.000000 0.000000 0.000000
# 4 0.000000 0.000000 0.000000 0.030705 0.000000 0.000000
# 5 0.000000 0.000000 0.000000 0.000000 0.037182 0.000000
# 6 0.000000 0.000000 0.000000 0.000000 0.000000 0.035982
#
#
# Mechanical properties :
#
#
# Convention : Reuss Voigt Hill
#
# Bulk Modulus (GPa) = 40.86600 63.00080 51.93340
# Shear Modulus (GPa) = 24.96058 28.52118 26.74088
#
# Velocity S-wave (km/s) = 3.67772 3.93129 3.80662
# Velocity P-wave (km/s) = 6.33866 7.39903 6.88928
#
# Compressibility (1/GPa) = 0.02447022
#
# Stress axis : x y z
#
# Youngs Moduli (GPa) = 32.20122 85.86694 73.10253
#
# Poissons Ratio (x) = 0.03113 0.70710
# Poissons Ratio (y) = 0.01168 0.43274
# Poissons Ratio (z) = 0.31147 0.50830
#
# Static dielectric constant tensor:
#      x y z
#    x 3.475040 0.000000 0.000000 
#    y 0.000000 3.320070 0.000000 
#    z 0.000000 0.000000 3.744190 
# 
# 
# High freq. dielectric constant tensor:
#      x y z
#    x 1.715180 0.000000 0.000000 
#    y 0.000000 1.699330 0.000000 
#    z 0.000000 0.000000 1.736720 
# 
# From -- ./inp_files/37764.got.cif
#   From: 2010.03.12/outbox.cif.g09.slc.cpg/sg53_19_cif.got.tgz:37764.got - 2010.04.16 14:36:59.
