data_PCOD8218833
_publ_section_title
;
Structure prediction by ZEFSAII (Michael W. Deem and Ramdas Pophale) SiO2 
 PCOD8218833
Probable space group: P M N A
;
_chemical_formula_sum "Si O2"
_cell_formula_units_Z 40
_cell_length_a 8.917755
_cell_length_b 26.203375
_cell_length_c 9.147188
_cell_angle_alpha 90.000000
_cell_angle_beta 90.000000
_cell_angle_gamma 90.000000
_cell_volume 2137.471703
_symmetry_space_group_name_H-M "P M N A"
_symmetry_group_IT_number 53
_symmetry_cell_setting 'orthorhombic'
loop_
_space_group_symop_operation_xyz
x,y,z
1/2-x,-y,1/2+z
x,-y,-z
1/2-x,y,1/2-z
-x,-y,-z
1/2+x,y,1/2-z
-x,y,z
1/2+x,-y,1/2+z
loop_
_atom_site_type_symbol
_atom_site_label
_atom_site_fract_x
_atom_site_fract_y
_atom_site_fract_z
Si Si1 0.176558 0.645664 0.407321
Si Si2 0.674568 0.045827 0.404996
Si Si3 0.677641 0.743655 0.909208
Si Si4 0.677057 0.548836 0.907885
Si Si5 0.175406 0.842869 0.907223
O O1 0.250000 0.642383 0.250000
O O2 0.226665 0.697410 0.487323
O O3 0.233284 0.598806 0.506193
O O4 0.000000 0.643130 0.385362
O O5 0.750000 0.043851 0.250000
O O6 0.500000 0.036481 0.379931
O O7 0.701540 0.101470 0.482291
O O8 0.744620 0.000000 0.500000
O O9 0.750000 0.735634 0.750000
O O10 0.500000 0.747302 0.891968
O O11 0.741964 0.795435 0.987062
O O12 0.750000 0.547244 0.750000
O O13 0.500000 0.549318 0.886366
O O14 0.730417 0.500000 0.000000
O O15 0.250000 0.846283 0.750000
O O16 0.000000 0.830478 0.893116
#
# Coordination Sequence:
#
# PCOD8218833 Si02
#       5
#     8   8   8   8   8
#     4  10  22  37  53  76 105 137 172 209 250 299
#     4   9  18  32  49  71  98 127 162 203 246 296
#     4  10  19  32  51  75 100 127 165 208 249 297
#     4  10  21  37  57  82 109 137 173 213 253 300
#     4   9  16  28  48  71  96 127 163 203 247 294
#
# _framework density 18.713698000000001
#
# number of rings (size 3 to 8) (size 9 to 14) (size 15 to 20)
#    0.000    2.400    0.000    3.600    0.000    4.000 
#    0.000    1.000    0.000    4.800    0.000    0.000 
#    0.000    0.000    0.000    0.000    0.000    0.000 
#
# Total GULP energy -495764.682318 kJ/mol
# GULP energy per Si atom -12394.117058 kJ/mol
# Density = 1.867110 g / cm^3
# Si number density = 18.713698 Si / 1000 Ang^3
#
#
#
# Elastic Constant Matrix: (Units=GPa)
#
#
# Indices 1 2 3 4 5 6 
#
# 1 59.0964 53.1112 37.4246 0.0000 0.0000 0.0000
# 2 53.1112 210.1497 84.0478 0.0000 0.0000 0.0000
# 3 37.4246 84.0478 112.9794 0.0000 0.0000 0.0000
# 4 0.0000 0.0000 0.0000 32.7764 0.0000 0.0000
# 5 0.0000 0.0000 0.0000 0.0000 27.1395 0.0000
# 6 0.0000 0.0000 0.0000 0.0000 0.0000 29.5709
#
#
#
# Elastic Compliance Matrix: (Units=1/GPa)
#
#
# Indices 1 2 3 4 5 6 
#
# 1 0.023600 -0.004040 -0.004812 0.000000 0.000000 0.000000
# 2 -0.004040 0.007465 -0.004216 0.000000 0.000000 0.000000
# 3 -0.004812 -0.004216 0.013581 0.000000 0.000000 0.000000
# 4 0.000000 0.000000 0.000000 0.030510 0.000000 0.000000
# 5 0.000000 0.000000 0.000000 0.000000 0.036847 0.000000
# 6 0.000000 0.000000 0.000000 0.000000 0.000000 0.033817
#
#
# Mechanical properties :
#
#
# Convention : Reuss Voigt Hill
#
# Bulk Modulus (GPa) = 54.02082 81.26586 67.64334
# Shear Modulus (GPa) = 28.07019 31.74016 29.90517
#
# Velocity S-wave (km/s) = 3.87716 4.12283 4.00188
# Velocity P-wave (km/s) = 6.99806 8.13534 7.58804
#
# Compressibility (1/GPa) = 0.01851138
#
# Stress axis : x y z
#
# Youngs Moduli (GPa) = 42.37377 133.95036 73.63108
#
# Poissons Ratio (x) = 0.54112 0.35432
# Poissons Ratio (y) = 0.17118 0.31039
# Poissons Ratio (z) = 0.20391 0.56467
#
# Static dielectric constant tensor:
#      x y z
#    x 3.399780 0.000000 0.000000 
#    y 0.000000 4.499350 0.000000 
#    z 0.000000 0.000000 3.127910 
# 
# 
# High freq. dielectric constant tensor:
#      x y z
#    x 1.726410 0.000000 0.000000 
#    y 0.000000 1.758480 0.000000 
#    z 0.000000 0.000000 1.693150 
# 
# From -- ./inp_files/6442.got.cif
#   From: 2010.03.12/outbox.cif.g09.slc.cpg/sg53_4_cif.got.tgz:6442.got - 2010.04.16 14:36:59.
