data_PCOD8218937
_publ_section_title
;
Structure prediction by ZEFSAII (Michael W. Deem and Ramdas Pophale) SiO2 
 PCOD8218937
Probable space group: P M N A
;
_chemical_formula_sum "Si O2"
_cell_formula_units_Z 64
_cell_length_a 8.885618
_cell_length_b 22.476926
_cell_length_c 15.879513
_cell_angle_alpha 90.000000
_cell_angle_beta 90.000000
_cell_angle_gamma 90.000000
_cell_volume 3171.478222
_symmetry_space_group_name_H-M "P M N A"
_symmetry_group_IT_number 53
_symmetry_cell_setting 'orthorhombic'
loop_
_space_group_symop_operation_xyz
x,y,z
1/2-x,-y,1/2+z
x,-y,-z
1/2-x,y,1/2-z
-x,-y,-z
1/2+x,y,1/2-z
-x,y,z
1/2+x,-y,1/2+z
loop_
_atom_site_type_symbol
_atom_site_label
_atom_site_fract_x
_atom_site_fract_y
_atom_site_fract_z
Si Si1 0.335809 0.888068 0.407704
Si Si2 0.832795 0.001011 0.399082
Si Si3 0.178883 0.636523 0.161299
Si Si4 0.821349 0.566997 0.998069
Si Si5 0.680247 0.647126 0.658988
Si Si6 0.665882 0.115229 0.399521
Si Si7 0.320510 0.228411 0.160556
Si Si8 0.176819 0.769069 0.164549
O O1 0.500000 0.890890 0.363764
O O2 0.353888 0.902788 0.504604
O O3 0.272273 0.820441 0.400447
O O4 0.233229 0.938489 0.364649
O O5 0.741746 0.056741 0.358634
O O6 0.000000 0.007147 0.363558
O O7 0.832978 0.000000 0.500000
O O8 0.250000 0.614787 0.250000
O O9 0.240594 0.597992 0.082974
O O10 0.234719 0.703455 0.139181
O O11 0.000000 0.631097 0.169807
O O12 0.000000 0.567834 0.000275
O O13 0.757871 0.500000 0.000000
O O14 0.768987 0.599563 0.911926
O O15 0.750000 0.629288 0.750000
O O16 0.500000 0.651332 0.667537
O O17 0.745844 0.710386 0.627875
O O18 0.500000 0.127532 0.359321
O O19 0.773114 0.172953 0.396837
O O20 0.250000 0.212601 0.250000
O O21 0.500000 0.235553 0.164222
O O22 0.250000 0.790596 0.250000
O O23 0.000000 0.764398 0.174914
#
# Coordination Sequence:
#
# PCOD8218937 Si02
#       8
#     8   8   8   8   8   8   8   8
#     4   9  18  31  50  73  99 133 177 220 269 328
#     4   9  17  30  47  70 103 136 173 220 273 323
#     4   9  18  34  56  80 112 148 187 231 279 331
#     4   9  19  35  58  87 116 151 194 232 272 333
#     4  10  20  36  59  83 115 153 191 235 284 335
#     4  10  19  32  53  77 102 135 177 221 271 325
#     4  11  22  37  55  78 108 139 177 222 274 330
#     4   9  18  32  50  73 101 134 172 218 266 320
#
# _framework density 20.179864999999999
#
# number of rings (size 3 to 8) (size 9 to 14) (size 15 to 20)
#    0.000    2.500    0.000    3.000    1.750    3.000 
#    0.000    1.875    0.000    4.125    0.000    0.000 
#    0.000    0.000    0.000    0.000    0.000    0.000 
#
# Total GULP energy -793076.237300 kJ/mol
# GULP energy per Si atom -12391.816208 kJ/mol
# Density = 2.013393 g / cm^3
# Si number density = 20.179865 Si / 1000 Ang^3
#
#
#
# Elastic Constant Matrix: (Units=GPa)
#
#
# Indices 1 2 3 4 5 6 
#
# 1 92.6059 50.7708 31.0305 0.0000 0.0000 0.0000
# 2 50.7708 164.2457 63.2399 0.0000 0.0000 0.0000
# 3 31.0305 63.2399 77.5882 0.0000 0.0000 0.0000
# 4 0.0000 0.0000 0.0000 12.2170 0.0000 0.0000
# 5 0.0000 0.0000 0.0000 0.0000 24.3544 0.0000
# 6 0.0000 0.0000 0.0000 0.0000 0.0000 10.8423
#
#
#
# Elastic Compliance Matrix: (Units=1/GPa)
#
#
# Indices 1 2 3 4 5 6 
#
# 1 0.013434 -0.003037 -0.002897 0.000000 0.000000 0.000000
# 2 -0.003037 0.009560 -0.006577 0.000000 0.000000 0.000000
# 3 -0.002897 -0.006577 0.019408 0.000000 0.000000 0.000000
# 4 0.000000 0.000000 0.000000 0.081853 0.000000 0.000000
# 5 0.000000 0.000000 0.000000 0.000000 0.041060 0.000000
# 6 0.000000 0.000000 0.000000 0.000000 0.000000 0.092231
#
#
# Mechanical properties :
#
#
# Convention : Reuss Voigt Hill
#
# Bulk Modulus (GPa) = 57.54129 69.39134 63.46632
# Shear Modulus (GPa) = 17.33924 22.10932 19.72428
#
# Velocity S-wave (km/s) = 2.93445 3.31360 3.12977
# Velocity P-wave (km/s) = 6.32910 7.00721 6.67677
#
# Compressibility (1/GPa) = 0.01737882
#
# Stress axis : x y z
#
# Youngs Moduli (GPa) = 74.43548 104.60593 51.52461
#
# Poissons Ratio (x) = 0.31771 0.14929
# Poissons Ratio (y) = 0.22607 0.33888
# Poissons Ratio (z) = 0.21567 0.68801
#
# Static dielectric constant tensor:
#      x y z
#    x 3.693920 0.000000 0.000000 
#    y 0.000000 3.912830 0.000000 
#    z 0.000000 0.000000 3.399850 
# 
# 
# High freq. dielectric constant tensor:
#      x y z
#    x 1.776060 0.000000 0.000000 
#    y 0.000000 1.797620 0.000000 
#    z 0.000000 0.000000 1.763920 
# 
# From -- ./inp_files/26947.got.cif
#   From: 2010.03.12/outbox.cif.g09.slc.cpg/sg53_14_cif.got.tgz:26947.got - 2010.04.16 14:36:59.
