data_PCOD8218572
_publ_section_title
;
Structure prediction by ZEFSAII (Michael W. Deem and Ramdas Pophale) SiO2 
 PCOD8218572
Probable space group: P M N A
;
_chemical_formula_sum "Si O2"
_cell_formula_units_Z 64
_cell_length_a 8.943116
_cell_length_b 20.658353
_cell_length_c 19.077210
_cell_angle_alpha 90.000000
_cell_angle_beta 90.000000
_cell_angle_gamma 90.000000
_cell_volume 3524.515449
_symmetry_space_group_name_H-M "P M N A"
_symmetry_group_IT_number 53
_symmetry_cell_setting 'orthorhombic'
loop_
_space_group_symop_operation_xyz
x,y,z
1/2-x,-y,1/2+z
x,-y,-z
1/2-x,y,1/2-z
-x,-y,-z
1/2+x,y,1/2-z
-x,y,z
1/2+x,-y,1/2+z
loop_
_atom_site_type_symbol
_atom_site_label
_atom_site_fract_x
_atom_site_fract_y
_atom_site_fract_z
Si Si1 0.323181 0.053705 0.326331
Si Si2 0.824065 0.775136 0.174618
Si Si3 0.827046 0.084489 0.823609
Si Si4 0.324980 0.472524 0.575337
Si Si5 0.175451 0.304520 0.413292
Si Si6 0.324138 0.675423 0.440157
Si Si7 0.322951 0.571644 0.825496
Si Si8 0.823100 0.820618 0.674195
O O1 0.250000 0.051089 0.250000
O O2 0.500000 0.066691 0.321509
O O3 0.243839 0.114790 0.364296
O O4 0.288629 0.983520 0.364283
O O5 0.750000 0.765145 0.250000
O O6 0.785711 0.846551 0.140437
O O7 0.761416 0.721526 0.121325
O O8 0.000000 0.766541 0.185195
O O9 0.750000 0.083429 0.750000
O O10 0.000000 0.083471 0.806291
O O11 0.276597 0.500000 0.500000
O O12 0.500000 0.484232 0.588815
O O13 0.280239 0.397576 0.579070
O O14 0.231415 0.507133 0.635764
O O15 0.252046 0.302376 0.487992
O O16 0.232024 0.366414 0.369659
O O17 0.223330 0.240187 0.372502
O O18 0.000000 0.308476 0.424961
O O19 0.500000 0.683017 0.449114
O O20 0.250000 0.575888 0.750000
O O21 0.500000 0.569895 0.816933
O O22 0.750000 0.810851 0.750000
O O23 0.000000 0.827072 0.682409
#
# Coordination Sequence:
#
# PCOD8218572 Si02
#       8
#     8   8   8   8   8   8   8   8
#     4   9  15  24  41  67  96 129 166 205 252 302
#     4   9  18  33  52  77 105 133 168 210 258 306
#     4   8  14  25  43  67  97 128 162 206 251 300
#     4  10  20  37  58  80 107 138 173 214 261 313
#     4  10  22  37  53  75 104 138 176 214 256 306
#     4  10  21  36  57  80 104 137 174 211 255 309
#     4  11  23  38  58  83 109 139 176 218 262 310
#     4  10  19  31  47  71 102 134 169 214 259 303
#
# _framework density 18.158524
#
# number of rings (size 3 to 8) (size 9 to 14) (size 15 to 20)
#    0.000    2.375    1.250    2.250    0.000    3.750 
#    0.000    1.250    0.000    0.750    0.000    5.250 
#    0.000    0.000    0.000    0.000    0.000    0.000 
#
# Total GULP energy -793066.358931 kJ/mol
# GULP energy per Si atom -12391.661858 kJ/mol
# Density = 1.811719 g / cm^3
# Si number density = 18.158524 Si / 1000 Ang^3
#
#
#
# Elastic Constant Matrix: (Units=GPa)
#
#
# Indices 1 2 3 4 5 6 
#
# 1 50.1554 49.1708 36.4606 0.0000 0.0000 0.0000
# 2 49.1708 192.9525 77.8317 0.0000 0.0000 0.0000
# 3 36.4606 77.8317 102.7743 0.0000 0.0000 0.0000
# 4 0.0000 0.0000 0.0000 13.4574 0.0000 0.0000
# 5 0.0000 0.0000 0.0000 0.0000 24.8138 0.0000
# 6 0.0000 0.0000 0.0000 0.0000 0.0000 23.8502
#
#
#
# Elastic Compliance Matrix: (Units=1/GPa)
#
#
# Indices 1 2 3 4 5 6 
#
# 1 0.029628 -0.004766 -0.006901 0.000000 0.000000 0.000000
# 2 -0.004766 0.008229 -0.004541 0.000000 0.000000 0.000000
# 3 -0.006901 -0.004541 0.015617 0.000000 0.000000 0.000000
# 4 0.000000 0.000000 0.000000 0.074309 0.000000 0.000000
# 5 0.000000 0.000000 0.000000 0.000000 0.040300 0.000000
# 6 0.000000 0.000000 0.000000 0.000000 0.000000 0.041928
#
#
# Mechanical properties :
#
#
# Convention : Reuss Voigt Hill
#
# Bulk Modulus (GPa) = 47.49046 74.75649 61.12347
# Shear Modulus (GPa) = 20.04434 24.58555 22.31495
#
# Velocity S-wave (km/s) = 3.32603 3.68358 3.50937
# Velocity P-wave (km/s) = 6.40000 7.70389 7.08202
#
# Compressibility (1/GPa) = 0.02105686
#
# Stress axis : x y z
#
# Youngs Moduli (GPa) = 33.75219 121.52261 64.03192
#
# Poissons Ratio (x) = 0.57922 0.44190
# Poissons Ratio (y) = 0.16088 0.29076
# Poissons Ratio (z) = 0.23293 0.55182
#
# Static dielectric constant tensor:
#      x y z
#    x 3.726640 0.000000 0.000000 
#    y 0.000000 4.310170 0.000000 
#    z 0.000000 0.000000 3.015400 
# 
# 
# High freq. dielectric constant tensor:
#      x y z
#    x 1.704400 0.000000 0.000000 
#    y 0.000000 1.734000 0.000000 
#    z 0.000000 0.000000 1.662870 
# 
# From -- ./inp_files/31405.got.cif
#   From: 2010.03.12/outbox.cif.g09.slc.cpg/sg53_16_cif.got.tgz:31405.got - 2010.04.16 14:36:59.
