data_PCOD8218665
_publ_section_title
;
Structure prediction by ZEFSAII (Michael W. Deem and Ramdas Pophale) SiO2 
 PCOD8218665
Probable space group: P M N A
;
_chemical_formula_sum "Si O2"
_cell_formula_units_Z 56
_cell_length_a 16.631089
_cell_length_b 31.141793
_cell_length_c 5.087369
_cell_angle_alpha 90.000000
_cell_angle_beta 90.000000
_cell_angle_gamma 90.000000
_cell_volume 2634.859976
_symmetry_space_group_name_H-M "P M N A"
_symmetry_group_IT_number 53
_symmetry_cell_setting 'orthorhombic'
loop_
_space_group_symop_operation_xyz
x,y,z
1/2-x,-y,1/2+z
x,-y,-z
1/2-x,y,1/2-z
-x,-y,-z
1/2+x,y,1/2-z
-x,y,z
1/2+x,-y,1/2+z
loop_
_atom_site_type_symbol
_atom_site_label
_atom_site_fract_x
_atom_site_fract_y
_atom_site_fract_z
Si Si1 0.839940 0.669050 0.842022
Si Si2 0.092184 0.899309 0.493089
Si Si3 0.342252 0.767716 0.696383
Si Si4 0.343093 0.810779 0.195048
Si Si5 0.592120 0.373630 0.858388
Si Si6 0.092075 0.953009 0.978834
Si Si7 0.195637 0.451436 0.502124
O O1 0.750000 0.657559 0.750000
O O2 0.851423 0.719138 0.902892
O O3 0.899557 0.658857 0.602002
O O4 0.857617 0.642222 0.105721
O O5 0.144712 0.858958 0.403882
O O6 0.129635 0.921192 0.756864
O O7 0.000000 0.884474 0.534804
O O8 0.099831 0.933881 0.265617
O O9 0.250000 0.780113 0.750000
O O10 0.383434 0.798741 0.475884
O O11 0.382361 0.778484 0.977965
O O12 0.250000 0.801185 0.250000
O O13 0.500000 0.377253 0.771211
O O14 0.620650 0.419594 0.971087
O O15 0.000000 0.959337 0.888473
O O16 0.133922 0.000000 0.000000
O O17 0.161708 0.500000 0.500000
O O18 0.250000 0.440889 0.250000
O O19 0.250000 0.443633 0.750000
#
# Coordination Sequence:
#
# PCOD8218665 Si02
#       7
#     8   8   8   8   8   8   8
#     4  11  22  40  64  85 111 155 206 245 280 339
#     4  10  19  31  49  75 102 130 169 212 259 314
#     4   9  19  35  56  78 101 137 187 231 265 318
#     4  10  19  34  54  77 104 136 175 221 274 325
#     4  12  24  38  58  90 127 155 187 240 306 357
#     4   9  17  30  49  72  99 131 169 212 253 302
#     4  10  21  39  63  88 115 155 206 247 282 339
#
# _framework density 21.253501
#
# number of rings (size 3 to 8) (size 9 to 14) (size 15 to 20)
#    0.000    1.857    0.000    5.143    0.000    4.286 
#    0.000    4.286    0.000    6.000    0.000    0.000 
#    0.000    0.000    0.000    0.000    0.000    0.000 
#
# Total GULP energy -694124.522907 kJ/mol
# GULP energy per Si atom -12395.080766 kJ/mol
# Density = 2.120513 g / cm^3
# Si number density = 21.253501 Si / 1000 Ang^3
#
#
#
# Elastic Constant Matrix: (Units=GPa)
#
#
# Indices 1 2 3 4 5 6 
#
# 1 42.6155 27.3109 23.2784 0.0000 0.0000 0.0000
# 2 27.3109 116.6421 50.5579 0.0000 0.0000 0.0000
# 3 23.2784 50.5579 153.5823 0.0000 0.0000 0.0000
# 4 0.0000 0.0000 0.0000 45.2639 0.0000 0.0000
# 5 0.0000 0.0000 0.0000 0.0000 30.1467 0.0000
# 6 0.0000 0.0000 0.0000 0.0000 0.0000 13.3773
#
#
#
# Elastic Compliance Matrix: (Units=1/GPa)
#
#
# Indices 1 2 3 4 5 6 
#
# 1 0.028388 -0.005578 -0.002467 0.000000 0.000000 0.000000
# 2 -0.005578 0.011096 -0.002807 0.000000 0.000000 0.000000
# 3 -0.002467 -0.002807 0.007809 0.000000 0.000000 0.000000
# 4 0.000000 0.000000 0.000000 0.022093 0.000000 0.000000
# 5 0.000000 0.000000 0.000000 0.000000 0.033171 0.000000
# 6 0.000000 0.000000 0.000000 0.000000 0.000000 0.074753
#
#
# Mechanical properties :
#
#
# Convention : Reuss Voigt Hill
#
# Bulk Modulus (GPa) = 39.07822 57.23714 48.15768
# Shear Modulus (GPa) = 24.09141 31.87041 27.98091
#
# Velocity S-wave (km/s) = 3.37044 3.87659 3.63234
# Velocity P-wave (km/s) = 5.79423 6.85758 6.34821
#
# Compressibility (1/GPa) = 0.02558970
#
# Stress axis : x y z
#
# Youngs Moduli (GPa) = 35.22673 90.12254 128.05457
#
# Poissons Ratio (x) = 0.50267 0.31586
# Poissons Ratio (y) = 0.19648 0.35949
# Poissons Ratio (z) = 0.08689 0.25300
#
# Static dielectric constant tensor:
#      x y z
#    x 3.377500 0.000000 0.000000 
#    y 0.000000 3.471630 0.000000 
#    z 0.000000 0.000000 4.319270 
# 
# 
# High freq. dielectric constant tensor:
#      x y z
#    x 1.777870 0.000000 0.000000 
#    y 0.000000 1.844390 0.000000 
#    z 0.000000 0.000000 1.862630 
# 
# From -- ./inp_files/1478.got.cif
#   From: 2010.03.12/outbox.cif.g09.slc.cpg/sg53_1_cif.got.tgz:1478.got - 2010.04.16 14:36:59.
