data_PCOD8218282
_publ_section_title
;
Structure prediction by ZEFSAII (Michael W. Deem and Ramdas Pophale) SiO2 
 PCOD8218282
Probable space group: P M N A
;
_chemical_formula_sum "Si O2"
_cell_formula_units_Z 64
_cell_length_a 8.999848
_cell_length_b 19.696966
_cell_length_c 19.835119
_cell_angle_alpha 90.000000
_cell_angle_beta 90.000000
_cell_angle_gamma 90.000000
_cell_volume 3516.165596
_symmetry_space_group_name_H-M "P M N A"
_symmetry_group_IT_number 53
_symmetry_cell_setting 'orthorhombic'
loop_
_space_group_symop_operation_xyz
x,y,z
1/2-x,-y,1/2+z
x,-y,-z
1/2-x,y,1/2-z
-x,-y,-z
1/2+x,y,1/2-z
-x,y,z
1/2+x,-y,1/2+z
loop_
_atom_site_type_symbol
_atom_site_label
_atom_site_fract_x
_atom_site_fract_y
_atom_site_fract_z
Si Si1 0.325277 0.830142 0.459316
Si Si2 0.329118 0.977022 0.423727
Si Si3 0.168955 0.658662 0.915126
Si Si4 0.173119 0.812044 0.891697
Si Si5 0.826374 0.560476 0.682036
Si Si6 0.172671 0.316283 0.929238
Si Si7 0.325715 0.404864 0.818245
Si Si8 0.175539 0.928120 0.681088
O O1 0.500000 0.822160 0.469844
O O2 0.284274 0.897416 0.417321
O O3 0.262054 0.834525 0.535341
O O4 0.271334 0.762004 0.421149
O O5 0.500000 0.988698 0.401762
O O6 0.306028 0.000000 0.500000
O O7 0.220363 0.018861 0.376575
O O8 0.198391 0.731982 0.881657
O O9 0.276521 0.603908 0.882005
O O10 0.000000 0.636280 0.901879
O O11 0.201562 0.660288 0.994472
O O12 0.266457 0.852617 0.836013
O O13 0.000000 0.831485 0.883855
O O14 0.750000 0.587979 0.750000
O O15 0.780173 0.482747 0.668490
O O16 0.000000 0.568578 0.692065
O O17 0.271575 0.361722 0.881219
O O18 0.000000 0.324143 0.909722
O O19 0.250000 0.377737 0.750000
O O20 0.500000 0.395882 0.809894
O O21 0.250000 0.953175 0.750000
O O22 0.000000 0.927005 0.689314
#
# Coordination Sequence:
#
# PCOD8218282 Si02
#       8
#     8   8   8   8   8   8   8   8
#     4   8  15  31  57  84 107 136 175 213 261 322
#     4  10  18  34  62  85 106 142 180 219 271 326
#     4   9  19  34  56  83 112 143 179 221 266 321
#     4   9  17  35  57  78 105 141 180 215 262 322
#     4  10  21  36  54  75 105 142 184 227 271 325
#     4   9  18  34  56  83 112 141 176 221 266 320
#     4  10  21  37  56  78 104 141 184 227 274 327
#     4  12  25  38  53  78 112 146 185 230 272 320
#
# _framework density 18.201644999999999
#
# number of rings (size 3 to 8) (size 9 to 14) (size 15 to 20)
#    0.000    2.375    1.250    3.375    0.000    3.750 
#    0.000    5.625    0.000    0.000    0.000    0.000 
#    0.000    0.000    0.000    0.000    0.000    0.000 
#
# Total GULP energy -793606.188490 kJ/mol
# GULP energy per Si atom -12400.096695 kJ/mol
# Density = 1.816022 g / cm^3
# Si number density = 18.201645 Si / 1000 Ang^3
#
#
#
# Elastic Constant Matrix: (Units=GPa)
#
#
# Indices 1 2 3 4 5 6 
#
# 1 86.7547 46.3907 45.0967 0.0000 0.0000 0.0000
# 2 46.3907 101.6020 53.3664 0.0000 0.0000 0.0000
# 3 45.0967 53.3664 79.7173 0.0000 0.0000 0.0000
# 4 0.0000 0.0000 0.0000 24.6762 0.0000 0.0000
# 5 0.0000 0.0000 0.0000 0.0000 32.9421 0.0000
# 6 0.0000 0.0000 0.0000 0.0000 0.0000 22.6728
#
#
#
# Elastic Compliance Matrix: (Units=1/GPa)
#
#
# Indices 1 2 3 4 5 6 
#
# 1 0.017465 -0.004295 -0.007005 0.000000 0.000000 0.000000
# 2 -0.004295 0.016236 -0.008440 0.000000 0.000000 0.000000
# 3 -0.007005 -0.008440 0.022157 0.000000 0.000000 0.000000
# 4 0.000000 0.000000 0.000000 0.040525 0.000000 0.000000
# 5 0.000000 0.000000 0.000000 0.000000 0.030356 0.000000
# 6 0.000000 0.000000 0.000000 0.000000 0.000000 0.044106
#
#
# Mechanical properties :
#
#
# Convention : Reuss Voigt Hill
#
# Bulk Modulus (GPa) = 61.05296 61.97572 61.51434
# Shear Modulus (GPa) = 23.17149 24.27290 23.72220
#
# Velocity S-wave (km/s) = 3.57184 3.65575 3.61404
# Velocity P-wave (km/s) = 7.11520 7.20713 7.16132
#
# Compressibility (1/GPa) = 0.01637922
#
# Stress axis : x y z
#
# Youngs Moduli (GPa) = 57.25882 61.59048 45.13309
#
# Poissons Ratio (x) = 0.26453 0.31614
# Poissons Ratio (y) = 0.24593 0.38090
# Poissons Ratio (z) = 0.40107 0.51980
#
# Static dielectric constant tensor:
#      x y z
#    x 3.152910 0.000000 0.000000 
#    y 0.000000 3.556670 0.000000 
#    z 0.000000 0.000000 3.210560 
# 
# 
# High freq. dielectric constant tensor:
#      x y z
#    x 1.689950 0.000000 0.000000 
#    y 0.000000 1.712730 0.000000 
#    z 0.000000 0.000000 1.694500 
# 
# From -- ./inp_files/26966.got.cif
#   From: 2010.03.12/outbox.cif.g09.slc.cpg/sg53_14_cif.got.tgz:26966.got - 2010.04.16 14:36:59.
