data_PCOD8218994
_publ_section_title
;
Structure prediction by ZEFSAII (Michael W. Deem and Ramdas Pophale) SiO2 
 PCOD8218994
Probable space group: P M N A
;
_chemical_formula_sum "Si O2"
_cell_formula_units_Z 48
_cell_length_a 9.086696
_cell_length_b 10.957831
_cell_length_c 22.851247
_cell_angle_alpha 90.000000
_cell_angle_beta 90.000000
_cell_angle_gamma 90.000000
_cell_volume 2275.309612
_symmetry_space_group_name_H-M "P M N A"
_symmetry_group_IT_number 53
_symmetry_cell_setting 'orthorhombic'
loop_
_space_group_symop_operation_xyz
x,y,z
1/2-x,-y,1/2+z
x,-y,-z
1/2-x,y,1/2-z
-x,-y,-z
1/2+x,y,1/2-z
-x,y,z
1/2+x,-y,1/2+z
loop_
_atom_site_type_symbol
_atom_site_label
_atom_site_fract_x
_atom_site_fract_y
_atom_site_fract_z
Si Si1 0.169199 0.160435 0.689296
Si Si2 0.669433 0.199536 0.480229
Si Si3 0.829957 0.682567 0.419662
Si Si4 0.169589 0.559893 0.903471
Si Si5 0.665634 0.306298 0.191277
Si Si6 0.833826 0.065038 0.384955
O O1 0.250000 0.184360 0.750000
O O2 0.188151 0.278687 0.648059
O O3 0.000000 0.134877 0.704378
O O4 0.233888 0.043340 0.654542
O O5 0.500000 0.171449 0.494219
O O6 0.761817 0.210067 0.540085
O O7 0.688479 0.327191 0.446738
O O8 0.733175 0.087340 0.442065
O O9 0.743042 0.558226 0.432613
O O10 0.000000 0.664558 0.436573
O O11 0.251034 0.585439 0.842329
O O12 0.000000 0.531425 0.890620
O O13 0.750000 0.274825 0.250000
O O14 0.500000 0.349946 0.204844
O O15 0.665517 0.185841 0.153131
O O16 0.000000 0.031164 0.404971
#
# Coordination Sequence:
#
# PCOD8218994 Si02
#       6
#     8   8   8   8   8   8
#     4  10  23  41  60  83 112 149 189 228 273 326
#     4  10  21  37  59  87 114 143 183 231 282 331
#     4  11  23  38  57  82 114 151 188 227 276 334
#     4  10  21  37  56  80 112 147 186 233 281 332
#     4  10  19  32  54  82 110 143 184 230 281 333
#     4   9  19  37  59  83 112 145 182 227 280 333
#
# _framework density 21.096029999999999
#
# number of rings (size 3 to 8) (size 9 to 14) (size 15 to 20)
#    0.000    2.000    0.000    3.000    0.000    8.000 
#    0.000    5.000    0.000    0.000    0.000    0.000 
#    0.000    0.000    0.000    0.000    0.000    0.000 
#
# Total GULP energy -595378.289042 kJ/mol
# GULP energy per Si atom -12403.714355 kJ/mol
# Density = 2.104801 g / cm^3
# Si number density = 21.096030 Si / 1000 Ang^3
#
#
#
# Elastic Constant Matrix: (Units=GPa)
#
#
# Indices 1 2 3 4 5 6 
#
# 1 138.1875 13.1160 44.4145 0.0000 0.0000 0.0000
# 2 13.1160 34.1657 -6.5924 0.0000 0.0000 0.0000
# 3 44.4145 -6.5924 73.0773 0.0000 0.0000 0.0000
# 4 0.0000 0.0000 0.0000 21.8810 0.0000 0.0000
# 5 0.0000 0.0000 0.0000 0.0000 41.3544 0.0000
# 6 0.0000 0.0000 0.0000 0.0000 0.0000 25.7446
#
#
#
# Elastic Compliance Matrix: (Units=1/GPa)
#
#
# Indices 1 2 3 4 5 6 
#
# 1 0.009760 -0.004978 -0.006381 0.000000 0.000000 0.000000
# 2 -0.004978 0.032327 0.005942 0.000000 0.000000 0.000000
# 3 -0.006381 0.005942 0.018098 0.000000 0.000000 0.000000
# 4 0.000000 0.000000 0.000000 0.045702 0.000000 0.000000
# 5 0.000000 0.000000 0.000000 0.000000 0.024181 0.000000
# 6 0.000000 0.000000 0.000000 0.000000 0.000000 0.038843
#
#
# Mechanical properties :
#
#
# Convention : Reuss Voigt Hill
#
# Bulk Modulus (GPa) = 20.26322 38.58962 29.42642
# Shear Modulus (GPa) = 25.48480 30.76215 28.12347
#
# Velocity S-wave (km/s) = 3.47945 3.82278 3.65515
# Velocity P-wave (km/s) = 5.07624 6.14954 5.63849
#
# Compressibility (1/GPa) = 0.04935051
#
# Stress axis : x y z
#
# Youngs Moduli (GPa) = 102.46015 30.93427 55.25387
#
# Poissons Ratio (x) = 0.15399 0.35257
# Poissons Ratio (y) = 0.51004 -0.32830
# Poissons Ratio (z) = 0.65379 -0.18380
#
# Static dielectric constant tensor:
#      x y z
#    x 3.904480 0.000000 0.000000 
#    y 0.000000 3.667600 0.000000 
#    z 0.000000 0.000000 3.758450 
# 
# 
# High freq. dielectric constant tensor:
#      x y z
#    x 1.829800 0.000000 0.000000 
#    y 0.000000 1.823990 0.000000 
#    z 0.000000 0.000000 1.827030 
# 
# From -- ./inp_files/33919.got.cif
#   From: 2010.03.12/outbox.cif.g09.slc.cpg/sg53_17_cif.got.tgz:33919.got - 2010.04.16 14:36:59.
