data_PCOD8218924
_publ_section_title
;
Structure prediction by ZEFSAII (Michael W. Deem and Ramdas Pophale) SiO2 
 PCOD8218924
Probable space group: P M N A
;
_chemical_formula_sum "Si O2"
_cell_formula_units_Z 56
_cell_length_a 8.987922
_cell_length_b 18.587359
_cell_length_c 18.955995
_cell_angle_alpha 90.000000
_cell_angle_beta 90.000000
_cell_angle_gamma 90.000000
_cell_volume 3166.821373
_symmetry_space_group_name_H-M "P M N A"
_symmetry_group_IT_number 53
_symmetry_cell_setting 'orthorhombic'
loop_
_space_group_symop_operation_xyz
x,y,z
1/2-x,-y,1/2+z
x,-y,-z
1/2-x,y,1/2-z
-x,-y,-z
1/2+x,y,1/2-z
-x,y,z
1/2+x,-y,1/2+z
loop_
_atom_site_type_symbol
_atom_site_label
_atom_site_fract_x
_atom_site_fract_y
_atom_site_fract_z
Si Si1 0.673634 0.851346 0.047165
Si Si2 0.325101 0.314359 0.955071
Si Si3 0.830942 0.942872 0.937786
Si Si4 0.662306 0.378165 0.814328
Si Si5 0.333749 0.452764 0.183517
Si Si6 0.177636 0.040544 0.671728
Si Si7 0.675285 0.429988 0.458635
O O1 0.500000 0.864114 0.034866
O O2 0.717514 0.768408 0.054841
O O3 0.720865 0.892570 0.119761
O O4 0.753710 0.874452 0.974343
O O5 0.500000 0.325486 0.966464
O O6 0.260681 0.356436 0.887170
O O7 0.241772 0.353306 0.018570
O O8 0.000000 0.924965 0.914981
O O9 0.742258 0.969547 0.867906
O O10 0.826881 0.000000 0.000000
O O11 0.750000 0.342601 0.750000
O O12 0.500000 0.342052 0.813422
O O13 0.650536 0.462737 0.805265
O O14 0.250000 0.417404 0.250000
O O15 0.500000 0.419898 0.173189
O O16 0.223030 0.436979 0.121000
O O17 0.250000 0.050145 0.750000
O O18 0.000000 0.033299 0.680665
O O19 0.739629 0.500000 0.500000
O O20 0.500000 0.427187 0.466125
#
# Coordination Sequence:
#
# PCOD8218924 Si02
#       7
#     8   8   8   8   8   8   8
#     4   9  19  34  52  74 105 142 177 213 256 311
#     4  10  20  35  52  73 102 140 179 214 263 317
#     4   9  17  31  52  76 102 134 173 212 250 295
#     4   9  18  30  46  68  96 130 167 206 252 308
#     4  10  19  33  53  74  98 128 165 212 266 317
#     4  10  19  32  52  80 111 141 175 212 252 298
#     4  11  22  34  51  76 103 132 176 228 271 313
#
# _framework density 17.683347999999999
#
# number of rings (size 3 to 8) (size 9 to 14) (size 15 to 20)
#    0.000    2.286    1.429    1.714    0.000    5.143 
#    0.000    0.000    0.000    0.857    0.000    0.000 
#    0.000    0.000    0.000    0.000    0.000    0.000 
#
# Total GULP energy -693985.969838 kJ/mol
# GULP energy per Si atom -12392.606604 kJ/mol
# Density = 1.764310 g / cm^3
# Si number density = 17.683348 Si / 1000 Ang^3
#
#
#
# Elastic Constant Matrix: (Units=GPa)
#
#
# Indices 1 2 3 4 5 6 
#
# 1 73.5539 35.0678 40.1312 0.0000 0.0000 0.0000
# 2 35.0678 40.9539 36.3836 0.0000 0.0000 0.0000
# 3 40.1312 36.3836 115.6684 0.0000 0.0000 0.0000
# 4 0.0000 0.0000 0.0000 15.9830 0.0000 0.0000
# 5 0.0000 0.0000 0.0000 0.0000 36.1189 0.0000
# 6 0.0000 0.0000 0.0000 0.0000 0.0000 19.9729
#
#
#
# Elastic Compliance Matrix: (Units=1/GPa)
#
#
# Indices 1 2 3 4 5 6 
#
# 1 0.023497 -0.017871 -0.002531 0.000000 0.000000 0.000000
# 2 -0.017871 0.047480 -0.008734 0.000000 0.000000 0.000000
# 3 -0.002531 -0.008734 0.012271 0.000000 0.000000 0.000000
# 4 0.000000 0.000000 0.000000 0.062566 0.000000 0.000000
# 5 0.000000 0.000000 0.000000 0.000000 0.027686 0.000000
# 6 0.000000 0.000000 0.000000 0.000000 0.000000 0.050068
#
#
# Mechanical properties :
#
#
# Convention : Reuss Voigt Hill
#
# Bulk Modulus (GPa) = 40.04052 50.37127 45.20590
# Shear Modulus (GPa) = 17.23151 22.32120 19.77635
#
# Velocity S-wave (km/s) = 3.12500 3.55670 3.34782
# Velocity P-wave (km/s) = 5.97604 6.73898 6.36894
#
# Compressibility (1/GPa) = 0.02497470
#
# Stress axis : x y z
#
# Youngs Moduli (GPa) = 42.55939 21.06146 81.49378
#
# Poissons Ratio (x) = 0.37639 0.20624
# Poissons Ratio (y) = 0.76059 0.71180
# Poissons Ratio (z) = 0.10771 0.18396
#
# Static dielectric constant tensor:
#      x y z
#    x 3.460080 0.000000 0.000000 
#    y 0.000000 3.078360 0.000000 
#    z 0.000000 0.000000 3.267650 
# 
# 
# High freq. dielectric constant tensor:
#      x y z
#    x 1.691260 0.000000 0.000000 
#    y 0.000000 1.649390 0.000000 
#    z 0.000000 0.000000 1.686140 
# 
# From -- ./inp_files/26644.got.cif
#   From: 2010.03.12/outbox.cif.g09.slc.cpg/sg53_14_cif.got.tgz:26644.got - 2010.04.16 14:36:59.
