data_PCOD8218611
_publ_section_title
;
Structure prediction by ZEFSAII (Michael W. Deem and Ramdas Pophale) SiO2 
 PCOD8218611
Probable space group: P M N A
;
_chemical_formula_sum "Si O2"
_cell_formula_units_Z 64
_cell_length_a 8.937051
_cell_length_b 23.144449
_cell_length_c 15.956710
_cell_angle_alpha 90.000000
_cell_angle_beta 90.000000
_cell_angle_gamma 90.000000
_cell_volume 3300.535699
_symmetry_space_group_name_H-M "P M N A"
_symmetry_group_IT_number 53
_symmetry_cell_setting 'orthorhombic'
loop_
_space_group_symop_operation_xyz
x,y,z
1/2-x,-y,1/2+z
x,-y,-z
1/2-x,y,1/2-z
-x,-y,-z
1/2+x,y,1/2-z
-x,y,z
1/2+x,-y,1/2+z
loop_
_atom_site_type_symbol
_atom_site_label
_atom_site_fract_x
_atom_site_fract_y
_atom_site_fract_z
Si Si1 0.177759 0.131367 0.995228
Si Si2 0.324973 0.321794 0.331451
Si Si3 0.324301 0.061000 0.664649
Si Si4 0.325447 0.737467 0.495549
Si Si5 0.175787 0.072585 0.164419
Si Si6 0.670855 0.571601 0.904677
Si Si7 0.822571 0.466918 0.835871
Si Si8 0.169693 0.633475 0.418794
O O1 0.239850 0.095413 0.915845
O O2 0.230380 0.197219 0.983863
O O3 0.000000 0.126440 0.998132
O O4 0.240342 0.106445 0.083339
O O5 0.250000 0.292177 0.250000
O O6 0.500000 0.330072 0.317706
O O7 0.289564 0.280520 0.409442
O O8 0.250575 0.384491 0.341409
O O9 0.250000 0.084774 0.750000
O O10 0.500000 0.070612 0.673342
O O11 0.282814 0.994275 0.650887
O O12 0.500000 0.730377 0.475618
O O13 0.235541 0.697586 0.430482
O O14 0.250000 0.096342 0.250000
O O15 0.000000 0.082118 0.173534
O O16 0.500000 0.561249 0.876558
O O17 0.759562 0.510959 0.905874
O O18 0.679144 0.597851 0.996293
O O19 0.750000 0.489032 0.750000
O O20 0.768815 0.401354 0.852053
O O21 0.000000 0.468958 0.832915
O O22 0.000000 0.638531 0.386070
#
# Coordination Sequence:
#
# PCOD8218611 Si02
#       8
#     8   8   8   8   8   8   8   8
#     4   9  17  32  54  76 101 139 183 220 258 311
#     4  10  19  31  48  71 100 133 169 209 255 307
#     4   9  17  31  52  77 105 137 175 219 266 315
#     4   9  19  35  53  72  96 132 177 217 253 302
#     4   9  17  30  50  78 110 142 175 213 260 315
#     4  10  20  35  55  78 104 132 164 204 251 305
#     4  12  24  37  55  79 106 132 163 205 253 305
#     4  10  21  38  57  76 101 133 168 207 253 303
#
# _framework density 19.390792000000001
#
# number of rings (size 3 to 8) (size 9 to 14) (size 15 to 20)
#    0.000    2.250    0.000    3.375    0.000    5.500 
#    0.000    2.500    0.000    4.500    0.000    0.000 
#    0.000    0.000    0.000    0.000    0.000    0.000 
#
# Total GULP energy -793669.389233 kJ/mol
# GULP energy per Si atom -12401.084207 kJ/mol
# Density = 1.934666 g / cm^3
# Si number density = 19.390792 Si / 1000 Ang^3
#
#
#
# Elastic Constant Matrix: (Units=GPa)
#
#
# Indices 1 2 3 4 5 6 
#
# 1 89.9826 37.9270 29.9233 0.0000 0.0000 0.0000
# 2 37.9270 113.1310 46.3353 0.0000 0.0000 0.0000
# 3 29.9233 46.3353 86.1398 0.0000 0.0000 0.0000
# 4 0.0000 0.0000 0.0000 19.2443 0.0000 0.0000
# 5 0.0000 0.0000 0.0000 0.0000 30.7055 0.0000
# 6 0.0000 0.0000 0.0000 0.0000 0.0000 21.8876
#
#
#
# Elastic Compliance Matrix: (Units=1/GPa)
#
#
# Indices 1 2 3 4 5 6 
#
# 1 0.013480 -0.003336 -0.002888 0.000000 0.000000 0.000000
# 2 -0.003336 0.012163 -0.005383 0.000000 0.000000 0.000000
# 3 -0.002888 -0.005383 0.015508 0.000000 0.000000 0.000000
# 4 0.000000 0.000000 0.000000 0.051963 0.000000 0.000000
# 5 0.000000 0.000000 0.000000 0.000000 0.032567 0.000000
# 6 0.000000 0.000000 0.000000 0.000000 0.000000 0.045688
#
#
# Mechanical properties :
#
#
# Convention : Reuss Voigt Hill
#
# Bulk Modulus (GPa) = 55.75647 57.51386 56.63516
# Shear Modulus (GPa) = 24.92978 26.03867 25.48422
#
# Velocity S-wave (km/s) = 3.58949 3.66845 3.62918
# Velocity P-wave (km/s) = 6.78202 6.90421 6.84339
#
# Compressibility (1/GPa) = 0.01793514
#
# Stress axis : x y z
#
# Youngs Moduli (GPa) = 74.18469 82.21865 64.48238
#
# Poissons Ratio (x) = 0.27430 0.18623
# Poissons Ratio (y) = 0.24750 0.34714
# Poissons Ratio (z) = 0.21425 0.44262
#
# Static dielectric constant tensor:
#      x y z
#    x 3.425470 0.000000 0.000000 
#    y 0.000000 3.529570 0.000000 
#    z 0.000000 0.000000 3.489170 
# 
# 
# High freq. dielectric constant tensor:
#      x y z
#    x 1.742230 0.000000 0.000000 
#    y 0.000000 1.746000 0.000000 
#    z 0.000000 0.000000 1.754290 
# 
# From -- ./inp_files/20997.got.cif
#   From: 2010.03.12/outbox.cif.g09.slc.cpg/sg53_11_cif.got.tgz:20997.got - 2010.04.16 14:36:59.
