data_PCOD8218569
_publ_section_title
;
Structure prediction by ZEFSAII (Michael W. Deem and Ramdas Pophale) SiO2 
 PCOD8218569
Probable space group: P M N A
;
_chemical_formula_sum "Si O2"
_cell_formula_units_Z 64
_cell_length_a 8.948198
_cell_length_b 21.427862
_cell_length_c 19.443035
_cell_angle_alpha 90.000000
_cell_angle_beta 90.000000
_cell_angle_gamma 90.000000
_cell_volume 3728.022150
_symmetry_space_group_name_H-M "P M N A"
_symmetry_group_IT_number 53
_symmetry_cell_setting 'orthorhombic'
loop_
_space_group_symop_operation_xyz
x,y,z
1/2-x,-y,1/2+z
x,-y,-z
1/2-x,y,1/2-z
-x,-y,-z
1/2+x,y,1/2-z
-x,y,z
1/2+x,-y,1/2+z
loop_
_atom_site_type_symbol
_atom_site_label
_atom_site_fract_x
_atom_site_fract_y
_atom_site_fract_z
Si Si1 0.175044 0.851914 0.417460
Si Si2 0.837705 0.311414 0.019319
Si Si3 0.326660 0.962157 0.180458
Si Si4 0.820619 0.563385 0.033892
Si Si5 0.823363 0.393233 0.818731
Si Si6 0.820459 0.818093 0.942005
Si Si7 0.163595 0.738331 0.133306
Si Si8 0.323060 0.896056 0.821595
O O1 0.217489 0.917474 0.382402
O O2 0.266518 0.850532 0.487981
O O3 0.221741 0.796196 0.365190
O O4 0.000000 0.846335 0.433451
O O5 0.754353 0.378605 0.012303
O O6 0.858734 0.285404 0.943337
O O7 0.000000 0.323550 0.052906
O O8 0.760584 0.254557 0.061520
O O9 0.250000 0.938886 0.250000
O O10 0.500000 0.958525 0.196071
O O11 0.279321 0.032561 0.160977
O O12 0.767098 0.569119 0.113327
O O13 0.000000 0.566905 0.031745
O O14 0.758999 0.500000 0.000000
O O15 0.750000 0.422454 0.750000
O O16 0.774288 0.320356 0.823117
O O17 0.000000 0.399184 0.812776
O O18 0.748193 0.852860 0.878817
O O19 0.000000 0.820588 0.939416
O O20 0.000000 0.759790 0.161026
O O21 0.250000 0.875660 0.750000
O O22 0.500000 0.886047 0.818590
#
# Coordination Sequence:
#
# PCOD8218569 Si02
#       8
#     8   8   8   8   8   8   8   8
#     4  10  19  31  47  70  96 123 156 193 235 278
#     4   7  12  24  42  64  89 113 142 182 222 262
#     4   9  20  35  49  65  90 122 155 195 240 286
#     4   8  13  24  45  70  92 120 159 194 225 268
#     4   9  17  28  43  65  93 123 156 195 233 271
#     4  10  19  32  50  72  97 125 155 191 235 280
#     4   8  15  28  42  59  87 120 150 182 222 268
#     4  10  20  36  54  71  91 118 155 198 244 291
#
# _framework density 17.167280999999999
#
# number of rings (size 3 to 8) (size 9 to 14) (size 15 to 20)
#    0.000    3.125    0.000    3.375    0.000    3.000 
#    0.000    5.000    0.000    1.125    0.000    1.750 
#    0.000    0.000    0.000    0.000    0.000    0.000 
#
# Total GULP energy -792870.787127 kJ/mol
# GULP energy per Si atom -12388.606049 kJ/mol
# Density = 1.712821 g / cm^3
# Si number density = 17.167281 Si / 1000 Ang^3
#
#
#
# Elastic Constant Matrix: (Units=GPa)
#
#
# Indices 1 2 3 4 5 6 
#
# 1 48.1833 37.0492 36.5702 0.0000 0.0000 0.0000
# 2 37.0492 126.1401 75.2529 0.0000 0.0000 0.0000
# 3 36.5702 75.2529 104.6638 0.0000 0.0000 0.0000
# 4 0.0000 0.0000 0.0000 21.0072 0.0000 0.0000
# 5 0.0000 0.0000 0.0000 0.0000 26.8726 0.0000
# 6 0.0000 0.0000 0.0000 0.0000 0.0000 6.7459
#
#
#
# Elastic Compliance Matrix: (Units=1/GPa)
#
#
# Indices 1 2 3 4 5 6 
#
# 1 0.029586 -0.004418 -0.007161 0.000000 0.000000 0.000000
# 2 -0.004418 0.014542 -0.008912 0.000000 0.000000 0.000000
# 3 -0.007161 -0.008912 0.018464 0.000000 0.000000 0.000000
# 4 0.000000 0.000000 0.000000 0.047603 0.000000 0.000000
# 5 0.000000 0.000000 0.000000 0.000000 0.037213 0.000000
# 6 0.000000 0.000000 0.000000 0.000000 0.000000 0.148239
#
#
# Mechanical properties :
#
#
# Convention : Reuss Voigt Hill
#
# Bulk Modulus (GPa) = 46.27384 64.08129 55.17756
# Shear Modulus (GPa) = 14.54196 19.59948 17.07072
#
# Velocity S-wave (km/s) = 2.91361 3.38254 3.15679
# Velocity P-wave (km/s) = 6.19129 7.25700 6.74522
#
# Compressibility (1/GPa) = 0.02161048
#
# Stress axis : x y z
#
# Youngs Moduli (GPa) = 33.79956 68.76637 54.15824
#
# Poissons Ratio (x) = 0.30378 0.38785
# Poissons Ratio (y) = 0.14931 0.48266
# Poissons Ratio (z) = 0.24205 0.61285
#
# Static dielectric constant tensor:
#      x y z
#    x 3.019190 0.000000 0.000000 
#    y 0.000000 3.631280 0.000000 
#    z 0.000000 0.000000 3.210740 
# 
# 
# High freq. dielectric constant tensor:
#      x y z
#    x 1.640850 0.000000 0.000000 
#    y 0.000000 1.660070 0.000000 
#    z 0.000000 0.000000 1.642710 
# 
# From -- ./inp_files/31364.got.cif
#   From: 2010.03.12/outbox.cif.g09.slc.cpg/sg53_16_cif.got.tgz:31364.got - 2010.04.16 14:36:59.
