data_PCOD8218710
_publ_section_title
;
Structure prediction by ZEFSAII (Michael W. Deem and Ramdas Pophale) SiO2 
 PCOD8218710
Probable space group: P M N A
;
_chemical_formula_sum "Si O2"
_cell_formula_units_Z 56
_cell_length_a 9.124221
_cell_length_b 17.373346
_cell_length_c 18.312596
_cell_angle_alpha 90.000000
_cell_angle_beta 90.000000
_cell_angle_gamma 90.000000
_cell_volume 2902.880642
_symmetry_space_group_name_H-M "P M N A"
_symmetry_group_IT_number 53
_symmetry_cell_setting 'orthorhombic'
loop_
_space_group_symop_operation_xyz
x,y,z
1/2-x,-y,1/2+z
x,-y,-z
1/2-x,y,1/2-z
-x,-y,-z
1/2+x,y,1/2-z
-x,y,z
1/2+x,-y,1/2+z
loop_
_atom_site_type_symbol
_atom_site_label
_atom_site_fract_x
_atom_site_fract_y
_atom_site_fract_z
Si Si1 0.837112 0.662595 0.931813
Si Si2 0.161553 0.372349 0.902157
Si Si3 0.171068 0.177097 0.441173
Si Si4 0.167177 0.753778 0.324249
Si Si5 0.165120 0.517156 0.585937
Si Si6 0.170532 0.047104 0.327481
Si Si7 0.666988 0.097300 0.913678
O O1 0.759080 0.744802 0.929984
O O2 0.738163 0.598717 0.891078
O O3 0.000000 0.670191 0.896391
O O4 0.856586 0.628423 0.011772
O O5 0.260203 0.298955 0.885040
O O6 0.241656 0.449855 0.874899
O O7 0.000000 0.367976 0.865423
O O8 0.192609 0.128300 0.367565
O O9 0.237235 0.129455 0.510817
O O10 0.000000 0.196732 0.455648
O O11 0.250000 0.739998 0.250000
O O12 0.182322 0.841356 0.349061
O O13 0.000000 0.729125 0.314370
O O14 0.162026 0.500000 0.500000
O O15 0.000000 0.517259 0.616897
O O16 0.250000 0.048673 0.250000
O O17 0.000000 0.029530 0.312754
O O18 0.238163 0.980880 0.381174
O O19 0.500000 0.078377 0.933592
#
# Coordination Sequence:
#
# PCOD8218710 Si02
#       7
#     8   8   8   8   8   8   8
#     4  10  19  31  50  79 111 139 173 223 276 319
#     4  10  19  32  49  73 107 142 179 222 270 321
#     4  10  19  34  57  81 107 141 185 228 272 327
#     4  11  21  33  51  75 107 146 186 227 276 331
#     4   9  17  29  49  75 104 139 177 215 261 317
#     4  10  21  37  57  80 108 143 181 226 275 329
#     4   9  18  34  56  80 105 139 183 228 272 324
#
# _framework density 19.291181999999999
#
# number of rings (size 3 to 8) (size 9 to 14) (size 15 to 20)
#    0.000    2.143    1.429    2.571    0.000    5.143 
#    0.000    1.429    0.000    2.571    0.000    4.000 
#    0.000    0.000    0.000    0.000    0.000    0.000 
#
# Total GULP energy -694192.575022 kJ/mol
# GULP energy per Si atom -12396.295983 kJ/mol
# Density = 1.924727 g / cm^3
# Si number density = 19.291182 Si / 1000 Ang^3
#
#
#
# Elastic Constant Matrix: (Units=GPa)
#
#
# Indices 1 2 3 4 5 6 
#
# 1 128.7399 62.8523 18.8061 0.0000 0.0000 0.0000
# 2 62.8523 133.2389 17.2447 0.0000 0.0000 0.0000
# 3 18.8061 17.2447 33.8597 0.0000 0.0000 0.0000
# 4 0.0000 0.0000 0.0000 1.0269 0.0000 0.0000
# 5 0.0000 0.0000 0.0000 0.0000 23.9420 0.0000
# 6 0.0000 0.0000 0.0000 0.0000 0.0000 28.5742
#
#
#
# Elastic Compliance Matrix: (Units=1/GPa)
#
#
# Indices 1 2 3 4 5 6 
#
# 1 0.010472 -0.004483 -0.003533 0.000000 0.000000 0.000000
# 2 -0.004483 0.009954 -0.002580 0.000000 0.000000 0.000000
# 3 -0.003533 -0.002580 0.032810 0.000000 0.000000 0.000000
# 4 0.000000 0.000000 0.000000 0.973760 0.000000 0.000000
# 5 0.000000 0.000000 0.000000 0.000000 0.041768 0.000000
# 6 0.000000 0.000000 0.000000 0.000000 0.000000 0.034997
#
#
# Mechanical properties :
#
#
# Convention : Reuss Voigt Hill
#
# Bulk Modulus (GPa) = 31.20666 54.84940 43.02803
# Shear Modulus (GPa) = 4.40283 23.83767 14.12025
#
# Velocity S-wave (km/s) = 1.51237 3.51903 2.70840
# Velocity P-wave (km/s) = 4.38879 6.70862 5.66864
#
# Compressibility (1/GPa) = 0.03204444
#
# Stress axis : x y z
#
# Youngs Moduli (GPa) = 95.49029 100.46388 30.47853
#
# Poissons Ratio (x) = 0.45035 0.10769
# Poissons Ratio (y) = 0.42806 0.07863
# Poissons Ratio (z) = 0.33740 0.25917
#
# Static dielectric constant tensor:
#      x y z
#    x 3.625080 0.000000 0.000000 
#    y 0.000000 3.608900 0.000000 
#    z 0.000000 0.000000 3.402470 
# 
# 
# High freq. dielectric constant tensor:
#      x y z
#    x 1.743490 0.000000 0.000000 
#    y 0.000000 1.763600 0.000000 
#    z 0.000000 0.000000 1.710520 
# 
# From -- ./inp_files/30810.got.cif
#   From: 2010.03.12/outbox.cif.g09.slc.cpg/sg53_16_cif.got.tgz:30810.got - 2010.04.16 14:36:59.
