data_PCOD8218920
_publ_section_title
;
Structure prediction by ZEFSAII (Michael W. Deem and Ramdas Pophale) SiO2 
 PCOD8218920
Probable space group: P M N A
;
_chemical_formula_sum "Si O2"
_cell_formula_units_Z 64
_cell_length_a 9.173086
_cell_length_b 24.670027
_cell_length_c 14.278988
_cell_angle_alpha 90.000000
_cell_angle_beta 90.000000
_cell_angle_gamma 90.000000
_cell_volume 3231.338972
_symmetry_space_group_name_H-M "P M N A"
_symmetry_group_IT_number 53
_symmetry_cell_setting 'orthorhombic'
loop_
_space_group_symop_operation_xyz
x,y,z
1/2-x,-y,1/2+z
x,-y,-z
1/2-x,y,1/2-z
-x,-y,-z
1/2+x,y,1/2-z
-x,y,z
1/2+x,-y,1/2+z
loop_
_atom_site_type_symbol
_atom_site_label
_atom_site_fract_x
_atom_site_fract_y
_atom_site_fract_z
Si Si1 0.671993 0.914802 0.839417
Si Si2 0.332536 0.333970 0.962213
Si Si3 0.662992 0.592449 0.337192
Si Si4 0.670808 0.771164 0.150708
Si Si5 0.662730 0.018194 0.605646
Si Si6 0.334993 0.476699 0.402213
Si Si7 0.832111 0.371668 0.339482
Si Si8 0.669855 0.119084 0.953258
O O1 0.750000 0.885434 0.750000
O O2 0.500000 0.916874 0.822325
O O3 0.735611 0.975740 0.840519
O O4 0.710305 0.883415 0.935989
O O5 0.500000 0.345693 0.937016
O O6 0.237356 0.385617 0.931608
O O7 0.276355 0.280154 0.910383
O O8 0.312841 0.329706 0.074508
O O9 0.750000 0.617633 0.250000
O O10 0.500000 0.615287 0.332575
O O11 0.665512 0.527481 0.331499
O O12 0.750000 0.773091 0.250000
O O13 0.500000 0.768777 0.170909
O O14 0.711311 0.822421 0.086705
O O15 0.500000 0.021254 0.650509
O O16 0.738838 0.076816 0.608983
O O17 0.648786 0.000000 0.500000
O O18 0.274934 0.500000 0.500000
O O19 0.500000 0.453930 0.415017
O O20 0.230852 0.430789 0.362483
O O21 0.750000 0.346384 0.250000
O O22 0.000000 0.380094 0.313224
O O23 0.500000 0.105106 0.940815
#
# Coordination Sequence:
#
# PCOD8218920 Si02
#       8
#     8   8   8   8   8   8   8   8
#     4  10  19  32  52  79 112 151 190 227 272 325
#     4  10  22  40  60  82 109 142 183 229 277 328
#     4  11  22  35  55  81 112 145 180 222 270 325
#     4  10  22  41  62  84 109 139 180 228 280 333
#     4   9  17  30  50  77 110 146 185 228 269 318
#     4  10  20  36  56  82 114 148 183 223 271 325
#     4  11  23  38  59  84 113 149 187 228 275 331
#     4   9  19  36  56  78 110 150 186 227 279 333
#
# _framework density 19.80603
#
# number of rings (size 3 to 8) (size 9 to 14) (size 15 to 20)
#    0.000    2.000    1.250    2.250    0.000    7.250 
#    0.000    1.875    0.000    0.000    0.000    0.000 
#    0.000    0.000    0.000    0.000    0.000    0.000 
#
# Total GULP energy -793540.199294 kJ/mol
# GULP energy per Si atom -12399.065614 kJ/mol
# Density = 1.976095 g / cm^3
# Si number density = 19.806030 Si / 1000 Ang^3
#
#
#
# Elastic Constant Matrix: (Units=GPa)
#
#
# Indices 1 2 3 4 5 6 
#
# 1 106.9860 40.3952 59.5335 0.0000 0.0000 0.0000
# 2 40.3952 90.4184 42.6354 0.0000 0.0000 0.0000
# 3 59.5335 42.6354 127.8330 0.0000 0.0000 0.0000
# 4 0.0000 0.0000 0.0000 26.4915 0.0000 0.0000
# 5 0.0000 0.0000 0.0000 0.0000 35.4124 0.0000
# 6 0.0000 0.0000 0.0000 0.0000 0.0000 20.8647
#
#
#
# Elastic Compliance Matrix: (Units=1/GPa)
#
#
# Indices 1 2 3 4 5 6 
#
# 1 0.013564 -0.003656 -0.005098 0.000000 0.000000 0.000000
# 2 -0.003656 0.014109 -0.003003 0.000000 0.000000 0.000000
# 3 -0.005098 -0.003003 0.011198 0.000000 0.000000 0.000000
# 4 0.000000 0.000000 0.000000 0.037748 0.000000 0.000000
# 5 0.000000 0.000000 0.000000 0.000000 0.028239 0.000000
# 6 0.000000 0.000000 0.000000 0.000000 0.000000 0.047928
#
#
# Mechanical properties :
#
#
# Convention : Reuss Voigt Hill
#
# Bulk Modulus (GPa) = 65.11258 67.81842 66.46550
# Shear Modulus (GPa) = 27.56054 28.73194 28.14624
#
# Velocity S-wave (km/s) = 3.73436 3.81289 3.77383
# Velocity P-wave (km/s) = 7.17917 7.32802 7.25397
#
# Compressibility (1/GPa) = 0.01535802
#
# Stress axis : x y z
#
# Youngs Moduli (GPa) = 73.72408 70.87596 89.29952
#
# Poissons Ratio (x) = 0.25914 0.45521
# Poissons Ratio (y) = 0.26955 0.26817
# Poissons Ratio (z) = 0.37581 0.21284
#
# Static dielectric constant tensor:
#      x y z
#    x 3.681900 0.000000 0.000000 
#    y 0.000000 3.389030 0.000000 
#    z 0.000000 0.000000 3.810450 
# 
# 
# High freq. dielectric constant tensor:
#      x y z
#    x 1.776360 0.000000 0.000000 
#    y 0.000000 1.742670 0.000000 
#    z 0.000000 0.000000 1.783140 
# 
# From -- ./inp_files/20913.got.cif
#   From: 2010.03.12/outbox.cif.g09.slc.cpg/sg53_11_cif.got.tgz:20913.got - 2010.04.16 14:36:59.
