data_PCOD8218151
_publ_section_title
;
Structure prediction by ZEFSAII (Michael W. Deem and Ramdas Pophale) SiO2 
 PCOD8218151
Probable space group: P M N A
;
_chemical_formula_sum "Si O2"
_cell_formula_units_Z 48
_cell_length_a 14.535460
_cell_length_b 7.387998
_cell_length_c 21.123904
_cell_angle_alpha 90.000000
_cell_angle_beta 90.000000
_cell_angle_gamma 90.000000
_cell_volume 2268.452734
_symmetry_space_group_name_H-M "P M N A"
_symmetry_group_IT_number 53
_symmetry_cell_setting 'orthorhombic'
loop_
_space_group_symop_operation_xyz
x,y,z
1/2-x,-y,1/2+z
x,-y,-z
1/2-x,y,1/2-z
-x,-y,-z
1/2+x,y,1/2-z
-x,y,z
1/2+x,-y,1/2+z
loop_
_atom_site_type_symbol
_atom_site_label
_atom_site_fract_x
_atom_site_fract_y
_atom_site_fract_z
Si Si1 0.853669 0.752301 0.763633
Si Si2 0.102476 0.215640 0.499154
Si Si3 0.602350 0.901738 0.334505
Si Si4 0.398905 0.126491 0.131643
Si Si5 0.287645 0.228810 0.881295
Si Si6 0.895960 0.621999 0.271643
O O1 0.750000 0.803803 0.750000
O O2 0.907879 0.769362 0.697413
O O3 0.870598 0.539676 0.778310
O O4 0.887626 0.882007 0.820639
O O5 0.130747 0.263443 0.426174
O O6 0.177065 0.293429 0.549258
O O7 0.000000 0.289745 0.515974
O O8 0.105932 0.000000 0.500000
O O9 0.500000 0.867951 0.363217
O O10 0.677701 0.811523 0.381531
O O11 0.612908 0.809348 0.266148
O O12 0.500000 0.049708 0.113322
O O13 0.331401 0.959957 0.139242
O O14 0.321706 0.375239 0.829136
O O15 0.000000 0.603165 0.297919
#
# Coordination Sequence:
#
# PCOD8218151 Si02
#       6
#     8   8   8   8   8   8
#     4  12  21  35  54  80 113 147 179 216 264 320
#     4   8  16  29  52  80 105 136 174 217 271 323
#     4  11  22  36  52  77 110 144 182 223 266 312
#     4  10  18  32  54  80 108 141 175 216 271 324
#     4  11  18  34  53  77 105 142 179 217 263 321
#     4  11  22  34  53  81 112 142 176 223 272 323
#
# _framework density 21.159796
#
# number of rings (size 3 to 8) (size 9 to 14) (size 15 to 20)
#    0.000    1.500    3.333    5.500    0.000    0.000 
#    0.000    0.833    0.000    7.500    0.000    0.000 
#    0.000    4.000    0.000    0.000    0.000    0.000 
#
# Total GULP energy -594708.262316 kJ/mol
# GULP energy per Si atom -12389.755465 kJ/mol
# Density = 2.111164 g / cm^3
# Si number density = 21.159796 Si / 1000 Ang^3
#
#
#
# Elastic Constant Matrix: (Units=GPa)
#
#
# Indices 1 2 3 4 5 6 
#
# 1 137.6096 4.0610 22.4613 0.0000 0.0000 0.0000
# 2 4.0610 54.8844 -4.9091 0.0000 0.0000 0.0000
# 3 22.4613 -4.9091 56.7973 0.0000 0.0000 0.0000
# 4 0.0000 0.0000 0.0000 10.9644 0.0000 0.0000
# 5 0.0000 0.0000 0.0000 0.0000 19.0689 0.0000
# 6 0.0000 0.0000 0.0000 0.0000 0.0000 19.7934
#
#
#
# Elastic Compliance Matrix: (Units=1/GPa)
#
#
# Indices 1 2 3 4 5 6 
#
# 1 0.007809 -0.000861 -0.003162 0.000000 0.000000 0.000000
# 2 -0.000861 0.018457 0.001936 0.000000 0.000000 0.000000
# 3 -0.003162 0.001936 0.019024 0.000000 0.000000 0.000000
# 4 0.000000 0.000000 0.000000 0.091205 0.000000 0.000000
# 5 0.000000 0.000000 0.000000 0.000000 0.052441 0.000000
# 6 0.000000 0.000000 0.000000 0.000000 0.000000 0.050522
#
#
# Mechanical properties :
#
#
# Convention : Reuss Voigt Hill
#
# Bulk Modulus (GPa) = 24.32197 32.50195 28.41196
# Shear Modulus (GPa) = 19.42973 25.14387 22.28680
#
# Velocity S-wave (km/s) = 3.03353 3.45089 3.24892
# Velocity P-wave (km/s) = 4.87741 5.59212 5.24695
#
# Compressibility (1/GPa) = 0.04111510
#
# Stress axis : x y z
#
# Youngs Moduli (GPa) = 128.06547 54.18017 52.56415
#
# Poissons Ratio (x) = 0.04663 0.16623
# Poissons Ratio (y) = 0.11022 -0.10174
# Poissons Ratio (z) = 0.40499 -0.10487
#
# Static dielectric constant tensor:
#      x y z
#    x 4.025550 0.000000 0.000000 
#    y 0.000000 3.641310 0.000000 
#    z 0.000000 0.000000 4.001450 
# 
# 
# High freq. dielectric constant tensor:
#      x y z
#    x 1.825950 0.000000 0.000000 
#    y 0.000000 1.816040 0.000000 
#    z 0.000000 0.000000 1.788690 
# 
# From -- ./inp_files/32284.got.cif
#   From: 2010.03.12/outbox.cif.g09.slc.cpg/sg53_17_cif.got.tgz:32284.got - 2010.04.16 14:36:59.
