data_PCOD8218066
_publ_section_title
;
Structure prediction by ZEFSAII (Michael W. Deem and Ramdas Pophale) SiO2 
 PCOD8218066
Probable space group: P M N A
;
_chemical_formula_sum "Si O2"
_cell_formula_units_Z 40
_cell_length_a 8.603140
_cell_length_b 25.967360
_cell_length_c 9.139830
_cell_angle_alpha 90.000000
_cell_angle_beta 90.000000
_cell_angle_gamma 90.000000
_cell_volume 2041.845640
_symmetry_space_group_name_H-M "P M N A"
_symmetry_group_IT_number 53
_symmetry_cell_setting 'orthorhombic'
loop_
_space_group_symop_operation_xyz
x,y,z
1/2-x,-y,1/2+z
x,-y,-z
1/2-x,y,1/2-z
-x,-y,-z
1/2+x,y,1/2-z
-x,y,z
1/2+x,-y,1/2+z
loop_
_atom_site_type_symbol
_atom_site_label
_atom_site_fract_x
_atom_site_fract_y
_atom_site_fract_z
Si Si1 0.684204 0.752470 0.587387
Si Si2 0.682889 0.142856 0.089008
Si Si3 0.683856 0.548979 0.089234
Si Si4 0.315887 0.351912 0.088313
Si Si5 0.320272 0.051309 0.592181
O O1 0.750000 0.752505 0.750000
O O2 0.500000 0.751948 0.585351
O O3 0.747110 0.805108 0.514674
O O4 0.749361 0.700361 0.512486
O O5 0.750000 0.132134 0.250000
O O6 0.500000 0.148917 0.103690
O O7 0.724074 0.096448 0.983057
O O8 0.750000 0.547051 0.250000
O O9 0.500000 0.547384 0.097398
O O10 0.748355 0.500000 0.000000
O O11 0.741833 0.600757 0.010073
O O12 0.250000 0.360063 0.250000
O O13 0.500000 0.348316 0.097716
O O14 0.250000 0.040321 0.750000
O O15 0.500000 0.067419 0.603511
O O16 0.298149 0.000000 0.500000
#
# Coordination Sequence:
#
# PCOD8218066 Si02
#       5
#     8   8   8   8   8
#     4  10  18  31  53  81 112 146 186 227 274 328
#     4  11  21  36  59  86 117 151 190 234 280 330
#     4  10  22  38  56  80 109 142 181 225 273 327
#     4  10  19  33  54  81 111 143 183 226 272 325
#     4  11  24  41  61  86 116 150 189 232 281 335
#
# _framework density 19.590119999999999
#
# number of rings (size 3 to 8) (size 9 to 14) (size 15 to 20)
#    0.000    1.600    0.000    8.400    0.000    5.200 
#    0.000    1.000    0.000    2.400    0.000    0.000 
#    0.000    0.000    0.000    0.000    0.000    0.000 
#
# Total GULP energy -496022.373734 kJ/mol
# GULP energy per Si atom -12400.559343 kJ/mol
# Density = 1.954553 g / cm^3
# Si number density = 19.590120 Si / 1000 Ang^3
#
#
#
# Elastic Constant Matrix: (Units=GPa)
#
#
# Indices 1 2 3 4 5 6 
#
# 1 120.6014 53.8429 31.9595 0.0000 0.0000 0.0000
# 2 53.8429 156.3940 53.3201 0.0000 0.0000 0.0000
# 3 31.9595 53.3201 97.6866 0.0000 0.0000 0.0000
# 4 0.0000 0.0000 0.0000 164.0272 0.0000 0.0000
# 5 0.0000 0.0000 0.0000 0.0000 28.0492 0.0000
# 6 0.0000 0.0000 0.0000 0.0000 0.0000 33.0329
#
#
#
# Elastic Compliance Matrix: (Units=1/GPa)
#
#
# Indices 1 2 3 4 5 6 
#
# 1 0.010026 -0.002867 -0.001715 0.000000 0.000000 0.000000
# 2 -0.002867 0.008676 -0.003798 0.000000 0.000000 0.000000
# 3 -0.001715 -0.003798 0.012871 0.000000 0.000000 0.000000
# 4 0.000000 0.000000 0.000000 0.006097 0.000000 0.000000
# 5 0.000000 0.000000 0.000000 0.000000 0.035652 0.000000
# 6 0.000000 0.000000 0.000000 0.000000 0.000000 0.030273
#
#
# Mechanical properties :
#
#
# Convention : Reuss Voigt Hill
#
# Bulk Modulus (GPa) = 67.50738 72.54745 70.02741
# Shear Modulus (GPa) = 39.90689 60.72582 50.31636
#
# Velocity S-wave (km/s) = 4.51831 5.57364 5.07349
# Velocity P-wave (km/s) = 7.85843 8.86192 8.37522
#
# Compressibility (1/GPa) = 0.01481320
#
# Stress axis : x y z
#
# Youngs Moduli (GPa) = 99.73734 115.26216 77.69504
#
# Poissons Ratio (x) = 0.33046 0.13327
# Poissons Ratio (y) = 0.28595 0.29505
# Poissons Ratio (z) = 0.17108 0.43771
#
# Static dielectric constant tensor:
#      x y z
#    x 3.657820 0.000000 0.000000 
#    y 0.000000 4.486430 0.000000 
#    z 0.000000 0.000000 3.301920 
# 
# 
# High freq. dielectric constant tensor:
#      x y z
#    x 1.777070 0.000000 0.000000 
#    y 0.000000 1.791930 0.000000 
#    z 0.000000 0.000000 1.732710 
# 
# From -- ./inp_files/6297.got.cif
#   From: 2010.03.12/outbox.cif.g09.slc.cpg/sg53_4_cif.got.tgz:6297.got - 2010.04.16 14:36:59.
