data_PCOD8218089
_publ_section_title
;
Structure prediction by ZEFSAII (Michael W. Deem and Ramdas Pophale) SiO2 
 PCOD8218089
Probable space group: P M N A
;
_chemical_formula_sum "Si O2"
_cell_formula_units_Z 56
_cell_length_a 25.746883
_cell_length_b 5.260747
_cell_length_c 21.297197
_cell_angle_alpha 90.000000
_cell_angle_beta 90.000000
_cell_angle_gamma 90.000000
_cell_volume 2884.659278
_symmetry_space_group_name_H-M "P M N A"
_symmetry_group_IT_number 53
_symmetry_cell_setting 'orthorhombic'
loop_
_space_group_symop_operation_xyz
x,y,z
1/2-x,-y,1/2+z
x,-y,-z
1/2-x,y,1/2-z
-x,-y,-z
1/2+x,y,1/2-z
-x,y,z
1/2+x,-y,1/2+z
loop_
_atom_site_type_symbol
_atom_site_label
_atom_site_fract_x
_atom_site_fract_y
_atom_site_fract_z
Si Si1 0.646682 0.250000 0.036076
Si Si2 0.105349 0.750042 0.165415
Si Si3 0.559563 0.250039 0.283834
Si Si4 0.189476 0.250003 0.926341
Si Si5 0.643813 0.250031 0.177613
Si Si6 0.232838 0.750003 0.938305
Si Si7 0.191036 0.249966 0.728597
O O1 0.623657 0.250006 0.106123
O O2 0.708887 0.249999 0.037712
O O3 0.626508 0.500000 0.000000
O O4 0.626508 0.000000 0.000000
O O5 0.070772 0.499816 0.174950
O O6 0.129231 0.749998 0.095039
O O7 0.155040 0.750033 0.210414
O O8 0.070785 0.000320 0.174935
O O9 0.500000 0.249993 0.262913
O O10 0.593000 0.250019 0.220577
O O11 0.219209 0.498628 0.898078
O O12 0.219210 0.001379 0.898078
O O13 0.194171 0.250001 0.001589
O O14 0.679156 0.498752 0.187845
O O15 0.679164 0.001339 0.187850
O O16 0.250000 0.249994 0.750000
#
# Coordination Sequence:
#
# PCOD8218089 Si02
#       7
#     8   8   8   8   8   8   8
#     4  12  21  35  52  78 111 149 204 215 255 325
#     4  10  21  33  57  86 104 141 188 227 272 344
#     4  10  21  42  60  81 106 138 188 242 297 333
#     4  10  18  32  47  75 113 137 189 208 257 311
#     4  10  23  36  54  80 110 149 189 229 278 331
#     4  10  19  30  47  74 105 162 177 205 254 312
#     4  10  21  34  49  79 117 151 176 215 283 336
#
# _framework density 19.413036999999999
#
# number of rings (size 3 to 8) (size 9 to 14) (size 15 to 20)
#    0.000    1.714    2.857    2.571    4.000    0.000 
#    0.000    0.000    0.000    0.857    0.000   40.000 
#    0.000    0.000    0.000    0.000    0.000    0.000 
#
# Total GULP energy -694288.633565 kJ/mol
# GULP energy per Si atom -12398.011314 kJ/mol
# Density = 1.936885 g / cm^3
# Si number density = 19.413037 Si / 1000 Ang^3
#
#
#
# Elastic Constant Matrix: (Units=GPa)
#
#
# Indices 1 2 3 4 5 6 
#
# 1 75.0436 22.0172 11.2302 0.0000 0.0000 0.0000
# 2 22.0172 186.1984 7.0126 0.0000 0.0000 0.0000
# 3 11.2302 7.0126 53.1126 0.0000 0.0000 0.0000
# 4 0.0000 0.0000 0.0000 19.4371 0.0000 0.0000
# 5 0.0000 0.0000 0.0000 0.0000 18.5667 0.0000
# 6 0.0000 0.0000 0.0000 0.0000 0.0000 -28.2818
#
#
#
# Elastic Compliance Matrix: (Units=1/GPa)
#
#
# Indices 1 2 3 4 5 6 
#
# 1 0.014206 -0.001574 -0.002796 0.000000 0.000000 0.000000
# 2 -0.001574 0.005572 -0.000403 0.000000 0.000000 0.000000
# 3 -0.002796 -0.000403 0.019472 0.000000 0.000000 0.000000
# 4 0.000000 0.000000 0.000000 0.051448 0.000000 0.000000
# 5 0.000000 0.000000 0.000000 0.000000 0.053860 0.000000
# 6 0.000000 0.000000 0.000000 0.000000 0.000000 -0.035358
#
#
# Mechanical properties :
#
#
# Convention : Reuss Voigt Hill
#
# Bulk Modulus (GPa) = 33.66557 43.87497 38.77027
# Shear Modulus (GPa) = 38.86596 20.21737 29.54166
#
# Velocity S-wave (km/s) = 4.47929 3.23062 3.90519
# Velocity P-wave (km/s) = 6.64315 6.04696 6.35205
#
# Compressibility (1/GPa) = 0.02970394
#
# Stress axis : x y z
#
# Youngs Moduli (GPa) = 70.39321 179.47004 51.35510
#
# Poissons Ratio (x) = 0.28257 0.14358
# Poissons Ratio (y) = 0.11083 0.02068
# Poissons Ratio (z) = 0.19681 0.07228
#
# Static dielectric constant tensor:
#      x y z
#    x 3.122560 0.000000 0.000000 
#    y 0.000000 -16.163910 0.000000 
#    z 0.000000 0.000000 3.422150 
# 
# 
# High freq. dielectric constant tensor:
#      x y z
#    x 1.709230 0.000000 0.000000 
#    y 0.000000 1.793830 0.000000 
#    z 0.000000 0.000000 1.741280 
# 
# From -- ./inp_files/33178.got.cif
#   From: 2010.03.12/outbox.cif.g09.slc.cpg/sg53_17_cif.got.tgz:33178.got - 2010.04.16 14:36:59.
