data_PCOD8218563
_publ_section_title
;
Structure prediction by ZEFSAII (Michael W. Deem and Ramdas Pophale) SiO2 
 PCOD8218563
Probable space group: P M N A
;
_chemical_formula_sum "Si O2"
_cell_formula_units_Z 64
_cell_length_a 8.867950
_cell_length_b 16.668730
_cell_length_c 24.019905
_cell_angle_alpha 90.000000
_cell_angle_beta 90.000000
_cell_angle_gamma 90.000000
_cell_volume 3550.561448
_symmetry_space_group_name_H-M "P M N A"
_symmetry_group_IT_number 53
_symmetry_cell_setting 'orthorhombic'
loop_
_space_group_symop_operation_xyz
x,y,z
1/2-x,-y,1/2+z
x,-y,-z
1/2-x,y,1/2-z
-x,-y,-z
1/2+x,y,1/2-z
-x,y,z
1/2+x,-y,1/2+z
loop_
_atom_site_type_symbol
_atom_site_label
_atom_site_fract_x
_atom_site_fract_y
_atom_site_fract_z
Si Si1 0.172614 0.352401 0.088248
Si Si2 0.679509 0.675320 0.022238
Si Si3 0.821805 0.614039 0.308944
Si Si4 0.322573 0.229064 0.873239
Si Si5 0.674440 0.903463 0.808569
Si Si6 0.321584 0.076319 0.810729
Si Si7 0.178172 0.271084 0.310904
Si Si8 0.673621 0.461558 0.589610
O O1 0.252697 0.335014 0.146835
O O2 0.186597 0.445741 0.073724
O O3 0.000000 0.324659 0.092190
O O4 0.253756 0.303964 0.038319
O O5 0.500000 0.670768 0.019108
O O6 0.735042 0.744739 0.065383
O O7 0.740524 0.589636 0.042958
O O8 0.750000 0.596262 0.250000
O O9 0.776300 0.703207 0.328685
O O10 0.751986 0.549553 0.350833
O O11 0.000000 0.602085 0.306649
O O12 0.500000 0.221764 0.876628
O O13 0.254554 0.143965 0.852606
O O14 0.750000 0.906186 0.750000
O O15 0.500000 0.902937 0.796048
O O16 0.717296 0.818189 0.836870
O O17 0.717122 0.988347 0.838472
O O18 0.250000 0.086753 0.750000
O O19 0.500000 0.087726 0.803541
O O20 0.250000 0.282747 0.250000
O O21 0.000000 0.285079 0.305851
O O22 0.500000 0.433798 0.592131
#
# Coordination Sequence:
#
# PCOD8218563 Si02
#       8
#     8   8   8   8   8   8   8   8
#     4  11  23  37  54  75  96 124 163 204 246 292
#     4  10  20  35  54  75  99 128 163 202 245 289
#     4  10  19  31  47  69  99 134 168 200 242 292
#     4   8  16  29  46  70  99 130 163 199 236 280
#     4   8  15  27  46  71  98 128 159 193 235 283
#     4   9  15  26  45  71 102 131 161 196 234 279
#     4  10  20  35  54  77 103 129 159 197 244 294
#     4  10  21  36  52  71  96 126 163 206 248 291
#
# _framework density 18.025319
#
# number of rings (size 3 to 8) (size 9 to 14) (size 15 to 20)
#    0.000    2.500    0.000    3.375    0.000    4.500 
#    0.000    3.125    0.000    0.750    0.000    5.250 
#    0.000    0.000    0.000    0.000    0.000    0.000 
#
# Total GULP energy -793035.872190 kJ/mol
# GULP energy per Si atom -12391.185503 kJ/mol
# Density = 1.798429 g / cm^3
# Si number density = 18.025319 Si / 1000 Ang^3
#
#
#
# Elastic Constant Matrix: (Units=GPa)
#
#
# Indices 1 2 3 4 5 6 
#
# 1 77.3586 24.8447 38.9837 0.0000 0.0000 0.0000
# 2 24.8447 64.2185 24.7027 0.0000 0.0000 0.0000
# 3 38.9837 24.7027 106.5769 0.0000 0.0000 0.0000
# 4 0.0000 0.0000 0.0000 20.3456 0.0000 0.0000
# 5 0.0000 0.0000 0.0000 0.0000 29.7884 0.0000
# 6 0.0000 0.0000 0.0000 0.0000 0.0000 19.6282
#
#
#
# Elastic Compliance Matrix: (Units=1/GPa)
#
#
# Indices 1 2 3 4 5 6 
#
# 1 0.016999 -0.004594 -0.005153 0.000000 0.000000 0.000000
# 2 -0.004594 0.018338 -0.002570 0.000000 0.000000 0.000000
# 3 -0.005153 -0.002570 0.011863 0.000000 0.000000 0.000000
# 4 0.000000 0.000000 0.000000 0.049151 0.000000 0.000000
# 5 0.000000 0.000000 0.000000 0.000000 0.033570 0.000000
# 6 0.000000 0.000000 0.000000 0.000000 0.000000 0.050947
#
#
# Mechanical properties :
#
#
# Convention : Reuss Voigt Hill
#
# Bulk Modulus (GPa) = 44.31479 47.24623 45.78051
# Shear Modulus (GPa) = 23.47145 24.59398 24.03272
#
# Velocity S-wave (km/s) = 3.61243 3.69780 3.65537
# Velocity P-wave (km/s) = 6.48364 6.67080 6.57789
#
# Compressibility (1/GPa) = 0.02256583
#
# Stress axis : x y z
#
# Youngs Moduli (GPa) = 58.82650 54.53203 84.29262
#
# Poissons Ratio (x) = 0.25054 0.43436
# Poissons Ratio (y) = 0.27027 0.21662
# Poissons Ratio (z) = 0.30314 0.14014
#
# Static dielectric constant tensor:
#      x y z
#    x 3.031670 0.000000 0.000000 
#    y 0.000000 3.867860 0.000000 
#    z 0.000000 0.000000 3.230860 
# 
# 
# High freq. dielectric constant tensor:
#      x y z
#    x 1.698830 0.000000 0.000000 
#    y 0.000000 1.696080 0.000000 
#    z 0.000000 0.000000 1.678710 
# 
# From -- ./inp_files/34443.got.cif
#   From: 2010.03.12/outbox.cif.g09.slc.cpg/sg53_18_cif.got.tgz:34443.got - 2010.04.16 14:36:59.
