data_PCOD8218810
_publ_section_title
;
Structure prediction by ZEFSAII (Michael W. Deem and Ramdas Pophale) SiO2 
 PCOD8218810
Probable space group: P M N A
;
_chemical_formula_sum "Si O2"
_cell_formula_units_Z 64
_cell_length_a 8.376538
_cell_length_b 20.718333
_cell_length_c 19.023681
_cell_angle_alpha 90.000000
_cell_angle_beta 90.000000
_cell_angle_gamma 90.000000
_cell_volume 3301.519958
_symmetry_space_group_name_H-M "P M N A"
_symmetry_group_IT_number 53
_symmetry_cell_setting 'orthorhombic'
loop_
_space_group_symop_operation_xyz
x,y,z
1/2-x,-y,1/2+z
x,-y,-z
1/2-x,y,1/2-z
-x,-y,-z
1/2+x,y,1/2-z
-x,y,z
1/2+x,-y,1/2+z
loop_
_atom_site_type_symbol
_atom_site_label
_atom_site_fract_x
_atom_site_fract_y
_atom_site_fract_z
Si Si1 0.189372 0.273533 0.828383
Si Si2 0.685019 0.079342 0.327615
Si Si3 0.688776 0.413113 0.671742
Si Si4 0.187869 0.549152 0.828022
Si Si5 0.315081 0.025228 0.923994
Si Si6 0.185823 0.164935 0.934064
Si Si7 0.689400 0.689414 0.670612
Si Si8 0.316013 0.805791 0.917500
O O1 0.250000 0.259605 0.750000
O O2 0.250360 0.344044 0.858330
O O3 0.253982 0.219278 0.881243
O O4 0.000000 0.271918 0.826778
O O5 0.750000 0.071775 0.250000
O O6 0.500000 0.098269 0.326786
O O7 0.782996 0.134929 0.366110
O O8 0.709675 0.011263 0.366315
O O9 0.750000 0.417394 0.750000
O O10 0.500000 0.410902 0.671372
O O11 0.745867 0.481262 0.633981
O O12 0.250000 0.549591 0.750000
O O13 0.237777 0.618260 0.861310
O O14 0.000000 0.547446 0.824412
O O15 0.500000 0.009819 0.910428
O O16 0.285692 0.101060 0.918122
O O17 0.260389 0.000000 0.000000
O O18 0.000000 0.150899 0.921322
O O19 0.208551 0.188777 0.013406
O O20 0.750000 0.698267 0.750000
O O21 0.500000 0.701073 0.668971
O O22 0.777546 0.739386 0.620981
O O23 0.500000 0.807607 0.940008
#
# Coordination Sequence:
#
# PCOD8218810 Si02
#       8
#     8   8   8   8   8   8   8   8
#     4   9  19  34  55  83 114 144 181 227 277 330
#     4  12  25  42  65  91 119 149 185 231 279 330
#     4   8  13  25  45  72 104 138 175 221 271 323
#     4   8  14  24  43  70 102 138 178 221 271 324
#     4  11  23  41  64  88 115 147 186 228 275 332
#     4  11  23  39  60  85 112 149 189 228 276 332
#     4  10  19  32  50  77 110 145 184 230 278 329
#     4  12  24  39  57  80 110 148 190 232 278 332
#
# _framework density 19.385010000000001
#
# number of rings (size 3 to 8) (size 9 to 14) (size 15 to 20)
#    0.000    1.875    1.250    3.750    0.000    2.500 
#    0.000    1.250    0.000    0.750    0.000    5.250 
#    0.000    0.000    0.000    0.000    0.000    0.000 
#
# Total GULP energy -792938.885919 kJ/mol
# GULP energy per Si atom -12389.670092 kJ/mol
# Density = 1.934089 g / cm^3
# Si number density = 19.385010 Si / 1000 Ang^3
#
#
#
# Elastic Constant Matrix: (Units=GPa)
#
#
# Indices 1 2 3 4 5 6 
#
# 1 42.6455 13.2877 7.9087 0.0000 0.0000 0.0000
# 2 13.2877 181.0767 55.4136 0.0000 0.0000 0.0000
# 3 7.9087 55.4136 82.6917 0.0000 0.0000 0.0000
# 4 0.0000 0.0000 0.0000 6.3979 0.0000 0.0000
# 5 0.0000 0.0000 0.0000 0.0000 20.0192 0.0000
# 6 0.0000 0.0000 0.0000 0.0000 0.0000 11.5761
#
#
#
# Elastic Compliance Matrix: (Units=1/GPa)
#
#
# Indices 1 2 3 4 5 6 
#
# 1 0.024128 -0.001339 -0.001410 0.000000 0.000000 0.000000
# 2 -0.001339 0.007022 -0.004577 0.000000 0.000000 0.000000
# 3 -0.001410 -0.004577 0.015295 0.000000 0.000000 0.000000
# 4 0.000000 0.000000 0.000000 0.156302 0.000000 0.000000
# 5 0.000000 0.000000 0.000000 0.000000 0.049952 0.000000
# 6 0.000000 0.000000 0.000000 0.000000 0.000000 0.086385
#
#
# Mechanical properties :
#
#
# Convention : Reuss Voigt Hill
#
# Bulk Modulus (GPa) = 31.45481 51.07043 41.26262
# Shear Modulus (GPa) = 13.72366 22.91890 18.32128
#
# Velocity S-wave (km/s) = 2.66362 3.44219 3.07763
# Velocity P-wave (km/s) = 5.07163 6.49621 5.82761
#
# Compressibility (1/GPa) = 0.03179164
#
# Stress axis : x y z
#
# Youngs Moduli (GPa) = 41.44587 142.41955 65.37958
#
# Poissons Ratio (x) = 0.19069 0.09221
# Poissons Ratio (y) = 0.05549 0.29926
# Poissons Ratio (z) = 0.05845 0.65188
#
# Static dielectric constant tensor:
#      x y z
#    x 3.612450 0.000000 0.000000 
#    y 0.000000 4.423810 0.000000 
#    z 0.000000 0.000000 3.193960 
# 
# 
# High freq. dielectric constant tensor:
#      x y z
#    x 1.755430 0.000000 0.000000 
#    y 0.000000 1.788370 0.000000 
#    z 0.000000 0.000000 1.712260 
# 
# From -- ./inp_files/26811.got.cif
#   From: 2010.03.12/outbox.cif.g09.slc.cpg/sg53_14_cif.got.tgz:26811.got - 2010.04.16 14:36:59.
