data_PCOD8218273
_publ_section_title
;
Structure prediction by ZEFSAII (Michael W. Deem and Ramdas Pophale) SiO2 
 PCOD8218273
Probable space group: P M N A
;
_chemical_formula_sum "Si O2"
_cell_formula_units_Z 32
_cell_length_a 8.834693
_cell_length_b 10.072132
_cell_length_c 19.540390
_cell_angle_alpha 90.000000
_cell_angle_beta 90.000000
_cell_angle_gamma 90.000000
_cell_volume 1738.785856
_symmetry_space_group_name_H-M "P M N A"
_symmetry_group_IT_number 53
_symmetry_cell_setting 'orthorhombic'
loop_
_space_group_symop_operation_xyz
x,y,z
1/2-x,-y,1/2+z
x,-y,-z
1/2-x,y,1/2-z
-x,-y,-z
1/2+x,y,1/2-z
-x,y,z
1/2+x,-y,1/2+z
loop_
_atom_site_type_symbol
_atom_site_label
_atom_site_fract_x
_atom_site_fract_y
_atom_site_fract_z
Si Si1 0.177846 0.169464 0.178311
Si Si2 0.173917 0.035471 0.578969
Si Si3 0.821475 0.324360 0.554453
Si Si4 0.679230 0.392617 0.095666
O O1 0.250000 0.128108 0.250000
O O2 0.238077 0.313991 0.155950
O O3 0.000000 0.176270 0.186659
O O4 0.220341 0.058571 0.123059
O O5 0.232394 0.187319 0.589384
O O6 0.000000 0.017821 0.602714
O O7 0.190600 0.000000 0.500000
O O8 0.775152 0.451248 0.600629
O O9 0.759071 0.337745 0.477066
O O10 0.000000 0.321697 0.545769
O O11 0.500000 0.371935 0.103532
#
# Coordination Sequence:
#
# PCOD8218273 Si02
#       4
#     8   8   8   8
#     4  12  25  39  55  79 112 152 193 235 283 336
#     4  10  18  34  60  87 114 147 185 228 279 336
#     4   8  15  29  57  88 112 140 178 222 273 330
#     4   9  16  33  57  83 111 143 182 223 271 332
#
# _framework density 18.403645999999998
#
# number of rings (size 3 to 8) (size 9 to 14) (size 15 to 20)
#    0.000    2.250    2.500    3.750    0.000    0.500 
#    0.000    5.000    0.000    0.000    0.000    0.000 
#    0.000    0.000    0.000    0.000    0.000    0.000 
#
# Total GULP energy -396694.831528 kJ/mol
# GULP energy per Si atom -12396.713485 kJ/mol
# Density = 1.836176 g / cm^3
# Si number density = 18.403646 Si / 1000 Ang^3
#
#
#
# Elastic Constant Matrix: (Units=GPa)
#
#
# Indices 1 2 3 4 5 6 
#
# 1 85.4997 39.5714 33.8255 0.0000 0.0000 0.0000
# 2 39.5714 142.9243 36.1930 0.0000 0.0000 0.0000
# 3 33.8255 36.1930 63.7429 0.0000 0.0000 0.0000
# 4 0.0000 0.0000 0.0000 21.1774 0.0000 0.0000
# 5 0.0000 0.0000 0.0000 0.0000 23.1556 0.0000
# 6 0.0000 0.0000 0.0000 0.0000 0.0000 -6.4254
#
#
#
# Elastic Compliance Matrix: (Units=1/GPa)
#
#
# Indices 1 2 3 4 5 6 
#
# 1 0.015586 -0.002594 -0.006798 0.000000 0.000000 0.000000
# 2 -0.002594 0.008603 -0.003509 0.000000 0.000000 0.000000
# 3 -0.006798 -0.003509 0.021288 0.000000 0.000000 0.000000
# 4 0.000000 0.000000 0.000000 0.047220 0.000000 0.000000
# 5 0.000000 0.000000 0.000000 0.000000 0.043186 0.000000
# 6 0.000000 0.000000 0.000000 0.000000 0.000000 -0.155632
#
#
# Mechanical properties :
#
#
# Convention : Reuss Voigt Hill
#
# Bulk Modulus (GPa) = 50.82299 56.81629 53.81964
# Shear Modulus (GPa) = 396.50602 19.75331 208.12967
#
# Velocity S-wave (km/s) = 14.69413 3.27974 10.64599
# Velocity P-wave (km/s) = 17.76417 6.72916 13.43218
#
# Compressibility (1/GPa) = 0.01967614
#
# Stress axis : x y z
#
# Youngs Moduli (GPa) = 64.16082 116.23409 46.97589
#
# Poissons Ratio (x) = 0.30149 0.31934
# Poissons Ratio (y) = 0.16642 0.16482
# Poissons Ratio (z) = 0.43616 0.40781
#
# Static dielectric constant tensor:
#      x y z
#    x 3.049700 0.000000 0.000000 
#    y 0.000000 4.228330 0.000000 
#    z 0.000000 0.000000 3.349480 
# 
# 
# High freq. dielectric constant tensor:
#      x y z
#    x 1.680290 0.000000 0.000000 
#    y 0.000000 1.734960 0.000000 
#    z 0.000000 0.000000 1.686140 
# 
# From -- ./inp_files/19515.got.cif
#   From: 2010.03.12/outbox.cif.g09.slc.cpg/sg53_10_cif.got.tgz:19515.got - 2010.04.16 14:36:59.
