data_PCOD8218599
_publ_section_title
;
Structure prediction by ZEFSAII (Michael W. Deem and Ramdas Pophale) SiO2 
 PCOD8218599
Probable space group: P M N A
;
_chemical_formula_sum "Si O2"
_cell_formula_units_Z 48
_cell_length_a 8.944487
_cell_length_b 12.542355
_cell_length_c 25.194939
_cell_angle_alpha 90.000000
_cell_angle_beta 90.000000
_cell_angle_gamma 90.000000
_cell_volume 2826.492499
_symmetry_space_group_name_H-M "P M N A"
_symmetry_group_IT_number 53
_symmetry_cell_setting 'orthorhombic'
loop_
_space_group_symop_operation_xyz
x,y,z
1/2-x,-y,1/2+z
x,-y,-z
1/2-x,y,1/2-z
-x,-y,-z
1/2+x,y,1/2-z
-x,y,z
1/2+x,-y,1/2+z
loop_
_atom_site_type_symbol
_atom_site_label
_atom_site_fract_x
_atom_site_fract_y
_atom_site_fract_z
Si Si1 0.175216 0.375585 0.107167
Si Si2 0.825662 0.770906 0.692971
Si Si3 0.826609 0.621816 0.104023
Si Si4 0.673973 0.993714 0.193342
Si Si5 0.668192 0.373321 0.001030
Si Si6 0.676225 0.211910 0.692752
O O1 0.253848 0.314366 0.154487
O O2 0.215835 0.499467 0.115067
O O3 0.236895 0.331901 0.051113
O O4 0.000000 0.354098 0.109188
O O5 0.750000 0.760732 0.750000
O O6 0.802171 0.889520 0.667371
O O7 0.000000 0.746149 0.700048
O O8 0.782256 0.688059 0.156011
O O9 0.000000 0.632762 0.089958
O O10 0.738050 0.669630 0.053705
O O11 0.750000 0.999041 0.250000
O O12 0.500000 0.966218 0.198882
O O13 0.756708 0.894985 0.164058
O O14 0.500000 0.329771 0.006441
O O15 0.673145 0.500000 0.000000
O O16 0.750000 0.231883 0.750000
O O17 0.500000 0.198881 0.699645
#
# Coordination Sequence:
#
# PCOD8218599 Si02
#       6
#     8   8   8   8   8   8
#     4  10  19  32  50  71  98 129 159 193 235 282
#     4  10  20  33  49  71  98 126 159 197 237 282
#     4   9  19  33  48  70  98 128 159 193 235 281
#     4   9  17  30  48  68  91 121 158 197 234 275
#     4   9  17  30  49  71  93 122 161 199 233 275
#     4  10  19  31  48  70  97 126 158 194 233 279
#
# _framework density 16.982178999999999
#
# number of rings (size 3 to 8) (size 9 to 14) (size 15 to 20)
#    0.000    2.500    0.000    3.500    0.000    6.667 
#    0.000    1.667    0.000    1.000    0.000    7.000 
#    0.000    0.000    0.000    0.000    0.000    0.000 
#
# Total GULP energy -594977.665976 kJ/mol
# GULP energy per Si atom -12395.368041 kJ/mol
# Density = 1.694353 g / cm^3
# Si number density = 16.982179 Si / 1000 Ang^3
#
#
#
# Elastic Constant Matrix: (Units=GPa)
#
#
# Indices 1 2 3 4 5 6 
#
# 1 120.0302 57.5837 63.9319 0.0000 0.0000 0.0000
# 2 57.5837 88.5177 60.5779 0.0000 0.0000 0.0000
# 3 63.9319 60.5779 108.1314 0.0000 0.0000 0.0000
# 4 0.0000 0.0000 0.0000 3.5187 0.0000 0.0000
# 5 0.0000 0.0000 0.0000 0.0000 31.1850 0.0000
# 6 0.0000 0.0000 0.0000 0.0000 0.0000 42.3678
#
#
#
# Elastic Compliance Matrix: (Units=1/GPa)
#
#
# Indices 1 2 3 4 5 6 
#
# 1 0.013596 -0.005422 -0.005001 0.000000 0.000000 0.000000
# 2 -0.005422 0.020484 -0.008270 0.000000 0.000000 0.000000
# 3 -0.005001 -0.008270 0.016838 0.000000 0.000000 0.000000
# 4 0.000000 0.000000 0.000000 0.284195 0.000000 0.000000
# 5 0.000000 0.000000 0.000000 0.000000 0.032067 0.000000
# 6 0.000000 0.000000 0.000000 0.000000 0.000000 0.023603
#
#
# Mechanical properties :
#
#
# Convention : Reuss Voigt Hill
#
# Bulk Modulus (GPa) = 73.89944 75.65182 74.77563
# Shear Modulus (GPa) = 11.55590 24.38669 17.97130
#
# Velocity S-wave (km/s) = 2.61142 3.79359 3.25660
# Velocity P-wave (km/s) = 7.25968 7.98955 7.63335
#
# Compressibility (1/GPa) = 0.01353190
#
# Stress axis : x y z
#
# Youngs Moduli (GPa) = 73.54973 48.81828 59.39052
#
# Poissons Ratio (x) = 0.26471 0.29701
# Poissons Ratio (y) = 0.39882 0.49115
# Poissons Ratio (z) = 0.36782 0.40372
#
# Static dielectric constant tensor:
#      x y z
#    x 3.360640 0.000000 0.000000 
#    y 0.000000 3.544480 0.000000 
#    z 0.000000 0.000000 3.069330 
# 
# 
# High freq. dielectric constant tensor:
#      x y z
#    x 1.674120 0.000000 0.000000 
#    y 0.000000 1.642070 0.000000 
#    z 0.000000 0.000000 1.634720 
# 
# From -- ./inp_files/30475.got.cif
#   From: 2010.03.12/outbox.cif.g09.slc.cpg/sg53_16_cif.got.tgz:30475.got - 2010.04.16 14:36:59.
