data_PCOD8218401
_publ_section_title
;
Structure prediction by ZEFSAII (Michael W. Deem and Ramdas Pophale) SiO2 
 PCOD8218401
Probable space group: P M N A
;
_chemical_formula_sum "Si O2"
_cell_formula_units_Z 64
_cell_length_a 8.867739
_cell_length_b 19.110835
_cell_length_c 21.501642
_cell_angle_alpha 90.000000
_cell_angle_beta 90.000000
_cell_angle_gamma 90.000000
_cell_volume 3643.881052
_symmetry_space_group_name_H-M "P M N A"
_symmetry_group_IT_number 53
_symmetry_cell_setting 'orthorhombic'
loop_
_space_group_symop_operation_xyz
x,y,z
1/2-x,-y,1/2+z
x,-y,-z
1/2-x,y,1/2-z
-x,-y,-z
1/2+x,y,1/2-z
-x,y,z
1/2+x,-y,1/2+z
loop_
_atom_site_type_symbol
_atom_site_label
_atom_site_fract_x
_atom_site_fract_y
_atom_site_fract_z
Si Si1 0.331886 0.118629 0.410307
Si Si2 0.678281 0.447367 0.943643
Si Si3 0.167745 0.983983 0.427082
Si Si4 0.675789 0.698340 0.472604
Si Si5 0.678969 0.504520 0.315465
Si Si6 0.167917 0.150439 0.943757
Si Si7 0.166533 0.639342 0.693803
Si Si8 0.333984 0.750417 0.911176
O O1 0.500000 0.124624 0.383430
O O2 0.327534 0.133166 0.483569
O O3 0.225140 0.177756 0.379707
O O4 0.271214 0.041591 0.393252
O O5 0.500000 0.455880 0.935344
O O6 0.757341 0.459371 0.877503
O O7 0.731945 0.500000 0.000000
O O8 0.718061 0.367225 0.958704
O O9 0.223959 0.905533 0.410193
O O10 0.000000 0.990549 0.400557
O O11 0.171871 0.000000 0.500000
O O12 0.500000 0.677972 0.465553
O O13 0.715345 0.768091 0.431353
O O14 0.708126 0.721245 0.542679
O O15 0.750000 0.533722 0.250000
O O16 0.500000 0.515662 0.313683
O O17 0.723553 0.424025 0.323831
O O18 0.000000 0.138813 0.917869
O O19 0.250000 0.679533 0.750000
O O20 0.144953 0.692087 0.639259
O O21 0.000000 0.610183 0.712643
O O22 0.500000 0.763540 0.942153
#
# Coordination Sequence:
#
# PCOD8218401 Si02
#       8
#     8   8   8   8   8   8   8   8
#     4   9  16  25  38  56  81 115 151 186 224 269
#     4  11  23  37  53  75 104 135 168 208 253 301
#     4   9  15  22  35  55  79 110 148 185 222 267
#     4  10  20  32  47  68  93 124 159 194 237 288
#     4  11  22  37  57  77 100 130 167 209 252 301
#     4   8  15  26  38  55  82 114 148 185 224 270
#     4  10  20  33  49  68  90 118 154 195 238 283
#     4  10  19  30  44  64  92 123 155 194 237 281
#
# _framework density 17.563692
#
# number of rings (size 3 to 8) (size 9 to 14) (size 15 to 20)
#    0.000    2.250    0.000    5.625    0.000   11.000 
#    0.000    0.000    0.000    0.000    0.000    0.000 
#    0.000    1.000    0.000    7.000    0.000    7.125 
#
# Total GULP energy -792859.012721 kJ/mol
# GULP energy per Si atom -12388.422074 kJ/mol
# Density = 1.752372 g / cm^3
# Si number density = 17.563692 Si / 1000 Ang^3
#
#
#
# Elastic Constant Matrix: (Units=GPa)
#
#
# Indices 1 2 3 4 5 6 
#
# 1 110.5873 44.3545 23.2449 0.0000 0.0000 0.0000
# 2 44.3545 106.7036 26.7822 0.0000 0.0000 0.0000
# 3 23.2449 26.7822 48.1376 0.0000 0.0000 0.0000
# 4 0.0000 0.0000 0.0000 6.4796 0.0000 0.0000
# 5 0.0000 0.0000 0.0000 0.0000 16.6097 0.0000
# 6 0.0000 0.0000 0.0000 0.0000 0.0000 28.8077
#
#
#
# Elastic Compliance Matrix: (Units=1/GPa)
#
#
# Indices 1 2 3 4 5 6 
#
# 1 0.011286 -0.003863 -0.003301 0.000000 0.000000 0.000000
# 2 -0.003863 0.012215 -0.004931 0.000000 0.000000 0.000000
# 3 -0.003301 -0.004931 0.025111 0.000000 0.000000 0.000000
# 4 0.000000 0.000000 0.000000 0.154332 0.000000 0.000000
# 5 0.000000 0.000000 0.000000 0.000000 0.060206 0.000000
# 6 0.000000 0.000000 0.000000 0.000000 0.000000 0.034713
#
#
# Mechanical properties :
#
#
# Convention : Reuss Voigt Hill
#
# Bulk Modulus (GPa) = 40.94436 50.46574 45.70505
# Shear Modulus (GPa) = 15.14274 21.78253 18.46263
#
# Velocity S-wave (km/s) = 2.93944 3.52547 3.24571
# Velocity P-wave (km/s) = 5.90618 6.73552 6.33444
#
# Compressibility (1/GPa) = 0.02442339
#
# Stress axis : x y z
#
# Youngs Moduli (GPa) = 88.60782 81.86621 39.82340
#
# Poissons Ratio (x) = 0.31623 0.13144
# Poissons Ratio (y) = 0.34228 0.19636
# Poissons Ratio (z) = 0.29245 0.40366
#
# Static dielectric constant tensor:
#      x y z
#    x 3.654080 0.000000 0.000000 
#    y 0.000000 3.545620 0.000000 
#    z 0.000000 0.000000 2.962030 
# 
# 
# High freq. dielectric constant tensor:
#      x y z
#    x 1.699990 0.000000 0.000000 
#    y 0.000000 1.686080 0.000000 
#    z 0.000000 0.000000 1.610200 
# 
# From -- ./inp_files/34491.got.cif
#   From: 2010.03.12/outbox.cif.g09.slc.cpg/sg53_18_cif.got.tgz:34491.got - 2010.04.16 14:36:59.
