data_PCOD8218702
_publ_section_title
;
Structure prediction by ZEFSAII (Michael W. Deem and Ramdas Pophale) SiO2 
 PCOD8218702
Probable space group: P M N A
;
_chemical_formula_sum "Si O2"
_cell_formula_units_Z 56
_cell_length_a 18.780288
_cell_length_b 11.091833
_cell_length_c 13.262560
_cell_angle_alpha 90.000000
_cell_angle_beta 90.000000
_cell_angle_gamma 90.000000
_cell_volume 2762.694937
_symmetry_space_group_name_H-M "P M N A"
_symmetry_group_IT_number 53
_symmetry_cell_setting 'orthorhombic'
loop_
_space_group_symop_operation_xyz
x,y,z
1/2-x,-y,1/2+z
x,-y,-z
1/2-x,y,1/2-z
-x,-y,-z
1/2+x,y,1/2-z
-x,y,z
1/2+x,-y,1/2+z
loop_
_atom_site_type_symbol
_atom_site_label
_atom_site_fract_x
_atom_site_fract_y
_atom_site_fract_z
Si Si1 0.838094 0.631423 0.034947
Si Si2 0.197428 0.900864 0.578802
Si Si3 0.419549 0.610646 0.848733
Si Si4 0.168407 0.579555 0.256143
Si Si5 0.325784 0.336563 0.974514
Si Si6 0.854335 0.119644 0.069106
Si Si7 0.421316 0.882558 0.776683
O O1 0.872339 0.752546 0.986586
O O2 0.870600 0.500000 0.000000
O O3 0.850147 0.652380 0.154674
O O4 0.755033 0.624184 0.007419
O O5 0.160217 0.797610 0.513115
O O6 0.275754 0.865485 0.620881
O O7 0.142452 0.950078 0.663425
O O8 0.217572 0.000000 0.500000
O O9 0.500000 0.567424 0.867318
O O10 0.382786 0.535868 0.759017
O O11 0.415889 0.745308 0.809923
O O12 0.375154 0.582669 0.951369
O O13 0.250000 0.535349 0.250000
O O14 0.153131 0.659029 0.356413
O O15 0.911157 0.103349 0.157706
O O16 0.861704 0.000000 0.000000
O O17 0.500000 0.934190 0.804082
#
# Coordination Sequence:
#
# PCOD8218702 Si02
#       7
#     8   8   8   8   8   8   8
#     4  10  19  33  54  80 109 143 183 224 268 320
#     4   9  19  35  56  81 107 136 176 227 276 320
#     4  10  20  34  53  79 110 141 178 225 274 324
#     4  10  19  31  50  76 107 142 178 220 272 330
#     4   9  18  31  50  79 110 139 175 220 273 330
#     4  10  21  37  58  83 109 141 184 230 268 311
#     4  10  21  36  55  78 106 144 183 219 266 326
#
# _framework density 20.270061999999999
#
# number of rings (size 3 to 8) (size 9 to 14) (size 15 to 20)
#    0.000    2.286    0.000    3.429    0.000    5.143 
#    0.000    5.000    0.000    4.286    0.000    0.000 
#    0.000    0.000    0.000    0.000    0.000    0.000 
#
# Total GULP energy -693813.885610 kJ/mol
# GULP energy per Si atom -12389.533672 kJ/mol
# Density = 2.022393 g / cm^3
# Si number density = 20.270062 Si / 1000 Ang^3
#
#
#
# Elastic Constant Matrix: (Units=GPa)
#
#
# Indices 1 2 3 4 5 6 
#
# 1 70.2388 5.3503 32.6125 0.0000 0.0000 0.0000
# 2 5.3503 70.7637 21.8137 0.0000 0.0000 0.0000
# 3 32.6125 21.8137 110.3178 0.0000 0.0000 0.0000
# 4 0.0000 0.0000 0.0000 22.7338 0.0000 0.0000
# 5 0.0000 0.0000 0.0000 0.0000 21.7638 0.0000
# 6 0.0000 0.0000 0.0000 0.0000 0.0000 17.5383
#
#
#
# Elastic Compliance Matrix: (Units=1/GPa)
#
#
# Indices 1 2 3 4 5 6 
#
# 1 0.016507 0.000273 -0.004934 0.000000 0.000000 0.000000
# 2 0.000273 0.015053 -0.003057 0.000000 0.000000 0.000000
# 3 -0.004934 -0.003057 0.011128 0.000000 0.000000 0.000000
# 4 0.000000 0.000000 0.000000 0.043987 0.000000 0.000000
# 5 0.000000 0.000000 0.000000 0.000000 0.045948 0.000000
# 6 0.000000 0.000000 0.000000 0.000000 0.000000 0.057018
#
#
# Mechanical properties :
#
#
# Convention : Reuss Voigt Hill
#
# Bulk Modulus (GPa) = 36.69474 41.20813 38.95144
# Shear Modulus (GPa) = 23.34678 25.17675 24.26177
#
# Velocity S-wave (km/s) = 3.39748 3.52812 3.46342
# Velocity P-wave (km/s) = 5.79074 6.08034 5.93731
#
# Compressibility (1/GPa) = 0.02725186
#
# Stress axis : x y z
#
# Youngs Moduli (GPa) = 60.57960 66.43042 89.86501
#
# Poissons Ratio (x) = -0.01813 0.44338
# Poissons Ratio (y) = -0.01653 0.27474
# Poissons Ratio (z) = 0.29889 0.20309
#
# Static dielectric constant tensor:
#      x y z
#    x 3.671050 0.000000 0.000000 
#    y 0.000000 3.694740 0.000000 
#    z 0.000000 0.000000 3.819130 
# 
# 
# High freq. dielectric constant tensor:
#      x y z
#    x 1.770270 0.000000 0.000000 
#    y 0.000000 1.778340 0.000000 
#    z 0.000000 0.000000 1.795980 
# 
# From -- ./inp_files/17844.got.cif
#   From: 2010.03.12/outbox.cif.g09.slc.cpg/sg53_9_cif.got.tgz:17844.got - 2010.04.16 14:36:59.
