data_PCOD8218515
_publ_section_title
;
Structure prediction by ZEFSAII (Michael W. Deem and Ramdas Pophale) SiO2 
 PCOD8218515
Probable space group: P M N A
;
_chemical_formula_sum "Si O2"
_cell_formula_units_Z 64
_cell_length_a 9.131986
_cell_length_b 21.409734
_cell_length_c 18.712944
_cell_angle_alpha 90.000000
_cell_angle_beta 90.000000
_cell_angle_gamma 90.000000
_cell_volume 3658.631140
_symmetry_space_group_name_H-M "P M N A"
_symmetry_group_IT_number 53
_symmetry_cell_setting 'orthorhombic'
loop_
_space_group_symop_operation_xyz
x,y,z
1/2-x,-y,1/2+z
x,-y,-z
1/2-x,y,1/2-z
-x,-y,-z
1/2+x,y,1/2-z
-x,y,z
1/2+x,-y,1/2+z
loop_
_atom_site_type_symbol
_atom_site_label
_atom_site_fract_x
_atom_site_fract_y
_atom_site_fract_z
Si Si1 0.828883 0.391911 0.679313
Si Si2 0.164494 0.186922 0.074761
Si Si3 0.828959 0.901478 0.675110
Si Si4 0.335621 0.692727 0.505361
Si Si5 0.171401 0.018984 0.578397
Si Si6 0.831697 0.561019 0.039290
Si Si7 0.167515 0.260091 0.624514
Si Si8 0.830685 0.855221 0.087089
O O1 0.750000 0.418410 0.750000
O O2 0.759449 0.425047 0.610407
O O3 0.804559 0.316702 0.679588
O O4 0.000000 0.408601 0.681151
O O5 0.277113 0.158849 0.131016
O O6 0.181351 0.263058 0.075417
O O7 0.000000 0.167240 0.096793
O O8 0.200236 0.162172 0.995240
O O9 0.750000 0.904555 0.750000
O O10 0.000000 0.894726 0.688143
O O11 0.788461 0.963514 0.631888
O O12 0.500000 0.706485 0.473044
O O13 0.319846 0.618416 0.518030
O O14 0.208051 0.712204 0.452209
O O15 0.253788 0.079945 0.606302
O O16 0.000000 0.033641 0.576156
O O17 0.228783 0.000000 0.500000
O O18 0.000000 0.550055 0.062011
O O19 0.767541 0.500000 0.000000
O O20 0.265873 0.198711 0.639320
O O21 0.000000 0.238467 0.624119
O O22 0.000000 0.862253 0.104703
#
# Coordination Sequence:
#
# PCOD8218515 Si02
#       8
#     8   8   8   8   8   8   8   8
#     4  10  20  33  51  75 104 141 180 221 264 312
#     4   9  17  30  49  73  99 126 159 202 249 296
#     4  11  23  37  53  72  98 130 164 209 261 313
#     4   8  15  28  47  74 103 129 161 201 245 293
#     4  10  20  35  53  74  99 129 169 214 258 307
#     4   9  17  31  53  80 111 145 178 214 258 308
#     4   9  17  29  46  70  99 129 163 204 251 299
#     4  10  19  30  50  77 101 127 162 208 253 299
#
# _framework density 17.492881000000001
#
# number of rings (size 3 to 8) (size 9 to 14) (size 15 to 20)
#    0.000    2.500    1.250    2.250    0.000    5.000 
#    0.000    0.625    0.000    0.750    0.000    0.000 
#    0.000    0.000    0.000    0.000    0.000    0.000 
#
# Total GULP energy -793232.057676 kJ/mol
# GULP energy per Si atom -12394.250901 kJ/mol
# Density = 1.745307 g / cm^3
# Si number density = 17.492881 Si / 1000 Ang^3
#
#
#
# Elastic Constant Matrix: (Units=GPa)
#
#
# Indices 1 2 3 4 5 6 
#
# 1 82.1634 54.3626 49.4428 0.0000 0.0000 0.0000
# 2 54.3626 131.0623 47.9072 0.0000 0.0000 0.0000
# 3 49.4428 47.9072 78.6849 0.0000 0.0000 0.0000
# 4 0.0000 0.0000 0.0000 18.0157 0.0000 0.0000
# 5 0.0000 0.0000 0.0000 0.0000 21.8158 0.0000
# 6 0.0000 0.0000 0.0000 0.0000 0.0000 25.3515
#
#
#
# Elastic Compliance Matrix: (Units=1/GPa)
#
#
# Indices 1 2 3 4 5 6 
#
# 1 0.022066 -0.005253 -0.010667 0.000000 0.000000 0.000000
# 2 -0.005253 0.011065 -0.003436 0.000000 0.000000 0.000000
# 3 -0.010667 -0.003436 0.021503 0.000000 0.000000 0.000000
# 4 0.000000 0.000000 0.000000 0.055507 0.000000 0.000000
# 5 0.000000 0.000000 0.000000 0.000000 0.045838 0.000000
# 6 0.000000 0.000000 0.000000 0.000000 0.000000 0.039445
#
#
# Mechanical properties :
#
#
# Convention : Reuss Voigt Hill
#
# Bulk Modulus (GPa) = 62.80608 66.14842 64.47725
# Shear Modulus (GPa) = 20.88172 22.38312 21.63242
#
# Velocity S-wave (km/s) = 3.45878 3.58097 3.52041
# Velocity P-wave (km/s) = 7.20643 7.41582 7.31187
#
# Compressibility (1/GPa) = 0.01592203
#
# Stress axis : x y z
#
# Youngs Moduli (GPa) = 45.31946 90.37598 46.50444
#
# Poissons Ratio (x) = 0.47479 0.49605
# Poissons Ratio (y) = 0.23808 0.15978
# Poissons Ratio (z) = 0.48341 0.31051
#
# Static dielectric constant tensor:
#      x y z
#    x 3.285500 0.000000 0.000000 
#    y 0.000000 3.493560 0.000000 
#    z 0.000000 0.000000 2.927400 
# 
# 
# High freq. dielectric constant tensor:
#      x y z
#    x 1.684590 0.000000 0.000000 
#    y 0.000000 1.677260 0.000000 
#    z 0.000000 0.000000 1.634070 
# 
# From -- ./inp_files/27059.got.cif
#   From: 2010.03.12/outbox.cif.g09.slc.cpg/sg53_14_cif.got.tgz:27059.got - 2010.04.16 14:36:59.
