data_PCOD8218285
_publ_section_title
;
Structure prediction by ZEFSAII (Michael W. Deem and Ramdas Pophale) SiO2 
 PCOD8218285
Probable space group: P M N A
;
_chemical_formula_sum "Si O2"
_cell_formula_units_Z 64
_cell_length_a 28.003644
_cell_length_b 11.563604
_cell_length_c 9.330364
_cell_angle_alpha 90.000000
_cell_angle_beta 90.000000
_cell_angle_gamma 90.000000
_cell_volume 3021.386926
_symmetry_space_group_name_H-M "P M N A"
_symmetry_group_IT_number 53
_symmetry_cell_setting 'orthorhombic'
loop_
_space_group_symop_operation_xyz
x,y,z
1/2-x,-y,1/2+z
x,-y,-z
1/2-x,y,1/2-z
-x,-y,-z
1/2+x,y,1/2-z
-x,y,z
1/2+x,-y,1/2+z
loop_
_atom_site_type_symbol
_atom_site_label
_atom_site_fract_x
_atom_site_fract_y
_atom_site_fract_z
Si Si1 0.304594 0.080610 0.739136
Si Si2 0.804548 0.348154 0.255968
Si Si3 0.109254 0.074923 0.131203
Si Si4 0.147169 0.224834 0.514404
Si Si5 0.859475 0.570052 0.278717
Si Si6 0.051423 0.555427 0.655410
Si Si7 0.660613 0.737500 0.472303
Si Si8 0.446133 0.826149 0.881283
O O1 0.250000 0.032869 0.750000
O O2 0.319095 0.143756 0.888493
O O3 0.304577 0.171598 0.608115
O O4 0.342342 0.978926 0.703168
O O5 0.750000 0.319540 0.250000
O O6 0.830559 0.251344 0.356743
O O7 0.815493 0.481173 0.298890
O O8 0.814115 0.340531 0.087856
O O9 0.119322 0.197723 0.059179
O O10 0.067519 0.091577 0.247717
O O11 0.088842 0.000000 0.000000
O O12 0.139166 0.351865 0.579603
O O13 0.095709 0.159060 0.500875
O O14 0.906556 0.494681 0.248785
O O15 0.860155 0.652642 0.144242
O O16 0.057289 0.500000 0.500000
O O17 0.055511 0.692631 0.659988
O O18 0.000000 0.518493 0.718991
O O19 0.500000 0.859768 0.935128
#
# Coordination Sequence:
#
# PCOD8218285 Si02
#       8
#     8   8   8   8   8   8   8   8
#     4  10  23  43  67  92 124 168 218 276 332 383
#     4  12  23  36  59  89 128 173 212 253 318 394
#     4  10  22  45  64  88 123 166 219 273 327 385
#     4  11  22  40  63  96 129 163 217 272 319 380
#     4  11  21  36  60  89 132 167 204 259 313 380
#     4  10  18  34  63  95 127 166 209 257 317 381
#     4  10  22  40  60  85 128 167 210 265 319 378
#     4  11  22  40  67  97 131 167 210 266 331 385
#
# _framework density 21.182324000000001
#
# number of rings (size 3 to 8) (size 9 to 14) (size 15 to 20)
#    0.000    1.375    3.750    1.500    0.000    5.250 
#    6.750    1.875    0.000    6.750    0.000    0.000 
#    0.000    0.000    0.000    0.000    0.000    0.000 
#
# Total GULP energy -793023.593241 kJ/mol
# GULP energy per Si atom -12390.993644 kJ/mol
# Density = 2.113411 g / cm^3
# Si number density = 21.182324 Si / 1000 Ang^3
#
#
#
# Elastic Constant Matrix: (Units=GPa)
#
#
# Indices 1 2 3 4 5 6 
#
# 1 130.8006 21.6640 33.3261 0.0000 0.0000 0.0000
# 2 21.6640 64.7480 24.7005 0.0000 0.0000 0.0000
# 3 33.3261 24.7005 81.8801 0.0000 0.0000 0.0000
# 4 0.0000 0.0000 0.0000 59.5741 0.0000 0.0000
# 5 0.0000 0.0000 0.0000 0.0000 21.3170 0.0000
# 6 0.0000 0.0000 0.0000 0.0000 0.0000 -51.7926
#
#
#
# Elastic Compliance Matrix: (Units=1/GPa)
#
#
# Indices 1 2 3 4 5 6 
#
# 1 0.008704 -0.001764 -0.003011 0.000000 0.000000 0.000000
# 2 -0.001764 0.017810 -0.004655 0.000000 0.000000 0.000000
# 3 -0.003011 -0.004655 0.014843 0.000000 0.000000 0.000000
# 4 0.000000 0.000000 0.000000 0.016786 0.000000 0.000000
# 5 0.000000 0.000000 0.000000 0.000000 0.046911 0.000000
# 6 0.000000 0.000000 0.000000 0.000000 0.000000 -0.019308
#
#
# Mechanical properties :
#
#
# Convention : Reuss Voigt Hill
#
# Bulk Modulus (GPa) = 44.44736 48.53445 46.49091
# Shear Modulus (GPa) = 44.60105 19.00224 31.80164
#
# Velocity S-wave (km/s) = 4.59364 2.99838 3.87890
# Velocity P-wave (km/s) = 7.01171 5.91181 6.48512
#
# Compressibility (1/GPa) = 0.02249852
#
# Stress axis : x y z
#
# Youngs Moduli (GPa) = 114.88370 56.14684 67.37368
#
# Poissons Ratio (x) = 0.09904 0.20284
# Poissons Ratio (y) = 0.20264 0.31362
# Poissons Ratio (z) = 0.34588 0.26136
#
# Static dielectric constant tensor:
#      x y z
#    x 3.923580 0.000000 0.000000 
#    y 0.000000 3.908320 0.000000 
#    z 0.000000 0.000000 3.798830 
# 
# 
# High freq. dielectric constant tensor:
#      x y z
#    x 1.819340 0.000000 0.000000 
#    y 0.000000 1.836860 0.000000 
#    z 0.000000 0.000000 1.829430 
# 
# From -- ./inp_files/13258.got.cif
#   From: 2010.03.12/outbox.cif.g09.slc.cpg/sg53_7_cif.got.tgz:13258.got - 2010.04.16 14:36:59.
