data_PCOD8218459
_publ_section_title
;
Structure prediction by ZEFSAII (Michael W. Deem and Ramdas Pophale) SiO2 
 PCOD8218459
Probable space group: P M N A
;
_chemical_formula_sum "Si O2"
_cell_formula_units_Z 40
_cell_length_a 15.206304
_cell_length_b 9.391343
_cell_length_c 16.813256
_cell_angle_alpha 90.000000
_cell_angle_beta 90.000000
_cell_angle_gamma 90.000000
_cell_volume 2401.061017
_symmetry_space_group_name_H-M "P M N A"
_symmetry_group_IT_number 53
_symmetry_cell_setting 'orthorhombic'
loop_
_space_group_symop_operation_xyz
x,y,z
1/2-x,-y,1/2+z
x,-y,-z
1/2-x,y,1/2-z
-x,-y,-z
1/2+x,y,1/2-z
-x,y,z
1/2+x,-y,1/2+z
loop_
_atom_site_type_symbol
_atom_site_label
_atom_site_fract_x
_atom_site_fract_y
_atom_site_fract_z
Si Si1 0.397696 0.995058 0.911451
Si Si2 0.682082 0.749875 0.185262
Si Si3 0.400868 0.680901 0.865699
Si Si4 0.402343 0.498646 0.283193
Si Si5 0.743081 0.509880 0.411999
O O1 0.500000 0.019527 0.921189
O O2 0.374223 0.845424 0.871222
O O3 0.366650 0.117727 0.852426
O O4 0.354512 0.000000 0.000000
O O5 0.750000 0.810505 0.250000
O O6 0.618841 0.638659 0.230929
O O7 0.730274 0.669560 0.112479
O O8 0.500000 0.655340 0.900872
O O9 0.399113 0.638579 0.773414
O O10 0.329263 0.589886 0.913487
O O11 0.500000 0.518065 0.319828
O O12 0.332405 0.461252 0.351120
O O13 0.702397 0.500000 0.500000
#
# Coordination Sequence:
#
# PCOD8218459 Si02
#       5
#     8   8   8   8   8
#     4  10  19  30  46  70  96 119 147 185 228 272
#     4   9  18  31  47  67  91 122 155 185 224 272
#     4   9  18  31  47  68  94 123 152 183 226 277
#     4   9  18  33  50  67  90 122 158 191 225 269
#     4  10  19  31  48  70  94 120 153 192 231 269
#
# _framework density 16.659300999999999
#
# number of rings (size 3 to 8) (size 9 to 14) (size 15 to 20)
#    0.000    2.600    0.000    3.600    0.000    3.200 
#    0.000    0.000    0.000    0.000    0.000    0.000 
#    0.000   20.800    0.000    0.000    0.000    0.000 
#
# Total GULP energy -495766.572973 kJ/mol
# GULP energy per Si atom -12394.164324 kJ/mol
# Density = 1.662138 g / cm^3
# Si number density = 16.659301 Si / 1000 Ang^3
#
#
#
# Elastic Constant Matrix: (Units=GPa)
#
#
# Indices 1 2 3 4 5 6 
#
# 1 65.9506 32.3354 36.8687 0.0000 0.0000 0.0000
# 2 32.3354 105.9813 54.3807 0.0000 0.0000 0.0000
# 3 36.8687 54.3807 106.8100 0.0000 0.0000 0.0000
# 4 0.0000 0.0000 0.0000 14.8996 0.0000 0.0000
# 5 0.0000 0.0000 0.0000 0.0000 19.3532 0.0000
# 6 0.0000 0.0000 0.0000 0.0000 0.0000 24.5342
#
#
#
# Elastic Compliance Matrix: (Units=1/GPa)
#
#
# Indices 1 2 3 4 5 6 
#
# 1 0.019656 -0.003405 -0.005051 0.000000 0.000000 0.000000
# 2 -0.003405 0.013362 -0.005628 0.000000 0.000000 0.000000
# 3 -0.005051 -0.005628 0.013971 0.000000 0.000000 0.000000
# 4 0.000000 0.000000 0.000000 0.067116 0.000000 0.000000
# 5 0.000000 0.000000 0.000000 0.000000 0.051671 0.000000
# 6 0.000000 0.000000 0.000000 0.000000 0.000000 0.040759
#
#
# Mechanical properties :
#
#
# Convention : Reuss Voigt Hill
#
# Bulk Modulus (GPa) = 53.13138 58.43461 55.78299
# Shear Modulus (GPa) = 20.74872 22.10120 21.42496
#
# Velocity S-wave (km/s) = 3.53296 3.64628 3.59007
# Velocity P-wave (km/s) = 6.97169 7.27184 7.12335
#
# Compressibility (1/GPa) = 0.01882127
#
# Stress axis : x y z
#
# Youngs Moduli (GPa) = 50.87432 74.83741 71.57558
#
# Poissons Ratio (x) = 0.25485 0.36154
# Poissons Ratio (y) = 0.17325 0.40281
# Poissons Ratio (z) = 0.25697 0.42117
#
# Static dielectric constant tensor:
#      x y z
#    x 3.185320 0.000000 0.000000 
#    y 0.000000 3.030870 0.000000 
#    z 0.000000 0.000000 3.116280 
# 
# 
# High freq. dielectric constant tensor:
#      x y z
#    x 1.636210 0.000000 0.000000 
#    y 0.000000 1.634620 0.000000 
#    z 0.000000 0.000000 1.637290 
# 
# From -- ./inp_files/22402.got.cif
#   From: 2010.03.12/outbox.cif.g09.slc.cpg/sg53_12_cif.got.tgz:22402.got - 2010.04.16 14:36:59.
