data_PCOD8218873
_publ_section_title
;
Structure prediction by ZEFSAII (Michael W. Deem and Ramdas Pophale) SiO2 
 PCOD8218873
Probable space group: P M N A
;
_chemical_formula_sum "Si O2"
_cell_formula_units_Z 40
_cell_length_a 9.085048
_cell_length_b 9.325499
_cell_length_c 25.623676
_cell_angle_alpha 90.000000
_cell_angle_beta 90.000000
_cell_angle_gamma 90.000000
_cell_volume 2170.904607
_symmetry_space_group_name_H-M "P M N A"
_symmetry_group_IT_number 53
_symmetry_cell_setting 'orthorhombic'
loop_
_space_group_symop_operation_xyz
x,y,z
1/2-x,-y,1/2+z
x,-y,-z
1/2-x,y,1/2-z
-x,-y,-z
1/2+x,y,1/2-z
-x,y,z
1/2+x,-y,1/2+z
loop_
_atom_site_type_symbol
_atom_site_label
_atom_site_fract_x
_atom_site_fract_y
_atom_site_fract_z
Si Si1 0.175313 0.149003 0.912577
Si Si2 0.829445 0.854093 0.596125
Si Si3 0.338892 0.170749 0.701725
Si Si4 0.164864 0.830871 0.799732
Si Si5 0.168018 0.334771 0.503828
O O1 0.227616 0.206557 0.855451
O O2 0.221886 0.263999 0.955136
O O3 0.000000 0.124585 0.912999
O O4 0.252571 0.998056 0.924952
O O5 0.753451 0.792070 0.647987
O O6 0.809563 0.733417 0.552708
O O7 0.000000 0.887446 0.607870
O O8 0.250000 0.239064 0.750000
O O9 0.500000 0.238669 0.706209
O O10 0.345076 0.000450 0.707008
O O11 0.250000 0.763840 0.750000
O O12 0.000000 0.765856 0.802833
O O13 0.211407 0.500000 0.500000
O O14 0.000000 0.314213 0.523031
#
# Coordination Sequence:
#
# PCOD8218873 Si02
#       5
#     8   8   8   8   8
#     4  10  20  33  51  77 105 131 166 210 253 301
#     4  10  19  32  52  76 102 133 169 209 252 298
#     4   8  15  26  42  68  99 127 155 192 238 287
#     4   9  16  27  45  72 104 133 163 202 248 296
#     4  10  22  38  53  71  98 133 172 212 256 306
#
# _framework density 18.425498000000001
#
# number of rings (size 3 to 8) (size 9 to 14) (size 15 to 20)
#    0.000    2.600    0.000    3.600    0.000   10.000 
#    0.000    0.000    0.000    1.200    0.000    2.800 
#    0.000    0.000    0.000    0.000    0.000    0.000 
#
# Total GULP energy -495911.519025 kJ/mol
# GULP energy per Si atom -12397.787976 kJ/mol
# Density = 1.838356 g / cm^3
# Si number density = 18.425498 Si / 1000 Ang^3
#
#
#
# Elastic Constant Matrix: (Units=GPa)
#
#
# Indices 1 2 3 4 5 6 
#
# 1 121.4697 40.3541 70.7141 0.0000 0.0000 0.0000
# 2 40.3541 66.1265 49.9464 0.0000 0.0000 0.0000
# 3 70.7141 49.9464 133.0145 0.0000 0.0000 0.0000
# 4 0.0000 0.0000 0.0000 0.9120 0.0000 0.0000
# 5 0.0000 0.0000 0.0000 0.0000 37.2855 0.0000
# 6 0.0000 0.0000 0.0000 0.0000 0.0000 6.3913
#
#
#
# Elastic Compliance Matrix: (Units=1/GPa)
#
#
# Indices 1 2 3 4 5 6 
#
# 1 0.012523 -0.003648 -0.005287 0.000000 0.000000 0.000000
# 2 -0.003648 0.022172 -0.006386 0.000000 0.000000 0.000000
# 3 -0.005287 -0.006386 0.012727 0.000000 0.000000 0.000000
# 4 0.000000 0.000000 0.000000 1.096533 0.000000 0.000000
# 5 0.000000 0.000000 0.000000 0.000000 0.026820 0.000000
# 6 0.000000 0.000000 0.000000 0.000000 0.000000 0.156462
#
#
# Mechanical properties :
#
#
# Convention : Reuss Voigt Hill
#
# Bulk Modulus (GPa) = 59.60109 71.40441 65.50275
# Shear Modulus (GPa) = 3.66710 19.55751 11.61231
#
# Velocity S-wave (km/s) = 1.41229 3.26151 2.51316
# Velocity P-wave (km/s) = 5.92256 7.28151 6.63691
#
# Compressibility (1/GPa) = 0.01677822
#
# Stress axis : x y z
#
# Youngs Moduli (GPa) = 79.85538 45.10100 78.57382
#
# Poissons Ratio (x) = 0.16454 0.41545
# Poissons Ratio (y) = 0.29134 0.50178
# Poissons Ratio (z) = 0.42223 0.28802
#
# Static dielectric constant tensor:
#      x y z
#    x 3.614660 0.000000 0.000000 
#    y 0.000000 2.854570 0.000000 
#    z 0.000000 0.000000 3.635340 
# 
# 
# High freq. dielectric constant tensor:
#      x y z
#    x 1.725290 0.000000 0.000000 
#    y 0.000000 1.655080 0.000000 
#    z 0.000000 0.000000 1.732770 
# 
# From -- ./inp_files/36018.got.cif
#   From: 2010.03.12/outbox.cif.g09.slc.cpg/sg53_19_cif.got.tgz:36018.got - 2010.04.16 14:36:59.
