data_PCOD8218455
_publ_section_title
;
Structure prediction by ZEFSAII (Michael W. Deem and Ramdas Pophale) SiO2 
 PCOD8218455
Probable space group: P M N A
;
_chemical_formula_sum "Si O2"
_cell_formula_units_Z 48
_cell_length_a 16.859145
_cell_length_b 12.838233
_cell_length_c 12.208102
_cell_angle_alpha 90.000000
_cell_angle_beta 90.000000
_cell_angle_gamma 90.000000
_cell_volume 2642.341517
_symmetry_space_group_name_H-M "P M N A"
_symmetry_group_IT_number 53
_symmetry_cell_setting 'orthorhombic'
loop_
_space_group_symop_operation_xyz
x,y,z
1/2-x,-y,1/2+z
x,-y,-z
1/2-x,y,1/2-z
-x,-y,-z
1/2+x,y,1/2-z
-x,y,z
1/2+x,-y,1/2+z
loop_
_atom_site_type_symbol
_atom_site_label
_atom_site_fract_x
_atom_site_fract_y
_atom_site_fract_z
Si Si1 0.907579 0.122836 0.994172
Si Si2 0.766600 0.389638 0.459538
Si Si3 0.087858 0.385919 0.318573
Si Si4 0.323798 0.236231 0.311177
Si Si5 0.298217 0.735422 0.357702
Si Si6 0.411923 0.455377 0.620128
O O1 0.853905 0.168284 0.895403
O O2 0.000000 0.157300 0.982264
O O3 0.869919 0.163110 0.106286
O O4 0.900470 0.000000 0.000000
O O5 0.729980 0.500000 0.500000
O O6 0.853907 0.418668 0.416386
O O7 0.710360 0.343496 0.364541
O O8 0.767918 0.299983 0.553107
O O9 0.112157 0.269990 0.279757
O O10 0.093325 0.458089 0.212688
O O11 0.000000 0.384327 0.368610
O O12 0.250000 0.177903 0.250000
O O13 0.250000 0.768800 0.250000
O O14 0.353637 0.635667 0.341641
O O15 0.390894 0.500000 0.500000
O O16 0.500000 0.407244 0.614993
#
# Coordination Sequence:
#
# PCOD8218455 Si02
#       6
#     8   8   8   8   8   8
#     4  10  21  37  56  76  97 123 160 210 264 314
#     4  10  19  31  47  70 100 133 168 200 235 284
#     4  10  19  30  46  70 101 136 168 197 235 284
#     4   9  18  32  52  75  97 125 160 200 245 294
#     4  11  21  34  52  73 100 133 169 211 258 306
#     4  10  19  30  48  75 106 140 175 210 246 289
#
# _framework density 18.165706
#
# number of rings (size 3 to 8) (size 9 to 14) (size 15 to 20)
#    0.000    2.000    0.000    5.500    0.000    3.667 
#    0.000    1.667    0.000    0.500    0.000    0.000 
#    0.000   18.667    0.000    0.000    0.000    0.000 
#
# Total GULP energy -594774.717691 kJ/mol
# GULP energy per Si atom -12391.139952 kJ/mol
# Density = 1.812436 g / cm^3
# Si number density = 18.165706 Si / 1000 Ang^3
#
#
#
# Elastic Constant Matrix: (Units=GPa)
#
#
# Indices 1 2 3 4 5 6 
#
# 1 148.3736 47.6474 61.9722 0.0000 0.0000 0.0000
# 2 47.6474 68.8627 23.9987 0.0000 0.0000 0.0000
# 3 61.9722 23.9987 84.4342 0.0000 0.0000 0.0000
# 4 0.0000 0.0000 0.0000 12.2946 0.0000 0.0000
# 5 0.0000 0.0000 0.0000 0.0000 28.1919 0.0000
# 6 0.0000 0.0000 0.0000 0.0000 0.0000 20.9315
#
#
#
# Elastic Compliance Matrix: (Units=1/GPa)
#
#
# Indices 1 2 3 4 5 6 
#
# 1 0.011319 -0.005479 -0.006750 0.000000 0.000000 0.000000
# 2 -0.005479 0.018771 -0.001314 0.000000 0.000000 0.000000
# 3 -0.006750 -0.001314 0.017171 0.000000 0.000000 0.000000
# 4 0.000000 0.000000 0.000000 0.081337 0.000000 0.000000
# 5 0.000000 0.000000 0.000000 0.000000 0.035471 0.000000
# 6 0.000000 0.000000 0.000000 0.000000 0.000000 0.047775
#
#
# Mechanical properties :
#
#
# Convention : Reuss Voigt Hill
#
# Bulk Modulus (GPa) = 49.56724 63.21190 56.38957
# Shear Modulus (GPa) = 20.35382 23.48708 21.92045
#
# Velocity S-wave (km/s) = 3.35095 3.59964 3.47752
# Velocity P-wave (km/s) = 6.50517 7.22146 6.87265
#
# Compressibility (1/GPa) = 0.02017462
#
# Stress axis : x y z
#
# Youngs Moduli (GPa) = 88.34946 53.27491 58.23645
#
# Poissons Ratio (x) = 0.29190 0.39311
# Poissons Ratio (y) = 0.48408 0.07650
# Poissons Ratio (z) = 0.59638 0.06998
#
# Static dielectric constant tensor:
#      x y z
#    x 3.673340 0.000000 0.000000 
#    y 0.000000 3.005960 0.000000 
#    z 0.000000 0.000000 3.568070 
# 
# 
# High freq. dielectric constant tensor:
#      x y z
#    x 1.725070 0.000000 0.000000 
#    y 0.000000 1.667840 0.000000 
#    z 0.000000 0.000000 1.696880 
# 
# From -- ./inp_files/16961.got.cif
#   From: 2010.03.12/outbox.cif.g09.slc.cpg/sg53_9_cif.got.tgz:16961.got - 2010.04.16 14:36:59.
