data_PCOD8218568
_publ_section_title
;
Structure prediction by ZEFSAII (Michael W. Deem and Ramdas Pophale) SiO2 
 PCOD8218568
Probable space group: P M N A
;
_chemical_formula_sum "Si O2"
_cell_formula_units_Z 64
_cell_length_a 14.432154
_cell_length_b 9.030305
_cell_length_c 27.616572
_cell_angle_alpha 90.000000
_cell_angle_beta 90.000000
_cell_angle_gamma 90.000000
_cell_volume 3599.178142
_symmetry_space_group_name_H-M "P M N A"
_symmetry_group_IT_number 53
_symmetry_cell_setting 'orthorhombic'
loop_
_space_group_symop_operation_xyz
x,y,z
1/2-x,-y,1/2+z
x,-y,-z
1/2-x,y,1/2-z
-x,-y,-z
1/2+x,y,1/2-z
-x,y,z
1/2+x,-y,1/2+z
loop_
_atom_site_type_symbol
_atom_site_label
_atom_site_fract_x
_atom_site_fract_y
_atom_site_fract_z
Si Si1 0.103708 0.326785 0.823083
Si Si2 0.273922 0.173019 0.866359
Si Si3 0.601796 0.816553 0.777669
Si Si4 0.107777 0.670866 0.822010
Si Si5 0.105490 0.328424 0.443960
Si Si6 0.894666 0.330741 0.556595
Si Si7 0.350334 0.140010 0.767365
Si Si8 0.729548 0.175655 0.132573
O O1 0.173648 0.248368 0.860078
O O2 0.129934 0.497926 0.819501
O O3 0.107092 0.259815 0.768919
O O4 0.000000 0.305558 0.843674
O O5 0.322990 0.229801 0.914487
O O6 0.340055 0.213013 0.820651
O O7 0.256535 0.999007 0.869897
O O8 0.500000 0.753082 0.790455
O O9 0.638734 0.741715 0.728818
O O10 0.669914 0.775427 0.821027
O O11 0.588932 0.992479 0.769608
O O12 0.170088 0.745968 0.863904
O O13 0.000000 0.703009 0.833622
O O14 0.120644 0.498719 0.429156
O O15 0.125973 0.305543 0.500362
O O16 0.177273 0.226501 0.415588
O O17 0.000000 0.280417 0.432056
O O18 0.000000 0.283116 0.568695
O O19 0.250000 0.085720 0.750000
#
# Coordination Sequence:
#
# PCOD8218568 Si02
#       8
#     8   8   8   8   8   8   8   8
#     4  10  20  34  51  72  99 133 173 214 252 295
#     4  10  21  33  50  77 103 134 171 205 252 301
#     4  10  19  31  47  70 102 137 169 203 246 297
#     4  10  21  34  50  72  98 133 175 213 252 295
#     4   9  19  36  56  78 103 134 166 201 248 297
#     4   9  19  36  56  77 104 134 166 203 246 296
#     4   9  18  31  46  69 101 136 169 203 246 295
#     4  11  21  33  51  75 104 135 168 208 250 300
#
# _framework density 17.781836999999999
#
# number of rings (size 3 to 8) (size 9 to 14) (size 15 to 20)
#    0.000    2.250    0.000    4.875    0.000    9.000 
#    0.000    3.750    0.000    0.750    0.000    5.250 
#    0.000    0.000    0.000    0.000    0.000    0.000 
#
# Total GULP energy -793659.927131 kJ/mol
# GULP energy per Si atom -12400.936361 kJ/mol
# Density = 1.774136 g / cm^3
# Si number density = 17.781837 Si / 1000 Ang^3
#
#
#
# Elastic Constant Matrix: (Units=GPa)
#
#
# Indices 1 2 3 4 5 6 
#
# 1 97.6901 49.5055 48.7552 0.0000 0.0000 0.0000
# 2 49.5055 85.7537 41.7789 0.0000 0.0000 0.0000
# 3 48.7552 41.7789 75.3928 0.0000 0.0000 0.0000
# 4 0.0000 0.0000 0.0000 31.5146 0.0000 0.0000
# 5 0.0000 0.0000 0.0000 0.0000 27.0180 0.0000
# 6 0.0000 0.0000 0.0000 0.0000 0.0000 28.2318
#
#
#
# Elastic Compliance Matrix: (Units=1/GPa)
#
#
# Indices 1 2 3 4 5 6 
#
# 1 0.017217 -0.006185 -0.007707 0.000000 0.000000 0.000000
# 2 -0.006185 0.018196 -0.006084 0.000000 0.000000 0.000000
# 3 -0.007707 -0.006084 0.021619 0.000000 0.000000 0.000000
# 4 0.000000 0.000000 0.000000 0.031731 0.000000 0.000000
# 5 0.000000 0.000000 0.000000 0.000000 0.037012 0.000000
# 6 0.000000 0.000000 0.000000 0.000000 0.000000 0.035421
#
#
# Mechanical properties :
#
#
# Convention : Reuss Voigt Hill
#
# Bulk Modulus (GPa) = 58.54262 59.87953 59.21108
# Shear Modulus (GPa) = 24.17335 25.27267 24.72301
#
# Velocity S-wave (km/s) = 3.69106 3.77405 3.73279
# Velocity P-wave (km/s) = 7.15258 7.26216 7.20758
#
# Compressibility (1/GPa) = 0.01708157
#
# Stress axis : x y z
#
# Youngs Moduli (GPa) = 58.08294 54.95843 46.25602
#
# Poissons Ratio (x) = 0.33990 0.35648
# Poissons Ratio (y) = 0.35922 0.28140
# Poissons Ratio (z) = 0.44762 0.33435
#
# Static dielectric constant tensor:
#      x y z
#    x 3.312500 0.000000 0.000000 
#    y 0.000000 3.238750 0.000000 
#    z 0.000000 0.000000 3.157870 
# 
# 
# High freq. dielectric constant tensor:
#      x y z
#    x 1.691980 0.000000 0.000000 
#    y 0.000000 1.691110 0.000000 
#    z 0.000000 0.000000 1.665410 
# 
# From -- ./inp_files/38952.got.cif
#   From: 2010.03.12/outbox.cif.g09.slc.cpg/sg53_20_cif.got.tgz:38952.got - 2010.04.16 14:36:59.
