data_PCOD8218385
_publ_section_title
;
Structure prediction by ZEFSAII (Michael W. Deem and Ramdas Pophale) SiO2 
 PCOD8218385
Probable space group: P M N A
;
_chemical_formula_sum "Si O2"
_cell_formula_units_Z 64
_cell_length_a 16.907620
_cell_length_b 9.377917
_cell_length_c 25.318302
_cell_angle_alpha 90.000000
_cell_angle_beta 90.000000
_cell_angle_gamma 90.000000
_cell_volume 4014.425836
_symmetry_space_group_name_H-M "P M N A"
_symmetry_group_IT_number 53
_symmetry_cell_setting 'orthorhombic'
loop_
_space_group_symop_operation_xyz
x,y,z
1/2-x,-y,1/2+z
x,-y,-z
1/2-x,y,1/2-z
-x,-y,-z
1/2+x,y,1/2-z
-x,y,z
1/2+x,-y,1/2+z
loop_
_atom_site_type_symbol
_atom_site_label
_atom_site_fract_x
_atom_site_fract_y
_atom_site_fract_z
Si Si1 0.409392 0.869898 0.535134
Si Si2 0.184872 0.909872 0.790885
Si Si3 0.091698 0.629327 0.118701
Si Si4 0.180547 0.540093 0.217704
Si Si5 0.228730 0.687167 0.648312
Si Si6 0.407171 0.313922 0.221251
Si Si7 0.187956 0.410457 0.049229
Si Si8 0.411880 0.062314 0.631640
O O1 0.500000 0.835273 0.518656
O O2 0.358166 0.727588 0.527591
O O3 0.404343 0.922288 0.595446
O O4 0.375701 0.000000 0.500000
O O5 0.250000 0.966233 0.750000
O O6 0.227571 0.836151 0.841132
O O7 0.122042 0.807960 0.761618
O O8 0.141776 0.045949 0.816323
O O9 0.134691 0.634850 0.175451
O O10 0.127120 0.511828 0.080015
O O11 0.000000 0.589637 0.125265
O O12 0.105706 0.791826 0.098230
O O13 0.250000 0.626120 0.250000
O O14 0.230758 0.417634 0.189570
O O15 0.113736 0.468743 0.254788
O O16 0.136120 0.700520 0.663942
O O17 0.240139 0.636844 0.587597
O O18 0.500000 0.298961 0.211735
O O19 0.223216 0.500000 0.000000
O O20 0.500000 0.076026 0.653956
#
# Coordination Sequence:
#
# PCOD8218385 Si02
#       8
#     8   8   8   8   8   8   8   8
#     4  10  20  32  46  64  88 119 153 190 226 261
#     4   9  16  28  45  65  90 120 151 185 220 264
#     4  10  20  30  42  64  93 124 156 186 219 263
#     4   8  15  27  42  62  90 119 151 182 215 261
#     4   8  16  29  42  65  90 113 147 187 223 266
#     4   9  15  25  46  69  90 115 148 185 225 269
#     4  11  20  32  49  63  85 121 153 191 227 270
#     4  10  19  30  42  61  92 122 150 185 221 261
#
# _framework density 15.942504
#
# number of rings (size 3 to 8) (size 9 to 14) (size 15 to 20)
#    0.000    2.625    1.250    3.375    0.000    2.500 
#    0.000    0.000    0.000    0.375    0.000    0.000 
#    0.000    0.500    0.000    0.000    0.000    0.375 
#
# Total GULP energy -793006.612993 kJ/mol
# GULP energy per Si atom -12390.728328 kJ/mol
# Density = 1.590622 g / cm^3
# Si number density = 15.942504 Si / 1000 Ang^3
#
#
#
# Elastic Constant Matrix: (Units=GPa)
#
#
# Indices 1 2 3 4 5 6 
#
# 1 86.8064 21.2160 37.3370 0.0000 0.0000 0.0000
# 2 21.2160 64.0342 26.4394 0.0000 0.0000 0.0000
# 3 37.3370 26.4394 79.3460 0.0000 0.0000 0.0000
# 4 0.0000 0.0000 0.0000 28.2680 0.0000 0.0000
# 5 0.0000 0.0000 0.0000 0.0000 19.9956 0.0000
# 6 0.0000 0.0000 0.0000 0.0000 0.0000 16.4740
#
#
#
# Elastic Compliance Matrix: (Units=1/GPa)
#
#
# Indices 1 2 3 4 5 6 
#
# 1 0.014740 -0.002342 -0.006156 0.000000 0.000000 0.000000
# 2 -0.002342 0.018480 -0.005056 0.000000 0.000000 0.000000
# 3 -0.006156 -0.005056 0.017184 0.000000 0.000000 0.000000
# 4 0.000000 0.000000 0.000000 0.035376 0.000000 0.000000
# 5 0.000000 0.000000 0.000000 0.000000 0.050011 0.000000
# 6 0.000000 0.000000 0.000000 0.000000 0.000000 0.060702
#
#
# Mechanical properties :
#
#
# Convention : Reuss Voigt Hill
#
# Bulk Modulus (GPa) = 42.92322 44.46350 43.69336
# Shear Modulus (GPa) = 21.61084 22.62715 22.11900
#
# Velocity S-wave (km/s) = 3.68577 3.77144 3.72885
# Velocity P-wave (km/s) = 6.71531 6.84949 6.78273
#
# Compressibility (1/GPa) = 0.02329742
#
# Stress axis : x y z
#
# Youngs Moduli (GPa) = 67.84293 54.11210 58.19271
#
# Poissons Ratio (x) = 0.12673 0.35821
# Poissons Ratio (y) = 0.15889 0.29421
# Poissons Ratio (z) = 0.41761 0.27358
#
# Static dielectric constant tensor:
#      x y z
#    x 2.900280 0.000000 0.000000 
#    y 0.000000 2.961960 0.000000 
#    z 0.000000 0.000000 3.059490 
# 
# 
# High freq. dielectric constant tensor:
#      x y z
#    x 1.586320 0.000000 0.000000 
#    y 0.000000 1.606320 0.000000 
#    z 0.000000 0.000000 1.602460 
# 
# From -- ./inp_files/37174.got.cif
#   From: 2010.03.12/outbox.cif.g09.slc.cpg/sg53_19_cif.got.tgz:37174.got - 2010.04.16 14:36:59.
