data_PCOD8218051
_publ_section_title
;
Structure prediction by ZEFSAII (Michael W. Deem and Ramdas Pophale) SiO2 
 PCOD8218051
Probable space group: P M N A
;
_chemical_formula_sum "Si O2"
_cell_formula_units_Z 40
_cell_length_a 8.896692
_cell_length_b 12.535002
_cell_length_c 19.965107
_cell_angle_alpha 90.000000
_cell_angle_beta 90.000000
_cell_angle_gamma 90.000000
_cell_volume 2226.509771
_symmetry_space_group_name_H-M "P M N A"
_symmetry_group_IT_number 53
_symmetry_cell_setting 'orthorhombic'
loop_
_space_group_symop_operation_xyz
x,y,z
1/2-x,-y,1/2+z
x,-y,-z
1/2-x,y,1/2-z
-x,-y,-z
1/2+x,y,1/2-z
-x,y,z
1/2+x,-y,1/2+z
loop_
_atom_site_type_symbol
_atom_site_label
_atom_site_fract_x
_atom_site_fract_y
_atom_site_fract_z
Si Si1 0.177355 0.044013 0.427674
Si Si2 0.823662 0.736472 0.948762
Si Si3 0.674233 0.681172 0.400482
Si Si4 0.176951 0.888965 0.178659
Si Si5 0.830626 0.527108 0.577800
O O1 0.234372 0.164183 0.418596
O O2 0.000000 0.039419 0.417279
O O3 0.225987 0.000000 0.500000
O O4 0.256490 0.973708 0.372112
O O5 0.769806 0.631557 0.908439
O O6 0.000000 0.752929 0.937895
O O7 0.780576 0.726535 0.026839
O O8 0.500000 0.650704 0.400079
O O9 0.716104 0.769726 0.345798
O O10 0.765382 0.574194 0.381890
O O11 0.250000 0.908354 0.250000
O O12 0.000000 0.906617 0.183000
O O13 0.823806 0.500000 0.500000
O O14 0.000000 0.548942 0.602026
#
# Coordination Sequence:
#
# PCOD8218051 Si02
#       5
#     8   8   8   8   8
#     4  11  22  35  55  82 112 145 186 234 282 333
#     4  10  18  31  52  78 109 143 180 223 275 329
#     4   9  18  32  51  75 106 142 179 220 270 329
#     4  11  23  39  57  80 111 148 189 230 279 335
#     4   9  17  28  46  75 108 138 172 216 267 320
#
# _framework density 17.965337999999999
#
# number of rings (size 3 to 8) (size 9 to 14) (size 15 to 20)
#    0.000    2.000    2.000    2.400    0.000    5.600 
#    0.000    0.000    0.000    1.200    0.000    5.600 
#    0.000    0.000    0.000    0.000    0.000    0.000 
#
# Total GULP energy -496109.921405 kJ/mol
# GULP energy per Si atom -12402.748035 kJ/mol
# Density = 1.792445 g / cm^3
# Si number density = 17.965338 Si / 1000 Ang^3
#
#
#
# Elastic Constant Matrix: (Units=GPa)
#
#
# Indices 1 2 3 4 5 6 
#
# 1 86.7933 63.2005 45.0001 0.0000 0.0000 0.0000
# 2 63.2005 139.9413 56.0511 0.0000 0.0000 0.0000
# 3 45.0001 56.0511 87.1538 0.0000 0.0000 0.0000
# 4 0.0000 0.0000 0.0000 19.5293 0.0000 0.0000
# 5 0.0000 0.0000 0.0000 0.0000 20.0329 0.0000
# 6 0.0000 0.0000 0.0000 0.0000 0.0000 37.9396
#
#
#
# Elastic Compliance Matrix: (Units=1/GPa)
#
#
# Indices 1 2 3 4 5 6 
#
# 1 0.019135 -0.006310 -0.005822 0.000000 0.000000 0.000000
# 2 -0.006310 0.011706 -0.004270 0.000000 0.000000 0.000000
# 3 -0.005822 -0.004270 0.017226 0.000000 0.000000 0.000000
# 4 0.000000 0.000000 0.000000 0.051205 0.000000 0.000000
# 5 0.000000 0.000000 0.000000 0.000000 0.049918 0.000000
# 6 0.000000 0.000000 0.000000 0.000000 0.000000 0.026358
#
#
# Mechanical properties :
#
#
# Convention : Reuss Voigt Hill
#
# Bulk Modulus (GPa) = 65.51846 71.37686 68.44766
# Shear Modulus (GPa) = 23.42581 25.47614 24.45098
#
# Velocity S-wave (km/s) = 3.61494 3.76981 3.69319
# Velocity P-wave (km/s) = 7.34658 7.66585 7.50791
#
# Compressibility (1/GPa) = 0.01526287
#
# Stress axis : x y z
#
# Youngs Moduli (GPa) = 52.26092 85.42635 58.05036
#
# Poissons Ratio (x) = 0.53903 0.33796
# Poissons Ratio (y) = 0.32976 0.24790
# Poissons Ratio (z) = 0.30425 0.36481
#
# Static dielectric constant tensor:
#      x y z
#    x 3.422390 0.000000 0.000000 
#    y 0.000000 3.671350 0.000000 
#    z 0.000000 0.000000 2.879490 
# 
# 
# High freq. dielectric constant tensor:
#      x y z
#    x 1.709750 0.000000 0.000000 
#    y 0.000000 1.711550 0.000000 
#    z 0.000000 0.000000 1.645780 
# 
# From -- ./inp_files/25841.got.cif
#   From: 2010.03.12/outbox.cif.g09.slc.cpg/sg53_13_cif.got.tgz:25841.got - 2010.04.16 14:36:59.
