data_PCOD8218166
_publ_section_title
;
Structure prediction by ZEFSAII (Michael W. Deem and Ramdas Pophale) SiO2 
 PCOD8218166
Probable space group: P M N A
;
_chemical_formula_sum "Si O2"
_cell_formula_units_Z 56
_cell_length_a 14.123676
_cell_length_b 11.263628
_cell_length_c 15.821059
_cell_angle_alpha 90.000000
_cell_angle_beta 90.000000
_cell_angle_gamma 90.000000
_cell_volume 2516.874699
_symmetry_space_group_name_H-M "P M N A"
_symmetry_group_IT_number 53
_symmetry_cell_setting 'orthorhombic'
loop_
_space_group_symop_operation_xyz
x,y,z
1/2-x,-y,1/2+z
x,-y,-z
1/2-x,y,1/2-z
-x,-y,-z
1/2+x,y,1/2-z
-x,y,z
1/2+x,-y,1/2+z
loop_
_atom_site_type_symbol
_atom_site_label
_atom_site_fract_x
_atom_site_fract_y
_atom_site_fract_z
Si Si1 0.103272 0.424566 0.083725
Si Si2 0.693734 0.903066 0.930630
Si Si3 0.388379 0.733297 0.059939
Si Si4 0.736326 0.602595 0.347972
Si Si5 0.109507 0.063227 0.695790
Si Si6 0.606346 0.179903 0.637844
Si Si7 0.896857 0.149563 0.049772
O O1 0.189057 0.472179 0.142309
O O2 0.117013 0.289296 0.059124
O O3 0.000000 0.442215 0.127816
O O4 0.108303 0.500000 0.000000
O O5 0.805207 0.906952 0.907358
O O6 0.647414 0.938095 0.840919
O O7 0.654162 0.778332 0.969354
O O8 0.664609 0.000000 0.000000
O O9 0.500000 0.704698 0.050300
O O10 0.332267 0.616713 0.094939
O O11 0.367233 0.831531 0.130972
O O12 0.750000 0.624826 0.250000
O O13 0.664067 0.701788 0.380486
O O14 0.152632 0.098015 0.788099
O O15 0.000000 0.042855 0.708347
O O16 0.500000 0.217454 0.664568
O O17 0.605396 0.108971 0.549073
O O18 0.000000 0.110912 0.088628
#
# Coordination Sequence:
#
# PCOD8218166 Si02
#       7
#     8   8   8   8   8   8   8
#     4  10  19  34  58  87 118 156 200 246 303 367
#     4  10  19  33  53  80 113 157 200 238 288 358
#     4  10  19  31  48  75 114 157 201 242 286 350
#     4  12  21  31  55  88 125 154 198 246 306 346
#     4   9  18  31  51  80 117 155 195 245 297 344
#     4  10  18  32  55  87 120 149 192 252 306 349
#     4  10  20  35  59  87 119 156 197 250 303 359
#
# _framework density 22.249815000000002
#
# number of rings (size 3 to 8) (size 9 to 14) (size 15 to 20)
#    0.000    1.857    4.286    0.857    0.000    2.571 
#    0.000    0.000    0.000    7.286    0.000    2.000 
#    0.000    0.571    0.000    0.000    0.000    0.000 
#
# Total GULP energy -693951.442370 kJ/mol
# GULP energy per Si atom -12391.990042 kJ/mol
# Density = 2.219917 g / cm^3
# Si number density = 22.249815 Si / 1000 Ang^3
#
#
#
# Elastic Constant Matrix: (Units=GPa)
#
#
# Indices 1 2 3 4 5 6 
#
# 1 104.3126 22.5261 30.8468 0.0000 0.0000 0.0000
# 2 22.5261 27.8038 14.3704 0.0000 0.0000 0.0000
# 3 30.8468 14.3704 55.5266 0.0000 0.0000 0.0000
# 4 0.0000 0.0000 0.0000 20.2731 0.0000 0.0000
# 5 0.0000 0.0000 0.0000 0.0000 13.6461 0.0000
# 6 0.0000 0.0000 0.0000 0.0000 0.0000 17.5442
#
#
#
# Elastic Compliance Matrix: (Units=1/GPa)
#
#
# Indices 1 2 3 4 5 6 
#
# 1 0.012756 -0.007702 -0.005093 0.000000 0.000000 0.000000
# 2 -0.007702 0.046171 -0.007670 0.000000 0.000000 0.000000
# 3 -0.005093 -0.007670 0.022824 0.000000 0.000000 0.000000
# 4 0.000000 0.000000 0.000000 0.049327 0.000000 0.000000
# 5 0.000000 0.000000 0.000000 0.000000 0.073281 0.000000
# 6 0.000000 0.000000 0.000000 0.000000 0.000000 0.056999
#
#
# Mechanical properties :
#
#
# Convention : Reuss Voigt Hill
#
# Bulk Modulus (GPa) = 24.49800 35.90327 30.20063
# Shear Modulus (GPa) = 15.82805 18.28598 17.05702
#
# Velocity S-wave (km/s) = 2.67006 2.86990 2.77178
# Velocity P-wave (km/s) = 4.53210 5.21088 4.88330
#
# Compressibility (1/GPa) = 0.04081966
#
# Stress axis : x y z
#
# Youngs Moduli (GPa) = 78.39483 21.65860 43.81405
#
# Poissons Ratio (x) = 0.16682 0.22314
# Poissons Ratio (y) = 0.60382 0.33606
# Poissons Ratio (z) = 0.39926 0.16613
#
# Static dielectric constant tensor:
#      x y z
#    x 4.352090 0.000000 0.000000 
#    y 0.000000 4.112080 0.000000 
#    z 0.000000 0.000000 3.954380 
# 
# 
# High freq. dielectric constant tensor:
#      x y z
#    x 1.893810 0.000000 0.000000 
#    y 0.000000 1.846710 0.000000 
#    z 0.000000 0.000000 1.848950 
# 
# From -- ./inp_files/22849.got.cif
#   From: 2010.03.12/outbox.cif.g09.slc.cpg/sg53_12_cif.got.tgz:22849.got - 2010.04.16 14:36:59.
