data_PCOD8218498
_publ_section_title
;
Structure prediction by ZEFSAII (Michael W. Deem and Ramdas Pophale) SiO2 
 PCOD8218498
Probable space group: P M N A
;
_chemical_formula_sum "Si O2"
_cell_formula_units_Z 44
_cell_length_a 14.569196
_cell_length_b 16.174237
_cell_length_c 9.414462
_cell_angle_alpha 90.000000
_cell_angle_beta 90.000000
_cell_angle_gamma 90.000000
_cell_volume 2218.476820
_symmetry_space_group_name_H-M "P M N A"
_symmetry_group_IT_number 53
_symmetry_cell_setting 'orthorhombic'
loop_
_space_group_symop_operation_xyz
x,y,z
1/2-x,-y,1/2+z
x,-y,-z
1/2-x,y,1/2-z
-x,-y,-z
1/2+x,y,1/2-z
-x,y,z
1/2+x,-y,1/2+z
loop_
_atom_site_type_symbol
_atom_site_label
_atom_site_fract_x
_atom_site_fract_y
_atom_site_fract_z
Si Si1 0.601323 0.781590 0.874270
Si Si2 0.398934 0.190263 0.459404
Si Si3 0.104225 0.373037 0.998819
Si Si4 0.760463 0.081032 0.417290
Si Si5 0.604169 0.599134 0.832660
Si Si6 0.249354 0.500000 0.500000
O O1 0.500000 0.801275 0.931636
O O2 0.606167 0.792243 0.706610
O O3 0.668360 0.845735 0.949399
O O4 0.627529 0.686770 0.909291
O O5 0.500000 0.161779 0.506723
O O6 0.373891 0.276940 0.536741
O O7 0.332390 0.113711 0.492769
O O8 0.111239 0.390266 0.165435
O O9 0.182681 0.430868 0.928548
O O10 0.000000 0.394854 0.946137
O O11 0.750000 0.061795 0.250000
O O12 0.793605 0.000000 0.500000
O O13 0.500000 0.571472 0.873823
O O14 0.681555 0.534479 0.879050
#
# Coordination Sequence:
#
# PCOD8218498 Si02
#       6
#     8   8   8   8   8   4
#     4   8  15  30  50  68  88 118 155 193 233 279
#     4   8  15  30  50  68  88 118 155 193 233 279
#     4   9  18  31  46  66  91 120 159 202 237 276
#     4  10  19  30  48  75 100 122 154 198 243 288
#     4   9  18  31  46  66  91 120 159 202 237 276
#     4  12  18  24  44  72  94 116 142 186 248 292
#
# _framework density 19.833428999999999
#
# number of rings (size 3 to 8) (size 9 to 14) (size 15 to 20)
#    0.000    2.909    0.000    4.364    0.000    3.636 
#    0.000    0.000    0.000    8.727    0.000   10.182 
#    0.000    0.000    0.000    0.000    0.000    0.000 
#
# Total GULP energy -545165.970515 kJ/mol
# GULP energy per Si atom -12390.135694 kJ/mol
# Density = 1.978829 g / cm^3
# Si number density = 19.833429 Si / 1000 Ang^3
#
#
#
# Elastic Constant Matrix: (Units=GPa)
#
#
# Indices 1 2 3 4 5 6 
#
# 1 127.5326 70.3852 18.5680 0.0000 0.0000 0.0000
# 2 70.3852 111.3966 21.1997 0.0000 0.0000 0.0000
# 3 18.5680 21.1997 16.9135 0.0000 0.0000 0.0000
# 4 0.0000 0.0000 0.0000 25.2346 0.0000 0.0000
# 5 0.0000 0.0000 0.0000 0.0000 18.4980 0.0000
# 6 0.0000 0.0000 0.0000 0.0000 0.0000 29.1284
#
#
#
# Elastic Compliance Matrix: (Units=1/GPa)
#
#
# Indices 1 2 3 4 5 6 
#
# 1 0.012348 -0.006858 -0.004960 0.000000 0.000000 0.000000
# 2 -0.006858 0.015598 -0.012022 0.000000 0.000000 0.000000
# 3 -0.004960 -0.012022 0.079638 0.000000 0.000000 0.000000
# 4 0.000000 0.000000 0.000000 0.039628 0.000000 0.000000
# 5 0.000000 0.000000 0.000000 0.000000 0.054060 0.000000
# 6 0.000000 0.000000 0.000000 0.000000 0.000000 0.034331
#
#
# Mechanical properties :
#
#
# Convention : Reuss Voigt Hill
#
# Bulk Modulus (GPa) = 16.69332 52.90538 34.79935
# Shear Modulus (GPa) = 16.48797 24.28486 20.38642
#
# Velocity S-wave (km/s) = 2.88639 3.50300 3.20954
# Velocity P-wave (km/s) = 4.42079 6.56461 5.59631
#
# Compressibility (1/GPa) = 0.05990421
#
# Stress axis : x y z
#
# Youngs Moduli (GPa) = 80.98231 64.11020 12.55684
#
# Poissons Ratio (x) = 0.43969 0.06228
# Poissons Ratio (y) = 0.55540 0.15096
# Poissons Ratio (z) = 0.40167 0.77072
#
# Static dielectric constant tensor:
#      x y z
#    x 4.231390 0.000000 0.000000 
#    y 0.000000 3.996970 0.000000 
#    z 0.000000 0.000000 2.879260 
# 
# 
# High freq. dielectric constant tensor:
#      x y z
#    x 1.794340 0.000000 0.000000 
#    y 0.000000 1.775520 0.000000 
#    z 0.000000 0.000000 1.695200 
# 
# From -- ./inp_files/15866.got.cif
#   From: 2010.03.12/outbox.cif.g09.slc.cpg/sg53_8_cif.got.tgz:15866.got - 2010.04.16 14:36:59.
