data_PCOD8218077
_publ_section_title
;
Structure prediction by ZEFSAII (Michael W. Deem and Ramdas Pophale) SiO2 
 PCOD8218077
Probable space group: P M N A
;
_chemical_formula_sum "Si O2"
_cell_formula_units_Z 64
_cell_length_a 8.989039
_cell_length_b 11.217635
_cell_length_c 33.110256
_cell_angle_alpha 90.000000
_cell_angle_beta 90.000000
_cell_angle_gamma 90.000000
_cell_volume 3338.697778
_symmetry_space_group_name_H-M "P M N A"
_symmetry_group_IT_number 53
_symmetry_cell_setting 'orthorhombic'
loop_
_space_group_symop_operation_xyz
x,y,z
1/2-x,-y,1/2+z
x,-y,-z
1/2-x,y,1/2-z
-x,-y,-z
1/2+x,y,1/2-z
-x,y,z
1/2+x,-y,1/2+z
loop_
_atom_site_type_symbol
_atom_site_label
_atom_site_fract_x
_atom_site_fract_y
_atom_site_fract_z
Si Si1 0.828254 0.148875 0.129351
Si Si2 0.674771 0.082826 0.208429
Si Si3 0.328155 0.320034 0.441139
Si Si4 0.171949 0.786499 0.486786
Si Si5 0.325628 0.192032 0.790948
Si Si6 0.172361 0.562059 0.429841
Si Si7 0.168309 0.701668 0.134990
Si Si8 0.331575 0.072174 0.577776
O O1 0.809275 0.271250 0.104466
O O2 0.000000 0.123521 0.140243
O O3 0.736484 0.159258 0.170851
O O4 0.766285 0.041759 0.101332
O O5 0.750000 0.126902 0.250000
O O6 0.500000 0.103328 0.212347
O O7 0.716304 0.945205 0.200054
O O8 0.500000 0.345119 0.451104
O O9 0.265926 0.220734 0.472046
O O10 0.234309 0.439448 0.447672
O O11 0.198432 0.664009 0.462759
O O12 0.229966 0.899350 0.461034
O O13 0.000000 0.807236 0.496891
O O14 0.250000 0.235160 0.750000
O O15 0.500000 0.209193 0.787048
O O16 0.264641 0.277753 0.825359
O O17 0.260959 0.591131 0.388921
O O18 0.000000 0.547577 0.419270
O O19 0.174601 0.818369 0.108072
O O20 0.000000 0.668924 0.146967
O O21 0.500000 0.047661 0.563112
#
# Coordination Sequence:
#
# PCOD8218077 Si02
#       8
#     8   8   8   8   8   8   8   8
#     4  10  21  37  55  78 111 145 180 223 266 318
#     4  10  20  33  54  81 111 145 180 218 261 312
#     4  11  23  37  55  78 105 141 184 226 269 318
#     4  10  21  36  55  78 106 138 176 226 275 320
#     4  10  19  30  48  78 112 142 173 212 261 316
#     4  10  21  37  56  77 104 137 178 227 274 318
#     4  10  18  31  54  79 105 138 175 216 265 319
#     4   9  18  33  53  76 105 141 176 214 266 320
#
# _framework density 19.169150999999999
#
# number of rings (size 3 to 8) (size 9 to 14) (size 15 to 20)
#    0.000    2.000    1.250    2.625    0.000    6.500 
#    0.000    2.500    0.000    0.750    0.000    1.750 
#    0.000    0.000    0.000    0.000    0.000    0.000 
#
# Total GULP energy -793860.085256 kJ/mol
# GULP energy per Si atom -12404.063832 kJ/mol
# Density = 1.912552 g / cm^3
# Si number density = 19.169151 Si / 1000 Ang^3
#
#
#
# Elastic Constant Matrix: (Units=GPa)
#
#
# Indices 1 2 3 4 5 6 
#
# 1 101.0740 15.2485 47.3845 0.0000 0.0000 0.0000
# 2 15.2485 25.1245 3.1678 0.0000 0.0000 0.0000
# 3 47.3845 3.1678 96.6103 0.0000 0.0000 0.0000
# 4 0.0000 0.0000 0.0000 5.2018 0.0000 0.0000
# 5 0.0000 0.0000 0.0000 0.0000 39.9458 0.0000
# 6 0.0000 0.0000 0.0000 0.0000 0.0000 22.7645
#
#
#
# Elastic Compliance Matrix: (Units=1/GPa)
#
#
# Indices 1 2 3 4 5 6 
#
# 1 0.014217 -0.007782 -0.006718 0.000000 0.000000 0.000000
# 2 -0.007782 0.044226 0.002366 0.000000 0.000000 0.000000
# 3 -0.006718 0.002366 0.013568 0.000000 0.000000 0.000000
# 4 0.000000 0.000000 0.000000 0.192240 0.000000 0.000000
# 5 0.000000 0.000000 0.000000 0.000000 0.025034 0.000000
# 6 0.000000 0.000000 0.000000 0.000000 0.000000 0.043928
#
#
# Mechanical properties :
#
#
# Convention : Reuss Voigt Hill
#
# Bulk Modulus (GPa) = 20.94439 39.37894 30.16166
# Shear Modulus (GPa) = 13.39065 24.04965 18.72015
#
# Velocity S-wave (km/s) = 2.64588 3.54588 3.12841
# Velocity P-wave (km/s) = 4.50378 6.11161 5.36823
#
# Compressibility (1/GPa) = 0.04774548
#
# Stress axis : x y z
#
# Youngs Moduli (GPa) = 70.33766 22.61102 73.70172
#
# Poissons Ratio (x) = 0.17595 0.49512
# Poissons Ratio (y) = 0.54734 -0.17441
# Poissons Ratio (z) = 0.47252 -0.05351
#
# Static dielectric constant tensor:
#      x y z
#    x 3.547700 0.000000 0.000000 
#    y 0.000000 3.225700 0.000000 
#    z 0.000000 0.000000 3.935920 
# 
# 
# High freq. dielectric constant tensor:
#      x y z
#    x 1.755060 0.000000 0.000000 
#    y 0.000000 1.715320 0.000000 
#    z 0.000000 0.000000 1.746300 
# 
# From -- ./inp_files/38314.got.cif
#   From: 2010.03.12/outbox.cif.g09.slc.cpg/sg53_20_cif.got.tgz:38314.got - 2010.04.16 14:36:59.
