data_PCOD8218473
_publ_section_title
;
Structure prediction by ZEFSAII (Michael W. Deem and Ramdas Pophale) SiO2 
 PCOD8218473
Probable space group: P M N A
;
_chemical_formula_sum "Si O2"
_cell_formula_units_Z 64
_cell_length_a 8.977692
_cell_length_b 30.511630
_cell_length_c 13.562964
_cell_angle_alpha 90.000000
_cell_angle_beta 90.000000
_cell_angle_gamma 90.000000
_cell_volume 3715.221575
_symmetry_space_group_name_H-M "P M N A"
_symmetry_group_IT_number 53
_symmetry_cell_setting 'orthorhombic'
loop_
_space_group_symop_operation_xyz
x,y,z
1/2-x,-y,1/2+z
x,-y,-z
1/2-x,y,1/2-z
-x,-y,-z
1/2+x,y,1/2-z
-x,y,z
1/2+x,-y,1/2+z
loop_
_atom_site_type_symbol
_atom_site_label
_atom_site_fract_x
_atom_site_fract_y
_atom_site_fract_z
Si Si1 0.672670 0.981221 0.849896
Si Si2 0.168591 0.452679 0.028421
Si Si3 0.674299 0.068703 0.955704
Si Si4 0.677611 0.146654 0.645964
Si Si5 0.834833 0.607929 0.157746
Si Si6 0.170922 0.676530 0.461112
Si Si7 0.175035 0.237113 0.647530
Si Si8 0.324151 0.620641 0.853670
O O1 0.750000 0.966401 0.750000
O O2 0.500000 0.984683 0.828707
O O3 0.728264 0.028839 0.886104
O O4 0.705612 0.944407 0.931495
O O5 0.169105 0.426985 0.927538
O O6 0.000000 0.457555 0.070020
O O7 0.237173 0.500000 0.000000
O O8 0.266803 0.426853 0.108838
O O9 0.500000 0.079097 0.939052
O O10 0.775048 0.110767 0.934039
O O11 0.750000 0.133146 0.750000
O O12 0.500000 0.149198 0.654998
O O13 0.743748 0.193141 0.611080
O O14 0.750000 0.586975 0.250000
O O15 0.000000 0.619620 0.191481
O O16 0.760422 0.653009 0.124979
O O17 0.197008 0.728137 0.441910
O O18 0.222377 0.659470 0.569488
O O19 0.000000 0.663365 0.447883
O O20 0.250000 0.253235 0.750000
O O21 0.000000 0.228445 0.666910
O O22 0.250000 0.632863 0.750000
O O23 0.500000 0.617759 0.839299
#
# Coordination Sequence:
#
# PCOD8218473 Si02
#       8
#     8   8   8   8   8   8   8   8
#     4   9  18  31  49  71  97 128 165 206 248 291
#     4   9  19  35  51  70  97 128 163 200 237 280
#     4   9  18  33  49  69  98 132 165 202 247 292
#     4  11  21  32  48  72 100 131 164 199 240 290
#     4  10  19  30  47  69  95 125 154 188 231 277
#     4   9  19  34  52  73  97 124 157 196 237 283
#     4  10  19  32  50  73 100 129 158 192 239 293
#     4  10  20  35  54  76 100 128 164 204 246 290
#
# _framework density 17.226427999999999
#
# number of rings (size 3 to 8) (size 9 to 14) (size 15 to 20)
#    0.000    2.375    0.000    4.500    0.000    5.750 
#    0.000    2.500    0.000    0.750    0.000    1.750 
#    0.000    0.000    0.000    0.000    0.000    0.000 
#
# Total GULP energy -793448.393817 kJ/mol
# GULP energy per Si atom -12397.631153 kJ/mol
# Density = 1.718722 g / cm^3
# Si number density = 17.226428 Si / 1000 Ang^3
#
#
#
# Elastic Constant Matrix: (Units=GPa)
#
#
# Indices 1 2 3 4 5 6 
#
# 1 96.0037 47.3388 47.4153 0.0000 0.0000 0.0000
# 2 47.3388 106.8759 45.0343 0.0000 0.0000 0.0000
# 3 47.4153 45.0343 94.3038 0.0000 0.0000 0.0000
# 4 0.0000 0.0000 0.0000 17.6465 0.0000 0.0000
# 5 0.0000 0.0000 0.0000 0.0000 31.7918 0.0000
# 6 0.0000 0.0000 0.0000 0.0000 0.0000 25.6342
#
#
#
# Elastic Compliance Matrix: (Units=1/GPa)
#
#
# Indices 1 2 3 4 5 6 
#
# 1 0.015380 -0.004449 -0.005608 0.000000 0.000000 0.000000
# 2 -0.004449 0.013001 -0.003971 0.000000 0.000000 0.000000
# 3 -0.005608 -0.003971 0.015320 0.000000 0.000000 0.000000
# 4 0.000000 0.000000 0.000000 0.056669 0.000000 0.000000
# 5 0.000000 0.000000 0.000000 0.000000 0.031455 0.000000
# 6 0.000000 0.000000 0.000000 0.000000 0.000000 0.039010
#
#
# Mechanical properties :
#
#
# Convention : Reuss Voigt Hill
#
# Bulk Modulus (GPa) = 63.92482 64.08448 64.00465
# Shear Modulus (GPa) = 24.49698 25.50751 25.00224
#
# Velocity S-wave (km/s) = 3.77511 3.85219 3.81384
# Velocity P-wave (km/s) = 7.49607 7.55432 7.52525
#
# Compressibility (1/GPa) = 0.01564338
#
# Stress axis : x y z
#
# Youngs Moduli (GPa) = 65.01966 76.91857 65.27250
#
# Poissons Ratio (x) = 0.34222 0.36607
# Poissons Ratio (y) = 0.28928 0.25923
# Poissons Ratio (z) = 0.36465 0.30548
#
# Static dielectric constant tensor:
#      x y z
#    x 3.343990 0.000000 0.000000 
#    y 0.000000 3.195510 0.000000 
#    z 0.000000 0.000000 3.024770 
# 
# 
# High freq. dielectric constant tensor:
#      x y z
#    x 1.672480 0.000000 0.000000 
#    y 0.000000 1.657260 0.000000 
#    z 0.000000 0.000000 1.653170 
# 
# From -- ./inp_files/14245.got.cif
#   From: 2010.03.12/outbox.cif.g09.slc.cpg/sg53_8_cif.got.tgz:14245.got - 2010.04.16 14:36:59.
