data_PCOD8218442
_publ_section_title
;
Structure prediction by ZEFSAII (Michael W. Deem and Ramdas Pophale) SiO2 
 PCOD8218442
Probable space group: P M N A
;
_chemical_formula_sum "Si O2"
_cell_formula_units_Z 40
_cell_length_a 16.339840
_cell_length_b 4.973861
_cell_length_c 25.348502
_cell_angle_alpha 90.000000
_cell_angle_beta 90.000000
_cell_angle_gamma 90.000000
_cell_volume 2060.125810
_symmetry_space_group_name_H-M "P M N A"
_symmetry_group_IT_number 53
_symmetry_cell_setting 'orthorhombic'
loop_
_space_group_symop_operation_xyz
x,y,z
1/2-x,-y,1/2+z
x,-y,-z
1/2-x,y,1/2-z
-x,-y,-z
1/2+x,y,1/2-z
-x,y,z
1/2+x,-y,1/2+z
loop_
_atom_site_type_symbol
_atom_site_label
_atom_site_fract_x
_atom_site_fract_y
_atom_site_fract_z
Si Si1 0.193491 0.554408 0.199095
Si Si2 0.589096 0.755839 0.035255
Si Si3 0.737795 0.475131 0.909511
Si Si4 0.094259 0.073061 0.167727
Si Si5 0.831692 0.032239 0.058650
O O1 0.250000 0.558805 0.250000
O O2 0.255545 0.468635 0.152482
O O3 0.120299 0.337093 0.200625
O O4 0.152875 0.841711 0.189529
O O5 0.500000 0.841907 0.059073
O O6 0.650085 0.663124 0.081158
O O7 0.575635 0.500000 0.000000
O O8 0.625230 0.000000 0.000000
O O9 0.755415 0.753384 0.941636
O O10 0.806370 0.267293 0.927050
O O11 0.104701 0.124292 0.104314
O O12 0.000000 0.006902 0.179481
O O13 0.870710 0.000000 0.000000
#
# Coordination Sequence:
#
# PCOD8218442 Si02
#       5
#     8   8   8   8   8
#     4  10  21  38  59  79 104 142 184 224 269 318
#     4  10  19  30  46  69 100 134 165 207 261 309
#     4  10  19  32  51  74 102 136 179 219 255 313
#     4  10  21  37  57  83 112 140 176 222 271 321
#     4  10  19  31  52  79 106 141 175 208 256 317
#
# _framework density 19.416291000000001
#
# number of rings (size 3 to 8) (size 9 to 14) (size 15 to 20)
#    0.000    2.000    0.000    4.800    0.000    0.400 
#    0.000    2.000    0.000    9.600    0.000    0.000 
#    0.000    0.000    0.000    0.000    0.000    0.000 
#
# Total GULP energy -495688.397308 kJ/mol
# GULP energy per Si atom -12392.209933 kJ/mol
# Density = 1.937210 g / cm^3
# Si number density = 19.416291 Si / 1000 Ang^3
#
#
#
# Elastic Constant Matrix: (Units=GPa)
#
#
# Indices 1 2 3 4 5 6 
#
# 1 90.4565 8.0361 44.7647 0.0000 0.0000 0.0000
# 2 8.0361 98.6478 29.0669 0.0000 0.0000 0.0000
# 3 44.7647 29.0669 107.1442 0.0000 0.0000 0.0000
# 4 0.0000 0.0000 0.0000 23.7881 0.0000 0.0000
# 5 0.0000 0.0000 0.0000 0.0000 19.1396 0.0000
# 6 0.0000 0.0000 0.0000 0.0000 0.0000 26.2270
#
#
#
# Elastic Compliance Matrix: (Units=1/GPa)
#
#
# Indices 1 2 3 4 5 6 
#
# 1 0.013973 0.000632 -0.006009 0.000000 0.000000 0.000000
# 2 0.000632 0.011046 -0.003261 0.000000 0.000000 0.000000
# 3 -0.006009 -0.003261 0.012729 0.000000 0.000000 0.000000
# 4 0.000000 0.000000 0.000000 0.042038 0.000000 0.000000
# 5 0.000000 0.000000 0.000000 0.000000 0.052248 0.000000
# 6 0.000000 0.000000 0.000000 0.000000 0.000000 0.038129
#
#
# Mechanical properties :
#
#
# Convention : Reuss Voigt Hill
#
# Bulk Modulus (GPa) = 48.84747 51.10933 49.97840
# Shear Modulus (GPa) = 25.73847 28.12299 26.93073
#
# Velocity S-wave (km/s) = 3.64485 3.80994 3.72831
# Velocity P-wave (km/s) = 6.55178 6.76271 6.65808
#
# Compressibility (1/GPa) = 0.02047189
#
# Stress axis : x y z
#
# Youngs Moduli (GPa) = 71.56798 90.52717 78.56335
#
# Poissons Ratio (x) = -0.05725 0.47211
# Poissons Ratio (y) = -0.04526 0.25619
# Poissons Ratio (z) = 0.43008 0.29521
#
# Static dielectric constant tensor:
#      x y z
#    x 3.529840 0.000000 0.000000 
#    y 0.000000 3.753640 0.000000 
#    z 0.000000 0.000000 3.493660 
# 
# 
# High freq. dielectric constant tensor:
#      x y z
#    x 1.735800 0.000000 0.000000 
#    y 0.000000 1.780690 0.000000 
#    z 0.000000 0.000000 1.731470 
# 
# From -- ./inp_files/35145.got.cif
#   From: 2010.03.12/outbox.cif.g09.slc.cpg/sg53_18_cif.got.tgz:35145.got - 2010.04.16 14:36:59.
