data_PCOD8218991
_publ_section_title
;
Structure prediction by ZEFSAII (Michael W. Deem and Ramdas Pophale) SiO2 
 PCOD8218991
Probable space group: P M N A
;
_chemical_formula_sum "Si O2"
_cell_formula_units_Z 48
_cell_length_a 8.912083
_cell_length_b 15.444151
_cell_length_c 18.251952
_cell_angle_alpha 90.000000
_cell_angle_beta 90.000000
_cell_angle_gamma 90.000000
_cell_volume 2512.190562
_symmetry_space_group_name_H-M "P M N A"
_symmetry_group_IT_number 53
_symmetry_cell_setting 'orthorhombic'
loop_
_space_group_symop_operation_xyz
x,y,z
1/2-x,-y,1/2+z
x,-y,-z
1/2-x,y,1/2-z
-x,-y,-z
1/2+x,y,1/2-z
-x,y,z
1/2+x,-y,1/2+z
loop_
_atom_site_type_symbol
_atom_site_label
_atom_site_fract_x
_atom_site_fract_y
_atom_site_fract_z
Si Si1 0.677794 0.179056 0.088063
Si Si2 0.177453 0.331633 0.173222
Si Si3 0.675146 0.180015 0.568329
Si Si4 0.177520 0.502428 0.918257
Si Si5 0.823457 0.661136 0.171438
Si Si6 0.835028 0.011397 0.586297
O O1 0.500000 0.193387 0.087944
O O2 0.756795 0.241642 0.145297
O O3 0.719194 0.081986 0.116403
O O4 0.736758 0.197100 0.006515
O O5 0.250000 0.356597 0.250000
O O6 0.224207 0.406745 0.117061
O O7 0.000000 0.323661 0.181904
O O8 0.500000 0.179786 0.549918
O O9 0.719419 0.254811 0.624566
O O10 0.720136 0.088329 0.605799
O O11 0.242080 0.423161 0.870225
O O12 0.000000 0.492052 0.922763
O O13 0.246601 0.500000 0.000000
O O14 0.750000 0.669645 0.250000
O O15 0.000000 0.652983 0.182468
O O16 0.000000 0.035292 0.617694
O O17 0.847069 0.000000 0.500000
#
# Coordination Sequence:
#
# PCOD8218991 Si02
#       6
#     8   8   8   8   8   8
#     4  10  20  35  55  79 108 142 180 222 269 320
#     4  11  22  36  56  80 109 144 179 219 267 318
#     4  10  19  32  54  82 108 139 181 225 268 316
#     4   9  18  35  58  81 106 137 174 217 264 315
#     4  10  21  36  54  78 109 144 178 213 261 317
#     4   8  16  31  51  76 106 139 174 219 272 317
#
# _framework density 19.106831
#
# number of rings (size 3 to 8) (size 9 to 14) (size 15 to 20)
#    0.000    2.333    0.000    4.000    0.000    7.667 
#    0.000    1.667    0.000    5.500    0.000    0.000 
#    0.000    0.000    0.000    0.000    0.000    0.000 
#
# Total GULP energy -595164.353050 kJ/mol
# GULP energy per Si atom -12399.257355 kJ/mol
# Density = 1.906334 g / cm^3
# Si number density = 19.106831 Si / 1000 Ang^3
#
#
#
# Elastic Constant Matrix: (Units=GPa)
#
#
# Indices 1 2 3 4 5 6 
#
# 1 63.7918 45.1151 35.9306 0.0000 0.0000 0.0000
# 2 45.1151 123.0005 35.9124 0.0000 0.0000 0.0000
# 3 35.9306 35.9124 90.2728 0.0000 0.0000 0.0000
# 4 0.0000 0.0000 0.0000 14.5628 0.0000 0.0000
# 5 0.0000 0.0000 0.0000 0.0000 27.5265 0.0000
# 6 0.0000 0.0000 0.0000 0.0000 0.0000 21.2694
#
#
#
# Elastic Compliance Matrix: (Units=1/GPa)
#
#
# Indices 1 2 3 4 5 6 
#
# 1 0.024538 -0.006957 -0.006999 0.000000 0.000000 0.000000
# 2 -0.006957 0.011171 -0.001675 0.000000 0.000000 0.000000
# 3 -0.006999 -0.001675 0.014530 0.000000 0.000000 0.000000
# 4 0.000000 0.000000 0.000000 0.068668 0.000000 0.000000
# 5 0.000000 0.000000 0.000000 0.000000 0.036329 0.000000
# 6 0.000000 0.000000 0.000000 0.000000 0.000000 0.047016
#
#
# Mechanical properties :
#
#
# Convention : Reuss Voigt Hill
#
# Bulk Modulus (GPa) = 52.69609 56.77570 54.73589
# Shear Modulus (GPa) = 20.84731 23.34554 22.09643
#
# Velocity S-wave (km/s) = 3.30675 3.49928 3.40438
# Velocity P-wave (km/s) = 6.49762 6.79014 6.64549
#
# Compressibility (1/GPa) = 0.01897674
#
# Stress axis : x y z
#
# Youngs Moduli (GPa) = 40.75261 89.51935 68.82440
#
# Poissons Ratio (x) = 0.62277 0.48172
# Poissons Ratio (y) = 0.28351 0.11528
# Poissons Ratio (z) = 0.28524 0.14994
#
# Static dielectric constant tensor:
#      x y z
#    x 3.377200 0.000000 0.000000 
#    y 0.000000 3.981250 0.000000 
#    z 0.000000 0.000000 3.386640 
# 
# 
# High freq. dielectric constant tensor:
#      x y z
#    x 1.729940 0.000000 0.000000 
#    y 0.000000 1.763150 0.000000 
#    z 0.000000 0.000000 1.725590 
# 
# From -- ./inp_files/26269.got.cif
#   From: 2010.03.12/outbox.cif.g09.slc.cpg/sg53_14_cif.got.tgz:26269.got - 2010.04.16 14:36:59.
