data_PCOD8218540
_publ_section_title
;
Structure prediction by ZEFSAII (Michael W. Deem and Ramdas Pophale) SiO2 
 PCOD8218540
Probable space group: P M N A
;
_chemical_formula_sum "Si O2"
_cell_formula_units_Z 64
_cell_length_a 9.217158
_cell_length_b 21.404832
_cell_length_c 19.352055
_cell_angle_alpha 90.000000
_cell_angle_beta 90.000000
_cell_angle_gamma 90.000000
_cell_volume 3818.000188
_symmetry_space_group_name_H-M "P M N A"
_symmetry_group_IT_number 53
_symmetry_cell_setting 'orthorhombic'
loop_
_space_group_symop_operation_xyz
x,y,z
1/2-x,-y,1/2+z
x,-y,-z
1/2-x,y,1/2-z
-x,-y,-z
1/2+x,y,1/2-z
-x,y,z
1/2+x,-y,1/2+z
loop_
_atom_site_type_symbol
_atom_site_label
_atom_site_fract_x
_atom_site_fract_y
_atom_site_fract_z
Si Si1 0.337203 0.584339 0.062941
Si Si2 0.663417 0.664665 0.625830
Si Si3 0.836984 0.300642 0.965121
Si Si4 0.336878 0.449961 0.096937
Si Si5 0.830852 0.934135 0.967971
Si Si6 0.837273 0.219689 0.347343
Si Si7 0.170549 0.098081 0.185639
Si Si8 0.838162 0.814968 0.494189
O O1 0.500000 0.602144 0.086019
O O2 0.233213 0.642833 0.079044
O O3 0.284439 0.522132 0.103938
O O4 0.336375 0.569738 0.982352
O O5 0.500000 0.665900 0.654890
O O6 0.664130 0.682657 0.545582
O O7 0.728923 0.595525 0.638472
O O8 0.762079 0.713770 0.667958
O O9 0.000000 0.290701 0.938377
O O10 0.749032 0.236772 0.950225
O O11 0.500000 0.442722 0.126316
O O12 0.792304 0.936063 0.886426
O O13 0.743095 0.881286 0.008871
O O14 0.000000 0.919332 0.978276
O O15 0.785348 0.000000 0.000000
O O16 0.734236 0.167849 0.314237
O O17 0.847929 0.209201 0.428446
O O18 0.000000 0.217818 0.315442
O O19 0.250000 0.062654 0.250000
O O20 0.000000 0.100392 0.199314
O O21 0.000000 0.822914 0.463283
#
# Coordination Sequence:
#
# PCOD8218540 Si02
#       8
#     8   8   8   8   8   8   8   8
#     4   8  13  20  28  38  55  81 115 154 194 235
#     4   9  15  21  30  45  64  87 118 157 198 237
#     4   9  15  21  30  44  63  88 119 156 197 239
#     4   8  13  20  28  38  55  82 115 152 194 237
#     4   9  18  32  48  65  86 112 141 174 212 255
#     4   9  16  26  39  54  73  98 129 164 202 242
#     4  10  19  31  47  66  88 112 140 174 212 254
#     4   9  16  25  38  55  74  97 127 164 203 243
#
# _framework density 16.762702000000001
#
# number of rings (size 3 to 8) (size 9 to 14) (size 15 to 20)
#    0.000    3.125    0.000    2.625    0.000    7.250 
#    0.000    2.500    0.000    0.000    0.000    0.000 
#    0.000    0.000    0.000    0.000    0.000    1.250 
#
# Total GULP energy -793189.878939 kJ/mol
# GULP energy per Si atom -12393.591858 kJ/mol
# Density = 1.672455 g / cm^3
# Si number density = 16.762702 Si / 1000 Ang^3
#
#
#
# Elastic Constant Matrix: (Units=GPa)
#
#
# Indices 1 2 3 4 5 6 
#
# 1 123.6984 75.7129 20.5313 0.0000 0.0000 0.0000
# 2 75.7129 135.9203 28.0126 0.0000 0.0000 0.0000
# 3 20.5313 28.0126 26.2015 0.0000 0.0000 0.0000
# 4 0.0000 0.0000 0.0000 7.1356 0.0000 0.0000
# 5 0.0000 0.0000 0.0000 0.0000 11.3609 0.0000
# 6 0.0000 0.0000 0.0000 0.0000 0.0000 29.2706
#
#
#
# Elastic Compliance Matrix: (Units=1/GPa)
#
#
# Indices 1 2 3 4 5 6 
#
# 1 0.012448 -0.006315 -0.003002 0.000000 0.000000 0.000000
# 2 -0.006315 0.012640 -0.008566 0.000000 0.000000 0.000000
# 3 -0.003002 -0.008566 0.049676 0.000000 0.000000 0.000000
# 4 0.000000 0.000000 0.000000 0.140143 0.000000 0.000000
# 5 0.000000 0.000000 0.000000 0.000000 0.088021 0.000000
# 6 0.000000 0.000000 0.000000 0.000000 0.000000 0.034164
#
#
# Mechanical properties :
#
#
# Convention : Reuss Voigt Hill
#
# Bulk Modulus (GPa) = 25.64231 59.37042 42.50637
# Shear Modulus (GPa) = 12.95814 20.32432 16.64123
#
# Velocity S-wave (km/s) = 2.78337 3.48584 3.15422
# Velocity P-wave (km/s) = 5.06556 7.19002 6.21918
#
# Compressibility (1/GPa) = 0.03899805
#
# Stress axis : x y z
#
# Youngs Moduli (GPa) = 80.33496 79.11159 20.13043
#
# Poissons Ratio (x) = 0.49960 0.06044
# Poissons Ratio (y) = 0.50733 0.17243
# Poissons Ratio (z) = 0.24120 0.67764
#
# Static dielectric constant tensor:
#      x y z
#    x 3.373550 0.000000 0.000000 
#    y 0.000000 3.228160 0.000000 
#    z 0.000000 0.000000 2.628240 
# 
# 
# High freq. dielectric constant tensor:
#      x y z
#    x 1.660070 0.000000 0.000000 
#    y 0.000000 1.640600 0.000000 
#    z 0.000000 0.000000 1.566690 
# 
# From -- ./inp_files/31421.got.cif
#   From: 2010.03.12/outbox.cif.g09.slc.cpg/sg53_16_cif.got.tgz:31421.got - 2010.04.16 14:36:59.
