data_PCOD8218454
_publ_section_title
;
Structure prediction by ZEFSAII (Michael W. Deem and Ramdas Pophale) SiO2 
 PCOD8218454
Probable space group: P M N A
;
_chemical_formula_sum "Si O2"
_cell_formula_units_Z 56
_cell_length_a 8.979854
_cell_length_b 21.047503
_cell_length_c 14.876528
_cell_angle_alpha 90.000000
_cell_angle_beta 90.000000
_cell_angle_gamma 90.000000
_cell_volume 2811.715919
_symmetry_space_group_name_H-M "P M N A"
_symmetry_group_IT_number 53
_symmetry_cell_setting 'orthorhombic'
loop_
_space_group_symop_operation_xyz
x,y,z
1/2-x,-y,1/2+z
x,-y,-z
1/2-x,y,1/2-z
-x,-y,-z
1/2+x,y,1/2-z
-x,y,z
1/2+x,-y,1/2+z
loop_
_atom_site_type_symbol
_atom_site_label
_atom_site_fract_x
_atom_site_fract_y
_atom_site_fract_z
Si Si1 0.166766 0.917263 0.593852
Si Si2 0.826232 0.263074 0.976772
Si Si3 0.833760 0.147903 0.597365
Si Si4 0.676455 0.405497 0.515737
Si Si5 0.823659 0.029665 0.839081
Si Si6 0.673002 0.199620 0.335084
Si Si7 0.823427 0.512989 0.848521
O O1 0.159051 0.884094 0.498678
O O2 0.254871 0.870039 0.659016
O O3 0.000000 0.930426 0.630058
O O4 0.256652 0.983787 0.583719
O O5 0.736949 0.218167 0.907799
O O6 0.000000 0.258053 0.952787
O O7 0.763461 0.334470 0.967318
O O8 0.795289 0.242298 0.078474
O O9 0.728561 0.102818 0.656264
O O10 0.000000 0.152637 0.639064
O O11 0.500000 0.405867 0.511088
O O12 0.730690 0.431670 0.417987
O O13 0.727213 0.447968 0.601056
O O14 0.750000 0.999777 0.750000
O O15 0.000000 0.026956 0.839386
O O16 0.750000 0.234505 0.250000
O O17 0.500000 0.190968 0.317049
O O18 0.750000 0.519650 0.750000
O O19 0.000000 0.514955 0.834018
#
# Coordination Sequence:
#
# PCOD8218454 Si02
#       7
#     8   8   8   8   8   8   8
#     4  10  20  35  54  74  99 130 165 209 260 312
#     4   9  18  34  54  73  97 137 181 213 249 306
#     4  10  21  37  55  76 102 131 166 209 257 307
#     4   8  16  33  55  77 107 147 183 214 258 317
#     4  12  24  37  54  75 100 129 166 212 260 309
#     4  10  19  30  46  70 100 132 170 214 261 315
#     4   9  17  32  55  82 111 143 179 219 262 310
#
# _framework density 19.916663
#
# number of rings (size 3 to 8) (size 9 to 14) (size 15 to 20)
#    0.000    2.286    0.000    4.286    0.000    4.571 
#    0.000    3.571    0.000    1.714    0.000    0.000 
#    0.000    0.000    0.000    0.000    0.000    0.000 
#
# Total GULP energy -694082.316070 kJ/mol
# GULP energy per Si atom -12394.327073 kJ/mol
# Density = 1.987133 g / cm^3
# Si number density = 19.916663 Si / 1000 Ang^3
#
#
#
# Elastic Constant Matrix: (Units=GPa)
#
#
# Indices 1 2 3 4 5 6 
#
# 1 110.6000 41.4892 20.8540 0.0000 0.0000 0.0000
# 2 41.4892 144.0626 16.5303 0.0000 0.0000 0.0000
# 3 20.8540 16.5303 54.7540 0.0000 0.0000 0.0000
# 4 0.0000 0.0000 0.0000 15.7583 0.0000 0.0000
# 5 0.0000 0.0000 0.0000 0.0000 30.1295 0.0000
# 6 0.0000 0.0000 0.0000 0.0000 0.0000 22.3210
#
#
#
# Elastic Compliance Matrix: (Units=1/GPa)
#
#
# Indices 1 2 3 4 5 6 
#
# 1 0.010667 -0.002699 -0.003248 0.000000 0.000000 0.000000
# 2 -0.002699 0.007874 -0.001349 0.000000 0.000000 0.000000
# 3 -0.003248 -0.001349 0.019908 0.000000 0.000000 0.000000
# 4 0.000000 0.000000 0.000000 0.063459 0.000000 0.000000
# 5 0.000000 0.000000 0.000000 0.000000 0.033190 0.000000
# 6 0.000000 0.000000 0.000000 0.000000 0.000000 0.044801
#
#
# Mechanical properties :
#
#
# Convention : Reuss Voigt Hill
#
# Bulk Modulus (GPa) = 41.91806 51.90705 46.91255
# Shear Modulus (GPa) = 24.69855 29.01131 26.85493
#
# Velocity S-wave (km/s) = 3.52532 3.82073 3.67599
# Velocity P-wave (km/s) = 6.13701 6.75149 6.45157
#
# Compressibility (1/GPa) = 0.02385607
#
# Stress axis : x y z
#
# Youngs Moduli (GPa) = 93.75142 127.00702 50.23187
#
# Poissons Ratio (x) = 0.34282 0.16313
# Poissons Ratio (y) = 0.25306 0.06776
# Poissons Ratio (z) = 0.30447 0.17133
#
# Static dielectric constant tensor:
#      x y z
#    x 3.608820 0.000000 0.000000 
#    y 0.000000 3.888580 0.000000 
#    z 0.000000 0.000000 3.590400 
# 
# 
# High freq. dielectric constant tensor:
#      x y z
#    x 1.765290 0.000000 0.000000 
#    y 0.000000 1.770800 0.000000 
#    z 0.000000 0.000000 1.770620 
# 
# From -- ./inp_files/20462.got.cif
#   From: 2010.03.12/outbox.cif.g09.slc.cpg/sg53_11_cif.got.tgz:20462.got - 2010.04.16 14:36:59.
