data_PCOD8218052
_publ_section_title
;
Structure prediction by ZEFSAII (Michael W. Deem and Ramdas Pophale) SiO2 
 PCOD8218052
Probable space group: P M N A
;
_chemical_formula_sum "Si O2"
_cell_formula_units_Z 48
_cell_length_a 16.025626
_cell_length_b 9.207805
_cell_length_c 18.353942
_cell_angle_alpha 90.000000
_cell_angle_beta 90.000000
_cell_angle_gamma 90.000000
_cell_volume 2708.323084
_symmetry_space_group_name_H-M "P M N A"
_symmetry_group_IT_number 53
_symmetry_cell_setting 'orthorhombic'
loop_
_space_group_symop_operation_xyz
x,y,z
1/2-x,-y,1/2+z
x,-y,-z
1/2-x,y,1/2-z
-x,-y,-z
1/2+x,y,1/2-z
-x,y,z
1/2+x,-y,1/2+z
loop_
_atom_site_type_symbol
_atom_site_label
_atom_site_fract_x
_atom_site_fract_y
_atom_site_fract_z
Si Si1 0.096337 0.154557 0.829769
Si Si2 0.406154 0.353294 0.176228
Si Si3 0.332067 0.149701 0.294017
Si Si4 0.272177 0.324453 0.579774
Si Si5 0.247520 0.339694 0.083898
Si Si6 0.164853 0.654383 0.290772
O O1 0.146768 0.239882 0.891881
O O2 0.115609 0.218923 0.750011
O O3 0.000000 0.171117 0.849699
O O4 0.120614 0.986763 0.827482
O O5 0.500000 0.336028 0.146670
O O6 0.392259 0.237598 0.240301
O O7 0.343621 0.329693 0.108980
O O8 0.393940 0.514467 0.207818
O O9 0.250000 0.099281 0.250000
O O10 0.310480 0.249468 0.362574
O O11 0.287375 0.496859 0.585075
O O12 0.255517 0.274246 0.497296
O O13 0.190825 0.286209 0.629112
O O14 0.250000 0.607769 0.250000
#
# Coordination Sequence:
#
# PCOD8218052 Si02
#       6
#     8   8   8   8   8   8
#     4  11  21  33  50  76 101 126 166 215 249 281
#     4  10  18  31  52  79 102 125 162 209 246 284
#     4  10  19  33  52  72  99 135 167 198 245 300
#     4   9  18  36  54  72  99 134 168 198 241 304
#     4   9  19  35  54  72  99 136 168 195 242 304
#     4   9  17  32  53  73  99 134 165 195 243 301
#
# _framework density 17.723143
#
# number of rings (size 3 to 8) (size 9 to 14) (size 15 to 20)
#    0.000    2.333    0.000    6.000    0.000    0.667 
#    0.000   12.500    0.000    0.000    0.000    5.833 
#    0.000    0.000    0.000    0.000    0.000    0.000 
#
# Total GULP energy -595213.358069 kJ/mol
# GULP energy per Si atom -12400.278293 kJ/mol
# Density = 1.768280 g / cm^3
# Si number density = 17.723143 Si / 1000 Ang^3
#
#
#
# Elastic Constant Matrix: (Units=GPa)
#
#
# Indices 1 2 3 4 5 6 
#
# 1 122.8097 56.7376 47.1360 0.0000 0.0000 0.0000
# 2 56.7376 82.3148 44.9010 0.0000 0.0000 0.0000
# 3 47.1360 44.9010 127.2275 0.0000 0.0000 0.0000
# 4 0.0000 0.0000 0.0000 10.0480 0.0000 0.0000
# 5 0.0000 0.0000 0.0000 0.0000 13.7445 0.0000
# 6 0.0000 0.0000 0.0000 0.0000 0.0000 19.0565
#
#
#
# Elastic Compliance Matrix: (Units=1/GPa)
#
#
# Indices 1 2 3 4 5 6 
#
# 1 0.012323 -0.007435 -0.001942 0.000000 0.000000 0.000000
# 2 -0.007435 0.019530 -0.004138 0.000000 0.000000 0.000000
# 3 -0.001942 -0.004138 0.010040 0.000000 0.000000 0.000000
# 4 0.000000 0.000000 0.000000 0.099522 0.000000 0.000000
# 5 0.000000 0.000000 0.000000 0.000000 0.072757 0.000000
# 6 0.000000 0.000000 0.000000 0.000000 0.000000 0.052476
#
#
# Mechanical properties :
#
#
# Convention : Reuss Voigt Hill
#
# Bulk Modulus (GPa) = 67.27704 69.98901 68.63303
# Shear Modulus (GPa) = 16.74313 20.80829 18.77571
#
# Velocity S-wave (km/s) = 3.07694 3.43019 3.25836
# Velocity P-wave (km/s) = 7.11799 7.43399 7.27771
#
# Compressibility (1/GPa) = 0.01486391
#
# Stress axis : x y z
#
# Youngs Moduli (GPa) = 81.15140 51.20256 99.60465
#
# Poissons Ratio (x) = 0.38067 0.19339
# Poissons Ratio (y) = 0.60333 0.41218
# Poissons Ratio (z) = 0.15756 0.21189
#
# Static dielectric constant tensor:
#      x y z
#    x 3.147670 0.000000 0.000000 
#    y 0.000000 3.218290 0.000000 
#    z 0.000000 0.000000 3.485610 
# 
# 
# High freq. dielectric constant tensor:
#      x y z
#    x 1.672740 0.000000 0.000000 
#    y 0.000000 1.684820 0.000000 
#    z 0.000000 0.000000 1.683080 
# 
# From -- ./inp_files/32268.got.cif
#   From: 2010.03.12/outbox.cif.g09.slc.cpg/sg53_17_cif.got.tgz:32268.got - 2010.04.16 14:36:59.
