data_PCOD8218500
_publ_section_title
;
Structure prediction by ZEFSAII (Michael W. Deem and Ramdas Pophale) SiO2 
 PCOD8218500
Probable space group: P M N A
;
_chemical_formula_sum "Si O2"
_cell_formula_units_Z 40
_cell_length_a 26.170943
_cell_length_b 16.046048
_cell_length_c 4.896752
_cell_angle_alpha 90.000000
_cell_angle_beta 90.000000
_cell_angle_gamma 90.000000
_cell_volume 2056.343051
_symmetry_space_group_name_H-M "P M N A"
_symmetry_group_IT_number 53
_symmetry_cell_setting 'orthorhombic'
loop_
_space_group_symop_operation_xyz
x,y,z
1/2-x,-y,1/2+z
x,-y,-z
1/2-x,y,1/2-z
-x,-y,-z
1/2+x,y,1/2-z
-x,y,z
1/2+x,-y,1/2+z
loop_
_atom_site_type_symbol
_atom_site_label
_atom_site_fract_x
_atom_site_fract_y
_atom_site_fract_z
Si Si1 0.307997 0.670020 0.687577
Si Si2 0.402421 0.768787 0.621922
Si Si3 0.441819 0.323401 0.864265
Si Si4 0.153714 0.418638 0.681377
Si Si5 0.942399 0.943157 0.739165
O O1 0.250000 0.694392 0.750000
O O2 0.342142 0.746989 0.577275
O O3 0.316115 0.590801 0.474261
O O4 0.328195 0.655794 0.991222
O O5 0.431461 0.755382 0.334894
O O6 0.406505 0.863616 0.717821
O O7 0.429223 0.704892 0.829843
O O8 0.500000 0.353442 0.846461
O O9 0.406914 0.403062 0.770059
O O10 0.166027 0.500000 0.500000
O O11 0.000000 0.912730 0.665610
O O12 0.919073 0.000000 0.500000
O O13 0.943233 0.000000 0.000000
#
# Coordination Sequence:
#
# PCOD8218500 Si02
#       5
#     8   8   8   8   8
#     4  10  21  37  56  75  98 135 177 217 263 307
#     4  10  20  34  52  75 104 136 176 216 250 307
#     4  10  19  32  52  75 103 141 174 205 252 309
#     4  10  21  35  52  78 106 131 169 217 262 312
#     4  10  19  30  48  75 105 135 165 204 257 308
#
# _framework density 19.452007999999999
#
# number of rings (size 3 to 8) (size 9 to 14) (size 15 to 20)
#    0.000    2.000    0.000    4.200    0.000    3.600 
#    0.000    0.000    0.000    8.400    0.000    0.000 
#    0.000    0.000    0.000    0.000    0.000    0.000 
#
# Total GULP energy -495644.805955 kJ/mol
# GULP energy per Si atom -12391.120149 kJ/mol
# Density = 1.940773 g / cm^3
# Si number density = 19.452008 Si / 1000 Ang^3
#
#
#
# Elastic Constant Matrix: (Units=GPa)
#
#
# Indices 1 2 3 4 5 6 
#
# 1 141.1461 33.3583 26.9748 0.0000 0.0000 0.0000
# 2 33.3583 63.7979 7.3531 0.0000 0.0000 0.0000
# 3 26.9748 7.3531 98.2635 0.0000 0.0000 0.0000
# 4 0.0000 0.0000 0.0000 31.3617 0.0000 0.0000
# 5 0.0000 0.0000 0.0000 0.0000 23.6879 0.0000
# 6 0.0000 0.0000 0.0000 0.0000 0.0000 14.5148
#
#
#
# Elastic Compliance Matrix: (Units=1/GPa)
#
#
# Indices 1 2 3 4 5 6 
#
# 1 0.008459 -0.004192 -0.002009 0.000000 0.000000 0.000000
# 2 -0.004192 0.017888 -0.000188 0.000000 0.000000 0.000000
# 3 -0.002009 -0.000188 0.010742 0.000000 0.000000 0.000000
# 4 0.000000 0.000000 0.000000 0.031886 0.000000 0.000000
# 5 0.000000 0.000000 0.000000 0.000000 0.042216 0.000000
# 6 0.000000 0.000000 0.000000 0.000000 0.000000 0.068895
#
#
# Mechanical properties :
#
#
# Convention : Reuss Voigt Hill
#
# Bulk Modulus (GPa) = 41.12998 48.73109 44.93053
# Shear Modulus (GPa) = 24.87969 29.61429 27.24699
#
# Velocity S-wave (km/s) = 3.58023 3.90606 3.74669
# Velocity P-wave (km/s) = 6.18716 6.74162 6.47033
#
# Compressibility (1/GPa) = 0.02431317
#
# Stress axis : x y z
#
# Youngs Moduli (GPa) = 118.21201 55.90377 93.09116
#
# Poissons Ratio (x) = 0.23433 0.18698
# Poissons Ratio (y) = 0.49551 0.01749
# Poissons Ratio (z) = 0.23744 0.01050
#
# Static dielectric constant tensor:
#      x y z
#    x 3.696980 0.000000 0.000000 
#    y 0.000000 3.216470 0.000000 
#    z 0.000000 0.000000 3.860780 
# 
# 
# High freq. dielectric constant tensor:
#      x y z
#    x 1.739580 0.000000 0.000000 
#    y 0.000000 1.720230 0.000000 
#    z 0.000000 0.000000 1.786340 
# 
# From -- ./inp_files/3626.got.cif
#   From: 2010.03.12/outbox.cif.g09.slc.cpg/sg53_2_cif.got.tgz:3626.got - 2010.04.16 14:36:59.
