data_PCOD8218019
_publ_section_title
;
Structure prediction by ZEFSAII (Michael W. Deem and Ramdas Pophale) SiO2 
 PCOD8218019
Probable space group: P M N A
;
_chemical_formula_sum "Si O2"
_cell_formula_units_Z 40
_cell_length_a 9.183190
_cell_length_b 12.557818
_cell_length_c 19.999512
_cell_angle_alpha 90.000000
_cell_angle_beta 90.000000
_cell_angle_gamma 90.000000
_cell_volume 2306.360297
_symmetry_space_group_name_H-M "P M N A"
_symmetry_group_IT_number 53
_symmetry_cell_setting 'orthorhombic'
loop_
_space_group_symop_operation_xyz
x,y,z
1/2-x,-y,1/2+z
x,-y,-z
1/2-x,y,1/2-z
-x,-y,-z
1/2+x,y,1/2-z
-x,y,z
1/2+x,-y,1/2+z
loop_
_atom_site_type_symbol
_atom_site_label
_atom_site_fract_x
_atom_site_fract_y
_atom_site_fract_z
Si Si1 0.670708 0.549431 0.571241
Si Si2 0.330192 0.814189 0.409118
Si Si3 0.172256 0.757430 0.544593
Si Si4 0.839442 0.015404 0.421006
Si Si5 0.831696 0.619797 0.181549
O O1 0.712359 0.500000 0.500000
O O2 0.500000 0.575683 0.574687
O O3 0.761392 0.657014 0.583304
O O4 0.720820 0.466965 0.627767
O O5 0.500000 0.818895 0.427480
O O6 0.245848 0.767086 0.472272
O O7 0.300148 0.737779 0.346390
O O8 0.274182 0.932281 0.388814
O O9 0.206823 0.861551 0.590547
O O10 0.000000 0.744676 0.533970
O O11 0.000000 0.993073 0.390699
O O12 0.844226 0.000000 0.500000
O O13 0.750000 0.600665 0.250000
O O14 0.000000 0.604142 0.196532
#
# Coordination Sequence:
#
# PCOD8218019 Si02
#       5
#     8   8   8   8   8
#     4  10  19  35  54  74 105 137 172 219 263 306
#     4  10  18  31  50  73 102 135 171 209 256 309
#     4  10  19  30  48  77 107 134 168 212 260 306
#     4   8  16  29  44  70 105 132 160 204 252 297
#     4  10  22  37  53  75 104 138 172 215 263 312
#
# _framework density 17.343343999999998
#
# number of rings (size 3 to 8) (size 9 to 14) (size 15 to 20)
#    0.000    2.400    2.000    2.400    0.000    7.200 
#    0.000    0.000    0.000    1.200    0.000    0.000 
#    0.000    0.000    0.000    0.000    0.000    0.000 
#
# Total GULP energy -495912.797576 kJ/mol
# GULP energy per Si atom -12397.819939 kJ/mol
# Density = 1.730387 g / cm^3
# Si number density = 17.343344 Si / 1000 Ang^3
#
#
#
# Elastic Constant Matrix: (Units=GPa)
#
#
# Indices 1 2 3 4 5 6 
#
# 1 86.1359 72.4162 44.6687 0.0000 0.0000 0.0000
# 2 72.4162 158.5586 54.3376 0.0000 0.0000 0.0000
# 3 44.6687 54.3376 87.9442 0.0000 0.0000 0.0000
# 4 0.0000 0.0000 0.0000 15.2935 0.0000 0.0000
# 5 0.0000 0.0000 0.0000 0.0000 22.6096 0.0000
# 6 0.0000 0.0000 0.0000 0.0000 0.0000 35.0988
#
#
#
# Elastic Compliance Matrix: (Units=1/GPa)
#
#
# Indices 1 2 3 4 5 6 
#
# 1 0.021107 -0.007569 -0.006044 0.000000 0.000000 0.000000
# 2 -0.007569 0.010715 -0.002776 0.000000 0.000000 0.000000
# 3 -0.006044 -0.002776 0.016156 0.000000 0.000000 0.000000
# 4 0.000000 0.000000 0.000000 0.065387 0.000000 0.000000
# 5 0.000000 0.000000 0.000000 0.000000 0.044229 0.000000
# 6 0.000000 0.000000 0.000000 0.000000 0.000000 0.028491
#
#
# Mechanical properties :
#
#
# Convention : Reuss Voigt Hill
#
# Bulk Modulus (GPa) = 65.78933 75.05373 70.42153
# Shear Modulus (GPa) = 22.32839 25.34813 23.83826
#
# Velocity S-wave (km/s) = 3.59197 3.82717 3.71143
# Velocity P-wave (km/s) = 7.43094 7.93088 7.68497
#
# Compressibility (1/GPa) = 0.01520003
#
# Stress axis : x y z
#
# Youngs Moduli (GPa) = 47.37736 93.32839 61.89582
#
# Poissons Ratio (x) = 0.70636 0.37412
# Poissons Ratio (y) = 0.35858 0.17183
# Poissons Ratio (z) = 0.28637 0.25909
#
# Static dielectric constant tensor:
#      x y z
#    x 3.274700 0.000000 0.000000 
#    y 0.000000 3.743230 0.000000 
#    z 0.000000 0.000000 2.767550 
# 
# 
# High freq. dielectric constant tensor:
#      x y z
#    x 1.674970 0.000000 0.000000 
#    y 0.000000 1.688880 0.000000 
#    z 0.000000 0.000000 1.616250 
# 
# From -- ./inp_files/30349.got.cif
#   From: 2010.03.12/outbox.cif.g09.slc.cpg/sg53_16_cif.got.tgz:30349.got - 2010.04.16 14:36:59.
