data_PCOD8218292
_publ_section_title
;
Structure prediction by ZEFSAII (Michael W. Deem and Ramdas Pophale) SiO2 
 PCOD8218292
Probable space group: P M N A
;
_chemical_formula_sum "Si O2"
_cell_formula_units_Z 64
_cell_length_a 8.760125
_cell_length_b 11.997803
_cell_length_c 31.566863
_cell_angle_alpha 90.000000
_cell_angle_beta 90.000000
_cell_angle_gamma 90.000000
_cell_volume 3317.748453
_symmetry_space_group_name_H-M "P M N A"
_symmetry_group_IT_number 53
_symmetry_cell_setting 'orthorhombic'
loop_
_space_group_symop_operation_xyz
x,y,z
1/2-x,-y,1/2+z
x,-y,-z
1/2-x,y,1/2-z
-x,-y,-z
1/2+x,y,1/2-z
-x,y,z
1/2+x,-y,1/2+z
loop_
_atom_site_type_symbol
_atom_site_label
_atom_site_fract_x
_atom_site_fract_y
_atom_site_fract_z
Si Si1 0.322205 0.880543 0.871635
Si Si2 0.821125 0.260365 0.792688
Si Si3 0.824798 0.626171 0.514354
Si Si4 0.821806 0.258886 0.939800
Si Si5 0.320331 0.397851 0.866731
Si Si6 0.680201 0.637188 0.891754
Si Si7 0.177958 0.028244 0.548165
Si Si8 0.679808 0.007987 0.706211
O O1 0.500000 0.893516 0.861173
O O2 0.268979 0.751419 0.869179
O O3 0.229625 0.941126 0.835058
O O4 0.288691 0.927223 0.919043
O O5 0.750000 0.309919 0.750000
O O6 0.772516 0.338381 0.830465
O O7 0.000000 0.262078 0.788038
O O8 0.762217 0.134605 0.800542
O O9 0.813370 0.500000 0.500000
O O10 0.716333 0.706669 0.487538
O O11 0.753515 0.634531 0.560984
O O12 0.000000 0.669301 0.511500
O O13 0.721060 0.340017 0.910823
O O14 0.774383 0.130938 0.933348
O O15 0.000000 0.272404 0.929153
O O16 0.500000 0.386321 0.858820
O O17 0.265956 0.527178 0.866488
O O18 0.500000 0.631827 0.896555
O O19 0.000000 0.060207 0.548046
O O20 0.230615 0.000000 0.500000
O O21 0.750000 0.959480 0.750000
O O22 0.500000 0.000579 0.710596
#
# Coordination Sequence:
#
# PCOD8218292 Si02
#       8
#     8   8   8   8   8   8   8   8
#     4  10  20  36  59  85 114 148 191 241 290 339
#     4  10  21  38  60  88 117 145 178 226 284 341
#     4  10  18  35  59  79 105 148 199 242 280 329
#     4  12  24  35  52  82 118 149 185 235 289 342
#     4  11  21  37  59  83 111 147 190 231 276 332
#     4   9  19  36  58  83 110 146 192 239 282 330
#     4  10  21  38  60  83 111 152 200 242 284 343
#     4  10  21  38  61  87 115 145 184 231 285 345
#
# _framework density 19.290191
#
# number of rings (size 3 to 8) (size 9 to 14) (size 15 to 20)
#    0.000    1.750    1.250    3.750    0.000    6.500 
#    0.000    3.750    0.000    0.000    0.000    0.000 
#    0.000    0.000    0.000    0.000    0.000    0.000 
#
# Total GULP energy -793657.015121 kJ/mol
# GULP energy per Si atom -12400.890861 kJ/mol
# Density = 1.924629 g / cm^3
# Si number density = 19.290191 Si / 1000 Ang^3
#
#
#
# Elastic Constant Matrix: (Units=GPa)
#
#
# Indices 1 2 3 4 5 6 
#
# 1 48.4730 23.4135 20.0568 0.0000 0.0000 0.0000
# 2 23.4135 108.7628 42.5528 0.0000 0.0000 0.0000
# 3 20.0568 42.5528 117.3305 0.0000 0.0000 0.0000
# 4 0.0000 0.0000 0.0000 58.0473 0.0000 0.0000
# 5 0.0000 0.0000 0.0000 0.0000 29.4928 0.0000
# 6 0.0000 0.0000 0.0000 0.0000 0.0000 32.2417
#
#
#
# Elastic Compliance Matrix: (Units=1/GPa)
#
#
# Indices 1 2 3 4 5 6 
#
# 1 0.023667 -0.004093 -0.002561 0.000000 0.000000 0.000000
# 2 -0.004093 0.011422 -0.003443 0.000000 0.000000 0.000000
# 3 -0.002561 -0.003443 0.010209 0.000000 0.000000 0.000000
# 4 0.000000 0.000000 0.000000 0.017227 0.000000 0.000000
# 5 0.000000 0.000000 0.000000 0.000000 0.033907 0.000000
# 6 0.000000 0.000000 0.000000 0.000000 0.000000 0.031016
#
#
# Mechanical properties :
#
#
# Convention : Reuss Voigt Hill
#
# Bulk Modulus (GPa) = 39.83339 49.62361 44.72850
# Shear Modulus (GPa) = 32.04914 36.52592 34.28753
#
# Velocity S-wave (km/s) = 4.08048 4.35615 4.22057
# Velocity P-wave (km/s) = 6.54941 7.14717 6.85481
#
# Compressibility (1/GPa) = 0.02510457
#
# Stress axis : x y z
#
# Youngs Moduli (GPa) = 42.25342 87.54725 97.94834
#
# Poissons Ratio (x) = 0.35830 0.25088
# Poissons Ratio (y) = 0.17293 0.33724
# Poissons Ratio (z) = 0.10823 0.30143
#
# Static dielectric constant tensor:
#      x y z
#    x 3.331900 0.000000 0.000000 
#    y 0.000000 3.699020 0.000000 
#    z 0.000000 0.000000 3.396370 
# 
# 
# High freq. dielectric constant tensor:
#      x y z
#    x 1.734540 0.000000 0.000000 
#    y 0.000000 1.753610 0.000000 
#    z 0.000000 0.000000 1.751210 
# 
# From -- ./inp_files/38229.got.cif
#   From: 2010.03.12/outbox.cif.g09.slc.cpg/sg53_20_cif.got.tgz:38229.got - 2010.04.16 14:36:59.
