data_PCOD8218987
_publ_section_title
;
Structure prediction by ZEFSAII (Michael W. Deem and Ramdas Pophale) SiO2 
 PCOD8218987
Probable space group: P M N A
;
_chemical_formula_sum "Si O2"
_cell_formula_units_Z 64
_cell_length_a 9.022227
_cell_length_b 22.174426
_cell_length_c 17.622213
_cell_angle_alpha 90.000000
_cell_angle_beta 90.000000
_cell_angle_gamma 90.000000
_cell_volume 3525.547600
_symmetry_space_group_name_H-M "P M N A"
_symmetry_group_IT_number 53
_symmetry_cell_setting 'orthorhombic'
loop_
_space_group_symop_operation_xyz
x,y,z
1/2-x,-y,1/2+z
x,-y,-z
1/2-x,y,1/2-z
-x,-y,-z
1/2+x,y,1/2-z
-x,y,z
1/2+x,-y,1/2+z
loop_
_atom_site_type_symbol
_atom_site_label
_atom_site_fract_x
_atom_site_fract_y
_atom_site_fract_z
Si Si1 0.337515 0.547038 0.432647
Si Si2 0.172919 0.794330 0.173112
Si Si3 0.673182 0.927382 0.380846
Si Si4 0.323987 0.440989 0.330832
Si Si5 0.172111 0.630235 0.536829
Si Si6 0.329924 0.757288 0.027760
Si Si7 0.171002 0.112056 0.475046
Si Si8 0.673487 0.044464 0.176133
O O1 0.353562 0.500000 0.500000
O O2 0.500000 0.576083 0.417155
O O3 0.283258 0.508977 0.359027
O O4 0.221520 0.598112 0.457860
O O5 0.250000 0.772289 0.250000
O O6 0.212090 0.864152 0.158764
O O7 0.231587 0.754148 0.103485
O O8 0.000000 0.783202 0.180965
O O9 0.500000 0.941832 0.379432
O O10 0.728316 0.925902 0.467468
O O11 0.760693 0.978252 0.336139
O O12 0.250000 0.429237 0.250000
O O13 0.500000 0.432678 0.324920
O O14 0.263449 0.391883 0.390475
O O15 0.204242 0.701051 0.526817
O O16 0.000000 0.616091 0.550319
O O17 0.500000 0.756975 0.054389
O O18 0.292614 0.817006 0.979349
O O19 0.211875 0.089815 0.391584
O O20 0.000000 0.098618 0.495079
O O21 0.750000 0.073227 0.250000
O O22 0.500000 0.037655 0.189476
#
# Coordination Sequence:
#
# PCOD8218987 Si02
#       8
#     8   8   8   8   8   8   8   8
#     4   8  16  31  50  73 102 134 164 198 244 293
#     4  10  20  33  51  75 101 130 164 205 255 305
#     4  10  20  33  52  77 101 126 160 204 254 311
#     4  10  20  34  53  78 108 139 171 211 255 296
#     4  10  19  32  54  80 104 135 174 211 250 299
#     4   9  19  36  55  74 100 136 175 211 248 296
#     4   9  19  36  54  71  97 133 170 208 251 301
#     4  11  22  34  50  72  98 130 165 205 256 307
#
# _framework density 18.153207999999999
#
# number of rings (size 3 to 8) (size 9 to 14) (size 15 to 20)
#    0.000    2.375    0.000    3.375    0.000    8.750 
#    0.000    1.250    0.000    3.000    0.000    0.000 
#    0.000    0.000    0.000    0.000    0.000    0.000 
#
# Total GULP energy -793627.080874 kJ/mol
# GULP energy per Si atom -12400.423139 kJ/mol
# Density = 1.811189 g / cm^3
# Si number density = 18.153208 Si / 1000 Ang^3
#
#
#
# Elastic Constant Matrix: (Units=GPa)
#
#
# Indices 1 2 3 4 5 6 
#
# 1 86.0853 30.6198 54.5232 0.0000 0.0000 0.0000
# 2 30.6198 59.8153 37.0925 0.0000 0.0000 0.0000
# 3 54.5232 37.0925 120.7501 0.0000 0.0000 0.0000
# 4 0.0000 0.0000 0.0000 19.1246 0.0000 0.0000
# 5 0.0000 0.0000 0.0000 0.0000 32.9493 0.0000
# 6 0.0000 0.0000 0.0000 0.0000 0.0000 23.2983
#
#
#
# Elastic Compliance Matrix: (Units=1/GPa)
#
#
# Indices 1 2 3 4 5 6 
#
# 1 0.017394 -0.004983 -0.006323 0.000000 0.000000 0.000000
# 2 -0.004983 0.022080 -0.004533 0.000000 0.000000 0.000000
# 3 -0.006323 -0.004533 0.012529 0.000000 0.000000 0.000000
# 4 0.000000 0.000000 0.000000 0.052289 0.000000 0.000000
# 5 0.000000 0.000000 0.000000 0.000000 0.030350 0.000000
# 6 0.000000 0.000000 0.000000 0.000000 0.000000 0.042922
#
#
# Mechanical properties :
#
#
# Convention : Reuss Voigt Hill
#
# Bulk Modulus (GPa) = 49.20025 56.79130 52.99578
# Shear Modulus (GPa) = 23.14659 24.70211 23.92435
#
# Velocity S-wave (km/s) = 3.57468 3.69285 3.63425
# Velocity P-wave (km/s) = 6.64827 7.03812 6.84597
#
# Compressibility (1/GPa) = 0.02032510
#
# Stress axis : x y z
#
# Youngs Moduli (GPa) = 57.49233 45.29078 79.81422
#
# Poissons Ratio (x) = 0.22567 0.50469
# Poissons Ratio (y) = 0.28647 0.36176
# Poissons Ratio (z) = 0.36354 0.20528
#
# Static dielectric constant tensor:
#      x y z
#    x 3.443040 0.000000 0.000000 
#    y 0.000000 3.306290 0.000000 
#    z 0.000000 0.000000 3.401060 
# 
# 
# High freq. dielectric constant tensor:
#      x y z
#    x 1.712960 0.000000 0.000000 
#    y 0.000000 1.685910 0.000000 
#    z 0.000000 0.000000 1.698220 
# 
# From -- ./inp_files/26828.got.cif
#   From: 2010.03.12/outbox.cif.g09.slc.cpg/sg53_14_cif.got.tgz:26828.got - 2010.04.16 14:36:59.
