data_PCOD8218747
_publ_section_title
;
Structure prediction by ZEFSAII (Michael W. Deem and Ramdas Pophale) SiO2 
 PCOD8218747
Probable space group: P M N A
;
_chemical_formula_sum "Si O2"
_cell_formula_units_Z 48
_cell_length_a 32.184086
_cell_length_b 5.214546
_cell_length_c 16.322021
_cell_angle_alpha 90.000000
_cell_angle_beta 90.000000
_cell_angle_gamma 90.000000
_cell_volume 2739.249653
_symmetry_space_group_name_H-M "P M N A"
_symmetry_group_IT_number 53
_symmetry_cell_setting 'orthorhombic'
loop_
_space_group_symop_operation_xyz
x,y,z
1/2-x,-y,1/2+z
x,-y,-z
1/2-x,y,1/2-z
-x,-y,-z
1/2+x,y,1/2-z
-x,y,z
1/2+x,-y,1/2+z
loop_
_atom_site_type_symbol
_atom_site_label
_atom_site_fract_x
_atom_site_fract_y
_atom_site_fract_z
Si Si1 0.175839 0.652197 0.696782
Si Si2 0.453782 0.012552 0.903105
Si Si3 0.809929 0.753424 0.031044
Si Si4 0.280644 0.250441 0.039873
Si Si5 0.296498 0.862293 0.280382
Si Si6 0.094128 0.516761 0.597285
O O1 0.213006 0.743507 0.636962
O O2 0.184805 0.377409 0.733476
O O3 0.134676 0.615210 0.644032
O O4 0.175070 0.882932 0.764139
O O5 0.500000 0.064716 0.867894
O O6 0.423027 0.240296 0.872378
O O7 0.439152 0.731387 0.875590
O O8 0.455119 0.000000 0.000000
O O9 0.798014 0.776495 0.125355
O O10 0.834679 0.500000 0.000000
O O11 0.768371 0.751550 0.975245
O O12 0.836244 0.000000 0.000000
O O13 0.302168 0.500000 0.000000
O O14 0.302318 0.000000 0.000000
O O15 0.250000 0.914072 0.250000
O O16 0.102585 0.500000 0.500000
#
# Coordination Sequence:
#
# PCOD8218747 Si02
#       6
#     8   8   8   8   8   8
#     4  12  23  35  49  71  99 125 163 213 263 296
#     4   9  17  31  50  72  97 127 167 205 231 276
#     4  10  19  34  50  65  83 113 159 204 245 292
#     4  10  19  32  47  62  84 117 154 201 248 285
#     4  12  23  35  50  69  92 124 165 213 262 300
#     4  10  20  32  49  72  99 133 167 202 248 292
#
# _framework density 17.523046000000001
#
# number of rings (size 3 to 8) (size 9 to 14) (size 15 to 20)
#    0.000    1.500    0.000    8.500    0.000    4.000 
#    0.000    0.000    0.000    0.000    0.000    0.000 
#    0.000    0.000    0.000    0.000    0.000  210.000 
#
# Total GULP energy -594721.057529 kJ/mol
# GULP energy per Si atom -12390.022032 kJ/mol
# Density = 1.748316 g / cm^3
# Si number density = 17.523046 Si / 1000 Ang^3
#
#
#
# Elastic Constant Matrix: (Units=GPa)
#
#
# Indices 1 2 3 4 5 6 
#
# 1 51.3411 30.6170 16.4911 0.0000 0.0000 0.0000
# 2 30.6170 162.6511 21.2716 0.0000 0.0000 0.0000
# 3 16.4911 21.2716 48.7830 0.0000 0.0000 0.0000
# 4 0.0000 0.0000 0.0000 29.7939 0.0000 0.0000
# 5 0.0000 0.0000 0.0000 0.0000 86.6302 0.0000
# 6 0.0000 0.0000 0.0000 0.0000 0.0000 20.9134
#
#
#
# Elastic Compliance Matrix: (Units=1/GPa)
#
#
# Indices 1 2 3 4 5 6 
#
# 1 0.023703 -0.003620 -0.006434 0.000000 0.000000 0.000000
# 2 -0.003620 0.007073 -0.001860 0.000000 0.000000 0.000000
# 3 -0.006434 -0.001860 0.023485 0.000000 0.000000 0.000000
# 4 0.000000 0.000000 0.000000 0.033564 0.000000 0.000000
# 5 0.000000 0.000000 0.000000 0.000000 0.011543 0.000000
# 6 0.000000 0.000000 0.000000 0.000000 0.000000 0.047816
#
#
# Mechanical properties :
#
#
# Convention : Reuss Voigt Hill
#
# Bulk Modulus (GPa) = 32.86052 44.39272 38.62662
# Shear Modulus (GPa) = 27.60016 40.42720 34.01368
#
# Velocity S-wave (km/s) = 3.97303 4.80843 4.41055
# Velocity P-wave (km/s) = 6.31190 7.49779 6.93026
#
# Compressibility (1/GPa) = 0.03043166
#
# Stress axis : x y z
#
# Youngs Moduli (GPa) = 42.18829 141.38481 42.58000
#
# Poissons Ratio (x) = 0.51186 0.27397
# Poissons Ratio (y) = 0.15274 0.07921
# Poissons Ratio (z) = 0.27145 0.26301
#
# Static dielectric constant tensor:
#      x y z
#    x 2.928530 0.000000 0.000000 
#    y 0.000000 7.771850 0.000000 
#    z 0.000000 0.000000 3.176570 
# 
# 
# High freq. dielectric constant tensor:
#      x y z
#    x 1.619130 0.000000 0.000000 
#    y 0.000000 1.721100 0.000000 
#    z 0.000000 0.000000 1.648420 
# 
# From -- ./inp_files/25084.got.cif
#   From: 2010.03.12/outbox.cif.g09.slc.cpg/sg53_13_cif.got.tgz:25084.got - 2010.04.16 14:36:59.
