data_PCOD8218610
_publ_section_title
;
Structure prediction by ZEFSAII (Michael W. Deem and Ramdas Pophale) SiO2 
 PCOD8218610
Probable space group: P M N A
;
_chemical_formula_sum "Si O2"
_cell_formula_units_Z 56
_cell_length_a 9.134590
_cell_length_b 18.768553
_cell_length_c 17.109099
_cell_angle_alpha 90.000000
_cell_angle_beta 90.000000
_cell_angle_gamma 90.000000
_cell_volume 2933.235885
_symmetry_space_group_name_H-M "P M N A"
_symmetry_group_IT_number 53
_symmetry_cell_setting 'orthorhombic'
loop_
_space_group_symop_operation_xyz
x,y,z
1/2-x,-y,1/2+z
x,-y,-z
1/2-x,y,1/2-z
-x,-y,-z
1/2+x,y,1/2-z
-x,y,z
1/2+x,-y,1/2+z
loop_
_atom_site_type_symbol
_atom_site_label
_atom_site_fract_x
_atom_site_fract_y
_atom_site_fract_z
Si Si1 0.666984 0.860115 0.329364
Si Si2 0.169901 0.216817 0.435004
Si Si3 0.669289 0.920663 0.024898
Si Si4 0.663972 0.275040 0.575609
Si Si5 0.326819 0.464436 0.421254
Si Si6 0.674584 0.676026 0.667529
Si Si7 0.333912 0.407219 0.675761
O O1 0.750000 0.877743 0.250000
O O2 0.500000 0.883771 0.318239
O O3 0.733299 0.905181 0.400065
O O4 0.680380 0.776481 0.349518
O O5 0.204690 0.133399 0.452684
O O6 0.211527 0.259493 0.513045
O O7 0.265831 0.247521 0.363242
O O8 0.000000 0.228944 0.415401
O O9 0.500000 0.912185 0.048723
O O10 0.708706 0.000000 0.000000
O O11 0.500000 0.265832 0.538974
O O12 0.687948 0.355587 0.602086
O O13 0.257092 0.500000 0.500000
O O14 0.500000 0.465887 0.431363
O O15 0.278864 0.384126 0.397256
O O16 0.277697 0.514917 0.349558
O O17 0.750000 0.658082 0.750000
O O18 0.500000 0.679126 0.678746
O O19 0.250000 0.377553 0.750000
O O20 0.500000 0.409969 0.702305
#
# Coordination Sequence:
#
# PCOD8218610 Si02
#       7
#     8   8   8   8   8   8   8
#     4  10  19  31  50  78 110 142 176 212 255 310
#     4  10  20  35  57  82 105 132 170 213 259 314
#     4   9  19  37  59  81 107 138 172 215 267 321
#     4   9  18  32  51  75 104 139 174 208 251 307
#     4   9  18  33  53  74  98 134 178 222 269 318
#     4  11  22  37  57  79 108 144 184 229 273 320
#     4  10  19  31  48  71 100 133 169 209 255 303
#
# _framework density 19.091543000000001
#
# number of rings (size 3 to 8) (size 9 to 14) (size 15 to 20)
#    0.000    2.286    0.000    3.000    0.000    4.286 
#    0.000    1.429    0.000    3.000    0.000    0.000 
#    0.000    0.000    0.000    0.000    0.000    0.000 
#
# Total GULP energy -694175.064812 kJ/mol
# GULP energy per Si atom -12395.983300 kJ/mol
# Density = 1.904809 g / cm^3
# Si number density = 19.091543 Si / 1000 Ang^3
#
#
#
# Elastic Constant Matrix: (Units=GPa)
#
#
# Indices 1 2 3 4 5 6 
#
# 1 82.3838 44.6386 43.7923 0.0000 0.0000 0.0000
# 2 44.6386 111.8949 36.1370 0.0000 0.0000 0.0000
# 3 43.7923 36.1370 88.5821 0.0000 0.0000 0.0000
# 4 0.0000 0.0000 0.0000 16.2993 0.0000 0.0000
# 5 0.0000 0.0000 0.0000 0.0000 35.8241 0.0000
# 6 0.0000 0.0000 0.0000 0.0000 0.0000 22.0097
#
#
#
# Elastic Compliance Matrix: (Units=1/GPa)
#
#
# Indices 1 2 3 4 5 6 
#
# 1 0.018742 -0.005165 -0.007158 0.000000 0.000000 0.000000
# 2 -0.005165 0.011716 -0.002226 0.000000 0.000000 0.000000
# 3 -0.007158 -0.002226 0.015736 0.000000 0.000000 0.000000
# 4 0.000000 0.000000 0.000000 0.061352 0.000000 0.000000
# 5 0.000000 0.000000 0.000000 0.000000 0.027914 0.000000
# 6 0.000000 0.000000 0.000000 0.000000 0.000000 0.045434
#
#
# Mechanical properties :
#
#
# Convention : Reuss Voigt Hill
#
# Bulk Modulus (GPa) = 58.49621 59.11075 58.80348
# Shear Modulus (GPa) = 23.18104 25.37949 24.28026
#
# Velocity S-wave (km/s) = 3.48832 3.64999 3.57007
# Velocity P-wave (km/s) = 6.85061 6.98514 6.91820
#
# Compressibility (1/GPa) = 0.01709512
#
# Stress axis : x y z
#
# Youngs Moduli (GPa) = 53.35591 85.35024 63.54811
#
# Poissons Ratio (x) = 0.44083 0.45491
# Poissons Ratio (y) = 0.27558 0.14148
# Poissons Ratio (z) = 0.38195 0.19002
#
# Static dielectric constant tensor:
#      x y z
#    x 3.382760 0.000000 0.000000 
#    y 0.000000 3.618630 0.000000 
#    z 0.000000 0.000000 3.384800 
# 
# 
# High freq. dielectric constant tensor:
#      x y z
#    x 1.730070 0.000000 0.000000 
#    y 0.000000 1.740180 0.000000 
#    z 0.000000 0.000000 1.735020 
# 
# From -- ./inp_files/20647.got.cif
#   From: 2010.03.12/outbox.cif.g09.slc.cpg/sg53_11_cif.got.tgz:20647.got - 2010.04.16 14:36:59.
