data_PCOD8218358
_publ_section_title
;
Structure prediction by ZEFSAII (Michael W. Deem and Ramdas Pophale) SiO2 
 PCOD8218358
Probable space group: P M N A
;
_chemical_formula_sum "Si O2"
_cell_formula_units_Z 48
_cell_length_a 25.721056
_cell_length_b 11.730106
_cell_length_c 9.245112
_cell_angle_alpha 90.000000
_cell_angle_beta 90.000000
_cell_angle_gamma 90.000000
_cell_volume 2789.349336
_symmetry_space_group_name_H-M "P M N A"
_symmetry_group_IT_number 53
_symmetry_cell_setting 'orthorhombic'
loop_
_space_group_symop_operation_xyz
x,y,z
1/2-x,-y,1/2+z
x,-y,-z
1/2-x,y,1/2-z
-x,-y,-z
1/2+x,y,1/2-z
-x,y,z
1/2+x,-y,1/2+z
loop_
_atom_site_type_symbol
_atom_site_label
_atom_site_fract_x
_atom_site_fract_y
_atom_site_fract_z
Si Si1 0.197113 0.986256 0.834868
Si Si2 0.559751 0.380318 0.183183
Si Si3 0.106996 0.162685 0.821546
Si Si4 0.885631 0.803960 0.841089
Si Si5 0.059582 0.355796 0.649024
Si Si6 0.557790 0.978147 0.846526
O O1 0.250000 0.993486 0.750000
O O2 0.159448 0.090406 0.785964
O O3 0.170794 0.861166 0.810913
O O4 0.212044 0.000000 0.000000
O O5 0.500000 0.356986 0.233561
O O6 0.603847 0.326072 0.290527
O O7 0.571039 0.514126 0.188221
O O8 0.567891 0.333383 0.020926
O O9 0.102409 0.282728 0.738136
O O10 0.060294 0.086243 0.760250
O O11 0.100092 0.181460 0.991499
O O12 0.925211 0.867356 0.737731
O O13 0.000000 0.324646 0.691649
O O14 0.500000 0.950151 0.891159
O O15 0.588234 0.000000 0.000000
#
# Coordination Sequence:
#
# PCOD8218358 Si02
#       6
#     8   8   8   8   8   8
#     4   9  20  36  52  72  95 120 154 200 251 298
#     4   9  18  32  49  71 101 136 171 200 226 270
#     4  10  20  32  47  71  99 123 155 200 246 289
#     4  10  20  32  47  71  99 123 155 200 246 289
#     4   9  18  32  49  71 101 136 171 200 226 270
#     4  10  19  29  43  65  94 128 162 192 228 281
#
# _framework density 17.208314000000001
#
# number of rings (size 3 to 8) (size 9 to 14) (size 15 to 20)
#    0.000    2.500    0.000    4.500    0.000   10.667 
#    0.000    1.667    0.000    1.000    0.000    0.000 
#    0.000    0.000    0.000    0.000    0.000    0.000 
#
# Total GULP energy -594635.214694 kJ/mol
# GULP energy per Si atom -12388.233639 kJ/mol
# Density = 1.716915 g / cm^3
# Si number density = 17.208314 Si / 1000 Ang^3
#
#
#
# Elastic Constant Matrix: (Units=GPa)
#
#
# Indices 1 2 3 4 5 6 
#
# 1 71.1733 25.0328 34.4784 0.0000 0.0000 0.0000
# 2 25.0328 65.3494 27.1767 0.0000 0.0000 0.0000
# 3 34.4784 27.1767 76.4584 0.0000 0.0000 0.0000
# 4 0.0000 0.0000 0.0000 35.6339 0.0000 0.0000
# 5 0.0000 0.0000 0.0000 0.0000 27.5704 0.0000
# 6 0.0000 0.0000 0.0000 0.0000 0.0000 19.0124
#
#
#
# Elastic Compliance Matrix: (Units=1/GPa)
#
#
# Indices 1 2 3 4 5 6 
#
# 1 0.018978 -0.004354 -0.007010 0.000000 0.000000 0.000000
# 2 -0.004354 0.018956 -0.004774 0.000000 0.000000 0.000000
# 3 -0.007010 -0.004774 0.017937 0.000000 0.000000 0.000000
# 4 0.000000 0.000000 0.000000 0.028063 0.000000 0.000000
# 5 0.000000 0.000000 0.000000 0.000000 0.036271 0.000000
# 6 0.000000 0.000000 0.000000 0.000000 0.000000 0.052597
#
#
# Mechanical properties :
#
#
# Convention : Reuss Voigt Hill
#
# Bulk Modulus (GPa) = 42.38489 42.92853 42.65671
# Shear Modulus (GPa) = 23.48045 24.86290 24.17168
#
# Velocity S-wave (km/s) = 3.69790 3.80520 3.75193
# Velocity P-wave (km/s) = 6.55107 6.65632 6.60391
#
# Compressibility (1/GPa) = 0.02359331
#
# Stress axis : x y z
#
# Youngs Moduli (GPa) = 52.69375 52.75448 55.75032
#
# Poissons Ratio (x) = 0.22971 0.39082
# Poissons Ratio (y) = 0.22944 0.26616
# Poissons Ratio (z) = 0.36939 0.25186
#
# Static dielectric constant tensor:
#      x y z
#    x 2.901250 0.000000 0.000000 
#    y 0.000000 3.415750 0.000000 
#    z 0.000000 0.000000 3.339790 
# 
# 
# High freq. dielectric constant tensor:
#      x y z
#    x 1.623650 0.000000 0.000000 
#    y 0.000000 1.667250 0.000000 
#    z 0.000000 0.000000 1.677320 
# 
# From -- ./inp_files/11764.got.cif
#   From: 2010.03.12/outbox.cif.g09.slc.cpg/sg53_6_cif.got.tgz:11764.got - 2010.04.16 14:36:59.
