data_PCOD8218295
_publ_section_title
;
Structure prediction by ZEFSAII (Michael W. Deem and Ramdas Pophale) SiO2 
 PCOD8218295
Probable space group: P M N A
;
_chemical_formula_sum "Si O2"
_cell_formula_units_Z 64
_cell_length_a 8.767314
_cell_length_b 19.591396
_cell_length_c 20.699327
_cell_angle_alpha 90.000000
_cell_angle_beta 90.000000
_cell_angle_gamma 90.000000
_cell_volume 3555.397556
_symmetry_space_group_name_H-M "P M N A"
_symmetry_group_IT_number 53
_symmetry_cell_setting 'orthorhombic'
loop_
_space_group_symop_operation_xyz
x,y,z
1/2-x,-y,1/2+z
x,-y,-z
1/2-x,y,1/2-z
-x,-y,-z
1/2+x,y,1/2-z
-x,y,z
1/2+x,-y,1/2+z
loop_
_atom_site_type_symbol
_atom_site_label
_atom_site_fract_x
_atom_site_fract_y
_atom_site_fract_z
Si Si1 0.678128 0.175160 0.512388
Si Si2 0.819003 0.176640 0.133209
Si Si3 0.820191 0.957116 0.684166
Si Si4 0.178962 0.459693 0.316330
Si Si5 0.179410 0.683155 0.628409
Si Si6 0.320971 0.674006 0.490157
Si Si7 0.677588 0.962567 0.432501
Si Si8 0.180180 0.544603 0.438333
O O1 0.500000 0.162516 0.505371
O O2 0.743887 0.167503 0.439896
O O3 0.715125 0.250720 0.539690
O O4 0.739157 0.115555 0.559581
O O5 0.742182 0.119593 0.177122
O O6 0.767736 0.251538 0.157177
O O7 0.000000 0.170085 0.138395
O O8 0.750000 0.988203 0.750000
O O9 0.000000 0.955448 0.690154
O O10 0.774057 0.003680 0.623949
O O11 0.250000 0.486631 0.250000
O O12 0.224548 0.381003 0.327297
O O13 0.240599 0.506234 0.374778
O O14 0.000000 0.468051 0.312569
O O15 0.229587 0.664347 0.556175
O O16 0.000000 0.697320 0.628591
O O17 0.500000 0.667215 0.504836
O O18 0.264723 0.617523 0.439679
O O19 0.500000 0.966863 0.413303
O O20 0.707664 0.000000 0.500000
O O21 0.228956 0.500000 0.500000
O O22 0.000000 0.556879 0.437560
#
# Coordination Sequence:
#
# PCOD8218295 Si02
#       8
#     8   8   8   8   8   8   8   8
#     4   8  16  31  53  81 112 141 172 214 273 327
#     4  10  19  35  55  80 111 147 186 226 269 323
#     4  12  25  39  55  80 112 149 190 233 278 330
#     4  10  22  37  54  75 106 144 180 221 273 326
#     4  10  19  34  52  76 110 150 184 219 268 324
#     4  10  19  31  52  84 112 140 180 227 270 319
#     4  10  18  35  61  83 109 147 182 223 280 331
#     4  10  19  36  56  76 106 143 180 225 279 327
#
# _framework density 18.000800000000002
#
# number of rings (size 3 to 8) (size 9 to 14) (size 15 to 20)
#    0.000    2.000    2.500    3.000    0.000    2.500 
#    0.000    2.500    0.000    0.750    0.000    1.750 
#    0.000    0.000    0.000    0.000    0.000    0.000 
#
# Total GULP energy -793559.030074 kJ/mol
# GULP energy per Si atom -12399.359845 kJ/mol
# Density = 1.795983 g / cm^3
# Si number density = 18.000800 Si / 1000 Ang^3
#
#
#
# Elastic Constant Matrix: (Units=GPa)
#
#
# Indices 1 2 3 4 5 6 
#
# 1 70.7785 38.5845 33.2339 0.0000 0.0000 0.0000
# 2 38.5845 115.4362 52.8845 0.0000 0.0000 0.0000
# 3 33.2339 52.8845 98.2778 0.0000 0.0000 0.0000
# 4 0.0000 0.0000 0.0000 22.0623 0.0000 0.0000
# 5 0.0000 0.0000 0.0000 0.0000 27.2577 0.0000
# 6 0.0000 0.0000 0.0000 0.0000 0.0000 30.3394
#
#
#
# Elastic Compliance Matrix: (Units=1/GPa)
#
#
# Indices 1 2 3 4 5 6 
#
# 1 0.018311 -0.004358 -0.003847 0.000000 0.000000 0.000000
# 2 -0.004358 0.012534 -0.005271 0.000000 0.000000 0.000000
# 3 -0.003847 -0.005271 0.014313 0.000000 0.000000 0.000000
# 4 0.000000 0.000000 0.000000 0.045326 0.000000 0.000000
# 5 0.000000 0.000000 0.000000 0.000000 0.036687 0.000000
# 6 0.000000 0.000000 0.000000 0.000000 0.000000 0.032960
#
#
# Mechanical properties :
#
#
# Convention : Reuss Voigt Hill
#
# Bulk Modulus (GPa) = 54.92852 59.32203 57.12528
# Shear Modulus (GPa) = 25.88641 26.58452 26.23546
#
# Velocity S-wave (km/s) = 3.79630 3.84715 3.82181
# Velocity P-wave (km/s) = 7.05667 7.26367 7.16092
#
# Compressibility (1/GPa) = 0.01820548
#
# Stress axis : x y z
#
# Youngs Moduli (GPa) = 54.61315 79.78109 69.86855
#
# Poissons Ratio (x) = 0.34768 0.26878
# Poissons Ratio (y) = 0.23800 0.36829
# Poissons Ratio (z) = 0.21009 0.42054
#
# Static dielectric constant tensor:
#      x y z
#    x 3.182990 0.000000 0.000000 
#    y 0.000000 3.625720 0.000000 
#    z 0.000000 0.000000 3.360560 
# 
# 
# High freq. dielectric constant tensor:
#      x y z
#    x 1.689510 0.000000 0.000000 
#    y 0.000000 1.704130 0.000000 
#    z 0.000000 0.000000 1.672230 
# 
# From -- ./inp_files/26896.got.cif
#   From: 2010.03.12/outbox.cif.g09.slc.cpg/sg53_14_cif.got.tgz:26896.got - 2010.04.16 14:36:59.
