data_PCOD8218056
_publ_section_title
;
Structure prediction by ZEFSAII (Michael W. Deem and Ramdas Pophale) SiO2 
 PCOD8218056
Probable space group: P M N A
;
_chemical_formula_sum "Si O2"
_cell_formula_units_Z 64
_cell_length_a 13.829189
_cell_length_b 12.425797
_cell_length_c 21.069560
_cell_angle_alpha 90.000000
_cell_angle_beta 90.000000
_cell_angle_gamma 90.000000
_cell_volume 3620.565699
_symmetry_space_group_name_H-M "P M N A"
_symmetry_group_IT_number 53
_symmetry_cell_setting 'orthorhombic'
loop_
_space_group_symop_operation_xyz
x,y,z
1/2-x,-y,1/2+z
x,-y,-z
1/2-x,y,1/2-z
-x,-y,-z
1/2+x,y,1/2-z
-x,y,z
1/2+x,-y,1/2+z
loop_
_atom_site_type_symbol
_atom_site_label
_atom_site_fract_x
_atom_site_fract_y
_atom_site_fract_z
Si Si1 0.885143 0.806105 0.535302
Si Si2 0.103631 0.163837 0.839690
Si Si3 0.890961 0.935369 0.788707
Si Si4 0.801593 0.403881 0.652849
Si Si5 0.105799 0.433006 0.437132
Si Si6 0.392220 0.386400 0.714681
Si Si7 0.691209 0.061253 0.153556
Si Si8 0.295363 0.830158 0.099168
O O1 0.850892 0.684435 0.548448
O O2 0.852067 0.878569 0.593450
O O3 0.832801 0.848415 0.471871
O O4 0.000000 0.814026 0.524781
O O5 0.113769 0.257763 0.788033
O O6 0.178702 0.171095 0.897895
O O7 0.000000 0.166931 0.874600
O O8 0.113216 0.063142 0.793558
O O9 0.868499 0.904049 0.716043
O O10 0.803499 0.899174 0.836120
O O11 0.000000 0.892053 0.807045
O O12 0.823165 0.501882 0.607145
O O13 0.864609 0.423411 0.715320
O O14 0.687746 0.424831 0.664304
O O15 0.831190 0.285821 0.625763
O O16 0.094032 0.500000 0.500000
O O17 0.000000 0.420366 0.405013
O O18 0.500000 0.429559 0.697293
O O19 0.675143 0.932953 0.142414
#
# Coordination Sequence:
#
# PCOD8218056 Si02
#       8
#     8   8   8   8   8   8   8   8
#     4  11  23  36  50  72 103 136 167 204 249 299
#     4   8  15  29  49  74 103 135 167 202 247 298
#     4   9  17  32  52  72 100 138 173 204 242 295
#     4  10  18  31  53  76 101 134 166 205 253 296
#     4  10  20  36  54  71  94 130 173 206 240 297
#     4   9  17  28  47  78 108 128 159 209 260 301
#     4  10  20  33  51  77 105 132 167 207 251 299
#     4  10  19  31  50  77 107 133 163 204 251 301
#
# _framework density 17.676794999999998
#
# number of rings (size 3 to 8) (size 9 to 14) (size 15 to 20)
#    0.000    2.375    1.250    1.875    0.000    5.000 
#    0.000    3.125    0.000    6.375    0.000    0.000 
#    0.000    0.000    0.000    0.000    0.000    0.000 
#
# Total GULP energy -792841.799988 kJ/mol
# GULP energy per Si atom -12388.153125 kJ/mol
# Density = 1.763656 g / cm^3
# Si number density = 17.676795 Si / 1000 Ang^3
#
#
#
# Elastic Constant Matrix: (Units=GPa)
#
#
# Indices 1 2 3 4 5 6 
#
# 1 104.6701 20.8693 40.3980 0.0000 0.0000 0.0000
# 2 20.8693 49.4734 18.6659 0.0000 0.0000 0.0000
# 3 40.3980 18.6659 87.1088 0.0000 0.0000 0.0000
# 4 0.0000 0.0000 0.0000 26.5097 0.0000 0.0000
# 5 0.0000 0.0000 0.0000 0.0000 26.0548 0.0000
# 6 0.0000 0.0000 0.0000 0.0000 0.0000 21.7852
#
#
#
# Elastic Compliance Matrix: (Units=1/GPa)
#
#
# Indices 1 2 3 4 5 6 
#
# 1 0.012098 -0.003249 -0.004915 0.000000 0.000000 0.000000
# 2 -0.003249 0.022863 -0.003392 0.000000 0.000000 0.000000
# 3 -0.004915 -0.003392 0.014486 0.000000 0.000000 0.000000
# 4 0.000000 0.000000 0.000000 0.037722 0.000000 0.000000
# 5 0.000000 0.000000 0.000000 0.000000 0.038381 0.000000
# 6 0.000000 0.000000 0.000000 0.000000 0.000000 0.045903
#
#
# Mechanical properties :
#
#
# Convention : Reuss Voigt Hill
#
# Bulk Modulus (GPa) = 37.97151 44.56876 41.27013
# Shear Modulus (GPa) = 24.58884 25.62455 25.10670
#
# Velocity S-wave (km/s) = 3.73369 3.81151 3.77280
# Velocity P-wave (km/s) = 6.33363 6.68117 6.50972
#
# Compressibility (1/GPa) = 0.02633553
#
# Stress axis : x y z
#
# Youngs Moduli (GPa) = 82.65506 43.73802 69.03206
#
# Poissons Ratio (x) = 0.14212 0.33926
# Poissons Ratio (y) = 0.26857 0.23418
# Poissons Ratio (z) = 0.40621 0.14837
#
# Static dielectric constant tensor:
#      x y z
#    x 3.678440 0.000000 0.000000 
#    y 0.000000 3.179010 0.000000 
#    z 0.000000 0.000000 2.944610 
# 
# 
# High freq. dielectric constant tensor:
#      x y z
#    x 1.692940 0.000000 0.000000 
#    y 0.000000 1.661950 0.000000 
#    z 0.000000 0.000000 1.666840 
# 
# From -- ./inp_files/28559.got.cif
#   From: 2010.03.12/outbox.cif.g09.slc.cpg/sg53_15_cif.got.tgz:28559.got - 2010.04.16 14:36:59.
