data_PCOD8218381
_publ_section_title
;
Structure prediction by ZEFSAII (Michael W. Deem and Ramdas Pophale) SiO2 
 PCOD8218381
Probable space group: P M N A
;
_chemical_formula_sum "Si O2"
_cell_formula_units_Z 48
_cell_length_a 19.216257
_cell_length_b 10.585342
_cell_length_c 13.067298
_cell_angle_alpha 90.000000
_cell_angle_beta 90.000000
_cell_angle_gamma 90.000000
_cell_volume 2658.027610
_symmetry_space_group_name_H-M "P M N A"
_symmetry_group_IT_number 53
_symmetry_cell_setting 'orthorhombic'
loop_
_space_group_symop_operation_xyz
x,y,z
1/2-x,-y,1/2+z
x,-y,-z
1/2-x,y,1/2-z
-x,-y,-z
1/2+x,y,1/2-z
-x,y,z
1/2+x,-y,1/2+z
loop_
_atom_site_type_symbol
_atom_site_label
_atom_site_fract_x
_atom_site_fract_y
_atom_site_fract_z
Si Si1 0.576157 0.791476 0.917514
Si Si2 0.217720 0.942921 0.892959
Si Si3 0.218536 0.677763 0.574766
Si Si4 0.210832 0.594547 0.350593
Si Si5 0.422028 0.740074 0.150318
Si Si6 0.858846 0.011687 0.700607
O O1 0.500000 0.738119 0.884400
O O2 0.638282 0.696443 0.890423
O O3 0.587293 0.925488 0.862314
O O4 0.578059 0.806515 0.039582
O O5 0.234269 0.793646 0.889923
O O6 0.286342 0.021939 0.861637
O O7 0.155133 0.955871 0.813012
O O8 0.191797 0.000000 0.000000
O O9 0.231284 0.670507 0.452886
O O10 0.236626 0.549002 0.633466
O O11 0.250000 0.648273 0.250000
O O12 0.127175 0.615775 0.339369
O O13 0.500000 0.699366 0.183128
O O14 0.391112 0.850447 0.221491
#
# Coordination Sequence:
#
# PCOD8218381 Si02
#       6
#     8   8   8   8   8   8
#     4   9  17  31  52  76 107 137 165 215 272 327
#     4  10  20  32  51  77 110 135 178 225 272 307
#     4   9  20  35  49  82 106 135 175 221 263 317
#     4  10  21  33  56  76 107 141 179 214 263 313
#     4  10  20  33  51  80 113 139 175 218 266 322
#     4  10  19  29  52  77 104 142 175 214 267 329
#
# _framework density 18.058503999999999
#
# number of rings (size 3 to 8) (size 9 to 14) (size 15 to 20)
#    0.000    2.333    0.000    4.000    9.333    2.000 
#    0.000    3.333    0.000    2.000    0.000    2.333 
#    0.000    0.000    0.000    0.000    0.000    0.000 
#
# Total GULP energy -594826.433487 kJ/mol
# GULP energy per Si atom -12392.217364 kJ/mol
# Density = 1.801740 g / cm^3
# Si number density = 18.058504 Si / 1000 Ang^3
#
#
#
# Elastic Constant Matrix: (Units=GPa)
#
#
# Indices 1 2 3 4 5 6 
#
# 1 69.1833 21.1303 35.3317 0.0000 0.0000 0.0000
# 2 21.1303 73.2176 23.6070 0.0000 0.0000 0.0000
# 3 35.3317 23.6070 82.9927 0.0000 0.0000 0.0000
# 4 0.0000 0.0000 0.0000 15.0621 0.0000 0.0000
# 5 0.0000 0.0000 0.0000 0.0000 20.0743 0.0000
# 6 0.0000 0.0000 0.0000 0.0000 0.0000 18.0913
#
#
#
# Elastic Compliance Matrix: (Units=1/GPa)
#
#
# Indices 1 2 3 4 5 6 
#
# 1 0.019122 -0.003186 -0.007234 0.000000 0.000000 0.000000
# 2 -0.003186 0.015568 -0.003072 0.000000 0.000000 0.000000
# 3 -0.007234 -0.003072 0.016003 0.000000 0.000000 0.000000
# 4 0.000000 0.000000 0.000000 0.066392 0.000000 0.000000
# 5 0.000000 0.000000 0.000000 0.000000 0.049815 0.000000
# 6 0.000000 0.000000 0.000000 0.000000 0.000000 0.055275
#
#
# Mechanical properties :
#
#
# Convention : Reuss Voigt Hill
#
# Bulk Modulus (GPa) = 42.17952 42.83684 42.50818
# Shear Modulus (GPa) = 19.45058 20.33385 19.89222
#
# Velocity S-wave (km/s) = 3.28546 3.35923 3.32255
# Velocity P-wave (km/s) = 6.14819 6.23045 6.18946
#
# Compressibility (1/GPa) = 0.02370819
#
# Stress axis : x y z
#
# Youngs Moduli (GPa) = 52.29570 64.23507 62.48888
#
# Poissons Ratio (x) = 0.20465 0.45207
# Poissons Ratio (y) = 0.16661 0.19196
# Poissons Ratio (z) = 0.37833 0.19732
#
# Static dielectric constant tensor:
#      x y z
#    x 3.279970 0.000000 0.000000 
#    y 0.000000 3.204960 0.000000 
#    z 0.000000 0.000000 3.255570 
# 
# 
# High freq. dielectric constant tensor:
#      x y z
#    x 1.675570 0.000000 0.000000 
#    y 0.000000 1.695860 0.000000 
#    z 0.000000 0.000000 1.683550 
# 
# From -- ./inp_files/17774.got.cif
#   From: 2010.03.12/outbox.cif.g09.slc.cpg/sg53_9_cif.got.tgz:17774.got - 2010.04.16 14:36:59.
