data_PCOD8218564
_publ_section_title
;
Structure prediction by ZEFSAII (Michael W. Deem and Ramdas Pophale) SiO2 
 PCOD8218564
Probable space group: P M N A
;
_chemical_formula_sum "Si O2"
_cell_formula_units_Z 64
_cell_length_a 8.900319
_cell_length_b 18.367037
_cell_length_c 23.127339
_cell_angle_alpha 90.000000
_cell_angle_beta 90.000000
_cell_angle_gamma 90.000000
_cell_volume 3780.683656
_symmetry_space_group_name_H-M "P M N A"
_symmetry_group_IT_number 53
_symmetry_cell_setting 'orthorhombic'
loop_
_space_group_symop_operation_xyz
x,y,z
1/2-x,-y,1/2+z
x,-y,-z
1/2-x,y,1/2-z
-x,-y,-z
1/2+x,y,1/2-z
-x,y,z
1/2+x,-y,1/2+z
loop_
_atom_site_type_symbol
_atom_site_label
_atom_site_fract_x
_atom_site_fract_y
_atom_site_fract_z
Si Si1 0.677599 0.239154 0.187414
Si Si2 0.825257 0.928005 0.311370
Si Si3 0.676585 0.417887 0.503789
Si Si4 0.676617 0.369392 0.108609
Si Si5 0.821806 0.230253 0.686717
Si Si6 0.822256 0.635439 0.130111
Si Si7 0.822332 0.498437 0.690336
Si Si8 0.324421 0.081633 0.188359
O O1 0.750000 0.250423 0.250000
O O2 0.500000 0.248385 0.195220
O O3 0.740084 0.300109 0.143841
O O4 0.721207 0.159302 0.159616
O O5 0.750000 0.929426 0.250000
O O6 0.784553 0.850378 0.340751
O O7 0.000000 0.928145 0.299070
O O8 0.781426 0.004711 0.344990
O O9 0.740359 0.500000 0.500000
O O10 0.500000 0.417852 0.494075
O O11 0.749417 0.368538 0.454279
O O12 0.722977 0.384160 0.564933
O O13 0.500000 0.363278 0.100521
O O14 0.722042 0.443013 0.141807
O O15 0.750000 0.239442 0.750000
O O16 0.744727 0.285459 0.642613
O O17 0.000000 0.244631 0.690924
O O18 0.747631 0.578955 0.174080
O O19 0.000000 0.634475 0.139660
O O20 0.750000 0.525594 0.750000
O O21 0.000000 0.490935 0.697683
O O22 0.250000 0.078717 0.250000
O O23 0.500000 0.083718 0.198941
#
# Coordination Sequence:
#
# PCOD8218564 Si02
#       8
#     8   8   8   8   8   8   8   8
#     4   9  17  29  45  70 101 130 158 190 229 275
#     4   8  14  24  40  63  91 125 157 186 221 267
#     4  10  21  38  56  71  87 115 156 201 244 284
#     4  10  21  34  50  72  96 123 156 194 236 276
#     4  10  19  31  47  70 100 128 157 191 232 279
#     4  11  22  36  52  69  91 119 155 196 239 282
#     4  11  22  34  49  70  96 126 156 186 227 277
#     4   8  13  23  40  62  92 126 157 186 220 265
#
# _framework density 16.928155
#
# number of rings (size 3 to 8) (size 9 to 14) (size 15 to 20)
#    0.000    2.375    1.250    1.875    0.000    2.750 
#    0.000    0.000    0.000    0.000    0.000    0.875 
#    0.000    7.000    0.000    0.000    0.000    0.000 
#
# Total GULP energy -792851.976758 kJ/mol
# GULP energy per Si atom -12388.312137 kJ/mol
# Density = 1.688963 g / cm^3
# Si number density = 16.928155 Si / 1000 Ang^3
#
#
#
# Elastic Constant Matrix: (Units=GPa)
#
#
# Indices 1 2 3 4 5 6 
#
# 1 39.3027 30.1925 26.9058 0.0000 0.0000 0.0000
# 2 30.1925 151.5420 42.5913 0.0000 0.0000 0.0000
# 3 26.9058 42.5913 74.9480 0.0000 0.0000 0.0000
# 4 0.0000 0.0000 0.0000 11.1816 0.0000 0.0000
# 5 0.0000 0.0000 0.0000 0.0000 24.8458 0.0000
# 6 0.0000 0.0000 0.0000 0.0000 0.0000 16.3330
#
#
#
# Elastic Compliance Matrix: (Units=1/GPa)
#
#
# Indices 1 2 3 4 5 6 
#
# 1 0.035843 -0.004195 -0.010484 0.000000 0.000000 0.000000
# 2 -0.004195 0.008344 -0.003236 0.000000 0.000000 0.000000
# 3 -0.010484 -0.003236 0.018945 0.000000 0.000000 0.000000
# 4 0.000000 0.000000 0.000000 0.089433 0.000000 0.000000
# 5 0.000000 0.000000 0.000000 0.000000 0.040248 0.000000
# 6 0.000000 0.000000 0.000000 0.000000 0.000000 0.061226
#
#
# Mechanical properties :
#
#
# Convention : Reuss Voigt Hill
#
# Bulk Modulus (GPa) = 36.62525 51.68576 44.15550
# Shear Modulus (GPa) = 16.72421 21.54562 19.13491
#
# Velocity S-wave (km/s) = 3.14658 3.57146 3.36573
# Velocity P-wave (km/s) = 5.90626 6.89970 6.42222
#
# Compressibility (1/GPa) = 0.02730357
#
# Stress axis : x y z
#
# Youngs Moduli (GPa) = 27.89963 119.84649 52.78458
#
# Poissons Ratio (x) = 0.50272 0.55337
# Poissons Ratio (y) = 0.11703 0.17080
# Poissons Ratio (z) = 0.29249 0.38780
#
# Static dielectric constant tensor:
#      x y z
#    x 2.965790 0.000000 0.000000 
#    y 0.000000 4.015830 0.000000 
#    z 0.000000 0.000000 2.843690 
# 
# 
# High freq. dielectric constant tensor:
#      x y z
#    x 1.656740 0.000000 0.000000 
#    y 0.000000 1.677470 0.000000 
#    z 0.000000 0.000000 1.603940 
# 
# From -- ./inp_files/31146.got.cif
#   From: 2010.03.12/outbox.cif.g09.slc.cpg/sg53_16_cif.got.tgz:31146.got - 2010.04.16 14:36:59.
