data_PCOD8218797
_publ_section_title
;
Structure prediction by ZEFSAII (Michael W. Deem and Ramdas Pophale) SiO2 
 PCOD8218797
Probable space group: P M N A
;
_chemical_formula_sum "Si O2"
_cell_formula_units_Z 56
_cell_length_a 9.263138
_cell_length_b 20.478504
_cell_length_c 15.044078
_cell_angle_alpha 90.000000
_cell_angle_beta 90.000000
_cell_angle_gamma 90.000000
_cell_volume 2853.789514
_symmetry_space_group_name_H-M "P M N A"
_symmetry_group_IT_number 53
_symmetry_cell_setting 'orthorhombic'
loop_
_space_group_symop_operation_xyz
x,y,z
1/2-x,-y,1/2+z
x,-y,-z
1/2-x,y,1/2-z
-x,-y,-z
1/2+x,y,1/2-z
-x,y,z
1/2+x,-y,1/2+z
loop_
_atom_site_type_symbol
_atom_site_label
_atom_site_fract_x
_atom_site_fract_y
_atom_site_fract_z
Si Si1 0.831879 0.729508 0.502813
Si Si2 0.163891 0.859091 0.410607
Si Si3 0.330987 0.599360 0.487008
Si Si4 0.163122 0.794083 0.837540
Si Si5 0.839023 0.038924 0.825780
Si Si6 0.831726 0.511911 0.845886
Si Si7 0.158876 0.081117 0.058726
O O1 0.814138 0.781650 0.422348
O O2 0.768660 0.661587 0.468805
O O3 0.739041 0.753753 0.585063
O O4 0.000000 0.722881 0.529404
O O5 0.268860 0.889050 0.336372
O O6 0.206562 0.897368 0.500275
O O7 0.000000 0.876517 0.387367
O O8 0.500000 0.617260 0.485458
O O9 0.291730 0.570249 0.584943
O O10 0.294909 0.552596 0.403342
O O11 0.250000 0.777705 0.750000
O O12 0.162090 0.871945 0.855056
O O13 0.000000 0.767804 0.827555
O O14 0.750000 0.001150 0.750000
O O15 0.000000 0.048504 0.792450
O O16 0.827593 0.995093 0.914399
O O17 0.750000 0.515743 0.750000
O O18 0.000000 0.514365 0.822058
O O19 0.000000 0.090953 0.011300
#
# Coordination Sequence:
#
# PCOD8218797 Si02
#       7
#     8   8   8   8   8   8   8
#     4  10  21  36  54  77 105 140 181 220 259 309
#     4  10  21  36  53  74 101 133 172 215 258 310
#     4   9  19  37  58  82 115 151 182 218 267 319
#     4  10  19  32  50  73 104 139 175 218 269 323
#     4  11  22  35  52  74 100 129 167 216 268 319
#     4   9  19  36  59  87 117 147 181 220 264 315
#     4   9  19  34  52  74  99 130 168 213 267 323
#
# _framework density 19.62303
#
# number of rings (size 3 to 8) (size 9 to 14) (size 15 to 20)
#    0.000    2.286    0.000    3.429    0.000    6.857 
#    0.000    3.571    0.000    1.714    0.000    0.000 
#    0.000    0.000    0.000    0.000    0.000    0.000 
#
# Total GULP energy -693917.111125 kJ/mol
# GULP energy per Si atom -12391.376984 kJ/mol
# Density = 1.957837 g / cm^3
# Si number density = 19.623030 Si / 1000 Ang^3
#
#
#
# Elastic Constant Matrix: (Units=GPa)
#
#
# Indices 1 2 3 4 5 6 
#
# 1 127.1697 54.7426 35.3837 0.0000 0.0000 0.0000
# 2 54.7426 104.8005 15.2411 0.0000 0.0000 0.0000
# 3 35.3837 15.2411 81.3736 0.0000 0.0000 0.0000
# 4 0.0000 0.0000 0.0000 18.8449 0.0000 0.0000
# 5 0.0000 0.0000 0.0000 0.0000 36.0461 0.0000
# 6 0.0000 0.0000 0.0000 0.0000 0.0000 14.4351
#
#
#
# Elastic Compliance Matrix: (Units=1/GPa)
#
#
# Indices 1 2 3 4 5 6 
#
# 1 0.011227 -0.005299 -0.003889 0.000000 0.000000 0.000000
# 2 -0.005299 0.012310 -0.000002 0.000000 0.000000 0.000000
# 3 -0.003889 -0.000002 0.013980 0.000000 0.000000 0.000000
# 4 0.000000 0.000000 0.000000 0.053065 0.000000 0.000000
# 5 0.000000 0.000000 0.000000 0.000000 0.027742 0.000000
# 6 0.000000 0.000000 0.000000 0.000000 0.000000 0.069276
#
#
# Mechanical properties :
#
#
# Convention : Reuss Voigt Hill
#
# Bulk Modulus (GPa) = 52.25206 58.23098 55.24152
# Shear Modulus (GPa) = 23.54517 27.73030 25.63773
#
# Velocity S-wave (km/s) = 3.46768 3.76327 3.61849
# Velocity P-wave (km/s) = 6.53596 6.97296 6.75799
#
# Compressibility (1/GPa) = 0.01913800
#
# Stress axis : x y z
#
# Youngs Moduli (GPa) = 89.07478 81.23546 71.52840
#
# Poissons Ratio (x) = 0.43043 0.27819
# Poissons Ratio (y) = 0.47197 0.00012
# Poissons Ratio (z) = 0.34643 0.00013
#
# Static dielectric constant tensor:
#      x y z
#    x 3.635430 0.000000 0.000000 
#    y 0.000000 3.595760 0.000000 
#    z 0.000000 0.000000 3.548050 
# 
# 
# High freq. dielectric constant tensor:
#      x y z
#    x 1.773130 0.000000 0.000000 
#    y 0.000000 1.756530 0.000000 
#    z 0.000000 0.000000 1.755970 
# 
# From -- ./inp_files/20506.got.cif
#   From: 2010.03.12/outbox.cif.g09.slc.cpg/sg53_11_cif.got.tgz:20506.got - 2010.04.16 14:36:59.
