data_PCOD8218593
_publ_section_title
;
Structure prediction by ZEFSAII (Michael W. Deem and Ramdas Pophale) SiO2 
 PCOD8218593
Probable space group: P M N A
;
_chemical_formula_sum "Si O2"
_cell_formula_units_Z 64
_cell_length_a 9.128024
_cell_length_b 14.262768
_cell_length_c 29.777535
_cell_angle_alpha 90.000000
_cell_angle_beta 90.000000
_cell_angle_gamma 90.000000
_cell_volume 3876.763742
_symmetry_space_group_name_H-M "P M N A"
_symmetry_group_IT_number 53
_symmetry_cell_setting 'orthorhombic'
loop_
_space_group_symop_operation_xyz
x,y,z
1/2-x,-y,1/2+z
x,-y,-z
1/2-x,y,1/2-z
-x,-y,-z
1/2+x,y,1/2-z
-x,y,z
1/2+x,-y,1/2+z
loop_
_atom_site_type_symbol
_atom_site_label
_atom_site_fract_x
_atom_site_fract_y
_atom_site_fract_z
Si Si1 0.171525 0.435626 0.041169
Si Si2 0.833118 0.248750 0.479469
Si Si3 0.337129 0.247934 0.566815
Si Si4 0.165059 0.065159 0.876858
Si Si5 0.170502 0.570349 0.119944
Si Si6 0.328764 0.359840 0.796255
Si Si7 0.331930 0.042598 0.047348
Si Si8 0.671485 0.856718 0.203887
O O1 0.243477 0.333682 0.041815
O O2 0.206454 0.479268 0.089985
O O3 0.000000 0.422430 0.033934
O O4 0.232281 0.500000 0.000000
O O5 0.776226 0.220805 0.528499
O O6 0.816919 0.154926 0.450120
O O7 0.000000 0.280994 0.483252
O O8 0.500000 0.262195 0.546177
O O9 0.338438 0.168852 0.603855
O O10 0.282294 0.342898 0.589273
O O11 0.263323 0.071095 0.832370
O O12 0.000000 0.031866 0.865230
O O13 0.233522 0.993691 0.912175
O O14 0.265623 0.571762 0.165247
O O15 0.000000 0.576033 0.133267
O O16 0.250000 0.386451 0.750000
O O17 0.500000 0.379310 0.790589
O O18 0.297320 0.251600 0.809183
O O19 0.500000 0.010637 0.054294
O O20 0.274469 0.000000 0.000000
O O21 0.750000 0.881756 0.250000
O O22 0.500000 0.875635 0.208877
#
# Coordination Sequence:
#
# PCOD8218593 Si02
#       8
#     8   8   8   8   8   8   8   8
#     4  10  20  35  52  71  99 136 171 206 252 300
#     4  11  22  34  50  71  99 134 172 216 254 291
#     4  10  19  31  48  70 101 135 170 208 247 297
#     4  11  21  32  51  76 100 133 174 212 250 298
#     4  10  19  33  51  71 100 137 171 206 249 297
#     4  10  20  32  49  73 102 134 168 206 249 298
#     4  10  21  36  50  69 101 136 170 210 257 303
#     4  10  20  33  50  73 104 137 168 206 252 300
#
# _framework density 16.508614999999999
#
# number of rings (size 3 to 8) (size 9 to 14) (size 15 to 20)
#    0.000    1.750    3.750    1.500    0.000    4.000 
#    0.000    0.000    0.000    0.000    0.000    0.875 
#    0.000    2.000    0.000    0.000    0.000    0.000 
#
# Total GULP energy -793667.085464 kJ/mol
# GULP energy per Si atom -12401.048210 kJ/mol
# Density = 1.647104 g / cm^3
# Si number density = 16.508615 Si / 1000 Ang^3
#
#
#
# Elastic Constant Matrix: (Units=GPa)
#
#
# Indices 1 2 3 4 5 6 
#
# 1 94.7481 36.2893 64.7462 0.0000 0.0000 0.0000
# 2 36.2893 64.0414 31.2320 0.0000 0.0000 0.0000
# 3 64.7462 31.2320 107.9660 0.0000 0.0000 0.0000
# 4 0.0000 0.0000 0.0000 23.5219 0.0000 0.0000
# 5 0.0000 0.0000 0.0000 0.0000 32.4526 0.0000
# 6 0.0000 0.0000 0.0000 0.0000 0.0000 23.8225
#
#
#
# Elastic Compliance Matrix: (Units=1/GPa)
#
#
# Indices 1 2 3 4 5 6 
#
# 1 0.019875 -0.006345 -0.010083 0.000000 0.000000 0.000000
# 2 -0.006345 0.020205 -0.002040 0.000000 0.000000 0.000000
# 3 -0.010083 -0.002040 0.015899 0.000000 0.000000 0.000000
# 4 0.000000 0.000000 0.000000 0.042514 0.000000 0.000000
# 5 0.000000 0.000000 0.000000 0.000000 0.030814 0.000000
# 6 0.000000 0.000000 0.000000 0.000000 0.000000 0.041977
#
#
# Mechanical properties :
#
#
# Convention : Reuss Voigt Hill
#
# Bulk Modulus (GPa) = 52.51281 59.03228 55.77254
# Shear Modulus (GPa) = 23.30266 24.92527 24.11397
#
# Velocity S-wave (km/s) = 3.76113 3.88987 3.82604
# Velocity P-wave (km/s) = 7.12319 7.48404 7.30585
#
# Compressibility (1/GPa) = 0.01904297
#
# Stress axis : x y z
#
# Youngs Moduli (GPa) = 50.31476 49.49269 62.89607
#
# Poissons Ratio (x) = 0.31401 0.63421
# Poissons Ratio (y) = 0.31923 0.12831
# Poissons Ratio (z) = 0.50735 0.10096
#
# Static dielectric constant tensor:
#      x y z
#    x 3.225000 0.000000 0.000000 
#    y 0.000000 2.924000 0.000000 
#    z 0.000000 0.000000 3.041010 
# 
# 
# High freq. dielectric constant tensor:
#      x y z
#    x 1.644920 0.000000 0.000000 
#    y 0.000000 1.609300 0.000000 
#    z 0.000000 0.000000 1.625400 
# 
# From -- ./inp_files/38501.got.cif
#   From: 2010.03.12/outbox.cif.g09.slc.cpg/sg53_20_cif.got.tgz:38501.got - 2010.04.16 14:36:59.
