data_PCOD8218671
_publ_section_title
;
Structure prediction by ZEFSAII (Michael W. Deem and Ramdas Pophale) SiO2 
 PCOD8218671
Probable space group: P M N A
;
_chemical_formula_sum "Si O2"
_cell_formula_units_Z 64
_cell_length_a 22.627095
_cell_length_b 16.007263
_cell_length_c 9.576622
_cell_angle_alpha 90.000000
_cell_angle_beta 90.000000
_cell_angle_gamma 90.000000
_cell_volume 3468.632000
_symmetry_space_group_name_H-M "P M N A"
_symmetry_group_IT_number 53
_symmetry_cell_setting 'orthorhombic'
loop_
_space_group_symop_operation_xyz
x,y,z
1/2-x,-y,1/2+z
x,-y,-z
1/2-x,y,1/2-z
-x,-y,-z
1/2+x,y,1/2-z
-x,y,z
1/2+x,-y,1/2+z
loop_
_atom_site_type_symbol
_atom_site_label
_atom_site_fract_x
_atom_site_fract_y
_atom_site_fract_z
Si Si1 0.622652 0.827691 0.817984
Si Si2 0.931815 0.178515 0.817553
Si Si3 0.138080 0.908370 0.956517
Si Si4 0.068139 0.499472 0.343751
Si Si5 0.069019 0.668972 0.822132
Si Si6 0.732021 0.924848 0.903417
Si Si7 0.567695 0.636405 0.364772
Si Si8 0.567553 0.913858 0.052316
O O1 0.617071 0.899650 0.702257
O O2 0.612705 0.738201 0.745824
O O3 0.686648 0.846004 0.892230
O O4 0.572448 0.843162 0.933151
O O5 0.895966 0.161522 0.957067
O O6 0.925219 0.276351 0.782752
O O7 0.903505 0.123039 0.693170
O O8 0.000000 0.156089 0.843823
O O9 0.207964 0.891724 0.976255
O O10 0.118057 0.000000 0.000000
O O11 0.097136 0.500000 0.500000
O O12 0.075525 0.408425 0.280391
O O13 0.098147 0.566182 0.235099
O O14 0.000000 0.525819 0.360416
O O15 0.000000 0.699444 0.830114
O O16 0.093236 0.644007 0.976716
O O17 0.750000 0.959813 0.750000
O O18 0.706026 0.000000 0.000000
O O19 0.500000 0.609938 0.386113
O O20 0.500000 0.931636 0.086099
O O21 0.598487 0.000000 0.000000
#
# Coordination Sequence:
#
# PCOD8218671 Si02
#       8
#     8   8   8   8   8   8   8   8
#     4  11  20  32  51  75 103 133 177 219 272 314
#     4  10  20  33  50  74 107 143 177 217 263 315
#     4  10  20  35  53  74 101 136 181 222 261 314
#     4   9  18  30  49  74 104 140 172 210 262 317
#     4  10  19  31  49  75 107 141 175 213 264 325
#     4   9  20  36  55  75 100 133 179 231 273 310
#     4   9  17  31  48  70 103 139 174 213 254 307
#     4  10  21  33  45  68 104 142 175 211 262 318
#
# _framework density 18.451077999999999
#
# number of rings (size 3 to 8) (size 9 to 14) (size 15 to 20)
#    0.000    2.250    1.250    1.875    1.750    4.250 
#    0.000    0.000    0.000    0.000    0.000    0.000 
#   11.250    0.000    0.000    0.000    0.000    0.000 
#
# Total GULP energy -793028.256858 kJ/mol
# GULP energy per Si atom -12391.066513 kJ/mol
# Density = 1.840908 g / cm^3
# Si number density = 18.451078 Si / 1000 Ang^3
#
#
#
# Elastic Constant Matrix: (Units=GPa)
#
#
# Indices 1 2 3 4 5 6 
#
# 1 43.4569 29.1580 24.2145 0.0000 0.0000 0.0000
# 2 29.1580 84.6854 44.1768 0.0000 0.0000 0.0000
# 3 24.2145 44.1768 109.5898 0.0000 0.0000 0.0000
# 4 0.0000 0.0000 0.0000 40.4366 0.0000 0.0000
# 5 0.0000 0.0000 0.0000 0.0000 18.2188 0.0000
# 6 0.0000 0.0000 0.0000 0.0000 0.0000 15.3101
#
#
#
# Elastic Compliance Matrix: (Units=1/GPa)
#
#
# Indices 1 2 3 4 5 6 
#
# 1 0.030788 -0.008930 -0.003203 0.000000 0.000000 0.000000
# 2 -0.008930 0.017543 -0.005099 0.000000 0.000000 0.000000
# 3 -0.003203 -0.005099 0.011888 0.000000 0.000000 0.000000
# 4 0.000000 0.000000 0.000000 0.024730 0.000000 0.000000
# 5 0.000000 0.000000 0.000000 0.000000 0.054888 0.000000
# 6 0.000000 0.000000 0.000000 0.000000 0.000000 0.065316
#
#
# Mechanical properties :
#
#
# Convention : Reuss Voigt Hill
#
# Bulk Modulus (GPa) = 38.82634 48.09231 43.45933
# Shear Modulus (GPa) = 20.14502 24.13864 22.14183
#
# Velocity S-wave (km/s) = 3.30783 3.62090 3.46790
# Velocity P-wave (km/s) = 5.97307 6.60322 6.29604
#
# Compressibility (1/GPa) = 0.02575571
#
# Stress axis : x y z
#
# Youngs Moduli (GPa) = 32.48068 57.00391 84.11855
#
# Poissons Ratio (x) = 0.50902 0.26944
# Poissons Ratio (y) = 0.29004 0.42889
# Poissons Ratio (z) = 0.10404 0.29064
#
# Static dielectric constant tensor:
#      x y z
#    x 3.047550 0.000000 0.000000 
#    y 0.000000 3.361370 0.000000 
#    z 0.000000 0.000000 3.699290 
# 
# 
# High freq. dielectric constant tensor:
#      x y z
#    x 1.662370 0.000000 0.000000 
#    y 0.000000 1.705620 0.000000 
#    z 0.000000 0.000000 1.737360 
# 
# From -- ./inp_files/11993.got.cif
#   From: 2010.03.12/outbox.cif.g09.slc.cpg/sg53_6_cif.got.tgz:11993.got - 2010.04.16 14:36:59.
