data_PCOD8218121
_publ_section_title
;
Structure prediction by ZEFSAII (Michael W. Deem and Ramdas Pophale) SiO2 
 PCOD8218121
Probable space group: P M N A
;
_chemical_formula_sum "Si O2"
_cell_formula_units_Z 48
_cell_length_a 8.960352
_cell_length_b 9.769711
_cell_length_c 30.948182
_cell_angle_alpha 90.000000
_cell_angle_beta 90.000000
_cell_angle_gamma 90.000000
_cell_volume 2709.205384
_symmetry_space_group_name_H-M "P M N A"
_symmetry_group_IT_number 53
_symmetry_cell_setting 'orthorhombic'
loop_
_space_group_symop_operation_xyz
x,y,z
1/2-x,-y,1/2+z
x,-y,-z
1/2-x,y,1/2-z
-x,-y,-z
1/2+x,y,1/2-z
-x,y,z
1/2+x,-y,1/2+z
loop_
_atom_site_type_symbol
_atom_site_label
_atom_site_fract_x
_atom_site_fract_y
_atom_site_fract_z
Si Si1 0.322718 0.797504 0.703907
Si Si2 0.824154 0.424187 0.139230
Si Si3 0.824168 0.997575 0.869572
Si Si4 0.675882 0.771282 0.564404
Si Si5 0.324101 0.650999 0.014870
Si Si6 0.677306 0.707851 0.393989
O O1 0.250000 0.815850 0.750000
O O2 0.500000 0.800714 0.709000
O O3 0.267014 0.653802 0.682324
O O4 0.263633 0.920826 0.673182
O O5 0.765893 0.349753 0.095926
O O6 0.775634 0.583311 0.138106
O O7 0.000000 0.406558 0.138665
O O8 0.781875 0.915321 0.913103
O O9 0.000000 0.001409 0.865212
O O10 0.760878 0.151941 0.872778
O O11 0.500000 0.760312 0.554969
O O12 0.765069 0.761029 0.519786
O O13 0.500000 0.664020 0.019495
O O14 0.250035 0.686064 0.059977
O O15 0.274367 0.500000 0.000000
O O16 0.500000 0.712253 0.400411
#
# Coordination Sequence:
#
# PCOD8218121 Si02
#       6
#     8   8   8   8   8   8
#     4   9  17  33  53  75  98 123 155 195 240 291
#     4   8  15  28  50  72  92 119 160 201 232 272
#     4   8  17  32  52  75  99 123 160 209 245 276
#     4   9  16  31  51  70  91 126 170 206 233 275
#     4  11  22  32  44  69 103 133 162 205 249 284
#     4  10  18  32  53  73  92 127 169 204 240 280
#
# _framework density 17.717374
#
# number of rings (size 3 to 8) (size 9 to 14) (size 15 to 20)
#    0.000    2.833    1.667    2.500    0.000    1.333 
#    0.000   10.000    0.000    0.000    0.000    0.000 
#    0.000    0.000    0.000    0.000    0.000    0.000 
#
# Total GULP energy -594903.371783 kJ/mol
# GULP energy per Si atom -12393.820245 kJ/mol
# Density = 1.767705 g / cm^3
# Si number density = 17.717374 Si / 1000 Ang^3
#
#
#
# Elastic Constant Matrix: (Units=GPa)
#
#
# Indices 1 2 3 4 5 6 
#
# 1 24.8411 30.4983 29.8247 0.0000 0.0000 0.0000
# 2 30.4983 164.8498 76.7445 0.0000 0.0000 0.0000
# 3 29.8247 76.7445 133.8762 0.0000 0.0000 0.0000
# 4 0.0000 0.0000 0.0000 21.7607 0.0000 0.0000
# 5 0.0000 0.0000 0.0000 0.0000 25.3903 0.0000
# 6 0.0000 0.0000 0.0000 0.0000 0.0000 17.4298
#
#
#
# Elastic Compliance Matrix: (Units=1/GPa)
#
#
# Indices 1 2 3 4 5 6 
#
# 1 0.059841 -0.006636 -0.009528 0.000000 0.000000 0.000000
# 2 -0.006636 0.009010 -0.003687 0.000000 0.000000 0.000000
# 3 -0.009528 -0.003687 0.011706 0.000000 0.000000 0.000000
# 4 0.000000 0.000000 0.000000 0.045954 0.000000 0.000000
# 5 0.000000 0.000000 0.000000 0.000000 0.039385 0.000000
# 6 0.000000 0.000000 0.000000 0.000000 0.000000 0.057373
#
#
# Mechanical properties :
#
#
# Convention : Reuss Voigt Hill
#
# Bulk Modulus (GPa) = 24.47540 66.41133 45.44336
# Shear Modulus (GPa) = 18.07739 25.34946 21.71343
#
# Velocity S-wave (km/s) = 3.19771 3.78665 3.50458
# Velocity P-wave (km/s) = 5.24196 7.52884 6.48697
#
# Compressibility (1/GPa) = 0.04085736
#
# Stress axis : x y z
#
# Youngs Moduli (GPa) = 16.71081 110.98646 85.42950
#
# Poissons Ratio (x) = 0.73646 0.81393
# Poissons Ratio (y) = 0.11089 0.31496
# Poissons Ratio (z) = 0.15921 0.40918
#
# Static dielectric constant tensor:
#      x y z
#    x 2.881810 0.000000 0.000000 
#    y 0.000000 3.993200 0.000000 
#    z 0.000000 0.000000 3.243070 
# 
# 
# High freq. dielectric constant tensor:
#      x y z
#    x 1.646580 0.000000 0.000000 
#    y 0.000000 1.691170 0.000000 
#    z 0.000000 0.000000 1.675290 
# 
# From -- ./inp_files/34882.got.cif
#   From: 2010.03.12/outbox.cif.g09.slc.cpg/sg53_18_cif.got.tgz:34882.got - 2010.04.16 14:36:59.
