data_PCOD8218649
_publ_section_title
;
Structure prediction by ZEFSAII (Michael W. Deem and Ramdas Pophale) SiO2 
 PCOD8218649
Probable space group: P M N A
;
_chemical_formula_sum "Si O2"
_cell_formula_units_Z 64
_cell_length_a 8.941542
_cell_length_b 20.203663
_cell_length_c 19.406288
_cell_angle_alpha 90.000000
_cell_angle_beta 90.000000
_cell_angle_gamma 90.000000
_cell_volume 3505.782824
_symmetry_space_group_name_H-M "P M N A"
_symmetry_group_IT_number 53
_symmetry_cell_setting 'orthorhombic'
loop_
_space_group_symop_operation_xyz
x,y,z
1/2-x,-y,1/2+z
x,-y,-z
1/2-x,y,1/2-z
-x,-y,-z
1/2+x,y,1/2-z
-x,y,z
1/2+x,-y,1/2+z
loop_
_atom_site_type_symbol
_atom_site_label
_atom_site_fract_x
_atom_site_fract_y
_atom_site_fract_z
Si Si1 0.674377 0.634981 0.176769
Si Si2 0.823408 0.362269 0.175800
Si Si3 0.175469 0.740961 0.430162
Si Si4 0.826249 0.252445 0.069460
Si Si5 0.325557 0.102205 0.437466
Si Si6 0.323616 0.107446 0.920274
Si Si7 0.677076 0.995349 0.323986
Si Si8 0.174824 0.489518 0.323986
O O1 0.750000 0.642984 0.250000
O O2 0.500000 0.646329 0.188955
O O3 0.741789 0.690767 0.126523
O O4 0.702357 0.562044 0.142555
O O5 0.750000 0.353376 0.250000
O O6 0.777677 0.297170 0.133607
O O7 0.756028 0.428026 0.137309
O O8 0.000000 0.370130 0.182741
O O9 0.242196 0.720169 0.503035
O O10 0.219753 0.815777 0.410787
O O11 0.000000 0.732400 0.435878
O O12 0.782194 0.176542 0.085216
O O13 0.000000 0.258990 0.053867
O O14 0.500000 0.095049 0.455132
O O15 0.236140 0.081005 0.506126
O O16 0.279006 0.055896 0.374035
O O17 0.500000 0.095094 0.916757
O O18 0.243310 0.071129 0.857088
O O19 0.750000 0.008754 0.250000
O O20 0.500000 0.988121 0.315207
O O21 0.250000 0.492392 0.250000
O O22 0.000000 0.473701 0.317577
#
# Coordination Sequence:
#
# PCOD8218649 Si02
#       8
#     8   8   8   8   8   8   8   8
#     4   9  18  32  50  73  99 128 165 206 247 293
#     4  10  19  31  49  73 100 129 164 206 249 296
#     4   9  19  35  53  75 102 131 166 206 246 292
#     4   9  19  35  53  74 100 131 167 205 246 294
#     4   9  19  37  57  75  99 134 172 206 246 297
#     4  10  20  35  56  79 103 133 169 207 247 298
#     4  11  23  37  54  77 106 136 166 207 253 295
#     4   9  16  28  47  69  95 128 164 202 244 292
#
# _framework density 18.255552000000002
#
# number of rings (size 3 to 8) (size 9 to 14) (size 15 to 20)
#    0.000    2.500    0.000    2.625    0.000    6.000 
#    0.000    1.875    0.000    3.750    0.000    0.000 
#    0.000    0.000    0.000    0.000    0.000    0.000 
#
# Total GULP energy -793422.058914 kJ/mol
# GULP energy per Si atom -12397.219671 kJ/mol
# Density = 1.821400 g / cm^3
# Si number density = 18.255552 Si / 1000 Ang^3
#
#
#
# Elastic Constant Matrix: (Units=GPa)
#
#
# Indices 1 2 3 4 5 6 
#
# 1 63.5146 39.3545 37.3253 0.0000 0.0000 0.0000
# 2 39.3545 104.6874 58.7728 0.0000 0.0000 0.0000
# 3 37.3253 58.7728 94.9908 0.0000 0.0000 0.0000
# 4 0.0000 0.0000 0.0000 26.9307 0.0000 0.0000
# 5 0.0000 0.0000 0.0000 0.0000 30.2141 0.0000
# 6 0.0000 0.0000 0.0000 0.0000 0.0000 30.4805
#
#
#
# Elastic Compliance Matrix: (Units=1/GPa)
#
#
# Indices 1 2 3 4 5 6 
#
# 1 0.022233 -0.005291 -0.005462 0.000000 0.000000 0.000000
# 2 -0.005291 0.015896 -0.007756 0.000000 0.000000 0.000000
# 3 -0.005462 -0.007756 0.017472 0.000000 0.000000 0.000000
# 4 0.000000 0.000000 0.000000 0.037132 0.000000 0.000000
# 5 0.000000 0.000000 0.000000 0.000000 0.033097 0.000000
# 6 0.000000 0.000000 0.000000 0.000000 0.000000 0.032808
#
#
# Mechanical properties :
#
#
# Convention : Reuss Voigt Hill
#
# Bulk Modulus (GPa) = 53.81521 59.34423 56.57972
# Shear Modulus (GPa) = 24.77076 26.04108 25.40592
#
# Velocity S-wave (km/s) = 3.68759 3.78097 3.73457
# Velocity P-wave (km/s) = 6.90463 7.18603 7.04674
#
# Compressibility (1/GPa) = 0.01858211
#
# Stress axis : x y z
#
# Youngs Moduli (GPa) = 44.97824 62.91069 57.23341
#
# Poissons Ratio (x) = 0.33288 0.31263
# Poissons Ratio (y) = 0.23799 0.44389
# Poissons Ratio (z) = 0.24568 0.48792
#
# Static dielectric constant tensor:
#      x y z
#    x 3.347260 0.000000 0.000000 
#    y 0.000000 4.018360 0.000000 
#    z 0.000000 0.000000 3.228390 
# 
# 
# High freq. dielectric constant tensor:
#      x y z
#    x 1.712110 0.000000 0.000000 
#    y 0.000000 1.724120 0.000000 
#    z 0.000000 0.000000 1.684340 
# 
# From -- ./inp_files/26973.got.cif
#   From: 2010.03.12/outbox.cif.g09.slc.cpg/sg53_14_cif.got.tgz:26973.got - 2010.04.16 14:36:59.
