data_PCOD8218546
_publ_section_title
;
Structure prediction by ZEFSAII (Michael W. Deem and Ramdas Pophale) SiO2 
 PCOD8218546
Probable space group: P M N A
;
_chemical_formula_sum "Si O2"
_cell_formula_units_Z 40
_cell_length_a 9.060213
_cell_length_b 13.886170
_cell_length_c 18.367864
_cell_angle_alpha 90.000000
_cell_angle_beta 90.000000
_cell_angle_gamma 90.000000
_cell_volume 2310.891423
_symmetry_space_group_name_H-M "P M N A"
_symmetry_group_IT_number 53
_symmetry_cell_setting 'orthorhombic'
loop_
_space_group_symop_operation_xyz
x,y,z
1/2-x,-y,1/2+z
x,-y,-z
1/2-x,y,1/2-z
-x,-y,-z
1/2+x,y,1/2-z
-x,y,z
1/2+x,-y,1/2+z
loop_
_atom_site_type_symbol
_atom_site_label
_atom_site_fract_x
_atom_site_fract_y
_atom_site_fract_z
Si Si1 0.672600 0.606167 0.976764
Si Si2 0.333295 0.040614 0.918628
Si Si3 0.826414 0.682034 0.679722
Si Si4 0.165207 0.215942 0.967366
Si Si5 0.334061 0.864499 0.628887
O O1 0.500000 0.624124 0.988903
O O2 0.714643 0.621024 0.892074
O O3 0.757728 0.680111 0.028867
O O4 0.721801 0.500000 0.000000
O O5 0.500000 0.049980 0.889476
O O6 0.242899 0.968805 0.866134
O O7 0.257184 0.145502 0.914629
O O8 0.333493 0.000000 0.000000
O O9 0.750000 0.631898 0.750000
O O10 0.762829 0.789878 0.674685
O O11 0.000000 0.687348 0.691877
O O12 0.160278 0.168694 0.046082
O O13 0.000000 0.228546 0.936273
O O14 0.500000 0.870415 0.660811
#
# Coordination Sequence:
#
# PCOD8218546 Si02
#       5
#     8   8   8   8   8
#     4   9  18  32  48  66  90 121 157 198 243 288
#     4   9  15  23  37  58  85 116 146 174 209 257
#     4  10  19  31  47  67  92 121 153 189 232 284
#     4   9  16  25  39  61  88 116 146 183 227 271
#     4   9  16  26  40  60  87 116 146 180 218 264
#
# _framework density 17.309338
#
# number of rings (size 3 to 8) (size 9 to 14) (size 15 to 20)
#    0.000    2.800    0.000    2.400    0.000    8.400 
#    0.000    0.000    0.000    0.000    0.000    1.400 
#    0.000    3.200    0.000    0.000    0.000    0.000 
#
# Total GULP energy -495925.593562 kJ/mol
# GULP energy per Si atom -12398.139839 kJ/mol
# Density = 1.726994 g / cm^3
# Si number density = 17.309338 Si / 1000 Ang^3
#
#
#
# Elastic Constant Matrix: (Units=GPa)
#
#
# Indices 1 2 3 4 5 6 
#
# 1 121.2930 67.1455 27.7786 0.0000 0.0000 0.0000
# 2 67.1455 139.6351 35.1338 0.0000 0.0000 0.0000
# 3 27.7786 35.1338 43.8359 0.0000 0.0000 0.0000
# 4 0.0000 0.0000 0.0000 12.5049 0.0000 0.0000
# 5 0.0000 0.0000 0.0000 0.0000 19.9586 0.0000
# 6 0.0000 0.0000 0.0000 0.0000 0.0000 27.4859
#
#
#
# Elastic Compliance Matrix: (Units=1/GPa)
#
#
# Indices 1 2 3 4 5 6 
#
# 1 0.011679 -0.004702 -0.003632 0.000000 0.000000 0.000000
# 2 -0.004702 0.010864 -0.005727 0.000000 0.000000 0.000000
# 3 -0.003632 -0.005727 0.029705 0.000000 0.000000 0.000000
# 4 0.000000 0.000000 0.000000 0.079968 0.000000 0.000000
# 5 0.000000 0.000000 0.000000 0.000000 0.050104 0.000000
# 6 0.000000 0.000000 0.000000 0.000000 0.000000 0.036382
#
#
# Mechanical properties :
#
#
# Convention : Reuss Voigt Hill
#
# Bulk Modulus (GPa) = 41.45293 62.76442 52.10868
# Shear Modulus (GPa) = 19.61802 23.63695 21.62749
#
# Velocity S-wave (km/s) = 3.37022 3.69936 3.53862
# Velocity P-wave (km/s) = 6.25658 7.38824 6.84584
#
# Compressibility (1/GPa) = 0.02412375
#
# Stress axis : x y z
#
# Youngs Moduli (GPa) = 85.62019 92.04928 33.66485
#
# Poissons Ratio (x) = 0.43284 0.12228
# Poissons Ratio (y) = 0.40261 0.19281
# Poissons Ratio (z) = 0.31101 0.52720
#
# Static dielectric constant tensor:
#      x y z
#    x 3.434630 0.000000 0.000000 
#    y 0.000000 3.170500 0.000000 
#    z 0.000000 0.000000 2.877310 
# 
# 
# High freq. dielectric constant tensor:
#      x y z
#    x 1.686510 0.000000 0.000000 
#    y 0.000000 1.653760 0.000000 
#    z 0.000000 0.000000 1.615710 
# 
# From -- ./inp_files/25979.got.cif
#   From: 2010.03.12/outbox.cif.g09.slc.cpg/sg53_13_cif.got.tgz:25979.got - 2010.04.16 14:36:59.
