data_PCOD8218424
_publ_section_title
;
Structure prediction by ZEFSAII (Michael W. Deem and Ramdas Pophale) SiO2 
 PCOD8218424
Probable space group: P M N A
;
_chemical_formula_sum "Si O2"
_cell_formula_units_Z 64
_cell_length_a 9.454034
_cell_length_b 23.163853
_cell_length_c 16.016538
_cell_angle_alpha 90.000000
_cell_angle_beta 90.000000
_cell_angle_gamma 90.000000
_cell_volume 3507.491349
_symmetry_space_group_name_H-M "P M N A"
_symmetry_group_IT_number 53
_symmetry_cell_setting 'orthorhombic'
loop_
_space_group_symop_operation_xyz
x,y,z
1/2-x,-y,1/2+z
x,-y,-z
1/2-x,y,1/2-z
-x,-y,-z
1/2+x,y,1/2-z
-x,y,z
1/2+x,-y,1/2+z
loop_
_atom_site_type_symbol
_atom_site_label
_atom_site_fract_x
_atom_site_fract_y
_atom_site_fract_z
Si Si1 0.167819 0.127820 0.996789
Si Si2 0.335032 0.316972 0.326559
Si Si3 0.336225 0.063557 0.668935
Si Si4 0.336024 0.741322 0.498841
Si Si5 0.164016 0.071980 0.168605
Si Si6 0.657732 0.584613 0.893280
Si Si7 0.663736 0.463704 0.829807
Si Si8 0.159717 0.643207 0.430159
O O1 0.223796 0.093679 0.915245
O O2 0.219369 0.193668 0.988328
O O3 0.000000 0.123071 0.999924
O O4 0.225353 0.101649 0.084272
O O5 0.250000 0.287545 0.250000
O O6 0.500000 0.320910 0.305773
O O7 0.305075 0.277564 0.406701
O O8 0.273236 0.381357 0.338598
O O9 0.250000 0.085552 0.750000
O O10 0.500000 0.079521 0.683498
O O11 0.314819 0.995850 0.655998
O O12 0.500000 0.736020 0.476656
O O13 0.254457 0.700546 0.433495
O O14 0.250000 0.093862 0.250000
O O15 0.000000 0.088004 0.182964
O O16 0.500000 0.596629 0.856618
O O17 0.688724 0.516121 0.894762
O O18 0.666566 0.606407 0.986517
O O19 0.750000 0.482260 0.750000
O O20 0.500000 0.457316 0.807457
O O21 0.719932 0.401733 0.862129
O O22 0.000000 0.662811 0.410256
#
# Coordination Sequence:
#
# PCOD8218424 Si02
#       8
#     8   8   8   8   8   8   8   8
#     4   9  17  32  53  73  97 133 171 203 240 290
#     4  10  19  30  45  67  95 125 156 191 233 281
#     4   9  17  31  52  76 101 130 165 205 248 292
#     4   9  19  34  50  68  91 123 164 202 232 272
#     4   9  17  30  50  77 106 134 164 198 240 292
#     4   9  17  31  51  71  91 117 150 188 231 281
#     4  10  20  32  48  71  95 118 147 186 233 283
#     4   9  18  34  52  68  90 121 154 189 232 279
#
# _framework density 18.246658
#
# number of rings (size 3 to 8) (size 9 to 14) (size 15 to 20)
#    0.000    2.750    0.000    1.500    0.000    6.000 
#    0.000    2.500    0.000    9.750    0.000    0.000 
#    0.000    0.000    0.000    0.000    0.000    0.000 
#
# Total GULP energy -793370.625984 kJ/mol
# GULP energy per Si atom -12396.416031 kJ/mol
# Density = 1.820513 g / cm^3
# Si number density = 18.246658 Si / 1000 Ang^3
#
#
#
# Elastic Constant Matrix: (Units=GPa)
#
#
# Indices 1 2 3 4 5 6 
#
# 1 55.1683 34.1041 30.3149 0.0000 0.0000 0.0000
# 2 34.1041 100.5609 47.3593 0.0000 0.0000 0.0000
# 3 30.3149 47.3593 88.3594 0.0000 0.0000 0.0000
# 4 0.0000 0.0000 0.0000 17.3772 0.0000 0.0000
# 5 0.0000 0.0000 0.0000 0.0000 25.1202 0.0000
# 6 0.0000 0.0000 0.0000 0.0000 0.0000 22.1609
#
#
#
# Elastic Compliance Matrix: (Units=1/GPa)
#
#
# Indices 1 2 3 4 5 6 
#
# 1 0.024675 -0.005861 -0.005324 0.000000 0.000000 0.000000
# 2 -0.005861 0.014694 -0.005865 0.000000 0.000000 0.000000
# 3 -0.005324 -0.005865 0.016288 0.000000 0.000000 0.000000
# 4 0.000000 0.000000 0.000000 0.057547 0.000000 0.000000
# 5 0.000000 0.000000 0.000000 0.000000 0.039809 0.000000
# 6 0.000000 0.000000 0.000000 0.000000 0.000000 0.045124
#
#
# Mechanical properties :
#
#
# Convention : Reuss Voigt Hill
#
# Bulk Modulus (GPa) = 46.38983 51.96058 49.17520
# Shear Modulus (GPa) = 20.88359 21.75234 21.31796
#
# Velocity S-wave (km/s) = 3.38674 3.45647 3.42178
# Velocity P-wave (km/s) = 6.38532 6.66844 6.52841
#
# Compressibility (1/GPa) = 0.02155645
#
# Stress axis : x y z
#
# Youngs Moduli (GPa) = 40.52660 68.05512 61.39598
#
# Poissons Ratio (x) = 0.39886 0.32690
# Poissons Ratio (y) = 0.23752 0.36009
# Poissons Ratio (z) = 0.21578 0.39914
#
# Static dielectric constant tensor:
#      x y z
#    x 3.284470 0.000000 0.000000 
#    y 0.000000 3.373750 0.000000 
#    z 0.000000 0.000000 3.430360 
# 
# 
# High freq. dielectric constant tensor:
#      x y z
#    x 1.687900 0.000000 0.000000 
#    y 0.000000 1.701890 0.000000 
#    z 0.000000 0.000000 1.703120 
# 
# From -- ./inp_files/20996.got.cif
#   From: 2010.03.12/outbox.cif.g09.slc.cpg/sg53_11_cif.got.tgz:20996.got - 2010.04.16 14:36:59.
