data_PCOD8218403
_publ_section_title
;
Structure prediction by ZEFSAII (Michael W. Deem and Ramdas Pophale) SiO2 
 PCOD8218403
Probable space group: P M N A
;
_chemical_formula_sum "Si O2"
_cell_formula_units_Z 64
_cell_length_a 9.322141
_cell_length_b 16.734455
_cell_length_c 23.614258
_cell_angle_alpha 90.000000
_cell_angle_beta 90.000000
_cell_angle_gamma 90.000000
_cell_volume 3683.846660
_symmetry_space_group_name_H-M "P M N A"
_symmetry_group_IT_number 53
_symmetry_cell_setting 'orthorhombic'
loop_
_space_group_symop_operation_xyz
x,y,z
1/2-x,-y,1/2+z
x,-y,-z
1/2-x,y,1/2-z
-x,-y,-z
1/2+x,y,1/2-z
-x,y,z
1/2+x,-y,1/2+z
loop_
_atom_site_type_symbol
_atom_site_label
_atom_site_fract_x
_atom_site_fract_y
_atom_site_fract_z
Si Si1 0.664246 0.043131 0.394754
Si Si2 0.668838 0.771391 0.190222
Si Si3 0.334788 0.139705 0.595414
Si Si4 0.836178 0.869822 0.693459
Si Si5 0.831860 0.575612 0.690589
Si Si6 0.166797 0.188942 0.027438
Si Si7 0.662505 0.597663 0.193987
Si Si8 0.337112 0.717919 0.886089
O O1 0.500000 0.057521 0.376200
O O2 0.764652 0.056996 0.340351
O O3 0.708363 0.103904 0.444685
O O4 0.687723 0.953847 0.416954
O O5 0.750000 0.780263 0.250000
O O6 0.500000 0.788815 0.199136
O O7 0.733187 0.834400 0.146523
O O8 0.694654 0.682104 0.162652
O O9 0.500000 0.157615 0.611363
O O10 0.289760 0.186306 0.538452
O O11 0.750000 0.853884 0.750000
O O12 0.823801 0.789653 0.657729
O O13 0.000000 0.892278 0.707163
O O14 0.750000 0.585995 0.750000
O O15 0.805532 0.486853 0.662464
O O16 0.774097 0.638937 0.644531
O O17 0.000000 0.591408 0.702521
O O18 0.248612 0.262294 0.057273
O O19 0.000000 0.205967 0.034752
O O20 0.750000 0.596782 0.250000
O O21 0.500000 0.598074 0.214254
O O22 0.500000 0.703564 0.905196
#
# Coordination Sequence:
#
# PCOD8218403 Si02
#       8
#     8   8   8   8   8   8   8   8
#     4   9  18  33  51  69  90 119 155 195 237 278
#     4  10  20  34  52  74  99 125 153 188 233 281
#     4  10  20  34  53  74  93 117 153 195 236 279
#     4  10  19  30  44  65  95 128 158 188 228 276
#     4   9  16  27  45  70  98 126 157 192 229 271
#     4   9  18  33  52  71  92 120 155 194 234 276
#     4   8  15  28  46  68  94 123 154 188 227 272
#     4   9  18  30  45  68  97 126 156 192 230 270
#
# _framework density 17.373142999999999
#
# number of rings (size 3 to 8) (size 9 to 14) (size 15 to 20)
#    0.000    2.750    0.000    1.500    0.000    4.500 
#    0.000    0.000    0.000    4.500    0.000    5.250 
#    0.000    0.000    0.000    0.000    0.000    0.000 
#
# Total GULP energy -793127.826205 kJ/mol
# GULP energy per Si atom -12392.622284 kJ/mol
# Density = 1.733360 g / cm^3
# Si number density = 17.373143 Si / 1000 Ang^3
#
#
#
# Elastic Constant Matrix: (Units=GPa)
#
#
# Indices 1 2 3 4 5 6 
#
# 1 69.8800 27.0684 39.6568 0.0000 0.0000 0.0000
# 2 27.0684 75.7379 30.9971 0.0000 0.0000 0.0000
# 3 39.6568 30.9971 75.9681 0.0000 0.0000 0.0000
# 4 0.0000 0.0000 0.0000 18.8057 0.0000 0.0000
# 5 0.0000 0.0000 0.0000 0.0000 27.3018 0.0000
# 6 0.0000 0.0000 0.0000 0.0000 0.0000 22.5044
#
#
#
# Elastic Compliance Matrix: (Units=1/GPa)
#
#
# Indices 1 2 3 4 5 6 
#
# 1 0.021142 -0.003648 -0.009548 0.000000 0.000000 0.000000
# 2 -0.003648 0.016480 -0.004820 0.000000 0.000000 0.000000
# 3 -0.009548 -0.004820 0.020114 0.000000 0.000000 0.000000
# 4 0.000000 0.000000 0.000000 0.053175 0.000000 0.000000
# 5 0.000000 0.000000 0.000000 0.000000 0.036628 0.000000
# 6 0.000000 0.000000 0.000000 0.000000 0.000000 0.044436
#
#
# Mechanical properties :
#
#
# Convention : Reuss Voigt Hill
#
# Bulk Modulus (GPa) = 46.07438 46.33674 46.20556
# Shear Modulus (GPa) = 21.25481 21.97998 21.61739
#
# Velocity S-wave (km/s) = 3.50155 3.56078 3.53129
# Velocity P-wave (km/s) = 6.55178 6.60567 6.57878
#
# Compressibility (1/GPa) = 0.02170404
#
# Stress axis : x y z
#
# Youngs Moduli (GPa) = 47.29962 60.68002 49.71627
#
# Poissons Ratio (x) = 0.22138 0.47468
# Poissons Ratio (y) = 0.17257 0.23962
# Poissons Ratio (z) = 0.45161 0.29246
#
# Static dielectric constant tensor:
#      x y z
#    x 3.296540 0.000000 0.000000 
#    y 0.000000 3.673590 0.000000 
#    z 0.000000 0.000000 2.989550 
# 
# 
# High freq. dielectric constant tensor:
#      x y z
#    x 1.673970 0.000000 0.000000 
#    y 0.000000 1.673190 0.000000 
#    z 0.000000 0.000000 1.642460 
# 
# From -- ./inp_files/34235.got.cif
#   From: 2010.03.12/outbox.cif.g09.slc.cpg/sg53_18_cif.got.tgz:34235.got - 2010.04.16 14:36:59.
