data_PCOD8218302
_publ_section_title
;
Structure prediction by ZEFSAII (Michael W. Deem and Ramdas Pophale) SiO2 
 PCOD8218302
Probable space group: P M N A
;
_chemical_formula_sum "Si O2"
_cell_formula_units_Z 64
_cell_length_a 16.683309
_cell_length_b 14.927089
_cell_length_c 11.663226
_cell_angle_alpha 90.000000
_cell_angle_beta 90.000000
_cell_angle_gamma 90.000000
_cell_volume 2904.530939
_symmetry_space_group_name_H-M "P M N A"
_symmetry_group_IT_number 53
_symmetry_cell_setting 'orthorhombic'
loop_
_space_group_symop_operation_xyz
x,y,z
1/2-x,-y,1/2+z
x,-y,-z
1/2-x,y,1/2-z
-x,-y,-z
1/2+x,y,1/2-z
-x,y,z
1/2+x,-y,1/2+z
loop_
_atom_site_type_symbol
_atom_site_label
_atom_site_fract_x
_atom_site_fract_y
_atom_site_fract_z
Si Si1 0.827782 0.230533 0.430337
Si Si2 0.410352 0.638896 0.518710
Si Si3 0.154958 0.916611 0.740195
Si Si4 0.148955 0.176348 0.034939
Si Si5 0.092952 0.575790 0.220741
Si Si6 0.408959 0.904993 0.321247
Si Si7 0.663411 0.249581 0.805130
Si Si8 0.593782 0.622530 0.771263
O O1 0.867681 0.142582 0.371194
O O2 0.732592 0.220863 0.429802
O O3 0.851026 0.233187 0.561573
O O4 0.855034 0.320272 0.362407
O O5 0.500000 0.606180 0.542751
O O6 0.406042 0.743743 0.483384
O O7 0.376995 0.576639 0.414079
O O8 0.368066 0.634060 0.643368
O O9 0.250000 0.924022 0.750000
O O10 0.114512 0.867953 0.849872
O O11 0.119471 0.016234 0.735466
O O12 0.148147 0.100517 0.935060
O O13 0.146657 0.646307 0.287407
O O14 0.104338 0.483829 0.290667
O O15 0.000000 0.605141 0.219721
O O16 0.500000 0.921017 0.360136
O O17 0.402683 0.812432 0.253109
O O18 0.750000 0.224870 0.750000
O O19 0.500000 0.650878 0.780695
#
# Coordination Sequence:
#
# PCOD8218302 Si02
#       8
#     8   8   8   8   8   8   8   8
#     4  11  24  43  66  92 135 180 222 273 341 409
#     4  10  18  35  66  97 130 171 217 276 334 390
#     4  10  24  42  66  98 132 173 212 271 346 410
#     4  11  21  41  69  97 128 170 219 277 335 395
#     4  10  21  40  65  97 132 176 229 277 331 392
#     4  12  25  43  70 101 131 171 225 281 335 401
#     4  12  24  44  66  93 131 180 231 281 337 403
#     4  10  22  39  65  98 136 178 219 274 341 407
#
# _framework density 22.034541000000001
#
# number of rings (size 3 to 8) (size 9 to 14) (size 15 to 20)
#    0.000    1.250    3.750    1.875    0.000    5.500 
#    2.250    1.875    0.000    0.000    0.000    0.000 
#    0.000    0.000    0.000    0.000    0.000    0.000 
#
# Total GULP energy -793047.374148 kJ/mol
# GULP energy per Si atom -12391.365221 kJ/mol
# Density = 2.198439 g / cm^3
# Si number density = 22.034541 Si / 1000 Ang^3
#
#
#
# Elastic Constant Matrix: (Units=GPa)
#
#
# Indices 1 2 3 4 5 6 
#
# 1 66.2559 44.7885 39.0457 0.0000 0.0000 0.0000
# 2 44.7885 110.1132 55.9593 0.0000 0.0000 0.0000
# 3 39.0457 55.9593 169.0126 0.0000 0.0000 0.0000
# 4 0.0000 0.0000 0.0000 35.5229 0.0000 0.0000
# 5 0.0000 0.0000 0.0000 0.0000 28.2560 0.0000
# 6 0.0000 0.0000 0.0000 0.0000 0.0000 33.6685
#
#
#
# Elastic Compliance Matrix: (Units=1/GPa)
#
#
# Indices 1 2 3 4 5 6 
#
# 1 0.021668 -0.007538 -0.002510 0.000000 0.000000 0.000000
# 2 -0.007538 0.013541 -0.002742 0.000000 0.000000 0.000000
# 3 -0.002510 -0.002742 0.007404 0.000000 0.000000 0.000000
# 4 0.000000 0.000000 0.000000 0.028151 0.000000 0.000000
# 5 0.000000 0.000000 0.000000 0.000000 0.035391 0.000000
# 6 0.000000 0.000000 0.000000 0.000000 0.000000 0.029701
#
#
# Mechanical properties :
#
#
# Convention : Reuss Voigt Hill
#
# Bulk Modulus (GPa) = 58.70728 69.44096 64.07412
# Shear Modulus (GPa) = 29.91980 33.19534 31.55757
#
# Velocity S-wave (km/s) = 3.68891 3.88559 3.78853
# Velocity P-wave (km/s) = 6.69666 7.19121 6.94833
#
# Compressibility (1/GPa) = 0.01703366
#
# Stress axis : x y z
#
# Youngs Moduli (GPa) = 46.15175 73.84984 135.05402
#
# Poissons Ratio (x) = 0.55666 0.33899
# Poissons Ratio (y) = 0.34788 0.37031
# Poissons Ratio (z) = 0.11584 0.20249
#
# Static dielectric constant tensor:
#      x y z
#    x 3.658580 0.000000 0.000000 
#    y 0.000000 4.149750 0.000000 
#    z 0.000000 0.000000 4.170560 
# 
# 
# High freq. dielectric constant tensor:
#      x y z
#    x 1.836070 0.000000 0.000000 
#    y 0.000000 1.877580 0.000000 
#    z 0.000000 0.000000 1.870420 
# 
# From -- ./inp_files/17093.got.cif
#   From: 2010.03.12/outbox.cif.g09.slc.cpg/sg53_9_cif.got.tgz:17093.got - 2010.04.16 14:36:59.
