data_PCOD8218452
_publ_section_title
;
Structure prediction by ZEFSAII (Michael W. Deem and Ramdas Pophale) SiO2 
 PCOD8218452
Probable space group: P M N A
;
_chemical_formula_sum "Si O2"
_cell_formula_units_Z 64
_cell_length_a 9.052395
_cell_length_b 15.979932
_cell_length_c 24.280394
_cell_angle_alpha 90.000000
_cell_angle_beta 90.000000
_cell_angle_gamma 90.000000
_cell_volume 3512.320615
_symmetry_space_group_name_H-M "P M N A"
_symmetry_group_IT_number 53
_symmetry_cell_setting 'orthorhombic'
loop_
_space_group_symop_operation_xyz
x,y,z
1/2-x,-y,1/2+z
x,-y,-z
1/2-x,y,1/2-z
-x,-y,-z
1/2+x,y,1/2-z
-x,y,z
1/2+x,-y,1/2+z
loop_
_atom_site_type_symbol
_atom_site_label
_atom_site_fract_x
_atom_site_fract_y
_atom_site_fract_z
Si Si1 0.326883 0.054033 0.419206
Si Si2 0.830416 0.357946 0.695854
Si Si3 0.673842 0.132483 0.307018
Si Si4 0.164186 0.557455 0.051871
Si Si5 0.175510 0.712345 0.421937
Si Si6 0.830321 0.470669 0.354924
Si Si7 0.171913 0.675856 0.805295
Si Si8 0.174499 0.124768 0.965778
O O1 0.500000 0.067554 0.415714
O O2 0.260625 0.082098 0.359798
O O3 0.272711 0.110925 0.470795
O O4 0.288289 0.957904 0.430475
O O5 0.750000 0.322850 0.750000
O O6 0.776651 0.309004 0.641033
O O7 0.802224 0.458082 0.691306
O O8 0.000000 0.337899 0.704742
O O9 0.750000 0.102955 0.250000
O O10 0.500000 0.118371 0.299236
O O11 0.712053 0.229020 0.320037
O O12 0.234696 0.648472 0.038325
O O13 0.286048 0.512680 0.088462
O O14 0.000000 0.568301 0.078958
O O15 0.143978 0.500000 0.000000
O O16 0.227351 0.804501 0.437836
O O17 0.000000 0.703031 0.430306
O O18 0.731037 0.387693 0.350888
O O19 0.000000 0.442967 0.356434
O O20 0.250000 0.646603 0.750000
O O21 0.000000 0.663165 0.797585
O O22 0.000000 0.145389 0.962981
#
# Coordination Sequence:
#
# PCOD8218452 Si02
#       8
#     8   8   8   8   8   8   8   8
#     4   8  16  33  56  79 102 130 169 215 257 302
#     4   9  19  33  49  69  95 130 169 208 251 299
#     4   9  18  33  51  73 104 138 171 212 260 309
#     4  10  21  36  53  73  98 132 174 212 247 297
#     4  10  21  36  52  76 109 137 165 210 264 310
#     4  10  20  33  49  71 100 132 167 211 261 307
#     4  10  19  30  46  69  98 132 170 211 252 298
#     4   9  17  33  58  81 100 131 174 213 253 306
#
# _framework density 18.221571999999998
#
# number of rings (size 3 to 8) (size 9 to 14) (size 15 to 20)
#    0.000    2.625    0.000    3.375    0.000    6.500 
#    0.000    5.625    0.000    3.000    0.000    0.000 
#    0.000    0.000    0.000    0.000    0.000    0.000 
#
# Total GULP energy -793199.901852 kJ/mol
# GULP energy per Si atom -12393.748466 kJ/mol
# Density = 1.818010 g / cm^3
# Si number density = 18.221572 Si / 1000 Ang^3
#
#
#
# Elastic Constant Matrix: (Units=GPa)
#
#
# Indices 1 2 3 4 5 6 
#
# 1 65.3940 43.4069 40.5077 0.0000 0.0000 0.0000
# 2 43.4069 99.0573 60.1212 0.0000 0.0000 0.0000
# 3 40.5077 60.1212 102.9159 0.0000 0.0000 0.0000
# 4 0.0000 0.0000 0.0000 21.3652 0.0000 0.0000
# 5 0.0000 0.0000 0.0000 0.0000 26.1024 0.0000
# 6 0.0000 0.0000 0.0000 0.0000 0.0000 18.1603
#
#
#
# Elastic Compliance Matrix: (Units=1/GPa)
#
#
# Indices 1 2 3 4 5 6 
#
# 1 0.023066 -0.007123 -0.004918 0.000000 0.000000 0.000000
# 2 -0.007123 0.017840 -0.007618 0.000000 0.000000 0.000000
# 3 -0.004918 -0.007618 0.016103 0.000000 0.000000 0.000000
# 4 0.000000 0.000000 0.000000 0.046805 0.000000 0.000000
# 5 0.000000 0.000000 0.000000 0.000000 0.038311 0.000000
# 6 0.000000 0.000000 0.000000 0.000000 0.000000 0.055065
#
#
# Mechanical properties :
#
#
# Convention : Reuss Voigt Hill
#
# Bulk Modulus (GPa) = 56.52522 61.71542 59.12032
# Shear Modulus (GPa) = 20.62662 21.34766 20.98714
#
# Velocity S-wave (km/s) = 3.36815 3.42652 3.39746
# Velocity P-wave (km/s) = 6.79811 7.04256 6.92142
#
# Compressibility (1/GPa) = 0.01769122
#
# Stress axis : x y z
#
# Youngs Moduli (GPa) = 43.35350 56.05322 62.10101
#
# Poissons Ratio (x) = 0.39926 0.30541
# Poissons Ratio (y) = 0.30880 0.47310
# Poissons Ratio (z) = 0.21321 0.42703
#
# Static dielectric constant tensor:
#      x y z
#    x 3.343990 0.000000 0.000000 
#    y 0.000000 3.429240 0.000000 
#    z 0.000000 0.000000 3.508500 
# 
# 
# High freq. dielectric constant tensor:
#      x y z
#    x 1.700320 0.000000 0.000000 
#    y 0.000000 1.698390 0.000000 
#    z 0.000000 0.000000 1.698940 
# 
# From -- ./inp_files/34313.got.cif
#   From: 2010.03.12/outbox.cif.g09.slc.cpg/sg53_18_cif.got.tgz:34313.got - 2010.04.16 14:36:59.
