data_PCOD8218490
_publ_section_title
;
Structure prediction by ZEFSAII (Michael W. Deem and Ramdas Pophale) SiO2 
 PCOD8218490
Probable space group: P M N A
;
_chemical_formula_sum "Si O2"
_cell_formula_units_Z 64
_cell_length_a 9.010302
_cell_length_b 15.512015
_cell_length_c 28.325478
_cell_angle_alpha 90.000000
_cell_angle_beta 90.000000
_cell_angle_gamma 90.000000
_cell_volume 3958.993703
_symmetry_space_group_name_H-M "P M N A"
_symmetry_group_IT_number 53
_symmetry_cell_setting 'orthorhombic'
loop_
_space_group_symop_operation_xyz
x,y,z
1/2-x,-y,1/2+z
x,-y,-z
1/2-x,y,1/2-z
-x,-y,-z
1/2+x,y,1/2-z
-x,y,z
1/2+x,-y,1/2+z
loop_
_atom_site_type_symbol
_atom_site_label
_atom_site_fract_x
_atom_site_fract_y
_atom_site_fract_z
Si Si1 0.675428 0.999192 0.053395
Si Si2 0.333008 0.501095 0.943924
Si Si3 0.173068 0.088248 0.203315
Si Si4 0.171320 0.156293 0.103780
Si Si5 0.671892 0.172737 0.895022
Si Si6 0.173385 0.092640 0.703205
Si Si7 0.174134 0.327968 0.052466
Si Si8 0.825580 0.670640 0.056190
O O1 0.500000 0.005781 0.056136
O O2 0.738134 0.080614 0.080205
O O3 0.730876 0.911549 0.077710
O O4 0.734193 0.000000 0.000000
O O5 0.500000 0.498606 0.924259
O O6 0.254940 0.588351 0.926141
O O7 0.246331 0.417765 0.924807
O O8 0.328993 0.500000 0.000000
O O9 0.250000 0.128205 0.250000
O O10 0.196240 0.154570 0.160204
O O11 0.000000 0.071819 0.213186
O O12 0.249785 0.997784 0.190269
O O13 0.228190 0.247221 0.083573
O O14 0.000000 0.142624 0.090582
O O15 0.500000 0.190162 0.907056
O O16 0.696542 0.159685 0.839230
O O17 0.768488 0.252977 0.911085
O O18 0.250000 0.132231 0.750000
O O19 0.000000 0.075573 0.712290
O O20 0.000000 0.344388 0.056870
O O21 0.219636 0.310861 0.998090
O O22 0.000000 0.661906 0.061832
#
# Coordination Sequence:
#
# PCOD8218490 Si02
#       8
#     8   8   8   8   8   8   8   8
#     4  10  20  32  45  63  93 131 164 193 228 272
#     4   9  17  30  48  69  93 122 156 194 235 278
#     4  10  19  31  48  68  90 120 157 198 242 281
#     4  10  20  32  47  68  94 125 159 196 235 277
#     4  10  20  32  45  66  95 125 157 195 235 275
#     4  10  19  32  49  67  90 120 155 200 244 280
#     4   9  18  32  47  68  97 125 157 195 233 276
#     4  10  19  30  48  70  94 126 159 193 232 277
#
# _framework density 16.165723
#
# number of rings (size 3 to 8) (size 9 to 14) (size 15 to 20)
#    0.000    2.250    1.250    3.000    0.000    4.750 
#    0.000    0.000    0.000    0.000    0.000    0.875 
#    0.000    4.000    0.000    0.000    0.000    0.000 
#
# Total GULP energy -793642.245752 kJ/mol
# GULP energy per Si atom -12400.660090 kJ/mol
# Density = 1.612893 g / cm^3
# Si number density = 16.165723 Si / 1000 Ang^3
#
#
#
# Elastic Constant Matrix: (Units=GPa)
#
#
# Indices 1 2 3 4 5 6 
#
# 1 76.3383 48.7445 37.7205 0.0000 0.0000 0.0000
# 2 48.7445 123.8640 52.0035 0.0000 0.0000 0.0000
# 3 37.7205 52.0035 87.6365 0.0000 0.0000 0.0000
# 4 0.0000 0.0000 0.0000 8.2496 0.0000 0.0000
# 5 0.0000 0.0000 0.0000 0.0000 17.4102 0.0000
# 6 0.0000 0.0000 0.0000 0.0000 0.0000 18.0361
#
#
#
# Elastic Compliance Matrix: (Units=1/GPa)
#
#
# Indices 1 2 3 4 5 6 
#
# 1 0.019000 -0.005385 -0.004982 0.000000 0.000000 0.000000
# 2 -0.005385 0.012279 -0.004968 0.000000 0.000000 0.000000
# 3 -0.004982 -0.004968 0.016503 0.000000 0.000000 0.000000
# 4 0.000000 0.000000 0.000000 0.121217 0.000000 0.000000
# 5 0.000000 0.000000 0.000000 0.000000 0.057438 0.000000
# 6 0.000000 0.000000 0.000000 0.000000 0.000000 0.055444
#
#
# Mechanical properties :
#
#
# Convention : Reuss Voigt Hill
#
# Bulk Modulus (GPa) = 58.44408 62.75284 60.59846
# Shear Modulus (GPa) = 15.71060 18.69722 17.20391
#
# Velocity S-wave (km/s) = 3.12083 3.40457 3.26578
# Velocity P-wave (km/s) = 7.01553 7.37275 7.19636
#
# Compressibility (1/GPa) = 0.01711037
#
# Stress axis : x y z
#
# Youngs Moduli (GPa) = 52.63095 81.44309 60.59379
#
# Poissons Ratio (x) = 0.43860 0.30190
# Poissons Ratio (y) = 0.28344 0.30104
# Poissons Ratio (z) = 0.26223 0.40462
#
# Static dielectric constant tensor:
#      x y z
#    x 3.125820 0.000000 0.000000 
#    y 0.000000 3.032080 0.000000 
#    z 0.000000 0.000000 3.154000 
# 
# 
# High freq. dielectric constant tensor:
#      x y z
#    x 1.631350 0.000000 0.000000 
#    y 0.000000 1.608480 0.000000 
#    z 0.000000 0.000000 1.603740 
# 
# From -- ./inp_files/38442.got.cif
#   From: 2010.03.12/outbox.cif.g09.slc.cpg/sg53_20_cif.got.tgz:38442.got - 2010.04.16 14:36:59.
