data_PCOD8218201
_publ_section_title
;
Structure prediction by ZEFSAII (Michael W. Deem and Ramdas Pophale) SiO2 
 PCOD8218201
Probable space group: P M N A
;
_chemical_formula_sum "Si O2"
_cell_formula_units_Z 64
_cell_length_a 8.833163
_cell_length_b 14.994797
_cell_length_c 25.030213
_cell_angle_alpha 90.000000
_cell_angle_beta 90.000000
_cell_angle_gamma 90.000000
_cell_volume 3315.288908
_symmetry_space_group_name_H-M "P M N A"
_symmetry_group_IT_number 53
_symmetry_cell_setting 'orthorhombic'
loop_
_space_group_symop_operation_xyz
x,y,z
1/2-x,-y,1/2+z
x,-y,-z
1/2-x,y,1/2-z
-x,-y,-z
1/2+x,y,1/2-z
-x,y,z
1/2+x,-y,1/2+z
loop_
_atom_site_type_symbol
_atom_site_label
_atom_site_fract_x
_atom_site_fract_y
_atom_site_fract_z
Si Si1 0.678075 0.929884 0.805163
Si Si2 0.175259 0.266560 0.497412
Si Si3 0.679382 0.379609 0.195312
Si Si4 0.321299 0.133310 0.805941
Si Si5 0.820372 0.265968 0.889186
Si Si6 0.178084 0.537333 0.143697
Si Si7 0.837147 0.572217 0.957456
Si Si8 0.820629 0.777820 0.618014
O O1 0.750000 0.897946 0.750000
O O2 0.500000 0.920336 0.799053
O O3 0.741448 0.865264 0.851536
O O4 0.723950 0.031314 0.818510
O O5 0.271557 0.244813 0.550035
O O6 0.202399 0.368145 0.480429
O O7 0.231102 0.213008 0.444169
O O8 0.000000 0.249515 0.510583
O O9 0.750000 0.341029 0.250000
O O10 0.500000 0.378550 0.199823
O O11 0.736157 0.482899 0.190226
O O12 0.736310 0.313791 0.146929
O O13 0.250000 0.164725 0.750000
O O14 0.500000 0.147407 0.802963
O O15 0.252548 0.190656 0.853153
O O16 0.762995 0.361865 0.866735
O O17 0.000000 0.261352 0.886713
O O18 0.225148 0.478392 0.093549
O O19 0.000000 0.538768 0.155427
O O20 0.000000 0.622654 0.946313
O O21 0.879951 0.500000 0.000000
O O22 0.000000 0.776142 0.619533
#
# Coordination Sequence:
#
# PCOD8218201 Si02
#       8
#     8   8   8   8   8   8   8   8
#     4   9  18  36  61  86 113 142 182 229 278 334
#     4  11  21  34  54  83 116 149 189 230 277 331
#     4  11  22  36  53  78 112 148 188 232 280 331
#     4  10  21  39  64  90 111 141 181 230 284 335
#     4  11  23  40  59  82 113 150 190 235 281 331
#     4  10  21  36  54  75 104 145 187 226 274 325
#     4  10  18  33  53  75 105 143 188 230 274 324
#     4   9  19  35  55  82 115 149 183 225 274 333
#
# _framework density 19.304501999999999
#
# number of rings (size 3 to 8) (size 9 to 14) (size 15 to 20)
#    0.000    1.875    2.500    1.875    0.000    2.250 
#    0.000    2.500    0.000    3.750    0.000    0.000 
#    0.000    0.000    0.000    0.000    0.000    0.000 
#
# Total GULP energy -793111.270497 kJ/mol
# GULP energy per Si atom -12392.363602 kJ/mol
# Density = 1.926056 g / cm^3
# Si number density = 19.304502 Si / 1000 Ang^3
#
#
#
# Elastic Constant Matrix: (Units=GPa)
#
#
# Indices 1 2 3 4 5 6 
#
# 1 52.8496 30.9143 32.0877 0.0000 0.0000 0.0000
# 2 30.9143 104.5827 66.8210 0.0000 0.0000 0.0000
# 3 32.0877 66.8210 112.4855 0.0000 0.0000 0.0000
# 4 0.0000 0.0000 0.0000 39.2677 0.0000 0.0000
# 5 0.0000 0.0000 0.0000 0.0000 34.4257 0.0000
# 6 0.0000 0.0000 0.0000 0.0000 0.0000 20.9308
#
#
#
# Elastic Compliance Matrix: (Units=1/GPa)
#
#
# Indices 1 2 3 4 5 6 
#
# 1 0.024078 -0.004398 -0.004256 0.000000 0.000000 0.000000
# 2 -0.004398 0.016215 -0.008377 0.000000 0.000000 0.000000
# 3 -0.004256 -0.008377 0.015081 0.000000 0.000000 0.000000
# 4 0.000000 0.000000 0.000000 0.025466 0.000000 0.000000
# 5 0.000000 0.000000 0.000000 0.000000 0.029048 0.000000
# 6 0.000000 0.000000 0.000000 0.000000 0.000000 0.047776
#
#
# Mechanical properties :
#
#
# Convention : Reuss Voigt Hill
#
# Bulk Modulus (GPa) = 46.92560 58.84044 52.88302
# Shear Modulus (GPa) = 25.14701 28.26449 26.70575
#
# Velocity S-wave (km/s) = 3.61314 3.83056 3.72344
# Velocity P-wave (km/s) = 6.46276 7.07888 6.77783
#
# Compressibility (1/GPa) = 0.02131033
#
# Stress axis : x y z
#
# Youngs Moduli (GPa) = 41.53111 61.67311 66.31035
#
# Poissons Ratio (x) = 0.27126 0.28221
# Poissons Ratio (y) = 0.18267 0.55551
# Poissons Ratio (z) = 0.17675 0.51666
#
# Static dielectric constant tensor:
#      x y z
#    x 3.415290 0.000000 0.000000 
#    y 0.000000 3.583370 0.000000 
#    z 0.000000 0.000000 4.593180 
# 
# 
# High freq. dielectric constant tensor:
#      x y z
#    x 1.743410 0.000000 0.000000 
#    y 0.000000 1.736030 0.000000 
#    z 0.000000 0.000000 1.760230 
# 
# From -- ./inp_files/34266.got.cif
#   From: 2010.03.12/outbox.cif.g09.slc.cpg/sg53_18_cif.got.tgz:34266.got - 2010.04.16 14:36:59.
