data_PCOD8218988
_publ_section_title
;
Structure prediction by ZEFSAII (Michael W. Deem and Ramdas Pophale) SiO2 
 PCOD8218988
Probable space group: P M N A
;
_chemical_formula_sum "Si O2"
_cell_formula_units_Z 40
_cell_length_a 16.293724
_cell_length_b 14.428962
_cell_length_c 9.039611
_cell_angle_alpha 90.000000
_cell_angle_beta 90.000000
_cell_angle_gamma 90.000000
_cell_volume 2125.226326
_symmetry_space_group_name_H-M "P M N A"
_symmetry_group_IT_number 53
_symmetry_cell_setting 'orthorhombic'
loop_
_space_group_symop_operation_xyz
x,y,z
1/2-x,-y,1/2+z
x,-y,-z
1/2-x,y,1/2-z
-x,-y,-z
1/2+x,y,1/2-z
-x,y,z
1/2+x,-y,1/2+z
loop_
_atom_site_type_symbol
_atom_site_label
_atom_site_fract_x
_atom_site_fract_y
_atom_site_fract_z
Si Si1 0.402578 0.910780 0.587566
Si Si2 0.408496 0.097561 0.076875
Si Si3 0.173807 0.766768 0.360185
Si Si4 0.593085 0.274142 0.576567
Si Si5 0.261403 0.405472 0.580870
O O1 0.500000 0.916743 0.579029
O O2 0.372714 0.913200 0.757632
O O3 0.372683 0.814800 0.513951
O O4 0.365390 0.000000 0.500000
O O5 0.500000 0.143109 0.081682
O O6 0.344749 0.155921 0.980474
O O7 0.415603 0.000000 0.000000
O O8 0.250000 0.790959 0.250000
O O9 0.096397 0.750447 0.251693
O O10 0.194568 0.674362 0.455280
O O11 0.500000 0.297857 0.531816
O O12 0.648444 0.364468 0.541636
O O13 0.242311 0.500000 0.500000
O O14 0.250000 0.431383 0.750000
#
# Coordination Sequence:
#
# PCOD8218988 Si02
#       5
#     8   8   8   8   8
#     4   9  17  29  48  77 108 136 168 207 253 300
#     4  10  19  32  54  80 106 139 175 212 252 298
#     4   9  19  35  51  73 104 137 173 209 256 310
#     4   9  17  32  54  76  99 131 172 216 257 299
#     4   9  20  36  53  72  98 132 166 206 262 316
#
# _framework density 18.821524
#
# number of rings (size 3 to 8) (size 9 to 14) (size 15 to 20)
#    0.000    3.200    0.000    1.800    0.000    5.200 
#    0.000   11.000    0.000   15.000    0.000    0.000 
#    0.000    0.000    0.000    0.000    0.000    0.200 
#
# Total GULP energy -495651.993012 kJ/mol
# GULP energy per Si atom -12391.299825 kJ/mol
# Density = 1.877869 g / cm^3
# Si number density = 18.821524 Si / 1000 Ang^3
#
#
#
# Elastic Constant Matrix: (Units=GPa)
#
#
# Indices 1 2 3 4 5 6 
#
# 1 51.4296 43.4158 32.3688 0.0000 0.0000 0.0000
# 2 43.4158 124.6786 68.9646 0.0000 0.0000 0.0000
# 3 32.3688 68.9646 102.3953 0.0000 0.0000 0.0000
# 4 0.0000 0.0000 0.0000 45.0862 0.0000 0.0000
# 5 0.0000 0.0000 0.0000 0.0000 19.9227 0.0000
# 6 0.0000 0.0000 0.0000 0.0000 0.0000 23.7950
#
#
#
# Elastic Compliance Matrix: (Units=1/GPa)
#
#
# Indices 1 2 3 4 5 6 
#
# 1 0.028389 -0.007844 -0.003691 0.000000 0.000000 0.000000
# 2 -0.007844 0.014950 -0.007589 0.000000 0.000000 0.000000
# 3 -0.003691 -0.007589 0.016045 0.000000 0.000000 0.000000
# 4 0.000000 0.000000 0.000000 0.022180 0.000000 0.000000
# 5 0.000000 0.000000 0.000000 0.000000 0.050194 0.000000
# 6 0.000000 0.000000 0.000000 0.000000 0.000000 0.042026
#
#
# Mechanical properties :
#
#
# Convention : Reuss Voigt Hill
#
# Bulk Modulus (GPa) = 47.31641 63.11132 55.21386
# Shear Modulus (GPa) = 22.82304 26.67774 24.75039
#
# Velocity S-wave (km/s) = 3.48602 3.76893 3.63023
# Velocity P-wave (km/s) = 6.43407 7.24873 6.85351
#
# Compressibility (1/GPa) = 0.02113432
#
# Stress axis : x y z
#
# Youngs Moduli (GPa) = 35.22504 66.88935 62.32644
#
# Poissons Ratio (x) = 0.52467 0.23006
# Poissons Ratio (y) = 0.27630 0.47303
# Poissons Ratio (z) = 0.13002 0.50766
#
# Static dielectric constant tensor:
#      x y z
#    x 3.337280 0.000000 0.000000 
#    y 0.000000 3.446050 0.000000 
#    z 0.000000 0.000000 3.489040 
# 
# 
# High freq. dielectric constant tensor:
#      x y z
#    x 1.714740 0.000000 0.000000 
#    y 0.000000 1.721170 0.000000 
#    z 0.000000 0.000000 1.729310 
# 
# From -- ./inp_files/9793.got.cif
#   From: 2010.03.12/outbox.cif.g09.slc.cpg/sg53_5_cif.got.tgz:9793.got - 2010.04.16 14:36:59.
