data_PCOD8218297
_publ_section_title
;
Structure prediction by ZEFSAII (Michael W. Deem and Ramdas Pophale) SiO2 
 PCOD8218297
Probable space group: P M N A
;
_chemical_formula_sum "Si O2"
_cell_formula_units_Z 48
_cell_length_a 8.798184
_cell_length_b 15.147412
_cell_length_c 18.942839
_cell_angle_alpha 90.000000
_cell_angle_beta 90.000000
_cell_angle_gamma 90.000000
_cell_volume 2524.506810
_symmetry_space_group_name_H-M "P M N A"
_symmetry_group_IT_number 53
_symmetry_cell_setting 'orthorhombic'
loop_
_space_group_symop_operation_xyz
x,y,z
1/2-x,-y,1/2+z
x,-y,-z
1/2-x,y,1/2-z
-x,-y,-z
1/2+x,y,1/2-z
-x,y,z
1/2+x,-y,1/2+z
loop_
_atom_site_type_symbol
_atom_site_label
_atom_site_fract_x
_atom_site_fract_y
_atom_site_fract_z
Si Si1 0.819471 0.128252 0.673350
Si Si2 0.173886 0.521249 0.418214
Si Si3 0.180491 0.772204 0.582896
Si Si4 0.680144 0.971644 0.924184
Si Si5 0.679834 0.280788 0.929017
Si Si6 0.178464 0.624260 0.825338
O O1 0.750000 0.134678 0.750000
O O2 0.757486 0.210763 0.627606
O O3 0.000000 0.130548 0.679026
O O4 0.761628 0.038464 0.636057
O O5 0.188678 0.500000 0.500000
O O6 0.228662 0.621509 0.404797
O O7 0.283842 0.457904 0.375365
O O8 0.000000 0.506967 0.393235
O O9 0.231871 0.873059 0.595545
O O10 0.244001 0.740806 0.506865
O O11 0.255778 0.714915 0.643972
O O12 0.000000 0.760507 0.587416
O O13 0.500000 0.976824 0.929664
O O14 0.749110 0.000000 0.000000
O O15 0.500000 0.272979 0.934013
O O16 0.250000 0.604833 0.750000
O O17 0.000000 0.633824 0.817519
#
# Coordination Sequence:
#
# PCOD8218297 Si02
#       6
#     8   8   8   8   8   8
#     4  10  20  35  54  83 118 151 187 232 283 337
#     4  10  19  36  63  90 115 149 190 235 288 348
#     4  10  18  35  62  89 113 148 195 241 286 341
#     4   9  16  30  59  89 111 145 196 239 275 335
#     4   9  17  32  59  87 113 147 191 231 278 344
#     4  12  26  42  59  84 119 155 193 243 296 346
#
# _framework density 19.013614
#
# number of rings (size 3 to 8) (size 9 to 14) (size 15 to 20)
#    0.000    2.000    3.333    1.500    0.000    1.667 
#    0.000    5.833    0.000    1.000    0.000    0.000 
#    0.000    0.000    0.000    0.000    0.000    0.000 
#
# Total GULP energy -595239.584493 kJ/mol
# GULP energy per Si atom -12400.824677 kJ/mol
# Density = 1.897034 g / cm^3
# Si number density = 19.013614 Si / 1000 Ang^3
#
#
#
# Elastic Constant Matrix: (Units=GPa)
#
#
# Indices 1 2 3 4 5 6 
#
# 1 50.4123 33.0386 24.6840 0.0000 0.0000 0.0000
# 2 33.0386 159.2948 46.0645 0.0000 0.0000 0.0000
# 3 24.6840 46.0645 85.4334 0.0000 0.0000 0.0000
# 4 0.0000 0.0000 0.0000 31.5071 0.0000 0.0000
# 5 0.0000 0.0000 0.0000 0.0000 29.8473 0.0000
# 6 0.0000 0.0000 0.0000 0.0000 0.0000 19.0013
#
#
#
# Elastic Compliance Matrix: (Units=1/GPa)
#
#
# Indices 1 2 3 4 5 6 
#
# 1 0.024761 -0.003633 -0.005195 0.000000 0.000000 0.000000
# 2 -0.003633 0.007970 -0.003248 0.000000 0.000000 0.000000
# 3 -0.005195 -0.003248 0.014957 0.000000 0.000000 0.000000
# 4 0.000000 0.000000 0.000000 0.031739 0.000000 0.000000
# 5 0.000000 0.000000 0.000000 0.000000 0.033504 0.000000
# 6 0.000000 0.000000 0.000000 0.000000 0.000000 0.052628
#
#
# Mechanical properties :
#
#
# Convention : Reuss Voigt Hill
#
# Bulk Modulus (GPa) = 42.48733 55.85721 49.17227
# Shear Modulus (GPa) = 25.30903 28.82802 27.06852
#
# Velocity S-wave (km/s) = 3.65238 3.89804 3.77721
# Velocity P-wave (km/s) = 6.33883 7.04988 6.70379
#
# Compressibility (1/GPa) = 0.02353643
#
# Stress axis : x y z
#
# Youngs Moduli (GPa) = 40.38548 125.46381 66.85732
#
# Poissons Ratio (x) = 0.45585 0.34734
# Poissons Ratio (y) = 0.14673 0.21714
# Poissons Ratio (z) = 0.20981 0.40748
#
# Static dielectric constant tensor:
#      x y z
#    x 3.043230 0.000000 0.000000 
#    y 0.000000 3.899190 0.000000 
#    z 0.000000 0.000000 3.539610 
# 
# 
# High freq. dielectric constant tensor:
#      x y z
#    x 1.693810 0.000000 0.000000 
#    y 0.000000 1.760270 0.000000 
#    z 0.000000 0.000000 1.740530 
# 
# From -- ./inp_files/26192.got.cif
#   From: 2010.03.12/outbox.cif.g09.slc.cpg/sg53_14_cif.got.tgz:26192.got - 2010.04.16 14:36:59.
