data_PCOD8218728
_publ_section_title
;
Structure prediction by ZEFSAII (Michael W. Deem and Ramdas Pophale) SiO2 
 PCOD8218728
Probable space group: P M N A
;
_chemical_formula_sum "Si O2"
_cell_formula_units_Z 48
_cell_length_a 9.265539
_cell_length_b 16.920107
_cell_length_c 15.410447
_cell_angle_alpha 90.000000
_cell_angle_beta 90.000000
_cell_angle_gamma 90.000000
_cell_volume 2415.956051
_symmetry_space_group_name_H-M "P M N A"
_symmetry_group_IT_number 53
_symmetry_cell_setting 'orthorhombic'
loop_
_space_group_symop_operation_xyz
x,y,z
1/2-x,-y,1/2+z
x,-y,-z
1/2-x,y,1/2-z
-x,-y,-z
1/2+x,y,1/2-z
-x,y,z
1/2+x,-y,1/2+z
loop_
_atom_site_type_symbol
_atom_site_label
_atom_site_fract_x
_atom_site_fract_y
_atom_site_fract_z
Si Si1 0.666378 0.842380 0.914799
Si Si2 0.168046 0.674658 0.662844
Si Si3 0.332522 0.839895 0.408428
Si Si4 0.659971 0.009948 0.396908
Si Si5 0.333683 0.324450 0.666620
Si Si6 0.166449 0.407138 0.008513
O O1 0.500000 0.859677 0.933340
O O2 0.689421 0.767969 0.852372
O O3 0.733165 0.920060 0.867840
O O4 0.741732 0.823407 0.005507
O O5 0.250000 0.649978 0.750000
O O6 0.234090 0.624082 0.585154
O O7 0.000000 0.653007 0.671616
O O8 0.500000 0.842993 0.437468
O O9 0.290304 0.923333 0.361783
O O10 0.304418 0.769312 0.341469
O O11 0.500000 0.031755 0.363128
O O12 0.661392 0.000000 0.500000
O O13 0.250000 0.357428 0.750000
O O14 0.500000 0.344098 0.681753
O O15 0.277754 0.368094 0.580593
O O16 0.000000 0.383255 0.026496
O O17 0.185124 0.500000 0.000000
#
# Coordination Sequence:
#
# PCOD8218728 Si02
#       6
#     8   8   8   8   8   8
#     4  10  19  31  51  81 113 147 192 242 290 335
#     4  11  24  40  61  89 120 157 198 242 292 349
#     4   9  17  32  53  77 108 152 196 235 285 343
#     4   8  15  27  47  75 107 147 193 234 283 342
#     4  10  21  37  59  86 118 153 190 235 284 343
#     4  10  22  42  67  92 118 151 191 237 294 355
#
# _framework density 19.867912
#
# number of rings (size 3 to 8) (size 9 to 14) (size 15 to 20)
#    0.000    2.333    1.667    2.000    0.000    7.333 
#    0.000    2.500    0.000    4.000    0.000    0.000 
#    0.000    0.000    0.000    0.000    0.000    0.000 
#
# Total GULP energy -595146.548315 kJ/mol
# GULP energy per Si atom -12398.886423 kJ/mol
# Density = 1.982269 g / cm^3
# Si number density = 19.867912 Si / 1000 Ang^3
#
#
#
# Elastic Constant Matrix: (Units=GPa)
#
#
# Indices 1 2 3 4 5 6 
#
# 1 108.0281 45.5926 66.0794 0.0000 0.0000 0.0000
# 2 45.5926 98.0658 42.5947 0.0000 0.0000 0.0000
# 3 66.0794 42.5947 118.0275 0.0000 0.0000 0.0000
# 4 0.0000 0.0000 0.0000 6.6401 0.0000 0.0000
# 5 0.0000 0.0000 0.0000 0.0000 27.6184 0.0000
# 6 0.0000 0.0000 0.0000 0.0000 0.0000 27.8605
#
#
#
# Elastic Compliance Matrix: (Units=1/GPa)
#
#
# Indices 1 2 3 4 5 6 
#
# 1 0.015311 -0.004026 -0.007119 0.000000 0.000000 0.000000
# 2 -0.004026 0.013152 -0.002492 0.000000 0.000000 0.000000
# 3 -0.007119 -0.002492 0.013358 0.000000 0.000000 0.000000
# 4 0.000000 0.000000 0.000000 0.150601 0.000000 0.000000
# 5 0.000000 0.000000 0.000000 0.000000 0.036208 0.000000
# 6 0.000000 0.000000 0.000000 0.000000 0.000000 0.035893
#
#
# Mechanical properties :
#
#
# Convention : Reuss Voigt Hill
#
# Bulk Modulus (GPa) = 68.75014 70.29497 69.52256
# Shear Modulus (GPa) = 16.85519 23.74743 20.30131
#
# Velocity S-wave (km/s) = 2.91583 3.46101 3.20005
# Velocity P-wave (km/s) = 6.78342 7.17143 6.98012
#
# Compressibility (1/GPa) = 0.01454542
#
# Stress axis : x y z
#
# Youngs Moduli (GPa) = 65.31443 76.03693 74.86384
#
# Poissons Ratio (x) = 0.30613 0.53295
# Poissons Ratio (y) = 0.26296 0.18657
# Poissons Ratio (z) = 0.46496 0.18950
#
# Static dielectric constant tensor:
#      x y z
#    x 3.619960 0.000000 0.000000 
#    y 0.000000 3.930970 0.000000 
#    z 0.000000 0.000000 3.251120 
# 
# 
# High freq. dielectric constant tensor:
#      x y z
#    x 1.770720 0.000000 0.000000 
#    y 0.000000 1.785300 0.000000 
#    z 0.000000 0.000000 1.749470 
# 
# From -- ./inp_files/20162.got.cif
#   From: 2010.03.12/outbox.cif.g09.slc.cpg/sg53_11_cif.got.tgz:20162.got - 2010.04.16 14:36:59.
