data_PCOD8218256
_publ_section_title
;
Structure prediction by ZEFSAII (Michael W. Deem and Ramdas Pophale) SiO2 
 PCOD8218256
Probable space group: P M N A
;
_chemical_formula_sum "Si O2"
_cell_formula_units_Z 64
_cell_length_a 17.016798
_cell_length_b 21.834326
_cell_length_c 9.372562
_cell_angle_alpha 90.000000
_cell_angle_beta 90.000000
_cell_angle_gamma 90.000000
_cell_volume 3482.378364
_symmetry_space_group_name_H-M "P M N A"
_symmetry_group_IT_number 53
_symmetry_cell_setting 'orthorhombic'
loop_
_space_group_symop_operation_xyz
x,y,z
1/2-x,-y,1/2+z
x,-y,-z
1/2-x,y,1/2-z
-x,-y,-z
1/2+x,y,1/2-z
-x,y,z
1/2+x,-y,1/2+z
loop_
_atom_site_type_symbol
_atom_site_label
_atom_site_fract_x
_atom_site_fract_y
_atom_site_fract_z
Si Si1 0.169731 0.253781 0.950273
Si Si2 0.091753 0.208964 0.468596
Si Si3 0.174476 0.321581 0.583145
Si Si4 0.158030 0.851592 0.256972
Si Si5 0.909637 0.636608 0.130093
Si Si6 0.092094 0.931379 0.027127
Si Si7 0.265808 0.561297 0.415310
Si Si8 0.831680 0.838044 0.809254
O O1 0.248054 0.282198 0.878768
O O2 0.133305 0.206490 0.837781
O O3 0.103633 0.306137 0.977147
O O4 0.189732 0.222557 0.100209
O O5 0.123295 0.279376 0.476470
O O6 0.132019 0.162827 0.582140
O O7 0.108022 0.180644 0.314216
O O8 0.000000 0.210080 0.498920
O O9 0.121708 0.337787 0.719122
O O10 0.207603 0.386083 0.519946
O O11 0.250000 0.865050 0.250000
O O12 0.114941 0.910606 0.188064
O O13 0.857661 0.580076 0.072110
O O14 0.000000 0.615939 0.138150
O O15 0.000000 0.926581 0.006648
O O16 0.131288 0.889250 0.908167
O O17 0.122346 0.000000 0.000000
O O18 0.248334 0.500000 0.500000
O O19 0.250000 0.549738 0.250000
O O20 0.750000 0.864398 0.750000
#
# Coordination Sequence:
#
# PCOD8218256 Si02
#       8
#     8   8   8   8   8   8   8   8
#     4  10  18  34  55  79 113 146 185 221 278 345
#     4  12  22  33  55  90 119 140 180 238 298 344
#     4  10  18  34  56  83 111 145 185 228 281 335
#     4  11  19  35  61  85 111 147 189 232 275 340
#     4  10  19  31  56  87 115 144 185 238 287 335
#     4  10  23  42  59  79 113 156 197 234 280 338
#     4   9  20  38  58  78 106 150 201 236 272 337
#     4  11  22  38  57  81 117 153 183 232 290 339
#
# _framework density 18.378243999999999
#
# number of rings (size 3 to 8) (size 9 to 14) (size 15 to 20)
#    0.000    1.625    3.750    3.000    0.000    3.250 
#    4.500    0.625    0.000   11.625    0.000    0.000 
#    0.000    0.000    0.000    0.000    0.000    0.000 
#
# Total GULP energy -793273.746739 kJ/mol
# GULP energy per Si atom -12394.902293 kJ/mol
# Density = 1.833641 g / cm^3
# Si number density = 18.378244 Si / 1000 Ang^3
#
#
#
# Elastic Constant Matrix: (Units=GPa)
#
#
# Indices 1 2 3 4 5 6 
#
# 1 112.0620 43.7197 21.5807 0.0000 0.0000 0.0000
# 2 43.7197 123.4855 43.9710 0.0000 0.0000 0.0000
# 3 21.5807 43.9710 80.1259 0.0000 0.0000 0.0000
# 4 0.0000 0.0000 0.0000 23.4386 0.0000 0.0000
# 5 0.0000 0.0000 0.0000 0.0000 23.4315 0.0000
# 6 0.0000 0.0000 0.0000 0.0000 0.0000 19.4512
#
#
#
# Elastic Compliance Matrix: (Units=1/GPa)
#
#
# Indices 1 2 3 4 5 6 
#
# 1 0.010414 -0.003341 -0.000971 0.000000 0.000000 0.000000
# 2 -0.003341 0.011137 -0.005212 0.000000 0.000000 0.000000
# 3 -0.000971 -0.005212 0.015602 0.000000 0.000000 0.000000
# 4 0.000000 0.000000 0.000000 0.042665 0.000000 0.000000
# 5 0.000000 0.000000 0.000000 0.000000 0.042678 0.000000
# 6 0.000000 0.000000 0.000000 0.000000 0.000000 0.051411
#
#
# Mechanical properties :
#
#
# Convention : Reuss Voigt Hill
#
# Bulk Modulus (GPa) = 55.23472 59.35734 57.29603
# Shear Modulus (GPa) = 25.12696 27.02441 26.07568
#
# Velocity S-wave (km/s) = 3.70159 3.83881 3.77083
# Velocity P-wave (km/s) = 6.95620 7.21224 7.08538
#
# Compressibility (1/GPa) = 0.01810455
#
# Stress axis : x y z
#
# Youngs Moduli (GPa) = 96.02237 89.79185 64.09434
#
# Poissons Ratio (x) = 0.30002 0.06226
# Poissons Ratio (y) = 0.32084 0.33404
# Poissons Ratio (z) = 0.09327 0.46797
#
# Static dielectric constant tensor:
#      x y z
#    x 3.444970 0.000000 0.000000 
#    y 0.000000 3.500010 0.000000 
#    z 0.000000 0.000000 3.340550 
# 
# 
# High freq. dielectric constant tensor:
#      x y z
#    x 1.715520 0.000000 0.000000 
#    y 0.000000 1.703180 0.000000 
#    z 0.000000 0.000000 1.698460 
# 
# From -- ./inp_files/10206.got.cif
#   From: 2010.03.12/outbox.cif.g09.slc.cpg/sg53_6_cif.got.tgz:10206.got - 2010.04.16 14:36:59.
