data_PCOD8218240
_publ_section_title
;
Structure prediction by ZEFSAII (Michael W. Deem and Ramdas Pophale) SiO2 
 PCOD8218240
Probable space group: P M N A
;
_chemical_formula_sum "Si O2"
_cell_formula_units_Z 64
_cell_length_a 13.062879
_cell_length_b 12.934247
_cell_length_c 17.311866
_cell_angle_alpha 90.000000
_cell_angle_beta 90.000000
_cell_angle_gamma 90.000000
_cell_volume 2924.986972
_symmetry_space_group_name_H-M "P M N A"
_symmetry_group_IT_number 53
_symmetry_cell_setting 'orthorhombic'
loop_
_space_group_symop_operation_xyz
x,y,z
1/2-x,-y,1/2+z
x,-y,-z
1/2-x,y,1/2-z
-x,-y,-z
1/2+x,y,1/2-z
-x,y,z
1/2+x,-y,1/2+z
loop_
_atom_site_type_symbol
_atom_site_label
_atom_site_fract_x
_atom_site_fract_y
_atom_site_fract_z
Si Si1 0.116752 0.268036 0.308977
Si Si2 0.882018 0.862184 0.283631
Si Si3 0.179404 0.337270 0.143610
Si Si4 0.615077 0.636287 0.200643
Si Si5 0.118934 0.269101 0.981435
Si Si6 0.211861 0.056767 0.335544
Si Si7 0.620774 0.928460 0.383040
Si Si8 0.816937 0.569571 0.139266
O O1 0.128776 0.275382 0.215606
O O2 0.197614 0.348430 0.345047
O O3 0.145305 0.159126 0.351215
O O4 0.000000 0.295882 0.330895
O O5 0.846846 0.752851 0.319208
O O6 0.833326 0.884410 0.198709
O O7 0.000000 0.850619 0.264414
O O8 0.861781 0.956278 0.342072
O O9 0.137914 0.453542 0.131198
O O10 0.153517 0.267756 0.069889
O O11 0.500000 0.612783 0.170934
O O12 0.696030 0.560546 0.160284
O O13 0.618411 0.624570 0.293360
O O14 0.146066 0.156441 0.947396
O O15 0.173690 0.364633 0.938604
O O16 0.000000 0.290429 0.972888
O O17 0.250000 0.077748 0.250000
O O18 0.309594 0.033041 0.393310
O O19 0.500000 0.958470 0.382234
#
# Coordination Sequence:
#
# PCOD8218240 Si02
#       8
#     8   8   8   8   8   8   8   8
#     4  11  23  44  65  85 116 158 208 256 296 350
#     4   9  16  27  49  85 119 147 184 231 293 351
#     4  11  25  42  58  90 117 159 209 253 299 351
#     4  10  19  32  55  89 125 158 198 253 308 357
#     4  11  22  40  64  91 125 160 193 243 309 369
#     4  10  18  33  59  87 117 150 192 234 288 351
#     4   9  18  32  55  89 123 150 182 233 298 362
#     4  11  22  35  58  86 124 160 207 249 298 360
#
# _framework density 21.880438000000002
#
# number of rings (size 3 to 8) (size 9 to 14) (size 15 to 20)
#    0.000    1.750    2.500    3.750    3.500    4.500 
#    0.000    1.250    0.000    5.250    0.000    0.000 
#    0.000    0.000    0.000    0.000    0.000    0.000 
#
# Total GULP energy -793077.558202 kJ/mol
# GULP energy per Si atom -12391.836847 kJ/mol
# Density = 2.183064 g / cm^3
# Si number density = 21.880438 Si / 1000 Ang^3
#
#
#
# Elastic Constant Matrix: (Units=GPa)
#
#
# Indices 1 2 3 4 5 6 
#
# 1 83.9532 17.4421 0.9087 0.0000 0.0000 0.0000
# 2 17.4421 93.0263 16.8741 0.0000 0.0000 0.0000
# 3 0.9087 16.8741 54.2381 0.0000 0.0000 0.0000
# 4 0.0000 0.0000 0.0000 18.2969 0.0000 0.0000
# 5 0.0000 0.0000 0.0000 0.0000 15.7262 0.0000
# 6 0.0000 0.0000 0.0000 0.0000 0.0000 22.2635
#
#
#
# Elastic Compliance Matrix: (Units=1/GPa)
#
#
# Indices 1 2 3 4 5 6 
#
# 1 0.012409 -0.002426 0.000547 0.000000 0.000000 0.000000
# 2 -0.002426 0.011867 -0.003651 0.000000 0.000000 0.000000
# 3 0.000547 -0.003651 0.019564 0.000000 0.000000 0.000000
# 4 0.000000 0.000000 0.000000 0.054654 0.000000 0.000000
# 5 0.000000 0.000000 0.000000 0.000000 0.063588 0.000000
# 6 0.000000 0.000000 0.000000 0.000000 0.000000 0.044916
#
#
# Mechanical properties :
#
#
# Convention : Reuss Voigt Hill
#
# Bulk Modulus (GPa) = 30.50677 33.51858 32.01268
# Shear Modulus (GPa) = 21.83540 24.32352 23.07946
#
# Velocity S-wave (km/s) = 3.16245 3.33777 3.25129
# Velocity P-wave (km/s) = 5.22566 5.49604 5.36256
#
# Compressibility (1/GPa) = 0.03277961
#
# Stress axis : x y z
#
# Youngs Moduli (GPa) = 80.58350 84.26870 51.11426
#
# Poissons Ratio (x) = 0.20443 -0.02795
# Poissons Ratio (y) = 0.19549 0.18663
# Poissons Ratio (z) = -0.04406 0.30769
#
# Static dielectric constant tensor:
#      x y z
#    x 4.024820 0.000000 0.000000 
#    y 0.000000 4.085750 0.000000 
#    z 0.000000 0.000000 3.556680 
# 
# 
# High freq. dielectric constant tensor:
#      x y z
#    x 1.866360 0.000000 0.000000 
#    y 0.000000 1.869680 0.000000 
#    z 0.000000 0.000000 1.807410 
# 
# From -- ./inp_files/28522.got.cif
#   From: 2010.03.12/outbox.cif.g09.slc.cpg/sg53_15_cif.got.tgz:28522.got - 2010.04.16 14:36:59.
