data_PCOD8218686
_publ_section_title
;
Structure prediction by ZEFSAII (Michael W. Deem and Ramdas Pophale) SiO2 
 PCOD8218686
Probable space group: P M N A
;
_chemical_formula_sum "Si O2"
_cell_formula_units_Z 40
_cell_length_a 9.046930
_cell_length_b 9.549342
_cell_length_c 28.098162
_cell_angle_alpha 90.000000
_cell_angle_beta 90.000000
_cell_angle_gamma 90.000000
_cell_volume 2427.462835
_symmetry_space_group_name_H-M "P M N A"
_symmetry_group_IT_number 53
_symmetry_cell_setting 'orthorhombic'
loop_
_space_group_symop_operation_xyz
x,y,z
1/2-x,-y,1/2+z
x,-y,-z
1/2-x,y,1/2-z
-x,-y,-z
1/2+x,y,1/2-z
-x,y,z
1/2+x,-y,1/2+z
loop_
_atom_site_type_symbol
_atom_site_label
_atom_site_fract_x
_atom_site_fract_y
_atom_site_fract_z
Si Si1 0.826509 0.596834 0.458582
Si Si2 0.325977 0.089547 0.953749
Si Si3 0.667035 0.262883 0.298174
Si Si4 0.826684 0.614324 0.620810
Si Si5 0.332319 0.881215 0.609125
O O1 0.755271 0.500000 0.500000
O O2 0.761468 0.753710 0.459817
O O3 0.792574 0.528797 0.407149
O O4 0.000000 0.606964 0.468186
O O5 0.500000 0.090025 0.943905
O O6 0.245962 0.022407 0.908136
O O7 0.283993 0.000000 0.000000
O O8 0.750000 0.224601 0.250000
O O9 0.500000 0.309732 0.286691
O O10 0.749228 0.389710 0.326907
O O11 0.669708 0.125945 0.332793
O O12 0.758934 0.744826 0.590270
O O13 0.000000 0.639890 0.626914
O O14 0.500000 0.874605 0.589899
#
# Coordination Sequence:
#
# PCOD8218686 Si02
#       5
#     8   8   8   8   8
#     4   9  17  29  47  73 101 130 169 210 246 293
#     4  10  19  31  50  73  98 133 173 208 248 299
#     4   9  18  31  51  77 102 127 165 209 251 299
#     4   9  16  29  50  72  99 130 164 206 248 291
#     4   9  19  32  47  71 101 128 164 206 247 298
#
# _framework density 16.478110999999998
#
# number of rings (size 3 to 8) (size 9 to 14) (size 15 to 20)
#    1.200    1.600    0.000    2.400    0.000    3.600 
#    0.000    2.000    0.000    5.400    0.000    2.800 
#    0.000    0.000    0.000    0.000    0.000    0.000 
#
# Total GULP energy -495575.885676 kJ/mol
# GULP energy per Si atom -12389.397142 kJ/mol
# Density = 1.644061 g / cm^3
# Si number density = 16.478111 Si / 1000 Ang^3
#
#
#
# Elastic Constant Matrix: (Units=GPa)
#
#
# Indices 1 2 3 4 5 6 
#
# 1 89.4325 40.9269 46.3375 0.0000 0.0000 0.0000
# 2 40.9269 125.1977 51.3688 0.0000 0.0000 0.0000
# 3 46.3375 51.3688 90.1630 0.0000 0.0000 0.0000
# 4 0.0000 0.0000 0.0000 21.1787 0.0000 0.0000
# 5 0.0000 0.0000 0.0000 0.0000 23.9454 0.0000
# 6 0.0000 0.0000 0.0000 0.0000 0.0000 12.4338
#
#
#
# Elastic Compliance Matrix: (Units=1/GPa)
#
#
# Indices 1 2 3 4 5 6 
#
# 1 0.015768 -0.002388 -0.006743 0.000000 0.000000 0.000000
# 2 -0.002388 0.010786 -0.004918 0.000000 0.000000 0.000000
# 3 -0.006743 -0.004918 0.017359 0.000000 0.000000 0.000000
# 4 0.000000 0.000000 0.000000 0.047217 0.000000 0.000000
# 5 0.000000 0.000000 0.000000 0.000000 0.041762 0.000000
# 6 0.000000 0.000000 0.000000 0.000000 0.000000 0.080426
#
#
# Mechanical properties :
#
#
# Convention : Reuss Voigt Hill
#
# Bulk Modulus (GPa) = 63.23316 64.67330 63.95323
# Shear Modulus (GPa) = 20.26860 22.58892 21.42876
#
# Velocity S-wave (km/s) = 3.51099 3.70651 3.61007
# Velocity P-wave (km/s) = 7.40901 7.59281 7.50147
#
# Compressibility (1/GPa) = 0.01581449
#
# Stress axis : x y z
#
# Youngs Moduli (GPa) = 63.41845 92.71521 57.60865
#
# Poissons Ratio (x) = 0.22139 0.38848
# Poissons Ratio (y) = 0.15143 0.28331
# Poissons Ratio (z) = 0.42766 0.45596
#
# Static dielectric constant tensor:
#      x y z
#    x 2.998050 0.000000 0.000000 
#    y 0.000000 3.000790 0.000000 
#    z 0.000000 0.000000 2.937960 
# 
# 
# High freq. dielectric constant tensor:
#      x y z
#    x 1.629820 0.000000 0.000000 
#    y 0.000000 1.609370 0.000000 
#    z 0.000000 0.000000 1.621350 
# 
# From -- ./inp_files/37530.got.cif
#   From: 2010.03.12/outbox.cif.g09.slc.cpg/sg53_19_cif.got.tgz:37530.got - 2010.04.16 14:36:59.
