data_PCOD8218516
_publ_section_title
;
Structure prediction by ZEFSAII (Michael W. Deem and Ramdas Pophale) SiO2 
 PCOD8218516
Probable space group: P M N A
;
_chemical_formula_sum "Si O2"
_cell_formula_units_Z 64
_cell_length_a 8.972258
_cell_length_b 21.306138
_cell_length_c 18.734376
_cell_angle_alpha 90.000000
_cell_angle_beta 90.000000
_cell_angle_gamma 90.000000
_cell_volume 3581.341385
_symmetry_space_group_name_H-M "P M N A"
_symmetry_group_IT_number 53
_symmetry_cell_setting 'orthorhombic'
loop_
_space_group_symop_operation_xyz
x,y,z
1/2-x,-y,1/2+z
x,-y,-z
1/2-x,y,1/2-z
-x,-y,-z
1/2+x,y,1/2-z
-x,y,z
1/2+x,-y,1/2+z
loop_
_atom_site_type_symbol
_atom_site_label
_atom_site_fract_x
_atom_site_fract_y
_atom_site_fract_z
Si Si1 0.167259 0.765334 0.132941
Si Si2 0.174634 0.695994 0.572839
Si Si3 0.325185 0.068451 0.974005
Si Si4 0.166948 0.185765 0.026800
Si Si5 0.826882 0.479752 0.921879
Si Si6 0.825890 0.648237 0.415436
Si Si7 0.825625 0.400892 0.174413
Si Si8 0.675439 0.114587 0.819644
O O1 0.243856 0.697222 0.136873
O O2 0.264904 0.814218 0.177682
O O3 0.000000 0.761872 0.164451
O O4 0.163403 0.787111 0.051961
O O5 0.236948 0.767005 0.575368
O O6 0.211634 0.662858 0.497791
O O7 0.255519 0.658314 0.634871
O O8 0.000000 0.698040 0.588043
O O9 0.500000 0.080359 0.982806
O O10 0.278214 0.076721 0.891044
O O11 0.242548 0.117453 0.025574
O O12 0.276631 0.000000 0.000000
O O13 0.000000 0.179842 0.057995
O O14 0.732194 0.420526 0.895629
O O15 0.792456 0.535965 0.868598
O O16 0.000000 0.460751 0.923470
O O17 0.771936 0.500000 0.000000
O O18 0.000000 0.653046 0.400105
O O19 0.750000 0.409167 0.250000
O O20 0.000000 0.388605 0.183223
O O21 0.750000 0.081831 0.750000
O O22 0.500000 0.115527 0.809437
#
# Coordination Sequence:
#
# PCOD8218516 Si02
#       8
#     8   8   8   8   8   8   8   8
#     4   9  17  30  48  71 101 133 167 208 255 305
#     4  10  19  32  52  77 103 132 168 212 262 313
#     4   9  18  33  53  78 109 144 181 221 263 309
#     4   9  17  29  49  77 105 132 166 211 258 302
#     4  10  20  35  54  75 101 135 177 222 268 321
#     4  10  19  30  50  78 104 129 167 218 263 309
#     4  11  23  38  55  75 103 136 172 218 272 328
#     4  10  19  32  51  75 105 139 177 217 261 314
#
# _framework density 17.870398999999999
#
# number of rings (size 3 to 8) (size 9 to 14) (size 15 to 20)
#    0.000    2.250    1.250    2.250    0.000    6.000 
#    0.000    0.625    0.000    2.250    0.000    3.500 
#    0.000    0.000    0.000    0.000    0.000    0.000 
#
# Total GULP energy -793697.963586 kJ/mol
# GULP energy per Si atom -12401.530681 kJ/mol
# Density = 1.782972 g / cm^3
# Si number density = 17.870399 Si / 1000 Ang^3
#
#
#
# Elastic Constant Matrix: (Units=GPa)
#
#
# Indices 1 2 3 4 5 6 
#
# 1 100.3508 61.8789 47.0776 0.0000 0.0000 0.0000
# 2 61.8789 134.4497 47.3894 0.0000 0.0000 0.0000
# 3 47.0776 47.3894 82.0138 0.0000 0.0000 0.0000
# 4 0.0000 0.0000 0.0000 17.8153 0.0000 0.0000
# 5 0.0000 0.0000 0.0000 0.0000 27.1622 0.0000
# 6 0.0000 0.0000 0.0000 0.0000 0.0000 30.3463
#
#
#
# Elastic Compliance Matrix: (Units=1/GPa)
#
#
# Indices 1 2 3 4 5 6 
#
# 1 0.016104 -0.005216 -0.006230 0.000000 0.000000 0.000000
# 2 -0.005216 0.011029 -0.003379 0.000000 0.000000 0.000000
# 3 -0.006230 -0.003379 0.017722 0.000000 0.000000 0.000000
# 4 0.000000 0.000000 0.000000 0.056131 0.000000 0.000000
# 5 0.000000 0.000000 0.000000 0.000000 0.036816 0.000000
# 6 0.000000 0.000000 0.000000 0.000000 0.000000 0.032953
#
#
# Mechanical properties :
#
#
# Convention : Reuss Voigt Hill
#
# Bulk Modulus (GPa) = 65.76747 69.94512 67.85629
# Shear Modulus (GPa) = 24.33403 25.76265 25.04834
#
# Velocity S-wave (km/s) = 3.69412 3.80101 3.74795
# Velocity P-wave (km/s) = 7.42144 7.64779 7.53546
#
# Compressibility (1/GPa) = 0.01520509
#
# Stress axis : x y z
#
# Youngs Moduli (GPa) = 62.09639 90.66852 56.42757
#
# Poissons Ratio (x) = 0.47290 0.35156
# Poissons Ratio (y) = 0.32388 0.19067
# Poissons Ratio (z) = 0.38688 0.30637
#
# Static dielectric constant tensor:
#      x y z
#    x 3.426370 0.000000 0.000000 
#    y 0.000000 3.295400 0.000000 
#    z 0.000000 0.000000 3.117060 
# 
# 
# High freq. dielectric constant tensor:
#      x y z
#    x 1.704890 0.000000 0.000000 
#    y 0.000000 1.685590 0.000000 
#    z 0.000000 0.000000 1.662900 
# 
# From -- ./inp_files/26778.got.cif
#   From: 2010.03.12/outbox.cif.g09.slc.cpg/sg53_14_cif.got.tgz:26778.got - 2010.04.16 14:36:59.
