data_PCOD8218426
_publ_section_title
;
Structure prediction by ZEFSAII (Michael W. Deem and Ramdas Pophale) SiO2 
 PCOD8218426
Probable space group: P M N A
;
_chemical_formula_sum "Si O2"
_cell_formula_units_Z 64
_cell_length_a 8.703864
_cell_length_b 14.476758
_cell_length_c 27.928930
_cell_angle_alpha 90.000000
_cell_angle_beta 90.000000
_cell_angle_gamma 90.000000
_cell_volume 3519.149433
_symmetry_space_group_name_H-M "P M N A"
_symmetry_group_IT_number 53
_symmetry_cell_setting 'orthorhombic'
loop_
_space_group_symop_operation_xyz
x,y,z
1/2-x,-y,1/2+z
x,-y,-z
1/2-x,y,1/2-z
-x,-y,-z
1/2+x,y,1/2-z
-x,y,z
1/2+x,-y,1/2+z
loop_
_atom_site_type_symbol
_atom_site_label
_atom_site_fract_x
_atom_site_fract_y
_atom_site_fract_z
Si Si1 0.668241 0.521879 0.055009
Si Si2 0.817649 0.972748 0.946591
Si Si3 0.318231 0.232854 0.433159
Si Si4 0.823671 0.601213 0.875318
Si Si5 0.177566 0.278535 0.530965
Si Si6 0.318759 0.865867 0.108952
Si Si7 0.315938 0.545556 0.301488
Si Si8 0.683238 0.258122 0.802215
O O1 0.500000 0.498429 0.077691
O O2 0.803011 0.462889 0.078320
O O3 0.705030 0.629580 0.061871
O O4 0.662105 0.500000 0.000000
O O5 0.759676 0.036468 0.902874
O O6 0.000000 0.974857 0.947526
O O7 0.753027 0.871242 0.932539
O O8 0.755259 0.000000 0.000000
O O9 0.500000 0.231119 0.429614
O O10 0.253785 0.296891 0.388768
O O11 0.274831 0.281317 0.482742
O O12 0.750559 0.542084 0.831875
O O13 0.000000 0.615018 0.863355
O O14 0.235958 0.197371 0.565073
O O15 0.000000 0.267081 0.516643
O O16 0.500000 0.878903 0.109377
O O17 0.266669 0.821409 0.159792
O O18 0.250000 0.525063 0.250000
O O19 0.500000 0.551457 0.301916
O O20 0.249568 0.643400 0.320283
O O21 0.750000 0.231753 0.750000
O O22 0.500000 0.266221 0.798853
#
# Coordination Sequence:
#
# PCOD8218426 Si02
#       8
#     8   8   8   8   8   8   8   8
#     4  10  19  30  45  68 100 135 169 202 241 296
#     4  10  20  34  52  75 101 135 179 219 259 306
#     4  10  20  34  49  69 100 135 171 214 254 297
#     4  10  21  34  50  72 101 136 172 209 256 305
#     4  10  19  31  46  69 100 135 170 204 247 299
#     4  10  21  34  52  76 104 136 170 212 262 312
#     4  10  20  35  55  80 105 135 173 212 257 309
#     4  10  20  36  57  82 109 137 169 211 262 313
#
# _framework density 18.186212000000001
#
# number of rings (size 3 to 8) (size 9 to 14) (size 15 to 20)
#    0.000    2.000    2.500    2.250    0.000    4.500 
#    0.000    0.000    0.000    0.750    0.000    3.500 
#    0.000    0.000    0.000    0.000    0.000    0.000 
#
# Total GULP energy -792991.563622 kJ/mol
# GULP energy per Si atom -12390.493182 kJ/mol
# Density = 1.814482 g / cm^3
# Si number density = 18.186212 Si / 1000 Ang^3
#
#
#
# Elastic Constant Matrix: (Units=GPa)
#
#
# Indices 1 2 3 4 5 6 
#
# 1 28.1769 21.8528 22.1524 0.0000 0.0000 0.0000
# 2 21.8528 128.4008 69.2831 0.0000 0.0000 0.0000
# 3 22.1524 69.2831 96.2952 0.0000 0.0000 0.0000
# 4 0.0000 0.0000 0.0000 33.4575 0.0000 0.0000
# 5 0.0000 0.0000 0.0000 0.0000 21.4807 0.0000
# 6 0.0000 0.0000 0.0000 0.0000 0.0000 53.8539
#
#
#
# Elastic Compliance Matrix: (Units=1/GPa)
#
#
# Indices 1 2 3 4 5 6 
#
# 1 0.044178 -0.003326 -0.007770 0.000000 0.000000 0.000000
# 2 -0.003326 0.012981 -0.008574 0.000000 0.000000 0.000000
# 3 -0.007770 -0.008574 0.018341 0.000000 0.000000 0.000000
# 4 0.000000 0.000000 0.000000 0.029889 0.000000 0.000000
# 5 0.000000 0.000000 0.000000 0.000000 0.046553 0.000000
# 6 0.000000 0.000000 0.000000 0.000000 0.000000 0.018569
#
#
# Mechanical properties :
#
#
# Convention : Reuss Voigt Hill
#
# Bulk Modulus (GPa) = 27.65523 53.27217 40.46370
# Shear Modulus (GPa) = 22.53211 31.06404 26.79808
#
# Velocity S-wave (km/s) = 3.52371 4.13741 3.84283
# Velocity P-wave (km/s) = 5.63872 7.22360 6.47980
#
# Compressibility (1/GPa) = 0.03615952
#
# Stress axis : x y z
#
# Youngs Moduli (GPa) = 22.63548 77.03690 54.52184
#
# Poissons Ratio (x) = 0.25625 0.42363
# Poissons Ratio (y) = 0.07529 0.46749
# Poissons Ratio (z) = 0.17587 0.66054
#
# Static dielectric constant tensor:
#      x y z
#    x 3.322320 0.000000 0.000000 
#    y 0.000000 3.843710 0.000000 
#    z 0.000000 0.000000 2.915130 
# 
# 
# High freq. dielectric constant tensor:
#      x y z
#    x 1.693630 0.000000 0.000000 
#    y 0.000000 1.707960 0.000000 
#    z 0.000000 0.000000 1.686820 
# 
# From -- ./inp_files/38466.got.cif
#   From: 2010.03.12/outbox.cif.g09.slc.cpg/sg53_20_cif.got.tgz:38466.got - 2010.04.16 14:36:59.
