data_PCOD8218998
_publ_section_title
;
Structure prediction by ZEFSAII (Michael W. Deem and Ramdas Pophale) SiO2 
 PCOD8218998
Probable space group: P M N A
;
_chemical_formula_sum "Si O2"
_cell_formula_units_Z 64
_cell_length_a 8.807757
_cell_length_b 19.451729
_cell_length_c 20.741597
_cell_angle_alpha 90.000000
_cell_angle_beta 90.000000
_cell_angle_gamma 90.000000
_cell_volume 3553.576969
_symmetry_space_group_name_H-M "P M N A"
_symmetry_group_IT_number 53
_symmetry_cell_setting 'orthorhombic'
loop_
_space_group_symop_operation_xyz
x,y,z
1/2-x,-y,1/2+z
x,-y,-z
1/2-x,y,1/2-z
-x,-y,-z
1/2+x,y,1/2-z
-x,y,z
1/2+x,-y,1/2+z
loop_
_atom_site_type_symbol
_atom_site_label
_atom_site_fract_x
_atom_site_fract_y
_atom_site_fract_z
Si Si1 0.179595 0.176144 0.519277
Si Si2 0.321911 0.823836 0.872788
Si Si3 0.825147 0.462617 0.935790
Si Si4 0.174621 0.315535 0.986484
Si Si5 0.821970 0.673659 0.621856
Si Si6 0.322924 0.466252 0.183573
Si Si7 0.678959 0.040870 0.564464
Si Si8 0.180323 0.037174 0.316665
O O1 0.237232 0.168063 0.445782
O O2 0.228013 0.252360 0.542495
O O3 0.267365 0.119563 0.560766
O O4 0.000000 0.166762 0.527319
O O5 0.500000 0.833236 0.874404
O O6 0.276690 0.747798 0.846859
O O7 0.255841 0.884908 0.828561
O O8 0.804534 0.380660 0.939920
O O9 0.731549 0.486347 0.874345
O O10 0.000000 0.483749 0.926162
O O11 0.761543 0.500000 0.000000
O O12 0.000000 0.292862 0.991028
O O13 0.229893 0.338810 0.056791
O O14 0.778792 0.613546 0.671316
O O15 0.000000 0.673238 0.603887
O O16 0.250000 0.491122 0.250000
O O17 0.500000 0.475723 0.190372
O O18 0.500000 0.036913 0.575840
O O19 0.727876 0.000000 0.500000
O O20 0.764941 0.009748 0.625173
O O21 0.250000 0.009890 0.250000
O O22 0.000000 0.033778 0.312396
#
# Coordination Sequence:
#
# PCOD8218998 Si02
#       8
#     8   8   8   8   8   8   8   8
#     4  10  19  34  56  82 112 145 182 225 276 332
#     4   8  16  31  51  74 106 145 184 220 264 321
#     4  10  20  36  57  81 111 145 184 229 280 329
#     4  10  19  32  54  83 112 142 178 228 279 326
#     4   9  18  33  51  76 108 147 188 225 268 326
#     4  11  23  36  54  78 111 149 191 234 278 331
#     4  11  22  36  57  85 113 142 186 235 276 325
#     4  11  22  37  55  78 111 150 190 229 278 330
#
# _framework density 18.010021999999999
#
# number of rings (size 3 to 8) (size 9 to 14) (size 15 to 20)
#    0.000    2.000    2.500    2.625    0.000    2.750 
#    0.000    0.625    0.000    0.750    0.000    1.750 
#    0.000    0.000    0.000    0.000    0.000    0.000 
#
# Total GULP energy -793571.146466 kJ/mol
# GULP energy per Si atom -12399.549164 kJ/mol
# Density = 1.796903 g / cm^3
# Si number density = 18.010022 Si / 1000 Ang^3
#
#
#
# Elastic Constant Matrix: (Units=GPa)
#
#
# Indices 1 2 3 4 5 6 
#
# 1 68.8464 36.3486 40.9054 0.0000 0.0000 0.0000
# 2 36.3486 94.2974 51.2136 0.0000 0.0000 0.0000
# 3 40.9054 51.2136 109.8602 0.0000 0.0000 0.0000
# 4 0.0000 0.0000 0.0000 14.8986 0.0000 0.0000
# 5 0.0000 0.0000 0.0000 0.0000 25.7047 0.0000
# 6 0.0000 0.0000 0.0000 0.0000 0.0000 28.6045
#
#
#
# Elastic Compliance Matrix: (Units=1/GPa)
#
#
# Indices 1 2 3 4 5 6 
#
# 1 0.020253 -0.004969 -0.005224 0.000000 0.000000 0.000000
# 2 -0.004969 0.015419 -0.005338 0.000000 0.000000 0.000000
# 3 -0.005224 -0.005338 0.013536 0.000000 0.000000 0.000000
# 4 0.000000 0.000000 0.000000 0.067120 0.000000 0.000000
# 5 0.000000 0.000000 0.000000 0.000000 0.038903 0.000000
# 6 0.000000 0.000000 0.000000 0.000000 0.000000 0.034960
#
#
# Mechanical properties :
#
#
# Convention : Reuss Voigt Hill
#
# Bulk Modulus (GPa) = 55.11117 58.88214 56.99665
# Shear Modulus (GPa) = 21.99711 23.47733 22.73722
#
# Velocity S-wave (km/s) = 3.49862 3.61442 3.55699
# Velocity P-wave (km/s) = 6.85472 7.08405 6.97033
#
# Compressibility (1/GPa) = 0.01814514
#
# Stress axis : x y z
#
# Youngs Moduli (GPa) = 49.37573 64.85398 73.87712
#
# Poissons Ratio (x) = 0.32229 0.38596
# Poissons Ratio (y) = 0.24537 0.39433
# Poissons Ratio (z) = 0.25796 0.34617
#
# Static dielectric constant tensor:
#      x y z
#    x 3.265020 0.000000 0.000000 
#    y 0.000000 3.537910 0.000000 
#    z 0.000000 0.000000 3.087050 
# 
# 
# High freq. dielectric constant tensor:
#      x y z
#    x 1.697730 0.000000 0.000000 
#    y 0.000000 1.704810 0.000000 
#    z 0.000000 0.000000 1.668130 
# 
# From -- ./inp_files/31325.got.cif
#   From: 2010.03.12/outbox.cif.g09.slc.cpg/sg53_16_cif.got.tgz:31325.got - 2010.04.16 14:36:59.
