data_PCOD8218099
_publ_section_title
;
Structure prediction by ZEFSAII (Michael W. Deem and Ramdas Pophale) SiO2 
 PCOD8218099
Probable space group: P M N A
;
_chemical_formula_sum "Si O2"
_cell_formula_units_Z 44
_cell_length_a 9.527784
_cell_length_b 10.028900
_cell_length_c 25.045309
_cell_angle_alpha 90.000000
_cell_angle_beta 90.000000
_cell_angle_gamma 90.000000
_cell_volume 2393.159244
_symmetry_space_group_name_H-M "P M N A"
_symmetry_group_IT_number 53
_symmetry_cell_setting 'orthorhombic'
loop_
_space_group_symop_operation_xyz
x,y,z
1/2-x,-y,1/2+z
x,-y,-z
1/2-x,y,1/2-z
-x,-y,-z
1/2+x,y,1/2-z
-x,y,z
1/2+x,-y,1/2+z
loop_
_atom_site_type_symbol
_atom_site_label
_atom_site_fract_x
_atom_site_fract_y
_atom_site_fract_z
Si Si1 0.840452 0.635603 0.387049
Si Si2 0.836353 0.852457 0.303719
Si Si3 0.156889 0.289431 0.985560
Si Si4 0.263968 0.000000 0.500000
Si Si5 0.840576 0.062684 0.387394
Si Si6 0.837081 0.346467 0.416279
O O1 0.813804 0.707614 0.330721
O O2 0.731959 0.694018 0.429201
O O3 0.817663 0.476598 0.379372
O O4 0.000000 0.664596 0.406746
O O5 0.750000 0.858050 0.250000
O O6 0.000000 0.875791 0.291000
O O7 0.770494 0.965290 0.343557
O O8 0.000000 0.349512 0.983611
O O9 0.142187 0.132634 0.999120
O O10 0.247035 0.367892 0.029996
O O11 0.169192 0.997462 0.553126
O O12 0.780591 0.214608 0.385198
O O13 0.000000 0.066731 0.370133
O O14 0.000000 0.325323 0.432883
#
# Coordination Sequence:
#
# PCOD8218099 Si02
#       6
#     8   8   8   4   8   8
#     4  10  20  36  55  76 104 140 183 222 259 312
#     4  10  21  38  57  79 104 138 182 227 268 314
#     4  11  21  31  48  78 115 146 173 213 266 322
#     4  10  18  32  50  78 111 144 177 214 271 318
#     4   9  17  32  56  81 105 135 179 222 263 316
#     4   9  19  34  54  78 106 141 176 216 262 315
#
# _framework density 18.385738
#
# number of rings (size 3 to 8) (size 9 to 14) (size 15 to 20)
#    0.000    2.182    1.818    1.636    0.000    5.091 
#    0.000    1.818    0.000    0.000    0.000    0.000 
#    0.000    0.000    0.000    0.000    0.000    0.000 
#
# Total GULP energy -545349.626241 kJ/mol
# GULP energy per Si atom -12394.309687 kJ/mol
# Density = 1.834389 g / cm^3
# Si number density = 18.385738 Si / 1000 Ang^3
#
#
#
# Elastic Constant Matrix: (Units=GPa)
#
#
# Indices 1 2 3 4 5 6 
#
# 1 72.1419 36.7054 46.9243 0.0000 0.0000 0.0000
# 2 36.7054 116.7317 67.4813 0.0000 0.0000 0.0000
# 3 46.9243 67.4813 131.2532 0.0000 0.0000 0.0000
# 4 0.0000 0.0000 0.0000 24.1218 0.0000 0.0000
# 5 0.0000 0.0000 0.0000 0.0000 22.6984 0.0000
# 6 0.0000 0.0000 0.0000 0.0000 0.0000 10.0490
#
#
#
# Elastic Compliance Matrix: (Units=1/GPa)
#
#
# Indices 1 2 3 4 5 6 
#
# 1 0.018714 -0.002870 -0.005215 0.000000 0.000000 0.000000
# 2 -0.002870 0.012630 -0.005467 0.000000 0.000000 0.000000
# 3 -0.005215 -0.005467 0.012294 0.000000 0.000000 0.000000
# 4 0.000000 0.000000 0.000000 0.041456 0.000000 0.000000
# 5 0.000000 0.000000 0.000000 0.000000 0.044056 0.000000
# 6 0.000000 0.000000 0.000000 0.000000 0.000000 0.099513
#
#
# Mechanical properties :
#
#
# Convention : Reuss Voigt Hill
#
# Bulk Modulus (GPa) = 60.48301 69.14987 64.81644
# Shear Modulus (GPa) = 19.13675 22.64155 20.88915
#
# Velocity S-wave (km/s) = 3.22972 3.51304 3.37435
# Velocity P-wave (km/s) = 6.84662 7.35850 7.10717
#
# Compressibility (1/GPa) = 0.01653357
#
# Stress axis : x y z
#
# Youngs Moduli (GPa) = 53.43691 79.17904 81.33933
#
# Poissons Ratio (x) = 0.22722 0.42418
# Poissons Ratio (y) = 0.15335 0.44471
# Poissons Ratio (z) = 0.27867 0.43290
#
# Static dielectric constant tensor:
#      x y z
#    x 3.145090 0.000000 0.000000 
#    y 0.000000 3.853500 0.000000 
#    z 0.000000 0.000000 3.104120 
# 
# 
# High freq. dielectric constant tensor:
#      x y z
#    x 1.692270 0.000000 0.000000 
#    y 0.000000 1.734820 0.000000 
#    z 0.000000 0.000000 1.676550 
# 
# From -- ./inp_files/33766.got.cif
#   From: 2010.03.12/outbox.cif.g09.slc.cpg/sg53_17_cif.got.tgz:33766.got - 2010.04.16 14:36:59.
