data_PCOD8218689
_publ_section_title
;
Structure prediction by ZEFSAII (Michael W. Deem and Ramdas Pophale) SiO2 
 PCOD8218689
Probable space group: P M N A
;
_chemical_formula_sum "Si O2"
_cell_formula_units_Z 64
_cell_length_a 9.278598
_cell_length_b 22.412111
_cell_length_c 16.096894
_cell_angle_alpha 90.000000
_cell_angle_beta 90.000000
_cell_angle_gamma 90.000000
_cell_volume 3347.396888
_symmetry_space_group_name_H-M "P M N A"
_symmetry_group_IT_number 53
_symmetry_cell_setting 'orthorhombic'
loop_
_space_group_symop_operation_xyz
x,y,z
1/2-x,-y,1/2+z
x,-y,-z
1/2-x,y,1/2-z
-x,-y,-z
1/2+x,y,1/2-z
-x,y,z
1/2+x,-y,1/2+z
loop_
_atom_site_type_symbol
_atom_site_label
_atom_site_fract_x
_atom_site_fract_y
_atom_site_fract_z
Si Si1 0.665134 0.110235 0.167894
Si Si2 0.659961 0.379175 0.819353
Si Si3 0.669781 0.135853 0.664692
Si Si4 0.337663 0.748394 0.827680
Si Si5 0.839790 0.323394 0.046934
Si Si6 0.664888 0.070458 0.495780
Si Si7 0.840836 0.728469 0.135132
Si Si8 0.163999 0.567274 0.498621
O O1 0.750000 0.085846 0.250000
O O2 0.500000 0.086407 0.170824
O O3 0.666508 0.180973 0.169435
O O4 0.739268 0.091008 0.081986
O O5 0.750000 0.415871 0.750000
O O6 0.500000 0.373528 0.786024
O O7 0.723324 0.312316 0.820713
O O8 0.669344 0.413708 0.904006
O O9 0.750000 0.115567 0.750000
O O10 0.500000 0.127446 0.679577
O O11 0.719948 0.096902 0.584427
O O12 0.712557 0.203581 0.642248
O O13 0.250000 0.722856 0.750000
O O14 0.500000 0.724316 0.822717
O O15 0.261956 0.723186 0.908188
O O16 0.767640 0.389174 0.050409
O O17 0.000000 0.328730 0.086336
O O18 0.851775 0.294502 0.957845
O O19 0.500000 0.091542 0.480175
O O20 0.675915 0.000000 0.500000
O O21 0.000000 0.722433 0.175628
O O22 0.223638 0.500000 0.500000
O O23 0.000000 0.570720 0.533366
#
# Coordination Sequence:
#
# PCOD8218689 Si02
#       8
#     8   8   8   8   8   8   8   8
#     4  10  21  37  60  87 113 144 183 230 281 334
#     4  10  19  31  50  75 101 129 163 205 252 301
#     4  10  21  36  54  78 109 144 179 219 268 322
#     4  10  20  34  53  79 109 139 174 217 269 327
#     4  10  19  32  53  79 106 137 173 218 270 321
#     4  10  22  40  59  80 110 148 189 232 277 325
#     4   9  18  32  51  76 105 135 167 206 256 314
#     4   9  19  36  54  71  97 137 180 218 257 305
#
# _framework density 19.119335
#
# number of rings (size 3 to 8) (size 9 to 14) (size 15 to 20)
#    0.000    2.250    0.000    2.625    0.000    6.500 
#    0.000    1.875    0.000    1.500    0.000    0.000 
#    0.000    0.000    0.000    0.000    0.000    0.000 
#
# Total GULP energy -793238.715240 kJ/mol
# GULP energy per Si atom -12394.354926 kJ/mol
# Density = 1.907582 g / cm^3
# Si number density = 19.119335 Si / 1000 Ang^3
#
#
#
# Elastic Constant Matrix: (Units=GPa)
#
#
# Indices 1 2 3 4 5 6 
#
# 1 137.9145 26.5914 53.9395 0.0000 0.0000 0.0000
# 2 26.5914 56.7678 28.7335 0.0000 0.0000 0.0000
# 3 53.9395 28.7335 91.8352 0.0000 0.0000 0.0000
# 4 0.0000 0.0000 0.0000 -1.2478 0.0000 0.0000
# 5 0.0000 0.0000 0.0000 0.0000 36.0387 0.0000
# 6 0.0000 0.0000 0.0000 0.0000 0.0000 42.6180
#
#
#
# Elastic Compliance Matrix: (Units=1/GPa)
#
#
# Indices 1 2 3 4 5 6 
#
# 1 0.009592 -0.001950 -0.005023 0.000000 0.000000 0.000000
# 2 -0.001950 0.021327 -0.005527 0.000000 0.000000 0.000000
# 3 -0.005023 -0.005527 0.015569 0.000000 0.000000 0.000000
# 4 0.000000 0.000000 0.000000 -0.801441 0.000000 0.000000
# 5 0.000000 0.000000 0.000000 0.000000 0.027748 0.000000
# 6 0.000000 0.000000 0.000000 0.000000 0.000000 0.023464
#
#
# Mechanical properties :
#
#
# Convention : Reuss Voigt Hill
#
# Bulk Modulus (GPa) = 46.54311 56.11626 51.32969
# Shear Modulus (GPa) = -7.44515 27.29867 9.92676
#
# Velocity S-wave (km/s) = -1.97547 3.78273 2.28107
# Velocity P-wave (km/s) = 4.38098 6.96369 5.81747
#
# Compressibility (1/GPa) = 0.02148546
#
# Stress axis : x y z
#
# Youngs Moduli (GPa) = 104.25774 46.88919 64.23028
#
# Poissons Ratio (x) = 0.09145 0.32266
# Poissons Ratio (y) = 0.20333 0.35502
# Poissons Ratio (z) = 0.52373 0.25917
#
# Static dielectric constant tensor:
#      x y z
#    x 9.488310 0.000000 0.000000 
#    y 0.000000 3.369460 0.000000 
#    z 0.000000 0.000000 3.666440 
# 
# 
# High freq. dielectric constant tensor:
#      x y z
#    x 1.752000 0.000000 0.000000 
#    y 0.000000 1.726940 0.000000 
#    z 0.000000 0.000000 1.748810 
# 
# From -- ./inp_files/20993.got.cif
#   From: 2010.03.12/outbox.cif.g09.slc.cpg/sg53_11_cif.got.tgz:20993.got - 2010.04.16 14:36:59.
