data_PCOD8218363
_publ_section_title
;
Structure prediction by ZEFSAII (Michael W. Deem and Ramdas Pophale) SiO2 
 PCOD8218363
Probable space group: P M N A
;
_chemical_formula_sum "Si O2"
_cell_formula_units_Z 64
_cell_length_a 9.180922
_cell_length_b 19.111343
_cell_length_c 21.132881
_cell_angle_alpha 90.000000
_cell_angle_beta 90.000000
_cell_angle_gamma 90.000000
_cell_volume 3707.970004
_symmetry_space_group_name_H-M "P M N A"
_symmetry_group_IT_number 53
_symmetry_cell_setting 'orthorhombic'
loop_
_space_group_symop_operation_xyz
x,y,z
1/2-x,-y,1/2+z
x,-y,-z
1/2-x,y,1/2-z
-x,-y,-z
1/2+x,y,1/2-z
-x,y,z
1/2+x,-y,1/2+z
loop_
_atom_site_type_symbol
_atom_site_label
_atom_site_fract_x
_atom_site_fract_y
_atom_site_fract_z
Si Si1 0.333924 0.284748 0.814001
Si Si2 0.668245 0.166761 0.627099
Si Si3 0.170639 0.954793 0.559803
Si Si4 0.828701 0.668282 0.991506
Si Si5 0.834029 0.174343 0.017944
Si Si6 0.160653 0.468545 0.070182
Si Si7 0.336501 0.408031 0.898156
Si Si8 0.173183 0.961062 0.313874
O O1 0.250000 0.271677 0.750000
O O2 0.500000 0.257718 0.808626
O O3 0.246099 0.241661 0.866992
O O4 0.331996 0.366816 0.831824
O O5 0.500000 0.169659 0.649056
O O6 0.679635 0.146741 0.553735
O O7 0.757074 0.113987 0.671435
O O8 0.241313 0.877881 0.561129
O O9 0.000000 0.944828 0.551817
O O10 0.230462 0.000000 0.500000
O O11 0.210955 0.989388 0.626819
O O12 0.797169 0.613935 0.933532
O O13 0.000000 0.670188 0.008067
O O14 0.774201 0.746165 0.973744
O O15 0.748056 0.640138 0.052723
O O16 0.000000 0.171320 0.041205
O O17 0.269216 0.514617 0.112862
O O18 0.000000 0.476651 0.099422
O O19 0.165689 0.500000 0.000000
O O20 0.500000 0.417906 0.923221
O O21 0.250000 0.990610 0.250000
O O22 0.000000 0.954353 0.303744
#
# Coordination Sequence:
#
# PCOD8218363 Si02
#       8
#     8   8   8   8   8   8   8   8
#     4  11  23  35  47  66  95 134 174 214 253 298
#     4  11  21  34  53  75 101 136 174 213 253 301
#     4  10  21  37  55  76 105 137 170 213 263 312
#     4   9  17  31  47  69  98 128 161 195 239 295
#     4  10  20  32  52  78 104 135 171 210 252 305
#     4   8  15  27  45  65  91 125 156 188 231 285
#     4  10  19  29  44  67  94 124 162 205 247 288
#     4  11  23  39  57  77 104 137 174 217 261 311
#
# _framework density 17.260119
#
# number of rings (size 3 to 8) (size 9 to 14) (size 15 to 20)
#    0.000    2.000    2.500    2.625    0.000    6.000 
#    0.000    0.000    0.000    0.000    0.000    0.875 
#    0.000    0.000    0.000    0.000    0.000    0.000 
#
# Total GULP energy -793339.693610 kJ/mol
# GULP energy per Si atom -12395.932713 kJ/mol
# Density = 1.722083 g / cm^3
# Si number density = 17.260119 Si / 1000 Ang^3
#
#
#
# Elastic Constant Matrix: (Units=GPa)
#
#
# Indices 1 2 3 4 5 6 
#
# 1 91.7488 49.6822 37.9124 0.0000 0.0000 0.0000
# 2 49.6822 117.0338 37.0993 0.0000 0.0000 0.0000
# 3 37.9124 37.0993 59.9955 0.0000 0.0000 0.0000
# 4 0.0000 0.0000 0.0000 20.7670 0.0000 0.0000
# 5 0.0000 0.0000 0.0000 0.0000 22.4318 0.0000
# 6 0.0000 0.0000 0.0000 0.0000 0.0000 31.4395
#
#
#
# Elastic Compliance Matrix: (Units=1/GPa)
#
#
# Indices 1 2 3 4 5 6 
#
# 1 0.016536 -0.004611 -0.007598 0.000000 0.000000 0.000000
# 2 -0.004611 0.011914 -0.004453 0.000000 0.000000 0.000000
# 3 -0.007598 -0.004453 0.024223 0.000000 0.000000 0.000000
# 4 0.000000 0.000000 0.000000 0.048153 0.000000 0.000000
# 5 0.000000 0.000000 0.000000 0.000000 0.044580 0.000000
# 6 0.000000 0.000000 0.000000 0.000000 0.000000 0.031807
#
#
# Mechanical properties :
#
#
# Convention : Reuss Voigt Hill
#
# Bulk Modulus (GPa) = 51.68516 57.57400 54.62958
# Shear Modulus (GPa) = 23.04291 24.53326 23.78808
#
# Velocity S-wave (km/s) = 3.65778 3.77422 3.71645
# Velocity P-wave (km/s) = 6.91730 7.24030 7.08064
#
# Compressibility (1/GPa) = 0.01934791
#
# Stress axis : x y z
#
# Youngs Moduli (GPa) = 60.47433 83.93729 41.28316
#
# Poissons Ratio (x) = 0.38705 0.31367
# Poissons Ratio (y) = 0.27886 0.18384
# Poissons Ratio (z) = 0.45949 0.37378
#
# Static dielectric constant tensor:
#      x y z
#    x 3.299570 0.000000 0.000000 
#    y 0.000000 3.440210 0.000000 
#    z 0.000000 0.000000 2.925000 
# 
# 
# High freq. dielectric constant tensor:
#      x y z
#    x 1.675480 0.000000 0.000000 
#    y 0.000000 1.668480 0.000000 
#    z 0.000000 0.000000 1.622040 
# 
# From -- ./inp_files/34496.got.cif
#   From: 2010.03.12/outbox.cif.g09.slc.cpg/sg53_18_cif.got.tgz:34496.got - 2010.04.16 14:36:59.
