data_PCOD8218796
_publ_section_title
;
Structure prediction by ZEFSAII (Michael W. Deem and Ramdas Pophale) SiO2 
 PCOD8218796
Probable space group: P M N A
;
_chemical_formula_sum "Si O2"
_cell_formula_units_Z 64
_cell_length_a 9.018311
_cell_length_b 20.484207
_cell_length_c 19.598497
_cell_angle_alpha 90.000000
_cell_angle_beta 90.000000
_cell_angle_gamma 90.000000
_cell_volume 3620.488153
_symmetry_space_group_name_H-M "P M N A"
_symmetry_group_IT_number 53
_symmetry_cell_setting 'orthorhombic'
loop_
_space_group_symop_operation_xyz
x,y,z
1/2-x,-y,1/2+z
x,-y,-z
1/2-x,y,1/2-z
-x,-y,-z
1/2+x,y,1/2-z
-x,y,z
1/2+x,-y,1/2+z
loop_
_atom_site_type_symbol
_atom_site_label
_atom_site_fract_x
_atom_site_fract_y
_atom_site_fract_z
Si Si1 0.673256 0.933154 0.036825
Si Si2 0.171667 0.980686 0.316770
Si Si3 0.173927 0.484300 0.683366
Si Si4 0.327624 0.824252 0.548075
Si Si5 0.174930 0.377055 0.182805
Si Si6 0.324741 0.869789 0.818882
Si Si7 0.169347 0.676907 0.960938
Si Si8 0.171943 0.436026 0.537209
O O1 0.500000 0.919364 0.023270
O O2 0.710738 0.938039 0.116976
O O3 0.769015 0.874048 0.008405
O O4 0.720098 0.000000 0.000000
O O5 0.250000 0.950777 0.250000
O O6 0.000000 0.978989 0.300715
O O7 0.222181 0.054956 0.330287
O O8 0.250000 0.451305 0.750000
O O9 0.252082 0.552963 0.668984
O O10 0.201288 0.438429 0.618211
O O11 0.000000 0.495608 0.696501
O O12 0.500000 0.837727 0.562882
O O13 0.237528 0.829508 0.617969
O O14 0.301911 0.751787 0.518582
O O15 0.250000 0.345034 0.250000
O O16 0.212958 0.331816 0.118405
O O17 0.000000 0.384888 0.194711
O O18 0.250000 0.842699 0.750000
O O19 0.500000 0.860473 0.814367
O O20 0.000000 0.656636 0.971374
O O21 0.261616 0.631064 0.010496
O O22 0.241901 0.500000 0.500000
O O23 0.000000 0.434180 0.519234
#
# Coordination Sequence:
#
# PCOD8218796 Si02
#       8
#     8   8   8   8   8   8   8   8
#     4  10  19  36  57  79 107 141 180 222 271 323
#     4   9  18  32  53  79 108 136 172 219 266 319
#     4  10  19  32  52  80 109 135 169 216 264 312
#     4  11  23  37  52  78 111 144 184 226 268 321
#     4  10  19  32  50  73 103 141 178 213 255 307
#     4  10  19  34  53  77 108 146 182 222 266 317
#     4  10  23  38  52  75 109 144 181 221 265 317
#     4  10  20  35  56  81 107 136 176 223 266 314
#
# _framework density 17.677174000000001
#
# number of rings (size 3 to 8) (size 9 to 14) (size 15 to 20)
#    0.000    2.000    2.500    2.250    0.000    4.500 
#    0.000    1.250    0.000    0.750    0.000    0.000 
#    0.000    0.000    0.000    0.000    0.000    0.000 
#
# Total GULP energy -793647.834963 kJ/mol
# GULP energy per Si atom -12400.747421 kJ/mol
# Density = 1.763694 g / cm^3
# Si number density = 17.677174 Si / 1000 Ang^3
#
#
#
# Elastic Constant Matrix: (Units=GPa)
#
#
# Indices 1 2 3 4 5 6 
#
# 1 85.9674 43.3999 54.6256 0.0000 0.0000 0.0000
# 2 43.3999 83.3976 53.0498 0.0000 0.0000 0.0000
# 3 54.6256 53.0498 113.2732 0.0000 0.0000 0.0000
# 4 0.0000 0.0000 0.0000 22.4584 0.0000 0.0000
# 5 0.0000 0.0000 0.0000 0.0000 34.8776 0.0000
# 6 0.0000 0.0000 0.0000 0.0000 0.0000 25.0312
#
#
#
# Elastic Compliance Matrix: (Units=1/GPa)
#
#
# Indices 1 2 3 4 5 6 
#
# 1 0.018449 -0.005614 -0.006268 0.000000 0.000000 0.000000
# 2 -0.005614 0.018787 -0.006091 0.000000 0.000000 0.000000
# 3 -0.006268 -0.006091 0.014704 0.000000 0.000000 0.000000
# 4 0.000000 0.000000 0.000000 0.044527 0.000000 0.000000
# 5 0.000000 0.000000 0.000000 0.000000 0.028672 0.000000
# 6 0.000000 0.000000 0.000000 0.000000 0.000000 0.039950
#
#
# Mechanical properties :
#
#
# Convention : Reuss Voigt Hill
#
# Bulk Modulus (GPa) = 62.52482 64.97652 63.75067
# Shear Modulus (GPa) = 24.22885 25.24431 24.73658
#
# Velocity S-wave (km/s) = 3.70622 3.78309 3.74485
# Velocity P-wave (km/s) = 7.33225 7.47793 7.40545
#
# Compressibility (1/GPa) = 0.01599365
#
# Stress axis : x y z
#
# Youngs Moduli (GPa) = 54.20298 53.22854 68.01029
#
# Poissons Ratio (x) = 0.29882 0.42628
# Poissons Ratio (y) = 0.30429 0.41427
# Poissons Ratio (z) = 0.33974 0.32423
#
# Static dielectric constant tensor:
#      x y z
#    x 3.303980 0.000000 0.000000 
#    y 0.000000 3.014380 0.000000 
#    z 0.000000 0.000000 3.486010 
# 
# 
# High freq. dielectric constant tensor:
#      x y z
#    x 1.690220 0.000000 0.000000 
#    y 0.000000 1.653070 0.000000 
#    z 0.000000 0.000000 1.691060 
# 
# From -- ./inp_files/31136.got.cif
#   From: 2010.03.12/outbox.cif.g09.slc.cpg/sg53_16_cif.got.tgz:31136.got - 2010.04.16 14:36:59.
