data_PCOD8218071
_publ_section_title
;
Structure prediction by ZEFSAII (Michael W. Deem and Ramdas Pophale) SiO2 
 PCOD8218071
Probable space group: P M N A
;
_chemical_formula_sum "Si O2"
_cell_formula_units_Z 48
_cell_length_a 16.588683
_cell_length_b 9.464246
_cell_length_c 16.798997
_cell_angle_alpha 90.000000
_cell_angle_beta 90.000000
_cell_angle_gamma 90.000000
_cell_volume 2637.432059
_symmetry_space_group_name_H-M "P M N A"
_symmetry_group_IT_number 53
_symmetry_cell_setting 'orthorhombic'
loop_
_space_group_symop_operation_xyz
x,y,z
1/2-x,-y,1/2+z
x,-y,-z
1/2-x,y,1/2-z
-x,-y,-z
1/2+x,y,1/2-z
-x,y,z
1/2+x,-y,1/2+z
loop_
_atom_site_type_symbol
_atom_site_label
_atom_site_fract_x
_atom_site_fract_y
_atom_site_fract_z
Si Si1 0.258039 0.811267 0.930056
Si Si2 0.348784 0.702150 0.360361
Si Si3 0.408685 0.315496 0.811023
Si Si4 0.272467 0.465739 0.160707
Si Si5 0.088756 0.834770 0.983773
Si Si6 0.294083 0.116727 0.889125
O O1 0.293966 0.671415 0.890952
O O2 0.160364 0.797562 0.922780
O O3 0.291394 0.947531 0.883478
O O4 0.284505 0.823681 0.021379
O O5 0.406550 0.693634 0.284422
O O6 0.302350 0.553828 0.376349
O O7 0.402662 0.744082 0.435667
O O8 0.281191 0.820262 0.339849
O O9 0.500000 0.341611 0.838547
O O10 0.353498 0.442530 0.842212
O O11 0.377704 0.169539 0.851052
O O12 0.250000 0.419979 0.250000
O O13 0.000000 0.801661 0.947431
O O14 0.098079 0.000000 0.000000
#
# Coordination Sequence:
#
# PCOD8218071 Si02
#       6
#     8   8   8   8   8   8
#     4  10  18  36  52  77 108 142 172 218 259 324
#     4   9  17  34  53  77 103 142 174 210 256 326
#     4  10  20  35  53  77 102 136 185 231 262 302
#     4   9  20  35  55  74 104 145 183 215 265 322
#     4  10  18  31  53  83 112 136 164 212 268 315
#     4   9  18  33  55  77 102 137 179 211 265 320
#
# _framework density 18.19952
#
# number of rings (size 3 to 8) (size 9 to 14) (size 15 to 20)
#    0.000    2.500    3.333    2.000    0.000    7.333 
#    0.000    9.167    0.000    0.000    0.000    0.000 
#    0.000    0.000    0.000    0.000    0.000    0.000 
#
# Total GULP energy -595038.884943 kJ/mol
# GULP energy per Si atom -12396.643436 kJ/mol
# Density = 1.815810 g / cm^3
# Si number density = 18.199520 Si / 1000 Ang^3
#
#
#
# Elastic Constant Matrix: (Units=GPa)
#
#
# Indices 1 2 3 4 5 6 
#
# 1 111.9271 38.4655 26.7912 0.0000 0.0000 0.0000
# 2 38.4655 127.8417 47.4707 0.0000 0.0000 0.0000
# 3 26.7912 47.4707 38.4001 0.0000 0.0000 0.0000
# 4 0.0000 0.0000 0.0000 25.4219 0.0000 0.0000
# 5 0.0000 0.0000 0.0000 0.0000 21.3196 0.0000
# 6 0.0000 0.0000 0.0000 0.0000 0.0000 16.2501
#
#
#
# Elastic Compliance Matrix: (Units=1/GPa)
#
#
# Indices 1 2 3 4 5 6 
#
# 1 0.010773 -0.000833 -0.006487 0.000000 0.000000 0.000000
# 2 -0.000833 0.014524 -0.017374 0.000000 0.000000 0.000000
# 3 -0.006487 -0.017374 0.052045 0.000000 0.000000 0.000000
# 4 0.000000 0.000000 0.000000 0.039336 0.000000 0.000000
# 5 0.000000 0.000000 0.000000 0.000000 0.046905 0.000000
# 6 0.000000 0.000000 0.000000 0.000000 0.000000 0.061538
#
#
# Mechanical properties :
#
#
# Convention : Reuss Voigt Hill
#
# Bulk Modulus (GPa) = 35.77105 55.95820 45.86463
# Shear Modulus (GPa) = 17.61633 23.62776 20.62204
#
# Velocity S-wave (km/s) = 3.11457 3.60705 3.36982
# Velocity P-wave (km/s) = 5.71242 6.93985 6.35584
#
# Compressibility (1/GPa) = 0.02795557
#
# Stress axis : x y z
#
# Youngs Moduli (GPa) = 92.82211 68.85114 19.21406
#
# Poissons Ratio (x) = 0.05734 0.12464
# Poissons Ratio (y) = 0.07730 0.33382
# Poissons Ratio (z) = 0.60213 1.19621
#
# Static dielectric constant tensor:
#      x y z
#    x 3.299090 0.000000 0.000000 
#    y 0.000000 3.318920 0.000000 
#    z 0.000000 0.000000 3.243100 
# 
# 
# High freq. dielectric constant tensor:
#      x y z
#    x 1.690740 0.000000 0.000000 
#    y 0.000000 1.703080 0.000000 
#    z 0.000000 0.000000 1.688250 
# 
# From -- ./inp_files/28251.got.cif
#   From: 2010.03.12/outbox.cif.g09.slc.cpg/sg53_15_cif.got.tgz:28251.got - 2010.04.16 14:36:59.
