data_PCOD8218758
_publ_section_title
;
Structure prediction by ZEFSAII (Michael W. Deem and Ramdas Pophale) SiO2 
 PCOD8218758
Probable space group: P M N A
;
_chemical_formula_sum "Si O2"
_cell_formula_units_Z 64
_cell_length_a 8.761972
_cell_length_b 17.177687
_cell_length_c 25.928818
_cell_angle_alpha 90.000000
_cell_angle_beta 90.000000
_cell_angle_gamma 90.000000
_cell_volume 3902.557093
_symmetry_space_group_name_H-M "P M N A"
_symmetry_group_IT_number 53
_symmetry_cell_setting 'orthorhombic'
loop_
_space_group_symop_operation_xyz
x,y,z
1/2-x,-y,1/2+z
x,-y,-z
1/2-x,y,1/2-z
-x,-y,-z
1/2+x,y,1/2-z
-x,y,z
1/2+x,-y,1/2+z
loop_
_atom_site_type_symbol
_atom_site_label
_atom_site_fract_x
_atom_site_fract_y
_atom_site_fract_z
Si Si1 0.818583 0.824155 0.098504
Si Si2 0.182512 0.329894 0.059102
Si Si3 0.179987 0.177377 0.400600
Si Si4 0.680261 0.906704 0.696221
Si Si5 0.832451 0.498310 0.061273
Si Si6 0.322545 0.091292 0.496107
Si Si7 0.820027 0.914838 0.196776
Si Si8 0.818224 0.663974 0.057988
O O1 0.751523 0.862777 0.150275
O O2 0.764010 0.733994 0.095246
O O3 0.000000 0.829930 0.099343
O O4 0.759033 0.870573 0.048564
O O5 0.262683 0.265805 0.094125
O O6 0.245230 0.415904 0.077074
O O7 0.000000 0.324864 0.064714
O O8 0.233006 0.314813 0.000014
O O9 0.252086 0.145072 0.348710
O O10 0.229694 0.124458 0.448329
O O11 0.000000 0.176067 0.395740
O O12 0.750000 0.877282 0.750000
O O13 0.500000 0.896771 0.697754
O O14 0.727898 0.996223 0.686338
O O15 0.748136 0.580011 0.077126
O O16 0.000000 0.498019 0.086651
O O17 0.848740 0.500000 0.000000
O O18 0.500000 0.111817 0.487237
O O19 0.295346 0.000000 0.500000
O O20 0.750000 0.883627 0.250000
O O21 0.000000 0.906055 0.200414
O O22 0.000000 0.655272 0.058198
#
# Coordination Sequence:
#
# PCOD8218758 Si02
#       8
#     8   8   8   8   8   8   8   8
#     4   9  15  25  44  69  93 119 153 191 230 274
#     4   9  15  27  45  65  91 123 158 194 233 276
#     4  12  23  32  45  69 100 129 157 189 234 286
#     4  10  20  36  54  70  90 119 160 204 243 278
#     4   7  11  19  37  65  90 114 149 196 238 270
#     4  10  19  32  49  67  90 124 162 195 233 282
#     4   9  18  32  50  70  90 117 154 195 234 275
#     4   8  12  21  41  68  93 116 152 199 237 271
#
# _framework density 16.399502999999999
#
# number of rings (size 3 to 8) (size 9 to 14) (size 15 to 20)
#    0.000    2.750    1.250    3.750    0.000    2.750 
#    0.000    0.625    0.000    3.375    0.000    0.875 
#    0.000    2.000    0.000    0.000    0.000    0.000 
#
# Total GULP energy -793044.010003 kJ/mol
# GULP energy per Si atom -12391.312656 kJ/mol
# Density = 1.636218 g / cm^3
# Si number density = 16.399503 Si / 1000 Ang^3
#
#
#
# Elastic Constant Matrix: (Units=GPa)
#
#
# Indices 1 2 3 4 5 6 
#
# 1 38.1835 29.0479 28.1479 0.0000 0.0000 0.0000
# 2 29.0479 139.3631 74.3738 0.0000 0.0000 0.0000
# 3 28.1479 74.3738 118.0275 0.0000 0.0000 0.0000
# 4 0.0000 0.0000 0.0000 22.6538 0.0000 0.0000
# 5 0.0000 0.0000 0.0000 0.0000 21.0570 0.0000
# 6 0.0000 0.0000 0.0000 0.0000 0.0000 9.5464
#
#
#
# Elastic Compliance Matrix: (Units=1/GPa)
#
#
# Indices 1 2 3 4 5 6 
#
# 1 0.033236 -0.004064 -0.005365 0.000000 0.000000 0.000000
# 2 -0.004064 0.011308 -0.006156 0.000000 0.000000 0.000000
# 3 -0.005365 -0.006156 0.013632 0.000000 0.000000 0.000000
# 4 0.000000 0.000000 0.000000 0.044143 0.000000 0.000000
# 5 0.000000 0.000000 0.000000 0.000000 0.047490 0.000000
# 6 0.000000 0.000000 0.000000 0.000000 0.000000 0.104751
#
#
# Mechanical properties :
#
#
# Convention : Reuss Voigt Hill
#
# Bulk Modulus (GPa) = 37.03158 62.07927 49.55542
# Shear Modulus (GPa) = 16.96450 21.58510 19.27480
#
# Velocity S-wave (km/s) = 3.21978 3.63189 3.43203
# Velocity P-wave (km/s) = 6.03760 7.45144 6.78147
#
# Compressibility (1/GPa) = 0.02700398
#
# Stress axis : x y z
#
# Youngs Moduli (GPa) = 30.08755 88.43203 73.35908
#
# Poissons Ratio (x) = 0.35941 0.39360
# Poissons Ratio (y) = 0.12228 0.45163
# Poissons Ratio (z) = 0.16143 0.54443
#
# Static dielectric constant tensor:
#      x y z
#    x 2.735440 0.000000 0.000000 
#    y 0.000000 3.549910 0.000000 
#    z 0.000000 0.000000 2.967280 
# 
# 
# High freq. dielectric constant tensor:
#      x y z
#    x 1.593400 0.000000 0.000000 
#    y 0.000000 1.646660 0.000000 
#    z 0.000000 0.000000 1.599460 
# 
# From -- ./inp_files/34493.got.cif
#   From: 2010.03.12/outbox.cif.g09.slc.cpg/sg53_18_cif.got.tgz:34493.got - 2010.04.16 14:36:59.
