data_PCOD8218982
_publ_section_title
;
Structure prediction by ZEFSAII (Michael W. Deem and Ramdas Pophale) SiO2 
 PCOD8218982
Probable space group: P M N A
;
_chemical_formula_sum "Si O2"
_cell_formula_units_Z 64
_cell_length_a 15.291422
_cell_length_b 17.518979
_cell_length_c 11.310503
_cell_angle_alpha 90.000000
_cell_angle_beta 90.000000
_cell_angle_gamma 90.000000
_cell_volume 3029.971790
_symmetry_space_group_name_H-M "P M N A"
_symmetry_group_IT_number 53
_symmetry_cell_setting 'orthorhombic'
loop_
_space_group_symop_operation_xyz
x,y,z
1/2-x,-y,1/2+z
x,-y,-z
1/2-x,y,1/2-z
-x,-y,-z
1/2+x,y,1/2-z
-x,y,z
1/2+x,-y,1/2+z
loop_
_atom_site_type_symbol
_atom_site_label
_atom_site_fract_x
_atom_site_fract_y
_atom_site_fract_z
Si Si1 0.400800 0.818885 0.171559
Si Si2 0.848537 0.469668 0.708695
Si Si3 0.598546 0.281492 0.427142
Si Si4 0.347109 0.357969 0.203008
Si Si5 0.901045 0.141735 0.935773
Si Si6 0.401635 0.424320 0.551194
Si Si7 0.897147 0.662843 0.450738
Si Si8 0.762755 0.950236 0.386171
O O1 0.500000 0.839446 0.128184
O O2 0.398638 0.813082 0.312438
O O3 0.372395 0.734697 0.130127
O O4 0.331679 0.880835 0.123523
O O5 0.750000 0.474064 0.750000
O O6 0.885827 0.555707 0.694697
O O7 0.904104 0.425105 0.807774
O O8 0.857156 0.417886 0.592811
O O9 0.500000 0.275761 0.475566
O O10 0.598735 0.301913 0.288991
O O11 0.636801 0.198641 0.461607
O O12 0.647625 0.349942 0.499113
O O13 0.250000 0.358641 0.250000
O O14 0.353008 0.319088 0.076090
O O15 0.834120 0.072275 0.929207
O O16 0.000000 0.111541 0.962310
O O17 0.352787 0.500000 0.500000
O O18 0.500000 0.423519 0.499463
O O19 0.000000 0.652447 0.464935
O O20 0.750000 0.985865 0.250000
O O21 0.797113 0.000000 0.500000
#
# Coordination Sequence:
#
# PCOD8218982 Si02
#       8
#     8   8   8   8   8   8   8   8
#     4   9  20  40  64  93 125 159 207 257 305 369
#     4  11  24  36  55  80 115 156 207 259 315 366
#     4  10  20  36  58  82 112 152 199 249 307 363
#     4  11  25  38  52  79 120 164 202 261 315 366
#     4   9  19  37  64  95 126 160 201 251 303 368
#     4  10  19  32  54  77 103 141 193 249 295 351
#     4  11  24  41  61  85 117 162 214 260 312 378
#     4  10  22  42  68  98 130 166 204 246 311 380
#
# _framework density 21.122309999999999
#
# number of rings (size 3 to 8) (size 9 to 14) (size 15 to 20)
#    0.000    1.875    1.250    1.875    3.500    6.000 
#    2.250    0.000    0.000    0.000    0.000    0.000 
#    0.000    0.000    0.000    0.000    0.000    0.000 
#
# Total GULP energy -793021.600493 kJ/mol
# GULP energy per Si atom -12390.962508 kJ/mol
# Density = 2.107423 g / cm^3
# Si number density = 21.122310 Si / 1000 Ang^3
#
#
#
# Elastic Constant Matrix: (Units=GPa)
#
#
# Indices 1 2 3 4 5 6 
#
# 1 63.9756 26.6653 11.1840 0.0000 0.0000 0.0000
# 2 26.6653 69.6292 36.9302 0.0000 0.0000 0.0000
# 3 11.1840 36.9302 109.5725 0.0000 0.0000 0.0000
# 4 0.0000 0.0000 0.0000 13.2195 0.0000 0.0000
# 5 0.0000 0.0000 0.0000 0.0000 27.2101 0.0000
# 6 0.0000 0.0000 0.0000 0.0000 0.0000 33.5980
#
#
#
# Elastic Compliance Matrix: (Units=1/GPa)
#
#
# Indices 1 2 3 4 5 6 
#
# 1 0.018634 -0.007461 0.000613 0.000000 0.000000 0.000000
# 2 -0.007461 0.020475 -0.006139 0.000000 0.000000 0.000000
# 3 0.000613 -0.006139 0.011133 0.000000 0.000000 0.000000
# 4 0.000000 0.000000 0.000000 0.075646 0.000000 0.000000
# 5 0.000000 0.000000 0.000000 0.000000 0.036751 0.000000
# 6 0.000000 0.000000 0.000000 0.000000 0.000000 0.029764
#
#
# Mechanical properties :
#
#
# Convention : Reuss Voigt Hill
#
# Bulk Modulus (GPa) = 41.20885 43.63737 42.42311
# Shear Modulus (GPa) = 22.07832 26.03204 24.05518
#
# Velocity S-wave (km/s) = 3.23656 3.51443 3.37835
# Velocity P-wave (km/s) = 5.78956 6.09692 5.94523
#
# Compressibility (1/GPa) = 0.02426663
#
# Stress axis : x y z
#
# Youngs Moduli (GPa) = 53.66655 48.83930 89.82243
#
# Poissons Ratio (x) = 0.36439 -0.05503
# Poissons Ratio (y) = 0.40040 0.55146
# Poissons Ratio (z) = -0.03288 0.29985
#
# Static dielectric constant tensor:
#      x y z
#    x 3.776380 0.000000 0.000000 
#    y 0.000000 3.681680 0.000000 
#    z 0.000000 0.000000 4.368010 
# 
# 
# High freq. dielectric constant tensor:
#      x y z
#    x 1.824440 0.000000 0.000000 
#    y 0.000000 1.801080 0.000000 
#    z 0.000000 0.000000 1.830450 
# 
# From -- ./inp_files/16204.got.cif
#   From: 2010.03.12/outbox.cif.g09.slc.cpg/sg53_9_cif.got.tgz:16204.got - 2010.04.16 14:36:59.
