data_PCOD8218300
_publ_section_title
;
Structure prediction by ZEFSAII (Michael W. Deem and Ramdas Pophale) SiO2 
 PCOD8218300
Probable space group: P M N A
;
_chemical_formula_sum "Si O2"
_cell_formula_units_Z 64
_cell_length_a 17.180655
_cell_length_b 15.595546
_cell_length_c 12.007538
_cell_angle_alpha 90.000000
_cell_angle_beta 90.000000
_cell_angle_gamma 90.000000
_cell_volume 3217.320089
_symmetry_space_group_name_H-M "P M N A"
_symmetry_group_IT_number 53
_symmetry_cell_setting 'orthorhombic'
loop_
_space_group_symop_operation_xyz
x,y,z
1/2-x,-y,1/2+z
x,-y,-z
1/2-x,y,1/2-z
-x,-y,-z
1/2+x,y,1/2-z
-x,y,z
1/2+x,-y,1/2+z
loop_
_atom_site_type_symbol
_atom_site_label
_atom_site_fract_x
_atom_site_fract_y
_atom_site_fract_z
Si Si1 0.909028 0.855473 0.008489
Si Si2 0.907315 0.594326 0.231892
Si Si3 0.408936 0.915166 0.737795
Si Si4 0.907247 0.595337 0.764348
Si Si5 0.407909 0.753003 0.128047
Si Si6 0.092498 0.660825 0.998221
Si Si7 0.407178 0.753159 0.878216
Si Si8 0.659789 0.907481 0.266074
O O1 0.891860 0.901143 0.892068
O O2 0.000000 0.859636 0.038855
O O3 0.878622 0.758434 0.002266
O O4 0.861837 0.904240 0.103935
O O5 0.878986 0.499990 0.270891
O O6 0.873557 0.666844 0.314653
O O7 0.876151 0.611407 0.106906
O O8 0.000000 0.599222 0.231321
O O9 0.500000 0.928544 0.759668
O O10 0.376868 0.834450 0.807950
O O11 0.363715 0.999152 0.780523
O O12 0.875049 0.665328 0.676989
O O13 0.000000 0.599249 0.766923
O O14 0.874114 0.616045 0.887382
O O15 0.500000 0.746365 0.122804
O O16 0.386637 0.835941 0.198502
O O17 0.373762 0.759445 0.003272
O O18 0.000000 0.659168 0.994086
O O19 0.500000 0.752303 0.876435
O O20 0.750000 0.890795 0.250000
#
# Coordination Sequence:
#
# PCOD8218300 Si02
#       8
#     8   8   8   8   8   8   8   8
#     4  10  18  35  63  85 108 142 185 233 278 327
#     4   9  16  25  45  77 113 146 175 214 268 320
#     4  10  20  38  62  84 106 143 189 234 276 323
#     4   9  15  25  44  79 117 141 169 221 275 314
#     4  10  20  36  55  77 109 150 187 217 260 330
#     4   9  14  24  47  77 111 143 171 215 273 320
#     4   9  18  32  52  78 110 146 181 216 265 320
#     4  12  25  39  54  81 111 141 177 230 286 334
#
# _framework density 19.892332
#
# number of rings (size 3 to 8) (size 9 to 14) (size 15 to 20)
#    0.000    2.250    2.500    1.875    0.000    3.500 
#    4.500    4.375    0.000    0.000    0.000    4.375 
#    0.000    0.000    0.000    0.000    0.000    0.000 
#
# Total GULP energy -793524.672366 kJ/mol
# GULP energy per Si atom -12398.823006 kJ/mol
# Density = 1.984706 g / cm^3
# Si number density = 19.892332 Si / 1000 Ang^3
#
#
#
# Elastic Constant Matrix: (Units=GPa)
#
#
# Indices 1 2 3 4 5 6 
#
# 1 12.0683 7.4233 15.2562 0.0000 0.0000 0.0000
# 2 7.4233 169.4422 62.6741 0.0000 0.0000 0.0000
# 3 15.2562 62.6741 137.8626 0.0000 0.0000 0.0000
# 4 0.0000 0.0000 0.0000 16.3894 0.0000 0.0000
# 5 0.0000 0.0000 0.0000 0.0000 1.5121 0.0000
# 6 0.0000 0.0000 0.0000 0.0000 0.0000 -0.6854
#
#
#
# Elastic Compliance Matrix: (Units=1/GPa)
#
#
# Indices 1 2 3 4 5 6 
#
# 1 0.096355 -0.000333 -0.010511 0.000000 0.000000 0.000000
# 2 -0.000333 0.007096 -0.003189 0.000000 0.000000 0.000000
# 3 -0.010511 -0.003189 0.009867 0.000000 0.000000 0.000000
# 4 0.000000 0.000000 0.000000 0.061015 0.000000 0.000000
# 5 0.000000 0.000000 0.000000 0.000000 0.661343 0.000000
# 6 0.000000 0.000000 0.000000 0.000000 0.000000 -1.458949
#
#
# Mechanical properties :
#
#
# Convention : Reuss Voigt Hill
#
# Bulk Modulus (GPa) = 11.73024 54.45336 33.09180
# Shear Modulus (GPa) = -8.82160 19.04451 5.11146
#
# Velocity S-wave (km/s) = -2.10815 3.09751 1.60472
# Velocity P-wave (km/s) = 0.12676 6.34242 4.48387
#
# Compressibility (1/GPa) = 0.08524975
#
# Stress axis : x y z
#
# Youngs Moduli (GPa) = 10.37833 140.92684 101.35256
#
# Poissons Ratio (x) = 0.04698 1.06534
# Poissons Ratio (y) = 0.00346 0.32321
# Poissons Ratio (z) = 0.10909 0.44941
#
# Static dielectric constant tensor:
#      x y z
#    x 2.892680 0.000000 0.000000 
#    y 0.000000 3.896020 0.000000 
#    z 0.000000 0.000000 3.848050 
# 
# 
# High freq. dielectric constant tensor:
#      x y z
#    x 1.700150 0.000000 0.000000 
#    y 0.000000 1.796170 0.000000 
#    z 0.000000 0.000000 1.781420 
# 
# From -- ./inp_files/17078.got.cif
#   From: 2010.03.12/outbox.cif.g09.slc.cpg/sg53_9_cif.got.tgz:17078.got - 2010.04.16 14:36:59.
