data_PCOD8218383
_publ_section_title
;
Structure prediction by ZEFSAII (Michael W. Deem and Ramdas Pophale) SiO2 
 PCOD8218383
Probable space group: P M N A
;
_chemical_formula_sum "Si O2"
_cell_formula_units_Z 56
_cell_length_a 9.196597
_cell_length_b 20.522778
_cell_length_c 16.903429
_cell_angle_alpha 90.000000
_cell_angle_beta 90.000000
_cell_angle_gamma 90.000000
_cell_volume 3190.348433
_symmetry_space_group_name_H-M "P M N A"
_symmetry_group_IT_number 53
_symmetry_cell_setting 'orthorhombic'
loop_
_space_group_symop_operation_xyz
x,y,z
1/2-x,-y,1/2+z
x,-y,-z
1/2-x,y,1/2-z
-x,-y,-z
1/2+x,y,1/2-z
-x,y,z
1/2+x,-y,1/2+z
loop_
_atom_site_type_symbol
_atom_site_label
_atom_site_fract_x
_atom_site_fract_y
_atom_site_fract_z
Si Si1 0.829419 0.650306 0.324456
Si Si2 0.826679 0.922135 0.167515
Si Si3 0.835451 0.465515 0.881822
Si Si4 0.668228 0.709190 0.010674
Si Si5 0.829138 0.141811 0.520161
Si Si6 0.337606 0.597639 0.553430
Si Si7 0.658977 0.045282 0.424468
O O1 0.750000 0.684312 0.250000
O O2 0.775769 0.575134 0.328084
O O3 0.779442 0.690336 0.401315
O O4 0.000000 0.652355 0.311050
O O5 0.750000 0.904166 0.250000
O O6 0.758617 0.876731 0.099184
O O7 0.000000 0.909397 0.171993
O O8 0.793548 0.998413 0.148137
O O9 0.784281 0.541495 0.885127
O O10 0.000000 0.460553 0.848125
O O11 0.831533 0.434717 0.968168
O O12 0.500000 0.694640 0.002196
O O13 0.706496 0.784219 0.996672
O O14 0.742982 0.663611 0.944380
O O15 0.778262 0.100411 0.443360
O O16 0.000000 0.130396 0.535322
O O17 0.500000 0.618794 0.575649
O O18 0.500000 0.076981 0.407193
O O19 0.643608 0.000000 0.500000
#
# Coordination Sequence:
#
# PCOD8218383 Si02
#       7
#     8   8   8   8   8   8   8
#     4  10  19  30  42  58  84 118 151 182 218 260
#     4  10  20  33  49  70  95 121 153 192 231 274
#     4   8  14  26  42  61  82 104 137 179 218 255
#     4   9  19  31  42  62  91 119 149 182 216 259
#     4  10  19  31  47  68  95 126 158 190 226 271
#     4   8  14  25  43  63  82 106 137 175 216 255
#     4   8  16  31  48  67  91 118 150 190 232 272
#
# _framework density 17.552941000000001
#
# number of rings (size 3 to 8) (size 9 to 14) (size 15 to 20)
#    0.000    3.000    0.000    3.000    0.000    6.000 
#    0.000    4.286    0.000    0.000    0.000    1.000 
#    0.000    4.571    0.000    0.000    0.000    0.000 
#
# Total GULP energy -693913.170541 kJ/mol
# GULP energy per Si atom -12391.306617 kJ/mol
# Density = 1.751299 g / cm^3
# Si number density = 17.552941 Si / 1000 Ang^3
#
#
#
# Elastic Constant Matrix: (Units=GPa)
#
#
# Indices 1 2 3 4 5 6 
#
# 1 70.7705 37.5898 4.3406 0.0000 0.0000 0.0000
# 2 37.5898 91.3659 1.1219 0.0000 0.0000 0.0000
# 3 4.3406 1.1219 6.5024 0.0000 0.0000 0.0000
# 4 0.0000 0.0000 0.0000 15.0074 0.0000 0.0000
# 5 0.0000 0.0000 0.0000 0.0000 22.8461 0.0000
# 6 0.0000 0.0000 0.0000 0.0000 0.0000 30.0354
#
#
#
# Elastic Compliance Matrix: (Units=1/GPa)
#
#
# Indices 1 2 3 4 5 6 
#
# 1 0.018873 -0.007626 -0.011283 0.000000 0.000000 0.000000
# 2 -0.007626 0.014050 0.002667 0.000000 0.000000 0.000000
# 3 -0.011283 0.002667 0.160860 0.000000 0.000000 0.000000
# 4 0.000000 0.000000 0.000000 0.066634 0.000000 0.000000
# 5 0.000000 0.000000 0.000000 0.000000 0.043771 0.000000
# 6 0.000000 0.000000 0.000000 0.000000 0.000000 0.033294
#
#
# Mechanical properties :
#
#
# Convention : Reuss Voigt Hill
#
# Bulk Modulus (GPa) = 6.19967 28.30483 17.25225
# Shear Modulus (GPa) = 11.79990 21.95020 16.87505
#
# Velocity S-wave (km/s) = 2.59558 3.54010 3.10398
# Velocity P-wave (km/s) = 3.53870 5.73325 4.76406
#
# Compressibility (1/GPa) = 0.16129883
#
# Stress axis : x y z
#
# Youngs Moduli (GPa) = 52.98631 71.17537 6.21657
#
# Poissons Ratio (x) = 0.54279 0.07014
# Poissons Ratio (y) = 0.40408 -0.01658
# Poissons Ratio (z) = 0.59782 -0.18979
#
# Static dielectric constant tensor:
#      x y z
#    x 3.330650 0.000000 0.000000 
#    y 0.000000 3.419450 0.000000 
#    z 0.000000 0.000000 3.150290 
# 
# 
# High freq. dielectric constant tensor:
#      x y z
#    x 1.683080 0.000000 0.000000 
#    y 0.000000 1.668690 0.000000 
#    z 0.000000 0.000000 1.637600 
# 
# From -- ./inp_files/31314.got.cif
#   From: 2010.03.12/outbox.cif.g09.slc.cpg/sg53_16_cif.got.tgz:31314.got - 2010.04.16 14:36:59.
