data_PCOD8218331
_publ_section_title
;
Structure prediction by ZEFSAII (Michael W. Deem and Ramdas Pophale) SiO2 
 PCOD8218331
Probable space group: P M N A
;
_chemical_formula_sum "Si O2"
_cell_formula_units_Z 64
_cell_length_a 8.891117
_cell_length_b 26.343070
_cell_length_c 18.328734
_cell_angle_alpha 90.000000
_cell_angle_beta 90.000000
_cell_angle_gamma 90.000000
_cell_volume 4292.943568
_symmetry_space_group_name_H-M "P M N A"
_symmetry_group_IT_number 53
_symmetry_cell_setting 'orthorhombic'
loop_
_space_group_symop_operation_xyz
x,y,z
1/2-x,-y,1/2+z
x,-y,-z
1/2-x,y,1/2-z
-x,-y,-z
1/2+x,y,1/2-z
-x,y,z
1/2+x,-y,1/2+z
loop_
_atom_site_type_symbol
_atom_site_label
_atom_site_fract_x
_atom_site_fract_y
_atom_site_fract_z
Si Si1 0.822137 0.003911 0.826510
Si Si2 0.677265 0.494359 0.827613
Si Si3 0.823661 0.401439 0.907971
Si Si4 0.824012 0.197089 0.673415
Si Si5 0.673631 0.095406 0.907716
Si Si6 0.166163 0.549306 0.950127
Si Si7 0.177163 0.300342 0.827171
Si Si8 0.334491 0.054286 0.462464
O O1 0.750000 0.990027 0.750000
O O2 0.776907 0.957273 0.880395
O O3 0.000000 0.008558 0.819144
O O4 0.764658 0.057969 0.855330
O O5 0.750000 0.506250 0.750000
O O6 0.500000 0.492665 0.818953
O O7 0.733015 0.440293 0.857284
O O8 0.721304 0.540237 0.882810
O O9 0.784141 0.344460 0.884417
O O10 0.000000 0.413931 0.897560
O O11 0.778730 0.406446 0.993974
O O12 0.750000 0.181547 0.750000
O O13 0.793076 0.152890 0.615463
O O14 0.748670 0.248327 0.642335
O O15 0.000000 0.206286 0.686030
O O16 0.500000 0.081152 0.899964
O O17 0.722094 0.090299 0.992545
O O18 0.000000 0.561649 0.918613
O O19 0.158297 0.500000 0.000000
O O20 0.250000 0.314858 0.750000
O O21 0.000000 0.293301 0.816607
O O22 0.500000 0.079777 0.461641
O O23 0.345783 0.000000 0.500000
#
# Coordination Sequence:
#
# PCOD8218331 Si02
#       8
#     8   8   8   8   8   8   8   8
#     4  10  19  29  42  61  84 110 139 170 204 242
#     4  11  20  28  41  61  84 111 142 171 202 241
#     4   9  18  31  45  61  82 109 139 170 207 246
#     4  10  20  31  42  59  82 108 139 174 208 239
#     4  10  19  29  43  61  81 109 142 172 205 244
#     4   8  15  29  44  58  81 108 133 167 206 242
#     4  10  19  30  44  61  81 108 140 172 206 241
#     4   8  16  29  42  58  81 107 135 168 204 242
#
# _framework density 14.908186000000001
#
# number of rings (size 3 to 8) (size 9 to 14) (size 15 to 20)
#    0.000    2.500    0.000    5.625    0.000   10.000 
#    0.000    0.000    0.000    0.000    0.000    0.000 
#    0.000    1.000    0.000    9.000    0.000    5.750 
#
# Total GULP energy -793327.463182 kJ/mol
# GULP energy per Si atom -12395.741612 kJ/mol
# Density = 1.487425 g / cm^3
# Si number density = 14.908186 Si / 1000 Ang^3
#
#
#
# Elastic Constant Matrix: (Units=GPa)
#
#
# Indices 1 2 3 4 5 6 
#
# 1 96.3182 45.8145 56.9155 0.0000 0.0000 0.0000
# 2 45.8145 81.5509 56.7910 0.0000 0.0000 0.0000
# 3 56.9155 56.7910 114.4272 0.0000 0.0000 0.0000
# 4 0.0000 0.0000 0.0000 25.6243 0.0000 0.0000
# 5 0.0000 0.0000 0.0000 0.0000 25.1816 0.0000
# 6 0.0000 0.0000 0.0000 0.0000 0.0000 9.1724
#
#
#
# Elastic Compliance Matrix: (Units=1/GPa)
#
#
# Indices 1 2 3 4 5 6 
#
# 1 0.016070 -0.005290 -0.005368 0.000000 0.000000 0.000000
# 2 -0.005290 0.020480 -0.007533 0.000000 0.000000 0.000000
# 3 -0.005368 -0.007533 0.015148 0.000000 0.000000 0.000000
# 4 0.000000 0.000000 0.000000 0.039025 0.000000 0.000000
# 5 0.000000 0.000000 0.000000 0.000000 0.039712 0.000000
# 6 0.000000 0.000000 0.000000 0.000000 0.000000 0.109023
#
#
# Mechanical properties :
#
#
# Convention : Reuss Voigt Hill
#
# Bulk Modulus (GPa) = 65.29008 67.92646 66.60827
# Shear Modulus (GPa) = 17.79697 20.84733 19.32215
#
# Velocity S-wave (km/s) = 3.45885 3.74355 3.60401
# Velocity P-wave (km/s) = 7.73572 8.02170 7.88001
#
# Compressibility (1/GPa) = 0.01531626
#
# Stress axis : x y z
#
# Youngs Moduli (GPa) = 62.22597 48.82749 66.01580
#
# Poissons Ratio (x) = 0.25830 0.35436
# Poissons Ratio (y) = 0.32918 0.49731
# Poissons Ratio (z) = 0.33402 0.36783
#
# Static dielectric constant tensor:
#      x y z
#    x 2.985710 0.000000 0.000000 
#    y 0.000000 2.795550 0.000000 
#    z 0.000000 0.000000 3.194140 
# 
# 
# High freq. dielectric constant tensor:
#      x y z
#    x 1.583380 0.000000 0.000000 
#    y 0.000000 1.536020 0.000000 
#    z 0.000000 0.000000 1.561850 
# 
# From -- ./inp_files/27082.got.cif
#   From: 2010.03.12/outbox.cif.g09.slc.cpg/sg53_14_cif.got.tgz:27082.got - 2010.04.16 14:36:59.
