data_PCOD8218638
_publ_section_title
;
Structure prediction by ZEFSAII (Michael W. Deem and Ramdas Pophale) SiO2 
 PCOD8218638
Probable space group: P M N A
;
_chemical_formula_sum "Si O2"
_cell_formula_units_Z 64
_cell_length_a 8.932769
_cell_length_b 17.176384
_cell_length_c 20.148098
_cell_angle_alpha 90.000000
_cell_angle_beta 90.000000
_cell_angle_gamma 90.000000
_cell_volume 3091.376482
_symmetry_space_group_name_H-M "P M N A"
_symmetry_group_IT_number 53
_symmetry_cell_setting 'orthorhombic'
loop_
_space_group_symop_operation_xyz
x,y,z
1/2-x,-y,1/2+z
x,-y,-z
1/2-x,y,1/2-z
-x,-y,-z
1/2+x,y,1/2-z
-x,y,z
1/2+x,-y,1/2+z
loop_
_atom_site_type_symbol
_atom_site_label
_atom_site_fract_x
_atom_site_fract_y
_atom_site_fract_z
Si Si1 0.829810 0.110950 0.482591
Si Si2 0.677944 0.605608 0.319876
Si Si3 0.671546 0.780691 0.314456
Si Si4 0.671497 0.930376 0.393505
Si Si5 0.175262 0.426057 0.545622
Si Si6 0.823554 0.760280 0.684952
Si Si7 0.170650 0.284851 0.459312
Si Si8 0.670600 0.089312 0.350364
O O1 0.788484 0.058626 0.546276
O O2 0.815600 0.203351 0.497892
O O3 0.705081 0.092643 0.428337
O O4 0.000000 0.092310 0.459510
O O5 0.750000 0.576226 0.250000
O O6 0.500000 0.593961 0.315888
O O7 0.729574 0.694748 0.333445
O O8 0.742116 0.559894 0.383835
O O9 0.750000 0.814006 0.250000
O O10 0.500000 0.774002 0.296366
O O11 0.704865 0.843021 0.370696
O O12 0.500000 0.937355 0.418084
O O13 0.698657 0.996629 0.336166
O O14 0.206393 0.500000 0.500000
O O15 0.245009 0.352023 0.504875
O O16 0.000000 0.414343 0.560636
O O17 0.750000 0.719528 0.750000
O O18 0.760752 0.722850 0.616140
O O19 0.781326 0.852579 0.688053
O O20 0.000000 0.752514 0.689630
O O21 0.000000 0.309892 0.448302
O O22 0.500000 0.114643 0.335474
#
# Coordination Sequence:
#
# PCOD8218638 Si02
#       8
#     8   8   8   8   8   8   8   8
#     4  10  19  31  49  71  96 129 171 216 260 314
#     4  10  20  36  59  84 113 149 187 225 263 314
#     4   9  19  34  50  71  98 131 172 213 255 303
#     4  10  20  32  46  68  99 132 168 215 269 321
#     4  10  20  36  60  88 118 149 179 217 268 323
#     4  10  20  36  56  76 101 136 182 231 276 327
#     4   8  17  34  54  78 107 139 177 220 268 324
#     4  10  20  33  48  68  98 134 171 217 271 321
#
# _framework density 20.702753000000001
#
# number of rings (size 3 to 8) (size 9 to 14) (size 15 to 20)
#    0.000    2.375    0.000    3.375    0.000    4.250 
#    0.000    5.000    0.000    1.500    0.000    0.000 
#    0.000    0.000    0.000    0.000    0.000    0.000 
#
# Total GULP energy -792999.473104 kJ/mol
# GULP energy per Si atom -12390.616767 kJ/mol
# Density = 2.065563 g / cm^3
# Si number density = 20.702753 Si / 1000 Ang^3
#
#
#
# Elastic Constant Matrix: (Units=GPa)
#
#
# Indices 1 2 3 4 5 6 
#
# 1 58.8623 15.0904 39.7488 0.0000 0.0000 0.0000
# 2 15.0904 52.4419 23.3834 0.0000 0.0000 0.0000
# 3 39.7488 23.3834 117.7740 0.0000 0.0000 0.0000
# 4 0.0000 0.0000 0.0000 23.0471 0.0000 0.0000
# 5 0.0000 0.0000 0.0000 0.0000 35.0040 0.0000
# 6 0.0000 0.0000 0.0000 0.0000 0.0000 14.9447
#
#
#
# Elastic Compliance Matrix: (Units=1/GPa)
#
#
# Indices 1 2 3 4 5 6 
#
# 1 0.022541 -0.003395 -0.006934 0.000000 0.000000 0.000000
# 2 -0.003395 0.021432 -0.003110 0.000000 0.000000 0.000000
# 3 -0.006934 -0.003110 0.011448 0.000000 0.000000 0.000000
# 4 0.000000 0.000000 0.000000 0.043389 0.000000 0.000000
# 5 0.000000 0.000000 0.000000 0.000000 0.028568 0.000000
# 6 0.000000 0.000000 0.000000 0.000000 0.000000 0.066914
#
#
# Mechanical properties :
#
#
# Convention : Reuss Voigt Hill
#
# Bulk Modulus (GPa) = 35.03130 42.83592 38.93361
# Shear Modulus (GPa) = 21.67470 24.65622 23.16546
#
# Velocity S-wave (km/s) = 3.23917 3.45478 3.34871
# Velocity P-wave (km/s) = 5.56304 6.05391 5.81366
#
# Compressibility (1/GPa) = 0.02854590
#
# Stress axis : x y z
#
# Youngs Moduli (GPa) = 44.36305 46.65910 87.34896
#
# Poissons Ratio (x) = 0.15839 0.60565
# Poissons Ratio (y) = 0.15060 0.27161
# Poissons Ratio (z) = 0.30760 0.14509
#
# Static dielectric constant tensor:
#      x y z
#    x 3.542070 0.000000 0.000000 
#    y 0.000000 3.854790 0.000000 
#    z 0.000000 0.000000 3.734240 
# 
# 
# High freq. dielectric constant tensor:
#      x y z
#    x 1.794030 0.000000 0.000000 
#    y 0.000000 1.795190 0.000000 
#    z 0.000000 0.000000 1.806520 
# 
# From -- ./inp_files/31283.got.cif
#   From: 2010.03.12/outbox.cif.g09.slc.cpg/sg53_16_cif.got.tgz:31283.got - 2010.04.16 14:36:59.
