data_PCOD8218882
_publ_section_title
;
Structure prediction by ZEFSAII (Michael W. Deem and Ramdas Pophale) SiO2 
 PCOD8218882
Probable space group: P M N A
;
_chemical_formula_sum "Si O2"
_cell_formula_units_Z 64
_cell_length_a 9.066057
_cell_length_b 22.560750
_cell_length_c 15.876793
_cell_angle_alpha 90.000000
_cell_angle_beta 90.000000
_cell_angle_gamma 90.000000
_cell_volume 3247.392332
_symmetry_space_group_name_H-M "P M N A"
_symmetry_group_IT_number 53
_symmetry_cell_setting 'orthorhombic'
loop_
_space_group_symop_operation_xyz
x,y,z
1/2-x,-y,1/2+z
x,-y,-z
1/2-x,y,1/2-z
-x,-y,-z
1/2+x,y,1/2-z
-x,y,z
1/2+x,-y,1/2+z
loop_
_atom_site_type_symbol
_atom_site_label
_atom_site_fract_x
_atom_site_fract_y
_atom_site_fract_z
Si Si1 0.166768 0.809142 0.834503
Si Si2 0.829346 0.578008 0.835900
Si Si3 0.672457 0.620764 0.005092
Si Si4 0.168511 0.756123 0.511504
Si Si5 0.669119 0.129415 0.919849
Si Si6 0.333695 0.036624 0.672271
Si Si7 0.170290 0.562367 0.164368
Si Si8 0.164689 0.923842 0.932569
O O1 0.250000 0.793057 0.750000
O O2 0.179263 0.879338 0.853416
O O3 0.000000 0.789128 0.821703
O O4 0.229318 0.768862 0.909219
O O5 0.750000 0.600156 0.750000
O O6 0.818139 0.507770 0.842763
O O7 0.000000 0.598612 0.834585
O O8 0.747308 0.605182 0.916386
O O9 0.500000 0.602974 0.001498
O O10 0.693511 0.690355 0.022540
O O11 0.749781 0.587748 0.082201
O O12 0.207667 0.801445 0.435125
O O13 0.000000 0.766918 0.539874
O O14 0.500000 0.119662 0.896612
O O15 0.766736 0.101708 0.845671
O O16 0.706690 0.092330 0.003571
O O17 0.250000 0.006857 0.750000
O O18 0.500000 0.045902 0.699297
O O19 0.315941 0.992069 0.594005
O O20 0.250000 0.584700 0.250000
O O21 0.000000 0.583234 0.166381
O O22 0.000000 0.915650 0.973124
#
# Coordination Sequence:
#
# PCOD8218882 Si02
#       8
#     8   8   8   8   8   8   8   8
#     4  10  19  32  52  76 104 139 176 216 265 319
#     4  10  21  37  58  87 122 156 188 225 272 328
#     4  11  22  37  59  85 114 150 191 234 280 328
#     4   9  21  39  55  74 103 140 182 224 263 312
#     4  10  20  36  56  75  99 133 172 212 257 309
#     4  11  22  35  52  76 105 132 164 209 260 314
#     4  10  21  38  60  87 118 150 187 231 279 330
#     4   9  19  34  52  76 104 133 166 207 257 315
#
# _framework density 19.708120999999998
#
# number of rings (size 3 to 8) (size 9 to 14) (size 15 to 20)
#    0.000    2.000    0.000    3.375    0.000    8.000 
#    0.000    0.625    0.000    0.000    0.000    0.000 
#    0.000    0.000    0.000    0.000    0.000    0.000 
#
# Total GULP energy -793553.131152 kJ/mol
# GULP energy per Si atom -12399.267674 kJ/mol
# Density = 1.966326 g / cm^3
# Si number density = 19.708121 Si / 1000 Ang^3
#
#
#
# Elastic Constant Matrix: (Units=GPa)
#
#
# Indices 1 2 3 4 5 6 
#
# 1 131.2065 37.6775 49.8423 0.0000 0.0000 0.0000
# 2 37.6775 59.1517 24.2923 0.0000 0.0000 0.0000
# 3 49.8423 24.2923 89.6221 0.0000 0.0000 0.0000
# 4 0.0000 0.0000 0.0000 15.6574 0.0000 0.0000
# 5 0.0000 0.0000 0.0000 0.0000 39.9016 0.0000
# 6 0.0000 0.0000 0.0000 0.0000 0.0000 46.0137
#
#
#
# Elastic Compliance Matrix: (Units=1/GPa)
#
#
# Indices 1 2 3 4 5 6 
#
# 1 0.010825 -0.004977 -0.004671 0.000000 0.000000 0.000000
# 2 -0.004977 0.021311 -0.003009 0.000000 0.000000 0.000000
# 3 -0.004671 -0.003009 0.014571 0.000000 0.000000 0.000000
# 4 0.000000 0.000000 0.000000 0.063868 0.000000 0.000000
# 5 0.000000 0.000000 0.000000 0.000000 0.025062 0.000000
# 6 0.000000 0.000000 0.000000 0.000000 0.000000 0.021733
#
#
# Mechanical properties :
#
#
# Convention : Reuss Voigt Hill
#
# Bulk Modulus (GPa) = 46.74160 55.95606 51.34883
# Shear Modulus (GPa) = 26.34140 31.52575 28.93358
#
# Velocity S-wave (km/s) = 3.65989 4.00388 3.83574
# Velocity P-wave (km/s) = 6.45198 7.05895 6.76228
#
# Compressibility (1/GPa) = 0.02139422
#
# Stress axis : x y z
#
# Youngs Moduli (GPa) = 92.37639 46.92331 68.62761
#
# Poissons Ratio (x) = 0.23353 0.32058
# Poissons Ratio (y) = 0.45975 0.20648
# Poissons Ratio (z) = 0.43152 0.14118
#
# Static dielectric constant tensor:
#      x y z
#    x 3.783500 0.000000 0.000000 
#    y 0.000000 3.595060 0.000000 
#    z 0.000000 0.000000 3.513630 
# 
# 
# High freq. dielectric constant tensor:
#      x y z
#    x 1.782520 0.000000 0.000000 
#    y 0.000000 1.759790 0.000000 
#    z 0.000000 0.000000 1.761770 
# 
# From -- ./inp_files/20933.got.cif
#   From: 2010.03.12/outbox.cif.g09.slc.cpg/sg53_11_cif.got.tgz:20933.got - 2010.04.16 14:36:59.
