data_PCOD8218633
_publ_section_title
;
Structure prediction by ZEFSAII (Michael W. Deem and Ramdas Pophale) SiO2 
 PCOD8218633
Probable space group: P M N A
;
_chemical_formula_sum "Si O2"
_cell_formula_units_Z 48
_cell_length_a 8.670202
_cell_length_b 15.007367
_cell_length_c 20.501387
_cell_angle_alpha 90.000000
_cell_angle_beta 90.000000
_cell_angle_gamma 90.000000
_cell_volume 2667.576991
_symmetry_space_group_name_H-M "P M N A"
_symmetry_group_IT_number 53
_symmetry_cell_setting 'orthorhombic'
loop_
_space_group_symop_operation_xyz
x,y,z
1/2-x,-y,1/2+z
x,-y,-z
1/2-x,y,1/2-z
-x,-y,-z
1/2+x,y,1/2-z
-x,y,z
1/2+x,-y,1/2+z
loop_
_atom_site_type_symbol
_atom_site_label
_atom_site_fract_x
_atom_site_fract_y
_atom_site_fract_z
Si Si1 0.818022 0.084358 0.456058
Si Si2 0.680202 0.502688 0.814872
Si Si3 0.322549 0.734143 0.522634
Si Si4 0.318668 0.117085 0.316817
Si Si5 0.319908 0.699169 0.845338
Si Si6 0.323610 0.564562 0.443300
O O1 0.737257 0.166796 0.493356
O O2 0.756454 0.073709 0.381764
O O3 0.000000 0.100264 0.452454
O O4 0.774618 0.000000 0.500000
O O5 0.750000 0.457910 0.750000
O O6 0.500000 0.497169 0.810976
O O7 0.735559 0.605361 0.816453
O O8 0.731111 0.447538 0.877328
O O9 0.500000 0.739131 0.546607
O O10 0.213758 0.693325 0.578029
O O11 0.306956 0.668836 0.461026
O O12 0.250000 0.073843 0.250000
O O13 0.500000 0.100175 0.318810
O O14 0.282100 0.222516 0.314174
O O15 0.500000 0.719016 0.833326
O O16 0.256946 0.500000 0.500000
O O17 0.500000 0.537306 0.430642
#
# Coordination Sequence:
#
# PCOD8218633 Si02
#       6
#     8   8   8   8   8   8
#     4  10  21  37  57  81 110 141 175 219 269 319
#     4  11  23  34  49  72 103 143 183 226 269 314
#     4  10  19  32  54  80 105 139 176 218 264 310
#     4  11  21  33  52  77 108 142 175 214 263 321
#     4  10  19  31  48  74 106 140 176 214 259 314
#     4  10  20  35  54  76 106 141 179 219 260 311
#
# _framework density 17.993857999999999
#
# number of rings (size 3 to 8) (size 9 to 14) (size 15 to 20)
#    0.000    1.667    1.667    6.000    0.000    6.333 
#    0.000    0.000    0.000    1.000    0.000    7.000 
#    0.000    0.000    0.000    0.000    0.000    0.000 
#
# Total GULP energy -595137.999724 kJ/mol
# GULP energy per Si atom -12398.708328 kJ/mol
# Density = 1.795290 g / cm^3
# Si number density = 17.993858 Si / 1000 Ang^3
#
#
#
# Elastic Constant Matrix: (Units=GPa)
#
#
# Indices 1 2 3 4 5 6 
#
# 1 60.5375 39.0024 29.6961 0.0000 0.0000 0.0000
# 2 39.0024 81.8599 57.9731 0.0000 0.0000 0.0000
# 3 29.6961 57.9731 123.6074 0.0000 0.0000 0.0000
# 4 0.0000 0.0000 0.0000 37.6324 0.0000 0.0000
# 5 0.0000 0.0000 0.0000 0.0000 27.5521 0.0000
# 6 0.0000 0.0000 0.0000 0.0000 0.0000 18.9940
#
#
#
# Elastic Compliance Matrix: (Units=1/GPa)
#
#
# Indices 1 2 3 4 5 6 
#
# 1 0.023865 -0.010946 -0.000600 0.000000 0.000000 0.000000
# 2 -0.010946 0.023312 -0.008304 0.000000 0.000000 0.000000
# 3 -0.000600 -0.008304 0.012129 0.000000 0.000000 0.000000
# 4 0.000000 0.000000 0.000000 0.026573 0.000000 0.000000
# 5 0.000000 0.000000 0.000000 0.000000 0.036295 0.000000
# 6 0.000000 0.000000 0.000000 0.000000 0.000000 0.052648
#
#
# Mechanical properties :
#
#
# Convention : Reuss Voigt Hill
#
# Bulk Modulus (GPa) = 51.00247 57.70530 54.35389
# Shear Modulus (GPa) = 22.61870 26.12456 24.37163
#
# Velocity S-wave (km/s) = 3.54930 3.81446 3.68427
# Velocity P-wave (km/s) = 6.72329 7.17908 6.95492
#
# Compressibility (1/GPa) = 0.01960689
#
# Stress axis : x y z
#
# Youngs Moduli (GPa) = 41.90258 42.89656 82.44833
#
# Poissons Ratio (x) = 0.46953 0.04945
# Poissons Ratio (y) = 0.45865 0.68464
# Poissons Ratio (z) = 0.02513 0.35621
#
# Static dielectric constant tensor:
#      x y z
#    x 3.398330 0.000000 0.000000 
#    y 0.000000 3.192370 0.000000 
#    z 0.000000 0.000000 3.403190 
# 
# 
# High freq. dielectric constant tensor:
#      x y z
#    x 1.710150 0.000000 0.000000 
#    y 0.000000 1.663240 0.000000 
#    z 0.000000 0.000000 1.696110 
# 
# From -- ./inp_files/30472.got.cif
#   From: 2010.03.12/outbox.cif.g09.slc.cpg/sg53_16_cif.got.tgz:30472.got - 2010.04.16 14:36:59.
