data_PCOD8218259
_publ_section_title
;
Structure prediction by ZEFSAII (Michael W. Deem and Ramdas Pophale) SiO2 
 PCOD8218259
Probable space group: P M N A
;
_chemical_formula_sum "Si O2"
_cell_formula_units_Z 40
_cell_length_a 11.917454
_cell_length_b 10.077903
_cell_length_c 18.588329
_cell_angle_alpha 90.000000
_cell_angle_beta 90.000000
_cell_angle_gamma 90.000000
_cell_volume 2232.513063
_symmetry_space_group_name_H-M "P M N A"
_symmetry_group_IT_number 53
_symmetry_cell_setting 'orthorhombic'
loop_
_space_group_symop_operation_xyz
x,y,z
1/2-x,-y,1/2+z
x,-y,-z
1/2-x,y,1/2-z
-x,-y,-z
1/2+x,y,1/2-z
-x,y,z
1/2+x,-y,1/2+z
loop_
_atom_site_type_symbol
_atom_site_label
_atom_site_fract_x
_atom_site_fract_y
_atom_site_fract_z
Si Si1 0.500000 0.789252 0.470021
Si Si2 0.367112 0.213918 0.074070
Si Si3 0.260556 0.751706 0.426867
Si Si4 0.376957 0.504817 0.085448
Si Si5 0.266828 0.011233 0.333850
Si Si6 0.500000 0.068092 0.390851
O O1 0.388260 0.711367 0.446482
O O2 0.500000 0.805849 0.556074
O O3 0.500000 0.933769 0.435622
O O4 0.500000 0.199967 0.059965
O O5 0.338757 0.357595 0.109921
O O6 0.327162 0.103285 0.129837
O O7 0.304610 0.196796 0.997646
O O8 0.207418 0.620586 0.390325
O O9 0.257630 0.866364 0.368138
O O10 0.500000 0.538793 0.117069
O O11 0.382689 0.500000 0.000000
O O12 0.250000 0.996115 0.250000
O O13 0.388964 0.076462 0.342924
#
# Coordination Sequence:
#
# PCOD8218259 Si02
#       6
#     4   8   8   8   8   4
#     4   9  16  30  56  75 100 143 170 209 262 318
#     4  10  20  35  56  81 107 137 176 220 267 313
#     4  10  18  34  56  79 106 136 178 219 263 313
#     4   8  16  32  53  78 107 133 165 220 273 306
#     4  11  23  35  52  79 107 142 177 218 261 311
#     4   9  18  36  49  70 110 140 169 210 270 309
#
# _framework density 17.91703
#
# number of rings (size 3 to 8) (size 9 to 14) (size 15 to 20)
#    0.000    2.400    2.000    2.400    1.400    2.400 
#    0.000    6.500    0.000    0.000    0.000    0.000 
#    0.000    0.000    0.000    0.000    0.000    0.000 
#
# Total GULP energy -495843.741789 kJ/mol
# GULP energy per Si atom -12396.093545 kJ/mol
# Density = 1.787625 g / cm^3
# Si number density = 17.917030 Si / 1000 Ang^3
#
#
#
# Elastic Constant Matrix: (Units=GPa)
#
#
# Indices 1 2 3 4 5 6 
#
# 1 129.0374 39.5507 42.3069 0.0000 0.0000 0.0000
# 2 39.5507 65.5063 30.1975 0.0000 0.0000 0.0000
# 3 42.3069 30.1975 89.4675 0.0000 0.0000 0.0000
# 4 0.0000 0.0000 0.0000 6.4274 0.0000 0.0000
# 5 0.0000 0.0000 0.0000 0.0000 11.8061 0.0000
# 6 0.0000 0.0000 0.0000 0.0000 0.0000 31.2574
#
#
#
# Elastic Compliance Matrix: (Units=1/GPa)
#
#
# Indices 1 2 3 4 5 6 
#
# 1 0.010258 -0.004686 -0.003269 0.000000 0.000000 0.000000
# 2 -0.004686 0.020220 -0.004609 0.000000 0.000000 0.000000
# 3 -0.003269 -0.004609 0.014279 0.000000 0.000000 0.000000
# 4 0.000000 0.000000 0.000000 0.155584 0.000000 0.000000
# 5 0.000000 0.000000 0.000000 0.000000 0.084702 0.000000
# 6 0.000000 0.000000 0.000000 0.000000 0.000000 0.031992
#
#
# Mechanical properties :
#
#
# Convention : Reuss Voigt Hill
#
# Bulk Modulus (GPa) = 50.94683 56.45792 53.70238
# Shear Modulus (GPa) = 14.33876 21.36193 17.85034
#
# Velocity S-wave (km/s) = 2.83200 3.45667 3.15981
# Velocity P-wave (km/s) = 6.26021 6.89279 6.58410
#
# Compressibility (1/GPa) = 0.01962831
#
# Stress axis : x y z
#
# Youngs Moduli (GPa) = 97.48611 49.45663 70.03528
#
# Poissons Ratio (x) = 0.23178 0.22894
# Poissons Ratio (y) = 0.45687 0.32276
# Poissons Ratio (z) = 0.31867 0.22792
#
# Static dielectric constant tensor:
#      x y z
#    x 3.638910 0.000000 0.000000 
#    y 0.000000 3.522430 0.000000 
#    z 0.000000 0.000000 2.893560 
# 
# 
# High freq. dielectric constant tensor:
#      x y z
#    x 1.710180 0.000000 0.000000 
#    y 0.000000 1.688560 0.000000 
#    z 0.000000 0.000000 1.650080 
# 
# From -- ./inp_files/27498.got.cif
#   From: 2010.03.12/outbox.cif.g09.slc.cpg/sg53_14_cif.got.tgz:27498.got - 2010.04.16 14:36:59.
