data_PCOD8218312
_publ_section_title
;
Structure prediction by ZEFSAII (Michael W. Deem and Ramdas Pophale) SiO2 
 PCOD8218312
Probable space group: P M N A
;
_chemical_formula_sum "Si O2"
_cell_formula_units_Z 56
_cell_length_a 20.395654
_cell_length_b 12.614436
_cell_length_c 12.351456
_cell_angle_alpha 90.000000
_cell_angle_beta 90.000000
_cell_angle_gamma 90.000000
_cell_volume 3177.778549
_symmetry_space_group_name_H-M "P M N A"
_symmetry_group_IT_number 53
_symmetry_cell_setting 'orthorhombic'
loop_
_space_group_symop_operation_xyz
x,y,z
1/2-x,-y,1/2+z
x,-y,-z
1/2-x,y,1/2-z
-x,-y,-z
1/2+x,y,1/2-z
-x,y,z
1/2+x,-y,1/2+z
loop_
_atom_site_type_symbol
_atom_site_label
_atom_site_fract_x
_atom_site_fract_y
_atom_site_fract_z
Si Si1 0.077626 0.614584 0.873025
Si Si2 0.226853 0.139875 0.592378
Si Si3 0.427177 0.994709 0.383201
Si Si4 0.577547 0.620561 0.385271
Si Si5 0.574546 0.811486 0.761871
Si Si6 0.146495 0.190341 0.780170
Si Si7 0.794183 0.894345 0.646639
O O1 0.101841 0.495568 0.844859
O O2 0.100691 0.697299 0.780626
O O3 0.000000 0.618925 0.877193
O O4 0.103811 0.644381 0.993168
O O5 0.167088 0.198679 0.654203
O O6 0.292886 0.189297 0.638215
O O7 0.227061 0.163408 0.464501
O O8 0.218160 0.017730 0.626945
O O9 0.500000 0.947687 0.399867
O O10 0.391291 0.920083 0.297843
O O11 0.390704 0.000000 0.500000
O O12 0.429276 0.114269 0.342598
O O13 0.500000 0.623431 0.384137
O O14 0.602950 0.707624 0.302407
O O15 0.500000 0.805598 0.813656
O O16 0.629106 0.862130 0.840991
O O17 0.750000 0.857310 0.750000
#
# Coordination Sequence:
#
# PCOD8218312 Si02
#       7
#     8   8   8   8   8   8   8
#     4   8  16  31  51  82 112 138 176 221 271 326
#     4  10  23  35  51  74 105 146 184 216 260 332
#     4  10  19  27  44  79 110 130 164 218 276 322
#     4   9  17  30  54  81 109 142 176 219 277 327
#     4  10  19  33  53  78 107 137 177 227 265 310
#     4  11  19  34  52  75 106 143 175 221 267 320
#     4  11  21  38  55  76 107 147 184 213 272 330
#
# _framework density 17.622373
#
# number of rings (size 3 to 8) (size 9 to 14) (size 15 to 20)
#    0.000    2.143    2.857    2.143    6.000    2.286 
#    0.000    2.857    3.143    0.857    0.000    3.000 
#    0.000    0.000    0.000    0.000    0.000    0.000 
#
# Total GULP energy -693861.131794 kJ/mol
# GULP energy per Si atom -12390.377353 kJ/mol
# Density = 1.758226 g / cm^3
# Si number density = 17.622373 Si / 1000 Ang^3
#
#
#
# Elastic Constant Matrix: (Units=GPa)
#
#
# Indices 1 2 3 4 5 6 
#
# 1 51.1983 9.3856 24.4424 0.0000 0.0000 0.0000
# 2 9.3856 72.8865 15.3555 0.0000 0.0000 0.0000
# 3 24.4424 15.3555 100.8138 0.0000 0.0000 0.0000
# 4 0.0000 0.0000 0.0000 15.8031 0.0000 0.0000
# 5 0.0000 0.0000 0.0000 0.0000 17.2569 0.0000
# 6 0.0000 0.0000 0.0000 0.0000 0.0000 -4.9508
#
#
#
# Elastic Compliance Matrix: (Units=1/GPa)
#
#
# Indices 1 2 3 4 5 6 
#
# 1 0.022313 -0.001791 -0.005137 0.000000 0.000000 0.000000
# 2 -0.001791 0.014319 -0.001747 0.000000 0.000000 0.000000
# 3 -0.005137 -0.001747 0.011431 0.000000 0.000000 0.000000
# 4 0.000000 0.000000 0.000000 0.063279 0.000000 0.000000
# 5 0.000000 0.000000 0.000000 0.000000 0.057948 0.000000
# 6 0.000000 0.000000 0.000000 0.000000 0.000000 -0.201989
#
#
# Mechanical properties :
#
#
# Convention : Reuss Voigt Hill
#
# Bulk Modulus (GPa) = 32.55974 35.91840 34.23907
# Shear Modulus (GPa) = -977.84557 17.33618 -480.25470
#
# Velocity S-wave (km/s) = -23.58163 3.13990 -16.52626
# Velocity P-wave (km/s) = 26.88757 5.79412 18.56569
#
# Compressibility (1/GPa) = 0.03071277
#
# Stress axis : x y z
#
# Youngs Moduli (GPa) = 44.81765 69.83934 87.48306
#
# Poissons Ratio (x) = 0.12508 0.44939
# Poissons Ratio (y) = 0.08027 0.15281
# Poissons Ratio (z) = 0.23023 0.12199
#
# Static dielectric constant tensor:
#      x y z
#    x 3.294620 0.000000 0.000000 
#    y 0.000000 3.329870 0.000000 
#    z 0.000000 0.000000 3.346830 
# 
# 
# High freq. dielectric constant tensor:
#      x y z
#    x 1.671140 0.000000 0.000000 
#    y 0.000000 1.668120 0.000000 
#    z 0.000000 0.000000 1.660900 
# 
# From -- ./inp_files/18438.got.cif
#   From: 2010.03.12/outbox.cif.g09.slc.cpg/sg53_10_cif.got.tgz:18438.got - 2010.04.16 14:36:59.
