data_PCOD8218958
_publ_section_title
;
Structure prediction by ZEFSAII (Michael W. Deem and Ramdas Pophale) SiO2 
 PCOD8218958
Probable space group: P M N A
;
_chemical_formula_sum "Si O2"
_cell_formula_units_Z 64
_cell_length_a 8.720546
_cell_length_b 11.222918
_cell_length_c 33.846569
_cell_angle_alpha 90.000000
_cell_angle_beta 90.000000
_cell_angle_gamma 90.000000
_cell_volume 3312.562783
_symmetry_space_group_name_H-M "P M N A"
_symmetry_group_IT_number 53
_symmetry_cell_setting 'orthorhombic'
loop_
_space_group_symop_operation_xyz
x,y,z
1/2-x,-y,1/2+z
x,-y,-z
1/2-x,y,1/2-z
-x,-y,-z
1/2+x,y,1/2-z
-x,y,z
1/2+x,-y,1/2+z
loop_
_atom_site_type_symbol
_atom_site_label
_atom_site_fract_x
_atom_site_fract_y
_atom_site_fract_z
Si Si1 0.818266 0.895569 0.401546
Si Si2 0.681083 0.863167 0.629949
Si Si3 0.174673 0.456562 0.557296
Si Si4 0.175038 0.657999 0.361990
Si Si5 0.822945 0.705695 0.943250
Si Si6 0.817776 0.488778 0.709397
Si Si7 0.675358 0.775268 0.472527
Si Si8 0.181490 0.239869 0.291554
O O1 0.754137 0.784026 0.375620
O O2 0.778439 0.867470 0.447406
O O3 0.000000 0.912805 0.398080
O O4 0.730896 0.008501 0.385241
O O5 0.500000 0.860003 0.635250
O O6 0.735517 0.768442 0.596843
O O7 0.758299 0.838090 0.672026
O O8 0.190654 0.440440 0.604107
O O9 0.223296 0.589858 0.547292
O O10 0.281401 0.362131 0.535233
O O11 0.000000 0.435611 0.543402
O O12 0.254129 0.599042 0.323681
O O13 0.000000 0.684039 0.351653
O O14 0.000000 0.668000 0.939050
O O15 0.801873 0.796458 0.980366
O O16 0.750000 0.440178 0.750000
O O17 0.763616 0.624181 0.701538
O O18 0.000000 0.483927 0.710098
O O19 0.500000 0.796317 0.460111
O O20 0.250000 0.192171 0.250000
O O21 0.000000 0.228067 0.289420
#
# Coordination Sequence:
#
# PCOD8218958 Si02
#       8
#     8   8   8   8   8   8   8   8
#     4  10  21  38  57  77 103 140 187 233 276 322
#     4  11  23  39  57  79 108 144 188 231 272 323
#     4  10  19  32  53  80 107 137 178 226 274 328
#     4   8  16  32  52  73 101 136 170 210 263 318
#     4  10  22  36  52  77 110 146 181 222 275 334
#     4   9  17  31  52  79 109 136 163 202 256 316
#     4  10  20  36  55  76 107 145 181 221 276 335
#     4  10  20  36  59  86 114 143 174 214 267 324
#
# _framework density 19.32039
#
# number of rings (size 3 to 8) (size 9 to 14) (size 15 to 20)
#    0.000    2.250    0.000    3.750    0.000    5.500 
#    0.000    6.875    0.000    1.500    0.000    0.000 
#    0.000    0.000    0.000    0.000    0.000    0.000 
#
# Total GULP energy -793469.281693 kJ/mol
# GULP energy per Si atom -12397.957526 kJ/mol
# Density = 1.927642 g / cm^3
# Si number density = 19.320390 Si / 1000 Ang^3
#
#
#
# Elastic Constant Matrix: (Units=GPa)
#
#
# Indices 1 2 3 4 5 6 
#
# 1 47.5117 10.8924 25.3125 0.0000 0.0000 0.0000
# 2 10.8924 52.4189 29.9007 0.0000 0.0000 0.0000
# 3 25.3125 29.9007 120.8769 0.0000 0.0000 0.0000
# 4 0.0000 0.0000 0.0000 21.1895 0.0000 0.0000
# 5 0.0000 0.0000 0.0000 0.0000 30.9369 0.0000
# 6 0.0000 0.0000 0.0000 0.0000 0.0000 27.3006
#
#
#
# Elastic Compliance Matrix: (Units=1/GPa)
#
#
# Indices 1 2 3 4 5 6 
#
# 1 0.023961 -0.002465 -0.004408 0.000000 0.000000 0.000000
# 2 -0.002465 0.022465 -0.005041 0.000000 0.000000 0.000000
# 3 -0.004408 -0.005041 0.010443 0.000000 0.000000 0.000000
# 4 0.000000 0.000000 0.000000 0.047193 0.000000 0.000000
# 5 0.000000 0.000000 0.000000 0.000000 0.032324 0.000000
# 6 0.000000 0.000000 0.000000 0.000000 0.000000 0.036629
#
#
# Mechanical properties :
#
#
# Convention : Reuss Voigt Hill
#
# Bulk Modulus (GPa) = 30.26489 39.22429 34.74459
# Shear Modulus (GPa) = 24.05523 26.19888 25.12706
#
# Velocity S-wave (km/s) = 3.53238 3.68642 3.61022
# Velocity P-wave (km/s) = 5.68645 6.20207 5.94985
#
# Compressibility (1/GPa) = 0.03304159
#
# Stress axis : x y z
#
# Youngs Moduli (GPa) = 41.73480 44.51452 95.75931
#
# Poissons Ratio (x) = 0.10971 0.42210
# Poissons Ratio (y) = 0.10286 0.48271
# Poissons Ratio (z) = 0.18396 0.22439
#
# Static dielectric constant tensor:
#      x y z
#    x 3.405000 0.000000 0.000000 
#    y 0.000000 3.424600 0.000000 
#    z 0.000000 0.000000 3.783050 
# 
# 
# High freq. dielectric constant tensor:
#      x y z
#    x 1.744790 0.000000 0.000000 
#    y 0.000000 1.735620 0.000000 
#    z 0.000000 0.000000 1.762420 
# 
# From -- ./inp_files/38256.got.cif
#   From: 2010.03.12/outbox.cif.g09.slc.cpg/sg53_20_cif.got.tgz:38256.got - 2010.04.16 14:36:59.
