data_PCOD8218977
_publ_section_title
;
Structure prediction by ZEFSAII (Michael W. Deem and Ramdas Pophale) SiO2 
 PCOD8218977
Probable space group: P M N A
;
_chemical_formula_sum "Si O2"
_cell_formula_units_Z 64
_cell_length_a 9.008524
_cell_length_b 23.497875
_cell_length_c 15.717518
_cell_angle_alpha 90.000000
_cell_angle_beta 90.000000
_cell_angle_gamma 90.000000
_cell_volume 3327.102614
_symmetry_space_group_name_H-M "P M N A"
_symmetry_group_IT_number 53
_symmetry_cell_setting 'orthorhombic'
loop_
_space_group_symop_operation_xyz
x,y,z
1/2-x,-y,1/2+z
x,-y,-z
1/2-x,y,1/2-z
-x,-y,-z
1/2+x,y,1/2-z
-x,y,z
1/2+x,-y,1/2+z
loop_
_atom_site_type_symbol
_atom_site_label
_atom_site_fract_x
_atom_site_fract_y
_atom_site_fract_z
Si Si1 0.826592 0.435192 0.832742
Si Si2 0.173701 0.762176 0.993479
Si Si3 0.833430 0.534288 0.587252
Si Si4 0.325497 0.939472 0.907790
Si Si5 0.828078 0.630326 0.997999
Si Si6 0.675345 0.173504 0.665316
Si Si7 0.176157 0.064938 0.599405
Si Si8 0.324210 0.177610 0.163855
O O1 0.750000 0.407986 0.750000
O O2 0.763210 0.498824 0.845762
O O3 0.785676 0.393399 0.909522
O O4 0.000000 0.440038 0.817757
O O5 0.267946 0.788041 0.917190
O O6 0.000000 0.772626 0.976443
O O7 0.214366 0.696045 0.996373
O O8 0.222706 0.789770 0.083041
O O9 0.830708 0.500000 0.500000
O O10 0.763877 0.596872 0.574111
O O11 0.000000 0.541350 0.622294
O O12 0.500000 0.940849 0.918573
O O13 0.274601 0.888492 0.846236
O O14 0.276106 0.000961 0.871273
O O15 0.265146 0.927664 0.002724
O O16 0.000000 0.619697 0.978531
O O17 0.750000 0.200505 0.750000
O O18 0.500000 0.173117 0.677472
O O19 0.735237 0.109247 0.656989
O O20 0.000000 0.075510 0.608888
O O21 0.250000 0.201336 0.250000
O O22 0.500000 0.184646 0.170499
#
# Coordination Sequence:
#
# PCOD8218977 Si02
#       8
#     8   8   8   8   8   8   8   8
#     4  10  19  32  53  82 115 148 180 220 269 320
#     4  10  22  41  60  81 112 150 193 241 284 330
#     4   9  17  31  52  79 108 137 172 212 255 309
#     4   8  16  31  56  83 109 141 177 224 284 343
#     4   9  19  36  57  78 106 145 185 225 273 323
#     4  11  23  37  55  81 113 150 191 234 282 338
#     4   9  16  33  57  81 110 143 181 226 280 343
#     4  11  22  38  60  85 110 143 185 233 289 346
#
# _framework density 19.235956999999999
#
# number of rings (size 3 to 8) (size 9 to 14) (size 15 to 20)
#    0.000    2.375    1.250    2.250    0.000    4.000 
#    0.000    4.375    0.000    3.000    0.000    0.000 
#    0.000    0.000    0.000    0.000    0.000    0.000 
#
# Total GULP energy -793511.955303 kJ/mol
# GULP energy per Si atom -12398.624302 kJ/mol
# Density = 1.919217 g / cm^3
# Si number density = 19.235957 Si / 1000 Ang^3
#
#
#
# Elastic Constant Matrix: (Units=GPa)
#
#
# Indices 1 2 3 4 5 6 
#
# 1 81.2703 46.5455 48.2163 0.0000 0.0000 0.0000
# 2 46.5455 116.9680 45.3152 0.0000 0.0000 0.0000
# 3 48.2163 45.3152 101.7704 0.0000 0.0000 0.0000
# 4 0.0000 0.0000 0.0000 12.5614 0.0000 0.0000
# 5 0.0000 0.0000 0.0000 0.0000 32.3631 0.0000
# 6 0.0000 0.0000 0.0000 0.0000 0.0000 26.0690
#
#
#
# Elastic Compliance Matrix: (Units=1/GPa)
#
#
# Indices 1 2 3 4 5 6 
#
# 1 0.019257 -0.004989 -0.006902 0.000000 0.000000 0.000000
# 2 -0.004989 0.011624 -0.002812 0.000000 0.000000 0.000000
# 3 -0.006902 -0.002812 0.014348 0.000000 0.000000 0.000000
# 4 0.000000 0.000000 0.000000 0.079609 0.000000 0.000000
# 5 0.000000 0.000000 0.000000 0.000000 0.030899 0.000000
# 6 0.000000 0.000000 0.000000 0.000000 0.000000 0.038360
#
#
# Mechanical properties :
#
#
# Convention : Reuss Voigt Hill
#
# Bulk Modulus (GPa) = 63.19989 64.46253 63.83121
# Shear Modulus (GPa) = 21.85529 24.86080 23.35804
#
# Velocity S-wave (km/s) = 3.37437 3.59892 3.48845
# Velocity P-wave (km/s) = 6.93601 7.13119 7.03427
#
# Compressibility (1/GPa) = 0.01582281
#
# Stress axis : x y z
#
# Youngs Moduli (GPa) = 51.92984 86.02794 69.69519
#
# Poissons Ratio (x) = 0.42919 0.48103
# Poissons Ratio (y) = 0.25908 0.19600
# Poissons Ratio (z) = 0.35842 0.24193
#
# Static dielectric constant tensor:
#      x y z
#    x 3.385960 0.000000 0.000000 
#    y 0.000000 3.662090 0.000000 
#    z 0.000000 0.000000 3.477890 
# 
# 
# High freq. dielectric constant tensor:
#      x y z
#    x 1.739740 0.000000 0.000000 
#    y 0.000000 1.742740 0.000000 
#    z 0.000000 0.000000 1.741630 
# 
# From -- ./inp_files/20889.got.cif
#   From: 2010.03.12/outbox.cif.g09.slc.cpg/sg53_11_cif.got.tgz:20889.got - 2010.04.16 14:36:59.
