data_PCOD8218404
_publ_section_title
;
Structure prediction by ZEFSAII (Michael W. Deem and Ramdas Pophale) SiO2 
 PCOD8218404
Probable space group: P M N A
;
_chemical_formula_sum "Si O2"
_cell_formula_units_Z 64
_cell_length_a 9.142061
_cell_length_b 23.091247
_cell_length_c 17.322663
_cell_angle_alpha 90.000000
_cell_angle_beta 90.000000
_cell_angle_gamma 90.000000
_cell_volume 3656.841679
_symmetry_space_group_name_H-M "P M N A"
_symmetry_group_IT_number 53
_symmetry_cell_setting 'orthorhombic'
loop_
_space_group_symop_operation_xyz
x,y,z
1/2-x,-y,1/2+z
x,-y,-z
1/2-x,y,1/2-z
-x,-y,-z
1/2+x,y,1/2-z
-x,y,z
1/2+x,-y,1/2+z
loop_
_atom_site_type_symbol
_atom_site_label
_atom_site_fract_x
_atom_site_fract_y
_atom_site_fract_z
Si Si1 0.170743 0.546425 0.830311
Si Si2 0.828483 0.127927 0.520014
Si Si3 0.329823 0.638435 0.549582
Si Si4 0.170751 0.739870 0.479840
Si Si5 0.673617 0.053726 0.830188
Si Si6 0.334754 0.961311 0.575523
Si Si7 0.671141 0.321906 0.823376
Si Si8 0.669011 0.423330 0.607736
O O1 0.250000 0.541562 0.750000
O O2 0.223707 0.604281 0.874458
O O3 0.207611 0.490752 0.882994
O O4 0.000000 0.549795 0.813952
O O5 0.776478 0.194159 0.516123
O O6 0.790262 0.101813 0.604479
O O7 0.743785 0.097975 0.449236
O O8 0.000000 0.120454 0.504622
O O9 0.500000 0.652487 0.553112
O O10 0.248211 0.700050 0.544137
O O11 0.292556 0.595917 0.478782
O O12 0.215022 0.717270 0.395722
O O13 0.000000 0.734597 0.494758
O O14 0.750000 0.072956 0.750000
O O15 0.500000 0.046919 0.817868
O O16 0.741861 0.992373 0.857134
O O17 0.500000 0.949392 0.605193
O O18 0.337833 0.000000 0.500000
O O19 0.750000 0.292908 0.750000
O O20 0.500000 0.324145 0.808934
O O21 0.731529 0.386909 0.833505
O O22 0.500000 0.410820 0.627494
#
# Coordination Sequence:
#
# PCOD8218404 Si02
#       8
#     8   8   8   8   8   8   8   8
#     4  10  20  32  48  71  96 121 152 193 243 296
#     4   9  18  33  51  71  97 130 165 200 240 283
#     4   9  18  33  51  70  93 123 159 199 242 287
#     4   9  19  34  50  69  94 126 164 202 238 278
#     4  10  19  31  49  74 105 136 162 193 236 283
#     4   9  17  30  49  73  99 127 161 198 234 276
#     4  10  19  30  44  65  95 128 160 195 236 283
#     4   9  17  31  50  69  91 121 156 194 238 290
#
# _framework density 17.501441
#
# number of rings (size 3 to 8) (size 9 to 14) (size 15 to 20)
#    0.000    2.625    0.000    1.875    0.000    7.000 
#    0.000    0.000    0.000    4.500    0.000    1.750 
#    0.000    0.000    0.000    0.000    0.000    0.000 
#
# Total GULP energy -793530.143034 kJ/mol
# GULP energy per Si atom -12398.908485 kJ/mol
# Density = 1.746161 g / cm^3
# Si number density = 17.501441 Si / 1000 Ang^3
#
#
#
# Elastic Constant Matrix: (Units=GPa)
#
#
# Indices 1 2 3 4 5 6 
#
# 1 60.8836 45.2775 24.9689 0.0000 0.0000 0.0000
# 2 45.2775 130.1327 37.0429 0.0000 0.0000 0.0000
# 3 24.9689 37.0429 46.0979 0.0000 0.0000 0.0000
# 4 0.0000 0.0000 0.0000 15.9520 0.0000 0.0000
# 5 0.0000 0.0000 0.0000 0.0000 27.3774 0.0000
# 6 0.0000 0.0000 0.0000 0.0000 0.0000 27.2951
#
#
#
# Elastic Compliance Matrix: (Units=1/GPa)
#
#
# Indices 1 2 3 4 5 6 
#
# 1 0.024375 -0.006123 -0.008282 0.000000 0.000000 0.000000
# 2 -0.006123 0.011502 -0.005926 0.000000 0.000000 0.000000
# 3 -0.008282 -0.005926 0.030941 0.000000 0.000000 0.000000
# 4 0.000000 0.000000 0.000000 0.062688 0.000000 0.000000
# 5 0.000000 0.000000 0.000000 0.000000 0.036526 0.000000
# 6 0.000000 0.000000 0.000000 0.000000 0.000000 0.036637
#
#
# Mechanical properties :
#
#
# Convention : Reuss Voigt Hill
#
# Bulk Modulus (GPa) = 38.23359 50.18807 44.21083
# Shear Modulus (GPa) = 19.83736 22.77992 21.30864
#
# Velocity S-wave (km/s) = 3.37036 3.61169 3.49311
# Velocity P-wave (km/s) = 6.08598 6.79199 6.44866
#
# Compressibility (1/GPa) = 0.02615501
#
# Stress axis : x y z
#
# Youngs Moduli (GPa) = 41.02534 86.94313 32.31982
#
# Poissons Ratio (x) = 0.53238 0.26768
# Poissons Ratio (y) = 0.25121 0.19152
# Poissons Ratio (z) = 0.33978 0.51520
#
# Static dielectric constant tensor:
#      x y z
#    x 3.281380 0.000000 0.000000 
#    y 0.000000 3.290280 0.000000 
#    z 0.000000 0.000000 3.246670 
# 
# 
# High freq. dielectric constant tensor:
#      x y z
#    x 1.678290 0.000000 0.000000 
#    y 0.000000 1.665830 0.000000 
#    z 0.000000 0.000000 1.660440 
# 
# From -- ./inp_files/27032.got.cif
#   From: 2010.03.12/outbox.cif.g09.slc.cpg/sg53_14_cif.got.tgz:27032.got - 2010.04.16 14:36:59.
