data_PCOD8218788
_publ_section_title
;
Structure prediction by ZEFSAII (Michael W. Deem and Ramdas Pophale) SiO2 
 PCOD8218788
Probable space group: P M N A
;
_chemical_formula_sum "Si O2"
_cell_formula_units_Z 64
_cell_length_a 9.520382
_cell_length_b 12.131805
_cell_length_c 30.426967
_cell_angle_alpha 90.000000
_cell_angle_beta 90.000000
_cell_angle_gamma 90.000000
_cell_volume 3514.296978
_symmetry_space_group_name_H-M "P M N A"
_symmetry_group_IT_number 53
_symmetry_cell_setting 'orthorhombic'
loop_
_space_group_symop_operation_xyz
x,y,z
1/2-x,-y,1/2+z
x,-y,-z
1/2-x,y,1/2-z
-x,-y,-z
1/2+x,y,1/2-z
-x,y,z
1/2+x,-y,1/2+z
loop_
_atom_site_type_symbol
_atom_site_label
_atom_site_fract_x
_atom_site_fract_y
_atom_site_fract_z
Si Si1 0.156829 0.612320 0.424350
Si Si2 0.161926 0.545410 0.870250
Si Si3 0.840873 0.218311 0.650884
Si Si4 0.336747 0.624774 0.292989
Si Si5 0.841478 0.258906 0.493085
Si Si6 0.840700 0.992091 0.611247
Si Si7 0.338524 0.257243 0.108425
Si Si8 0.150482 0.917538 0.037667
O O1 0.267456 0.519449 0.410753
O O2 0.185608 0.726344 0.397131
O O3 0.166485 0.630370 0.477088
O O4 0.000000 0.569745 0.412573
O O5 0.180314 0.477682 0.825601
O O6 0.239061 0.662389 0.863479
O O7 0.000000 0.565092 0.881962
O O8 0.730940 0.265482 0.686005
O O9 0.000000 0.243078 0.666769
O O10 0.816115 0.085962 0.648321
O O11 0.250000 0.592273 0.250000
O O12 0.500000 0.648087 0.282235
O O13 0.794675 0.273673 0.442774
O O14 0.738536 0.180912 0.518729
O O15 0.000000 0.210836 0.493725
O O16 0.813640 0.866585 0.627099
O O17 0.000000 0.001618 0.593315
O O18 0.734370 0.012079 0.572573
O O19 0.500000 0.291983 0.115015
O O20 0.000000 0.874125 0.057011
O O21 0.111768 0.000000 0.000000
#
# Coordination Sequence:
#
# PCOD8218788 Si02
#       8
#     8   8   8   8   8   8   8   8
#     4   9  17  31  52  74  99 136 182 229 272 309
#     4  10  22  38  54  75 108 140 172 218 271 324
#     4   9  17  31  54  83 110 136 167 211 263 316
#     4  10  21  38  62  89 110 133 162 204 260 319
#     4  10  19  32  50  71  98 139 191 239 272 308
#     4  10  19  33  53  75 103 142 184 220 260 308
#     4  10  21  34  52  74 102 145 193 232 260 302
#     4  11  21  29  42  69 103 140 183 231 276 313
#
# _framework density 18.211323
#
# number of rings (size 3 to 8) (size 9 to 14) (size 15 to 20)
#    0.000    2.125    2.500    1.125    0.000    4.500 
#    0.000    2.500    0.000    0.750    0.000    1.750 
#    0.000    0.000    0.000    0.000    0.000    0.000 
#
# Total GULP energy -793229.750254 kJ/mol
# GULP energy per Si atom -12394.214848 kJ/mol
# Density = 1.816987 g / cm^3
# Si number density = 18.211323 Si / 1000 Ang^3
#
#
#
# Elastic Constant Matrix: (Units=GPa)
#
#
# Indices 1 2 3 4 5 6 
#
# 1 119.4258 62.6515 36.8337 0.0000 0.0000 0.0000
# 2 62.6515 113.1811 27.2299 0.0000 0.0000 0.0000
# 3 36.8337 27.2299 47.7641 0.0000 0.0000 0.0000
# 4 0.0000 0.0000 0.0000 13.0857 0.0000 0.0000
# 5 0.0000 0.0000 0.0000 0.0000 23.0270 0.0000
# 6 0.0000 0.0000 0.0000 0.0000 0.0000 -1.0647
#
#
#
# Elastic Compliance Matrix: (Units=1/GPa)
#
#
# Indices 1 2 3 4 5 6 
#
# 1 0.013651 -0.005822 -0.007208 0.000000 0.000000 0.000000
# 2 -0.005822 0.012723 -0.002763 0.000000 0.000000 0.000000
# 3 -0.007208 -0.002763 0.028070 0.000000 0.000000 0.000000
# 4 0.000000 0.000000 0.000000 0.076419 0.000000 0.000000
# 5 0.000000 0.000000 0.000000 0.000000 0.043427 0.000000
# 6 0.000000 0.000000 0.000000 0.000000 0.000000 -0.939212
#
#
# Mechanical properties :
#
#
# Convention : Reuss Voigt Hill
#
# Bulk Modulus (GPa) = 43.75027 59.31126 51.53076
# Shear Modulus (GPa) = -6.88975 17.25332 5.18179
#
# Velocity S-wave (km/s) = -1.94716 3.08132 1.68865
# Velocity P-wave (km/s) = 4.36126 6.73041 5.67093
#
# Compressibility (1/GPa) = 0.02285700
#
# Stress axis : x y z
#
# Youngs Moduli (GPa) = 73.25541 78.59646 35.62532
#
# Poissons Ratio (x) = 0.45762 0.25678
# Poissons Ratio (y) = 0.42652 0.09845
# Poissons Ratio (z) = 0.52800 0.21720
#
# Static dielectric constant tensor:
#      x y z
#    x 3.555570 0.000000 0.000000 
#    y 0.000000 3.339090 0.000000 
#    z 0.000000 0.000000 3.047830 
# 
# 
# High freq. dielectric constant tensor:
#      x y z
#    x 1.716850 0.000000 0.000000 
#    y 0.000000 1.701340 0.000000 
#    z 0.000000 0.000000 1.665200 
# 
# From -- ./inp_files/38115.got.cif
#   From: 2010.03.12/outbox.cif.g09.slc.cpg/sg53_20_cif.got.tgz:38115.got - 2010.04.16 14:36:59.
