data_PCOD8218271
_publ_section_title
;
Structure prediction by ZEFSAII (Michael W. Deem and Ramdas Pophale) SiO2 
 PCOD8218271
Probable space group: P M N A
;
_chemical_formula_sum "Si O2"
_cell_formula_units_Z 64
_cell_length_a 8.711569
_cell_length_b 12.102032
_cell_length_c 31.275443
_cell_angle_alpha 90.000000
_cell_angle_beta 90.000000
_cell_angle_gamma 90.000000
_cell_volume 3297.297609
_symmetry_space_group_name_H-M "P M N A"
_symmetry_group_IT_number 53
_symmetry_cell_setting 'orthorhombic'
loop_
_space_group_symop_operation_xyz
x,y,z
1/2-x,-y,1/2+z
x,-y,-z
1/2-x,y,1/2-z
-x,-y,-z
1/2+x,y,1/2-z
-x,y,z
1/2+x,-y,1/2+z
loop_
_atom_site_type_symbol
_atom_site_label
_atom_site_fract_x
_atom_site_fract_y
_atom_site_fract_z
Si Si1 0.321523 0.106850 0.134750
Si Si2 0.680500 0.165370 0.000436
Si Si3 0.318013 0.595667 0.969523
Si Si4 0.180944 0.639557 0.625389
Si Si5 0.677291 0.262987 0.704679
Si Si6 0.818549 0.503392 0.797428
Si Si7 0.178843 0.015350 0.938955
Si Si8 0.680366 0.974568 0.296421
O O1 0.500000 0.089152 0.125431
O O2 0.273892 0.231579 0.124139
O O3 0.222217 0.017735 0.108704
O O4 0.275322 0.074810 0.182662
O O5 0.500000 0.150126 0.008830
O O6 0.727502 0.126041 0.952755
O O7 0.733525 0.290096 0.008661
O O8 0.774699 0.088180 0.032117
O O9 0.500000 0.587095 0.968897
O O10 0.260725 0.587649 0.919996
O O11 0.247653 0.500000 0.000000
O O12 0.259403 0.587214 0.666730
O O13 0.000000 0.624505 0.630543
O O14 0.750000 0.250792 0.750000
O O15 0.500000 0.275287 0.713339
O O16 0.731474 0.380678 0.684671
O O17 0.709803 0.146492 0.680041
O O18 0.750000 0.527203 0.750000
O O19 0.000000 0.517971 0.793583
O O20 0.000000 0.040750 0.942861
O O21 0.750000 0.966362 0.250000
O O22 0.500000 0.002785 0.295432
#
# Coordination Sequence:
#
# PCOD8218271 Si02
#       8
#     8   8   8   8   8   8   8   8
#     4  11  22  38  57  80 110 149 191 235 286 338
#     4  10  18  34  59  84 111 144 183 227 274 332
#     4   9  18  36  61  85 113 149 191 237 286 338
#     4  10  21  38  58  82 113 149 191 240 286 337
#     4   8  16  32  54  77 106 140 178 222 275 328
#     4  10  20  36  59  86 115 151 191 235 282 336
#     4  11  21  34  55  83 112 143 182 230 279 333
#     4  10  20  36  57  83 114 150 186 230 280 336
#
# _framework density 19.409832999999999
#
# number of rings (size 3 to 8) (size 9 to 14) (size 15 to 20)
#    0.000    2.125    1.250    3.375    0.000    2.500 
#    2.250    0.000    0.000    2.625    0.000    0.000 
#    0.000    0.000    0.000    0.000    0.000    0.000 
#
# Total GULP energy -792854.202851 kJ/mol
# GULP energy per Si atom -12388.346920 kJ/mol
# Density = 1.936566 g / cm^3
# Si number density = 19.409833 Si / 1000 Ang^3
#
#
#
# Elastic Constant Matrix: (Units=GPa)
#
#
# Indices 1 2 3 4 5 6 
#
# 1 51.5994 35.6684 29.3177 0.0000 0.0000 0.0000
# 2 35.6684 102.7225 65.4050 0.0000 0.0000 0.0000
# 3 29.3177 65.4050 102.4991 0.0000 0.0000 0.0000
# 4 0.0000 0.0000 0.0000 35.0414 0.0000 0.0000
# 5 0.0000 0.0000 0.0000 0.0000 29.2908 0.0000
# 6 0.0000 0.0000 0.0000 0.0000 0.0000 16.3270
#
#
#
# Elastic Compliance Matrix: (Units=1/GPa)
#
#
# Indices 1 2 3 4 5 6 
#
# 1 0.025976 -0.007224 -0.002820 0.000000 0.000000 0.000000
# 2 -0.007224 0.018406 -0.009679 0.000000 0.000000 0.000000
# 3 -0.002820 -0.009679 0.016739 0.000000 0.000000 0.000000
# 4 0.000000 0.000000 0.000000 0.028538 0.000000 0.000000
# 5 0.000000 0.000000 0.000000 0.000000 0.034140 0.000000
# 6 0.000000 0.000000 0.000000 0.000000 0.000000 0.061248
#
#
# Mechanical properties :
#
#
# Convention : Reuss Voigt Hill
#
# Bulk Modulus (GPa) = 46.13588 57.51146 51.82367
# Shear Modulus (GPa) = 21.57797 24.56049 23.06923
#
# Velocity S-wave (km/s) = 3.33784 3.56105 3.45125
# Velocity P-wave (km/s) = 6.21899 6.82660 6.52987
#
# Compressibility (1/GPa) = 0.02167511
#
# Stress axis : x y z
#
# Youngs Moduli (GPa) = 38.49693 54.33053 59.74150
#
# Poissons Ratio (x) = 0.39248 0.16849
# Poissons Ratio (y) = 0.27810 0.57821
# Poissons Ratio (z) = 0.10857 0.52584
#
# Static dielectric constant tensor:
#      x y z
#    x 3.379130 0.000000 0.000000 
#    y 0.000000 4.103370 0.000000 
#    z 0.000000 0.000000 3.579660 
# 
# 
# High freq. dielectric constant tensor:
#      x y z
#    x 1.747090 0.000000 0.000000 
#    y 0.000000 1.762470 0.000000 
#    z 0.000000 0.000000 1.743520 
# 
# From -- ./inp_files/38222.got.cif
#   From: 2010.03.12/outbox.cif.g09.slc.cpg/sg53_20_cif.got.tgz:38222.got - 2010.04.16 14:36:59.
