data_PCOD8218752
_publ_section_title
;
Structure prediction by ZEFSAII (Michael W. Deem and Ramdas Pophale) SiO2 
 PCOD8218752
Probable space group: P M N A
;
_chemical_formula_sum "Si O2"
_cell_formula_units_Z 40
_cell_length_a 8.987512
_cell_length_b 13.717444
_cell_length_c 20.746614
_cell_angle_alpha 90.000000
_cell_angle_beta 90.000000
_cell_angle_gamma 90.000000
_cell_volume 2557.760675
_symmetry_space_group_name_H-M "P M N A"
_symmetry_group_IT_number 53
_symmetry_cell_setting 'orthorhombic'
loop_
_space_group_symop_operation_xyz
x,y,z
1/2-x,-y,1/2+z
x,-y,-z
1/2-x,y,1/2-z
-x,-y,-z
1/2+x,y,1/2-z
-x,y,z
1/2+x,-y,1/2+z
loop_
_atom_site_type_symbol
_atom_site_label
_atom_site_fract_x
_atom_site_fract_y
_atom_site_fract_z
Si Si1 0.168314 0.393149 0.512490
Si Si2 0.674044 0.899632 0.315170
Si Si3 0.675065 0.876544 0.684101
Si Si4 0.831744 0.787230 0.564195
Si Si5 0.323817 0.219957 0.561543
O O1 0.237740 0.500000 0.500000
O O2 0.167629 0.330649 0.445719
O O3 0.268218 0.333142 0.564498
O O4 0.000000 0.403490 0.539510
O O5 0.750000 0.861631 0.250000
O O6 0.500000 0.887643 0.305416
O O7 0.731593 0.834746 0.374479
O O8 0.717469 0.011312 0.329556
O O9 0.750000 0.840518 0.750000
O O10 0.500000 0.860678 0.689361
O O11 0.738172 0.810961 0.627090
O O12 0.752271 0.833318 0.500424
O O13 0.000000 0.827789 0.570262
O O14 0.500000 0.214771 0.553717
#
# Coordination Sequence:
#
# PCOD8218752 Si02
#       5
#     8   8   8   8   8
#     4   8  16  31  49  69  93 120 151 189 236 282
#     4   9  19  32  47  67  95 128 159 190 228 273
#     4  10  19  32  48  67  94 128 159 191 229 271
#     4   9  18  31  47  70  94 122 156 192 232 275
#     4   9  17  30  47  71  95 120 155 194 232 274
#
# _framework density 15.638679
#
# number of rings (size 3 to 8) (size 9 to 14) (size 15 to 20)
#    1.200    1.800    0.000    1.200    0.000    3.600 
#    0.000    4.000    0.000    1.200    0.000    2.800 
#    0.000    0.000    0.000    0.000    0.000    0.000 
#
# Total GULP energy -495631.383476 kJ/mol
# GULP energy per Si atom -12390.784587 kJ/mol
# Density = 1.560308 g / cm^3
# Si number density = 15.638679 Si / 1000 Ang^3
#
#
#
# Elastic Constant Matrix: (Units=GPa)
#
#
# Indices 1 2 3 4 5 6 
#
# 1 74.0974 29.6979 48.7713 0.0000 0.0000 0.0000
# 2 29.6979 67.6406 52.6648 0.0000 0.0000 0.0000
# 3 48.7713 52.6648 125.9969 0.0000 0.0000 0.0000
# 4 0.0000 0.0000 0.0000 6.3595 0.0000 0.0000
# 5 0.0000 0.0000 0.0000 0.0000 30.6571 0.0000
# 6 0.0000 0.0000 0.0000 0.0000 0.0000 18.4335
#
#
#
# Elastic Compliance Matrix: (Units=1/GPa)
#
#
# Indices 1 2 3 4 5 6 
#
# 1 0.018755 -0.003828 -0.005660 0.000000 0.000000 0.000000
# 2 -0.003828 0.022698 -0.008006 0.000000 0.000000 0.000000
# 3 -0.005660 -0.008006 0.013474 0.000000 0.000000 0.000000
# 4 0.000000 0.000000 0.000000 0.157244 0.000000 0.000000
# 5 0.000000 0.000000 0.000000 0.000000 0.032619 0.000000
# 6 0.000000 0.000000 0.000000 0.000000 0.000000 0.054249
#
#
# Mechanical properties :
#
#
# Convention : Reuss Voigt Hill
#
# Bulk Modulus (GPa) = 50.15004 58.88922 54.51963
# Shear Modulus (GPa) = 14.67686 20.19676 17.43681
#
# Velocity S-wave (km/s) = 3.06681 3.59759 3.34275
# Velocity P-wave (km/s) = 6.68416 7.41584 7.05949
#
# Compressibility (1/GPa) = 0.01994016
#
# Stress axis : x y z
#
# Youngs Moduli (GPa) = 53.31832 44.05706 74.21814
#
# Poissons Ratio (x) = 0.16864 0.42007
# Poissons Ratio (y) = 0.20409 0.59417
# Poissons Ratio (z) = 0.30178 0.35271
#
# Static dielectric constant tensor:
#      x y z
#    x 3.017460 0.000000 0.000000 
#    y 0.000000 2.846190 0.000000 
#    z 0.000000 0.000000 2.886640 
# 
# 
# High freq. dielectric constant tensor:
#      x y z
#    x 1.611540 0.000000 0.000000 
#    y 0.000000 1.575690 0.000000 
#    z 0.000000 0.000000 1.586400 
# 
# From -- ./inp_files/26383.got.cif
#   From: 2010.03.12/outbox.cif.g09.slc.cpg/sg53_14_cif.got.tgz:26383.got - 2010.04.16 14:36:59.
