data_PCOD8218840
_publ_section_title
;
Structure prediction by ZEFSAII (Michael W. Deem and Ramdas Pophale) SiO2 
 PCOD8218840
Probable space group: P M N A
;
_chemical_formula_sum "Si O2"
_cell_formula_units_Z 64
_cell_length_a 8.966876
_cell_length_b 22.945721
_cell_length_c 15.880838
_cell_angle_alpha 90.000000
_cell_angle_beta 90.000000
_cell_angle_gamma 90.000000
_cell_volume 3267.505207
_symmetry_space_group_name_H-M "P M N A"
_symmetry_group_IT_number 53
_symmetry_cell_setting 'orthorhombic'
loop_
_space_group_symop_operation_xyz
x,y,z
1/2-x,-y,1/2+z
x,-y,-z
1/2-x,y,1/2-z
-x,-y,-z
1/2+x,y,1/2-z
-x,y,z
1/2+x,-y,1/2+z
loop_
_atom_site_type_symbol
_atom_site_label
_atom_site_fract_x
_atom_site_fract_y
_atom_site_fract_z
Si Si1 0.168059 0.813318 0.835036
Si Si2 0.820630 0.571958 0.837215
Si Si3 0.672460 0.626207 0.998411
Si Si4 0.171366 0.759249 0.510437
Si Si5 0.670923 0.129224 0.917978
Si Si6 0.668420 0.035477 0.671405
Si Si7 0.321862 0.553877 0.164278
Si Si8 0.167111 0.925548 0.934203
O O1 0.250000 0.797797 0.750000
O O2 0.180544 0.882222 0.854557
O O3 0.000000 0.793399 0.822503
O O4 0.231402 0.773021 0.908608
O O5 0.750000 0.597565 0.750000
O O6 0.753969 0.508103 0.851975
O O7 0.000000 0.570405 0.830130
O O8 0.772831 0.609906 0.917977
O O9 0.500000 0.613230 0.976038
O O10 0.699320 0.693809 0.020050
O O11 0.719818 0.592480 0.083099
O O12 0.215009 0.803196 0.433828
O O13 0.000000 0.770537 0.535087
O O14 0.500000 0.122075 0.893333
O O15 0.767836 0.100353 0.844432
O O16 0.704552 0.092082 0.001743
O O17 0.750000 0.006112 0.750000
O O18 0.500000 0.042752 0.697510
O O19 0.690840 0.992570 0.592247
O O20 0.250000 0.581065 0.250000
O O21 0.500000 0.547592 0.175281
O O22 0.000000 0.918594 0.974363
#
# Coordination Sequence:
#
# PCOD8218840 Si02
#       8
#     8   8   8   8   8   8   8   8
#     4  10  19  32  51  75 104 137 173 215 264 317
#     4  11  22  36  57  86 120 153 184 221 267 323
#     4  10  21  38  59  82 111 148 188 230 274 319
#     4   9  20  38  56  74 101 139 181 220 259 310
#     4  10  20  35  55  76 100 133 171 210 256 310
#     4  11  22  35  52  75 103 132 165 210 261 313
#     4  10  20  36  59  85 114 147 183 226 275 325
#     4   9  19  34  52  75 102 132 167 208 257 314
#
# _framework density 19.586807
#
# number of rings (size 3 to 8) (size 9 to 14) (size 15 to 20)
#    0.000    2.000    0.000    4.500    0.000    7.000 
#    0.000    0.625    0.000    1.500    0.000    0.000 
#    0.000    0.000    0.000    0.000    0.000    0.000 
#
# Total GULP energy -793423.910807 kJ/mol
# GULP energy per Si atom -12397.248606 kJ/mol
# Density = 1.954223 g / cm^3
# Si number density = 19.586807 Si / 1000 Ang^3
#
#
#
# Elastic Constant Matrix: (Units=GPa)
#
#
# Indices 1 2 3 4 5 6 
#
# 1 101.5738 38.2810 37.6236 0.0000 0.0000 0.0000
# 2 38.2810 91.0395 31.9554 0.0000 0.0000 0.0000
# 3 37.6236 31.9554 78.9364 0.0000 0.0000 0.0000
# 4 0.0000 0.0000 0.0000 15.0827 0.0000 0.0000
# 5 0.0000 0.0000 0.0000 0.0000 33.5572 0.0000
# 6 0.0000 0.0000 0.0000 0.0000 0.0000 28.8407
#
#
#
# Elastic Compliance Matrix: (Units=1/GPa)
#
#
# Indices 1 2 3 4 5 6 
#
# 1 0.013014 -0.003841 -0.004648 0.000000 0.000000 0.000000
# 2 -0.003841 0.013937 -0.003811 0.000000 0.000000 0.000000
# 3 -0.004648 -0.003811 0.016427 0.000000 0.000000 0.000000
# 4 0.000000 0.000000 0.000000 0.066301 0.000000 0.000000
# 5 0.000000 0.000000 0.000000 0.000000 0.029800 0.000000
# 6 0.000000 0.000000 0.000000 0.000000 0.000000 0.034673
#
#
# Mechanical properties :
#
#
# Convention : Reuss Voigt Hill
#
# Bulk Modulus (GPa) = 53.25545 54.14107 53.69826
# Shear Modulus (GPa) = 24.38878 26.40878 25.39878
#
# Velocity S-wave (km/s) = 3.53252 3.67590 3.60492
# Velocity P-wave (km/s) = 6.62470 6.76150 6.69345
#
# Compressibility (1/GPa) = 0.01877742
#
# Stress axis : x y z
#
# Youngs Moduli (GPa) = 76.83865 71.75099 60.87595
#
# Poissons Ratio (x) = 0.27558 0.28296
# Poissons Ratio (y) = 0.29512 0.23202
# Poissons Ratio (z) = 0.35716 0.27347
#
# Static dielectric constant tensor:
#      x y z
#    x 3.668090 0.000000 0.000000 
#    y 0.000000 3.588120 0.000000 
#    z 0.000000 0.000000 3.581010 
# 
# 
# High freq. dielectric constant tensor:
#      x y z
#    x 1.770150 0.000000 0.000000 
#    y 0.000000 1.754790 0.000000 
#    z 0.000000 0.000000 1.758020 
# 
# From -- ./inp_files/20934.got.cif
#   From: 2010.03.12/outbox.cif.g09.slc.cpg/sg53_11_cif.got.tgz:20934.got - 2010.04.16 14:36:59.
