data_PCOD8218365
_publ_section_title
;
Structure prediction by ZEFSAII (Michael W. Deem and Ramdas Pophale) SiO2 
 PCOD8218365
Probable space group: P M N A
;
_chemical_formula_sum "Si O2"
_cell_formula_units_Z 48
_cell_length_a 9.092938
_cell_length_b 14.178590
_cell_length_c 21.655342
_cell_angle_alpha 90.000000
_cell_angle_beta 90.000000
_cell_angle_gamma 90.000000
_cell_volume 2791.915829
_symmetry_space_group_name_H-M "P M N A"
_symmetry_group_IT_number 53
_symmetry_cell_setting 'orthorhombic'
loop_
_space_group_symop_operation_xyz
x,y,z
1/2-x,-y,1/2+z
x,-y,-z
1/2-x,y,1/2-z
-x,-y,-z
1/2+x,y,1/2-z
-x,y,z
1/2+x,-y,1/2+z
loop_
_atom_site_type_symbol
_atom_site_label
_atom_site_fract_x
_atom_site_fract_y
_atom_site_fract_z
Si Si1 0.164725 0.785763 0.692901
Si Si2 0.325479 0.066113 0.556318
Si Si3 0.676051 0.976897 0.685412
Si Si4 0.337684 0.468621 0.570953
Si Si5 0.326312 0.725811 0.473357
Si Si6 0.161876 0.641585 0.585346
O O1 0.250000 0.739774 0.750000
O O2 0.151431 0.702418 0.645705
O O3 0.000000 0.822244 0.710172
O O4 0.264038 0.872973 0.670278
O O5 0.500000 0.063514 0.552827
O O6 0.273618 0.035870 0.624943
O O7 0.265389 0.172966 0.548496
O O8 0.263533 0.000000 0.500000
O O9 0.750000 0.014081 0.750000
O O10 0.500000 0.978114 0.692541
O O11 0.340345 0.500000 0.500000
O O12 0.500000 0.478694 0.600193
O O13 0.285264 0.358828 0.574762
O O14 0.227715 0.539733 0.605176
O O15 0.500000 0.729170 0.482385
O O16 0.259930 0.701673 0.539244
O O17 0.000000 0.624950 0.556712
#
# Coordination Sequence:
#
# PCOD8218365 Si02
#       6
#     8   8   8   8   8   8
#     4  10  20  32  46  66  91 119 152 188 228 276
#     4   9  17  29  48  73  96 121 157 198 234 269
#     4  10  19  32  51  71  94 126 159 192 232 279
#     4   8  15  27  44  65  88 118 151 181 217 268
#     4   9  17  30  47  68  93 121 156 189 221 270
#     4  10  19  29  44  68  95 119 146 186 235 280
#
# _framework density 17.192495999999998
#
# number of rings (size 3 to 8) (size 9 to 14) (size 15 to 20)
#    0.000    2.667    0.000    4.500    0.000    7.000 
#    0.000    1.667    0.000    5.500    0.000    4.667 
#    0.000    0.000    0.000    0.000    0.000    0.000 
#
# Total GULP energy -594638.013367 kJ/mol
# GULP energy per Si atom -12388.291945 kJ/mol
# Density = 1.715337 g / cm^3
# Si number density = 17.192496 Si / 1000 Ang^3
#
#
#
# Elastic Constant Matrix: (Units=GPa)
#
#
# Indices 1 2 3 4 5 6 
#
# 1 66.8989 40.4223 30.3723 0.0000 0.0000 0.0000
# 2 40.4223 129.8806 56.3195 0.0000 0.0000 0.0000
# 3 30.3723 56.3195 84.2983 0.0000 0.0000 0.0000
# 4 0.0000 0.0000 0.0000 18.2968 0.0000 0.0000
# 5 0.0000 0.0000 0.0000 0.0000 19.1570 0.0000
# 6 0.0000 0.0000 0.0000 0.0000 0.0000 117.7017
#
#
#
# Elastic Compliance Matrix: (Units=1/GPa)
#
#
# Indices 1 2 3 4 5 6 
#
# 1 0.019394 -0.004232 -0.004160 0.000000 0.000000 0.000000
# 2 -0.004232 0.011763 -0.006334 0.000000 0.000000 0.000000
# 3 -0.004160 -0.006334 0.017593 0.000000 0.000000 0.000000
# 4 0.000000 0.000000 0.000000 0.054654 0.000000 0.000000
# 5 0.000000 0.000000 0.000000 0.000000 0.052200 0.000000
# 6 0.000000 0.000000 0.000000 0.000000 0.000000 0.008496
#
#
# Mechanical properties :
#
#
# Convention : Reuss Voigt Hill
#
# Bulk Modulus (GPa) = 51.81951 59.47841 55.64896
# Shear Modulus (GPa) = 25.00178 41.29536 33.14857
#
# Velocity S-wave (km/s) = 3.81757 4.90628 4.39576
# Velocity P-wave (km/s) = 7.04542 8.17105 7.62903
#
# Compressibility (1/GPa) = 0.01929775
#
# Stress axis : x y z
#
# Youngs Moduli (GPa) = 51.56322 85.01156 56.83960
#
# Poissons Ratio (x) = 0.35976 0.23646
# Poissons Ratio (y) = 0.21821 0.36003
# Poissons Ratio (z) = 0.21451 0.53848
#
# Static dielectric constant tensor:
#      x y z
#    x 3.373330 0.000000 0.000000 
#    y 0.000000 3.679990 0.000000 
#    z 0.000000 0.000000 3.097200 
# 
# 
# High freq. dielectric constant tensor:
#      x y z
#    x 1.659260 0.000000 0.000000 
#    y 0.000000 1.667190 0.000000 
#    z 0.000000 0.000000 1.633000 
# 
# From -- ./inp_files/30500.got.cif
#   From: 2010.03.12/outbox.cif.g09.slc.cpg/sg53_16_cif.got.tgz:30500.got - 2010.04.16 14:36:59.
