data_PCOD8218930
_publ_section_title
;
Structure prediction by ZEFSAII (Michael W. Deem and Ramdas Pophale) SiO2 
 PCOD8218930
Probable space group: P M N A
;
_chemical_formula_sum "Si O2"
_cell_formula_units_Z 56
_cell_length_a 9.005731
_cell_length_b 20.852678
_cell_length_c 15.396969
_cell_angle_alpha 90.000000
_cell_angle_beta 90.000000
_cell_angle_gamma 90.000000
_cell_volume 2891.452372
_symmetry_space_group_name_H-M "P M N A"
_symmetry_group_IT_number 53
_symmetry_cell_setting 'orthorhombic'
loop_
_space_group_symop_operation_xyz
x,y,z
1/2-x,-y,1/2+z
x,-y,-z
1/2-x,y,1/2-z
-x,-y,-z
1/2+x,y,1/2-z
-x,y,z
1/2+x,-y,1/2+z
loop_
_atom_site_type_symbol
_atom_site_label
_atom_site_fract_x
_atom_site_fract_y
_atom_site_fract_z
Si Si1 0.673366 0.793626 0.514344
Si Si2 0.827687 0.000334 0.898098
Si Si3 0.671905 0.354818 0.486391
Si Si4 0.174152 0.582103 0.165512
Si Si5 0.826648 0.141061 0.838022
Si Si6 0.333609 0.533563 0.907402
Si Si7 0.324001 0.124767 0.162014
O O1 0.500000 0.810450 0.528468
O O2 0.707342 0.719216 0.528685
O O3 0.722520 0.813222 0.417291
O O4 0.770593 0.832676 0.581994
O O5 0.725358 0.948498 0.851178
O O6 0.000000 0.984484 0.879638
O O7 0.779522 0.068579 0.859872
O O8 0.795532 0.000000 0.000000
O O9 0.500000 0.371037 0.472183
O O10 0.718845 0.373899 0.583983
O O11 0.763901 0.395517 0.415909
O O12 0.250000 0.613808 0.250000
O O13 0.235171 0.509615 0.156350
O O14 0.000000 0.579058 0.179639
O O15 0.750000 0.165043 0.750000
O O16 0.000000 0.146423 0.822654
O O17 0.500000 0.539683 0.870045
O O18 0.333389 0.500000 0.000000
O O19 0.250000 0.151781 0.250000
O O20 0.500000 0.128624 0.170177
#
# Coordination Sequence:
#
# PCOD8218930 Si02
#       7
#     8   8   8   8   8   8   8
#     4  10  21  41  61  81 114 157 197 236 287 343
#     4  10  19  37  62  86 114 150 188 236 295 346
#     4   9  19  35  57  79 106 146 187 226 273 333
#     4  10  19  32  52  82 114 145 183 225 273 326
#     4  10  21  36  57  83 115 152 190 233 285 342
#     4   9  17  31  52  77 105 137 173 217 267 316
#     4  12  25  40  61  87 114 148 192 242 295 349
#
# _framework density 19.367429999999999
#
# number of rings (size 3 to 8) (size 9 to 14) (size 15 to 20)
#    0.000    2.000    1.429    2.571    0.000    6.000 
#    0.000    0.714    0.000    3.429    0.000    0.000 
#    0.000    0.000    0.000    0.000    0.000    0.000 
#
# Total GULP energy -694554.197783 kJ/mol
# GULP energy per Si atom -12402.753532 kJ/mol
# Density = 1.932335 g / cm^3
# Si number density = 19.367430 Si / 1000 Ang^3
#
#
#
# Elastic Constant Matrix: (Units=GPa)
#
#
# Indices 1 2 3 4 5 6 
#
# 1 86.5087 26.6320 27.8955 0.0000 0.0000 0.0000
# 2 26.6320 71.5718 2.1979 0.0000 0.0000 0.0000
# 3 27.8955 2.1979 62.2838 0.0000 0.0000 0.0000
# 4 0.0000 0.0000 0.0000 12.5106 0.0000 0.0000
# 5 0.0000 0.0000 0.0000 0.0000 34.9686 0.0000
# 6 0.0000 0.0000 0.0000 0.0000 0.0000 17.5385
#
#
#
# Elastic Compliance Matrix: (Units=1/GPa)
#
#
# Indices 1 2 3 4 5 6 
#
# 1 0.015429 -0.005535 -0.006715 0.000000 0.000000 0.000000
# 2 -0.005535 0.015973 0.001915 0.000000 0.000000 0.000000
# 3 -0.006715 0.001915 0.018995 0.000000 0.000000 0.000000
# 4 0.000000 0.000000 0.000000 0.079932 0.000000 0.000000
# 5 0.000000 0.000000 0.000000 0.000000 0.028597 0.000000
# 6 0.000000 0.000000 0.000000 0.000000 0.000000 0.057018
#
#
# Mechanical properties :
#
#
# Convention : Reuss Voigt Hill
#
# Bulk Modulus (GPa) = 33.63836 37.09057 35.36446
# Shear Modulus (GPa) = 20.28216 23.91278 22.09747
#
# Velocity S-wave (km/s) = 3.23960 3.51763 3.38148
# Velocity P-wave (km/s) = 5.60354 5.97418 5.79182
#
# Compressibility (1/GPa) = 0.02972797
#
# Stress axis : x y z
#
# Youngs Moduli (GPa) = 64.81420 62.60678 52.64436
#
# Poissons Ratio (x) = 0.34652 0.35350
# Poissons Ratio (y) = 0.35874 -0.10083
# Poissons Ratio (z) = 0.43522 -0.11991
#
# Static dielectric constant tensor:
#      x y z
#    x 3.503370 0.000000 0.000000 
#    y 0.000000 3.510200 0.000000 
#    z 0.000000 0.000000 3.576660 
# 
# 
# High freq. dielectric constant tensor:
#      x y z
#    x 1.750430 0.000000 0.000000 
#    y 0.000000 1.746000 0.000000 
#    z 0.000000 0.000000 1.754020 
# 
# From -- ./inp_files/20493.got.cif
#   From: 2010.03.12/outbox.cif.g09.slc.cpg/sg53_11_cif.got.tgz:20493.got - 2010.04.16 14:36:59.
