data_PCOD8218663
_publ_section_title
;
Structure prediction by ZEFSAII (Michael W. Deem and Ramdas Pophale) SiO2 
 PCOD8218663
Probable space group: P M N A
;
_chemical_formula_sum "Si O2"
_cell_formula_units_Z 48
_cell_length_a 8.510143
_cell_length_b 15.007202
_cell_length_c 20.723219
_cell_angle_alpha 90.000000
_cell_angle_beta 90.000000
_cell_angle_gamma 90.000000
_cell_volume 2646.633484
_symmetry_space_group_name_H-M "P M N A"
_symmetry_group_IT_number 53
_symmetry_cell_setting 'orthorhombic'
loop_
_space_group_symop_operation_xyz
x,y,z
1/2-x,-y,1/2+z
x,-y,-z
1/2-x,y,1/2-z
-x,-y,-z
1/2+x,y,1/2-z
-x,y,z
1/2+x,-y,1/2+z
loop_
_atom_site_type_symbol
_atom_site_label
_atom_site_fract_x
_atom_site_fract_y
_atom_site_fract_z
Si Si1 0.814835 0.422018 0.956007
Si Si2 0.814198 0.011393 0.814530
Si Si3 0.182781 0.617217 0.184239
Si Si4 0.315436 0.223057 0.519464
Si Si5 0.317431 0.802655 0.154850
Si Si6 0.814030 0.068984 0.444070
O O1 0.745932 0.424551 0.882388
O O2 0.776226 0.327628 0.989843
O O3 0.000000 0.436344 0.951323
O O4 0.738447 0.500000 0.000000
O O5 0.750000 0.961400 0.750000
O O6 0.732004 0.107386 0.810628
O O7 0.000000 0.021036 0.814233
O O8 0.761558 0.957568 0.876823
O O9 0.250000 0.572856 0.250000
O O10 0.216960 0.722375 0.184693
O O11 0.000000 0.600462 0.184891
O O12 0.500000 0.208966 0.531766
O O13 0.218786 0.184601 0.579500
O O14 0.255505 0.167180 0.458358
O O15 0.500000 0.782441 0.165797
O O16 0.000000 0.072666 0.437057
O O17 0.762257 0.000000 0.500000
#
# Coordination Sequence:
#
# PCOD8218663 Si02
#       6
#     8   8   8   8   8   8
#     4   8  16  32  54  79 105 134 173 218 264 315
#     4  12  24  37  53  74 105 141 182 225 269 318
#     4  10  19  31  49  74 104 137 170 209 260 317
#     4  10  19  32  54  81 105 137 179 221 266 314
#     4  11  20  32  49  73 106 140 174 212 260 315
#     4  11  22  36  55  78 107 143 182 221 262 311
#
# _framework density 18.136246
#
# number of rings (size 3 to 8) (size 9 to 14) (size 15 to 20)
#    0.000    1.667    1.667    6.000    0.000    0.667 
#    0.000    0.000    0.000   19.000    0.000    2.333 
#    0.000    0.000    0.000    0.000    0.000    0.000 
#
# Total GULP energy -595099.565494 kJ/mol
# GULP energy per Si atom -12397.907614 kJ/mol
# Density = 1.809497 g / cm^3
# Si number density = 18.136246 Si / 1000 Ang^3
#
#
#
# Elastic Constant Matrix: (Units=GPa)
#
#
# Indices 1 2 3 4 5 6 
#
# 1 -515.7459 -858.5259 -839.5262 0.0000 0.0000 0.0000
# 2 -858.5259-1241.6106-1240.2115 0.0000 0.0000 0.0000
# 3 -839.5262-1240.2115-1137.0834 0.0000 0.0000 0.0000
# 4 0.0000 0.0000 0.0000 19.6609 0.0000 0.0000
# 5 0.0000 0.0000 0.0000 0.0000 30.8292 0.0000
# 6 0.0000 0.0000 0.0000 0.0000 0.0000 12.7729
#
#
#
# Elastic Compliance Matrix: (Units=1/GPa)
#
#
# Indices 1 2 3 4 5 6 
#
# 1 0.013388 -0.006887 -0.002373 0.000000 0.000000 0.000000
# 2 -0.006887 0.012545 -0.008598 0.000000 0.000000 0.000000
# 3 -0.002373 -0.008598 0.010251 0.000000 0.000000 0.000000
# 4 0.000000 0.000000 0.000000 0.050862 0.000000 0.000000
# 5 0.000000 0.000000 0.000000 0.000000 0.032437 0.000000
# 6 0.000000 0.000000 0.000000 0.000000 0.000000 0.078291
#
#
# Mechanical properties :
#
#
# Convention : Reuss Voigt Hill
#
# Bulk Modulus (GPa) = 2139.43189 -974.55188 582.44000
# Shear Modulus (GPa) = 21.40003 15.57419 18.48711
#
# Velocity S-wave (km/s) = 3.43878 2.93359 3.19618
# Velocity P-wave (km/s) = 34.61173 22.95740 18.31570
#
# Compressibility (1/GPa) = 0.00046741
#
# Stress axis : x y z
#
# Youngs Moduli (GPa) = 74.69540 79.71367 97.55603
#
# Poissons Ratio (x) = 0.54896 0.23150
# Poissons Ratio (y) = 0.51441 0.83880
# Poissons Ratio (z) = 0.17726 0.68539
#
# Static dielectric constant tensor:
#      x y z
#    x 3.283610 0.000000 0.000000 
#    y 0.000000 3.284770 0.000000 
#    z 0.000000 0.000000 3.890740 
# 
# 
# High freq. dielectric constant tensor:
#      x y z
#    x 1.702340 0.000000 0.000000 
#    y 0.000000 1.665890 0.000000 
#    z 0.000000 0.000000 1.711950 
# 
# From -- ./inp_files/30514.got.cif
#   From: 2010.03.12/outbox.cif.g09.slc.cpg/sg53_16_cif.got.tgz:30514.got - 2010.04.16 14:36:59.
