data_PCOD8218973
_publ_section_title
;
Structure prediction by ZEFSAII (Michael W. Deem and Ramdas Pophale) SiO2 
 PCOD8218973
Probable space group: P M N A
;
_chemical_formula_sum "Si O2"
_cell_formula_units_Z 64
_cell_length_a 9.059902
_cell_length_b 15.185601
_cell_length_c 22.916357
_cell_angle_alpha 90.000000
_cell_angle_beta 90.000000
_cell_angle_gamma 90.000000
_cell_volume 3152.833699
_symmetry_space_group_name_H-M "P M N A"
_symmetry_group_IT_number 53
_symmetry_cell_setting 'orthorhombic'
loop_
_space_group_symop_operation_xyz
x,y,z
1/2-x,-y,1/2+z
x,-y,-z
1/2-x,y,1/2-z
-x,-y,-z
1/2+x,y,1/2-z
-x,y,z
1/2+x,-y,1/2+z
loop_
_atom_site_type_symbol
_atom_site_label
_atom_site_fract_x
_atom_site_fract_y
_atom_site_fract_z
Si Si1 0.669005 0.182830 0.499971
Si Si2 0.674901 0.802616 0.630696
Si Si3 0.170043 0.431176 0.634188
Si Si4 0.824650 0.959253 0.690560
Si Si5 0.831077 0.099424 0.884013
Si Si6 0.331611 0.354102 0.986227
Si Si7 0.171857 0.624150 0.616839
Si Si8 0.171557 0.269870 0.809179
O O1 0.500000 0.209008 0.495014
O O2 0.724668 0.163723 0.434080
O O3 0.692815 0.102691 0.545565
O O4 0.745130 0.266118 0.528924
O O5 0.500000 0.810057 0.640909
O O6 0.760179 0.863078 0.676664
O O7 0.727025 0.702443 0.641981
O O8 0.200551 0.423819 0.564780
O O9 0.206939 0.532802 0.650711
O O10 0.270007 0.364949 0.670685
O O11 0.000000 0.409293 0.648379
O O12 0.750000 0.993606 0.750000
O O13 0.000000 0.955255 0.697228
O O14 0.780963 0.027082 0.639822
O O15 0.796275 0.195081 0.857043
O O16 0.000000 0.071276 0.869934
O O17 0.500000 0.325457 0.987018
O O18 0.286647 0.392585 0.049065
O O19 0.000000 0.649795 0.623951
O O20 0.250000 0.239636 0.750000
O O21 0.000000 0.280411 0.796478
#
# Coordination Sequence:
#
# PCOD8218973 Si02
#       8
#     8   8   8   8   8   8   8   8
#     4   9  18  34  57  87 123 159 191 229 285 346
#     4  10  21  39  62  88 121 157 194 239 291 346
#     4  10  19  32  53  81 115 154 195 237 285 338
#     4  12  26  44  66  89 114 147 193 244 293 349
#     4  10  21  39  62  89 120 153 191 236 288 347
#     4   9  16  28  50  81 117 155 192 232 279 335
#     4   9  18  33  54  83 118 154 194 238 285 337
#     4  11  23  38  57  80 114 154 197 244 291 346
#
# _framework density 20.299199000000002
#
# number of rings (size 3 to 8) (size 9 to 14) (size 15 to 20)
#    0.000    2.000    1.250    2.625    0.000    5.500 
#    0.000    3.125    0.000    6.750    0.000    0.000 
#    0.000    0.000    0.000    0.000    0.000    0.000 
#
# Total GULP energy -793478.286904 kJ/mol
# GULP energy per Si atom -12398.098233 kJ/mol
# Density = 2.025300 g / cm^3
# Si number density = 20.299199 Si / 1000 Ang^3
#
#
#
# Elastic Constant Matrix: (Units=GPa)
#
#
# Indices 1 2 3 4 5 6 
#
# 1 88.1741 39.5993 19.1621 0.0000 0.0000 0.0000
# 2 39.5993 78.1556 12.9736 0.0000 0.0000 0.0000
# 3 19.1621 12.9736 32.4490 0.0000 0.0000 0.0000
# 4 0.0000 0.0000 0.0000 22.4943 0.0000 0.0000
# 5 0.0000 0.0000 0.0000 0.0000 21.4388 0.0000
# 6 0.0000 0.0000 0.0000 0.0000 0.0000 33.7956
#
#
#
# Elastic Compliance Matrix: (Units=1/GPa)
#
#
# Indices 1 2 3 4 5 6 
#
# 1 0.015904 -0.006961 -0.006608 0.000000 0.000000 0.000000
# 2 -0.006961 0.016751 -0.002587 0.000000 0.000000 0.000000
# 3 -0.006608 -0.002587 0.035754 0.000000 0.000000 0.000000
# 4 0.000000 0.000000 0.000000 0.044456 0.000000 0.000000
# 5 0.000000 0.000000 0.000000 0.000000 0.046644 0.000000
# 6 0.000000 0.000000 0.000000 0.000000 0.000000 0.029590
#
#
# Mechanical properties :
#
#
# Convention : Reuss Voigt Hill
#
# Bulk Modulus (GPa) = 27.70324 38.02763 32.86544
# Shear Modulus (GPa) = 21.41848 24.01533 22.71690
#
# Velocity S-wave (km/s) = 3.25181 3.44331 3.34893
# Velocity P-wave (km/s) = 5.27031 5.88071 5.58385
#
# Compressibility (1/GPa) = 0.03609686
#
# Stress axis : x y z
#
# Youngs Moduli (GPa) = 62.87923 59.69693 27.96865
#
# Poissons Ratio (x) = 0.41554 0.18483
# Poissons Ratio (y) = 0.43770 0.07235
# Poissons Ratio (z) = 0.41553 0.15443
#
# Static dielectric constant tensor:
#      x y z
#    x 3.597600 0.000000 0.000000 
#    y 0.000000 3.940200 0.000000 
#    z 0.000000 0.000000 3.868920 
# 
# 
# High freq. dielectric constant tensor:
#      x y z
#    x 1.786110 0.000000 0.000000 
#    y 0.000000 1.789120 0.000000 
#    z 0.000000 0.000000 1.785270 
# 
# From -- ./inp_files/34157.got.cif
#   From: 2010.03.12/outbox.cif.g09.slc.cpg/sg53_18_cif.got.tgz:34157.got - 2010.04.16 14:36:59.
