data_PCOD8218364
_publ_section_title
;
Structure prediction by ZEFSAII (Michael W. Deem and Ramdas Pophale) SiO2 
 PCOD8218364
Probable space group: P M N A
;
_chemical_formula_sum "Si O2"
_cell_formula_units_Z 64
_cell_length_a 26.762864
_cell_length_b 9.183957
_cell_length_c 16.585530
_cell_angle_alpha 90.000000
_cell_angle_beta 90.000000
_cell_angle_gamma 90.000000
_cell_volume 4076.540703
_symmetry_space_group_name_H-M "P M N A"
_symmetry_group_IT_number 53
_symmetry_cell_setting 'orthorhombic'
loop_
_space_group_symop_operation_xyz
x,y,z
1/2-x,-y,1/2+z
x,-y,-z
1/2-x,y,1/2-z
-x,-y,-z
1/2+x,y,1/2-z
-x,y,z
1/2+x,-y,1/2+z
loop_
_atom_site_type_symbol
_atom_site_label
_atom_site_fract_x
_atom_site_fract_y
_atom_site_fract_z
Si Si1 0.213876 0.275417 0.682279
Si Si2 0.316207 0.286156 0.131502
Si Si3 0.585465 0.638999 0.948110
Si Si4 0.443268 0.184244 0.907293
Si Si5 0.153926 0.511450 0.770864
Si Si6 0.727082 0.524327 0.591850
Si Si7 0.843930 0.026268 0.593947
Si Si8 0.944994 0.527543 0.302771
O O1 0.250000 0.203361 0.750000
O O2 0.171697 0.361203 0.731094
O O3 0.242970 0.387315 0.625573
O O4 0.190046 0.158606 0.623207
O O5 0.355158 0.344858 0.064495
O O6 0.326378 0.353648 0.218670
O O7 0.260598 0.329675 0.102201
O O8 0.324620 0.114143 0.142227
O O9 0.558522 0.612815 0.862387
O O10 0.573140 0.500000 0.000000
O O11 0.564224 0.776979 0.997512
O O12 0.500000 0.126310 0.894577
O O13 0.402488 0.059742 0.886312
O O14 0.432711 0.325038 0.851967
O O15 0.174740 0.537927 0.860360
O O16 0.093690 0.498543 0.770425
O O17 0.712295 0.500000 0.500000
O O18 0.834542 0.000000 0.500000
O O19 0.000000 0.534458 0.264507
#
# Coordination Sequence:
#
# PCOD8218364 Si02
#       8
#     8   8   8   8   8   8   8   8
#     4   9  19  34  49  64  88 122 159 195 230 281
#     4  10  19  29  44  67  95 128 154 188 228 275
#     4   9  16  27  43  63  91 125 162 195 221 261
#     4  10  19  30  43  64  98 135 167 195 223 261
#     4   9  18  34  50  68  90 118 158 190 237 284
#     4  10  19  32  53  71  87 115 153 198 242 290
#     4  12  21  30  43  69  98 131 161 195 232 265
#     4   9  16  28  49  68  89 121 162 198 228 274
#
# _framework density 15.699585000000001
#
# number of rings (size 3 to 8) (size 9 to 14) (size 15 to 20)
#    0.000    2.250    2.500    2.625    1.750    2.750 
#    0.000    0.625    0.000    0.375    0.000    0.000 
#    0.000    0.000    0.000    2.750    0.000    0.000 
#
# Total GULP energy -793200.538848 kJ/mol
# GULP energy per Si atom -12393.758419 kJ/mol
# Density = 1.566385 g / cm^3
# Si number density = 15.699585 Si / 1000 Ang^3
#
#
#
# Elastic Constant Matrix: (Units=GPa)
#
#
# Indices 1 2 3 4 5 6 
#
# 1 116.6116 34.6864 51.5804 0.0000 0.0000 0.0000
# 2 34.6864 72.9716 21.2826 0.0000 0.0000 0.0000
# 3 51.5804 21.2826 69.8564 0.0000 0.0000 0.0000
# 4 0.0000 0.0000 0.0000 14.5356 0.0000 0.0000
# 5 0.0000 0.0000 0.0000 0.0000 21.1488 0.0000
# 6 0.0000 0.0000 0.0000 0.0000 0.0000 19.5588
#
#
#
# Elastic Compliance Matrix: (Units=1/GPa)
#
#
# Indices 1 2 3 4 5 6 
#
# 1 0.013678 -0.003903 -0.008910 0.000000 0.000000 0.000000
# 2 -0.003903 0.016154 -0.002040 0.000000 0.000000 0.000000
# 3 -0.008910 -0.002040 0.021516 0.000000 0.000000 0.000000
# 4 0.000000 0.000000 0.000000 0.068797 0.000000 0.000000
# 5 0.000000 0.000000 0.000000 0.000000 0.047284 0.000000
# 6 0.000000 0.000000 0.000000 0.000000 0.000000 0.051128
#
#
# Mechanical properties :
#
#
# Convention : Reuss Voigt Hill
#
# Bulk Modulus (GPa) = 46.20710 52.72649 49.46679
# Shear Modulus (GPa) = 19.57135 21.17464 20.37300
#
# Velocity S-wave (km/s) = 3.53458 3.67650 3.60624
# Velocity P-wave (km/s) = 6.79364 7.18886 6.99405
#
# Compressibility (1/GPa) = 0.02164170
#
# Stress axis : x y z
#
# Youngs Moduli (GPa) = 73.11223 61.90400 46.47786
#
# Poissons Ratio (x) = 0.24160 0.41413
# Poissons Ratio (y) = 0.28534 0.09480
# Poissons Ratio (z) = 0.65144 0.12627
#
# Static dielectric constant tensor:
#      x y z
#    x 3.082260 0.000000 0.000000 
#    y 0.000000 2.994870 0.000000 
#    z 0.000000 0.000000 2.802980 
# 
# 
# High freq. dielectric constant tensor:
#      x y z
#    x 1.599710 0.000000 0.000000 
#    y 0.000000 1.593040 0.000000 
#    z 0.000000 0.000000 1.566390 
# 
# From -- ./inp_files/29625.got.cif
#   From: 2010.03.12/outbox.cif.g09.slc.cpg/sg53_15_cif.got.tgz:29625.got - 2010.04.16 14:36:59.
