data_PCOD8218069
_publ_section_title
;
Structure prediction by ZEFSAII (Michael W. Deem and Ramdas Pophale) SiO2 
 PCOD8218069
Probable space group: P M N A
;
_chemical_formula_sum "Si O2"
_cell_formula_units_Z 52
_cell_length_a 10.027897
_cell_length_b 12.136300
_cell_length_c 24.186237
_cell_angle_alpha 90.000000
_cell_angle_beta 90.000000
_cell_angle_gamma 90.000000
_cell_volume 2943.502927
_symmetry_space_group_name_H-M "P M N A"
_symmetry_group_IT_number 53
_symmetry_cell_setting 'orthorhombic'
loop_
_space_group_symop_operation_xyz
x,y,z
1/2-x,-y,1/2+z
x,-y,-z
1/2-x,y,1/2-z
-x,-y,-z
1/2+x,y,1/2-z
-x,y,z
1/2+x,-y,1/2+z
loop_
_atom_site_type_symbol
_atom_site_label
_atom_site_fract_x
_atom_site_fract_y
_atom_site_fract_z
Si Si1 0.647247 0.459760 0.208292
Si Si2 0.653465 0.768104 0.054858
Si Si3 0.347089 0.169394 0.362281
Si Si4 0.250000 0.755351 0.750000
Si Si5 0.151443 0.698475 0.565089
Si Si6 0.346056 0.534095 0.087549
Si Si7 0.653412 0.961264 0.437746
O O1 0.750000 0.519527 0.250000
O O2 0.500000 0.506708 0.219111
O O3 0.646100 0.326996 0.218848
O O4 0.696700 0.490130 0.147500
O O5 0.500000 0.786079 0.074841
O O6 0.720881 0.651213 0.073108
O O7 0.747780 0.862697 0.079202
O O8 0.659734 0.774815 0.988495
O O9 0.500000 0.203589 0.372399
O O10 0.318208 0.165855 0.296241
O O11 0.254631 0.262017 0.389117
O O12 0.316961 0.053721 0.391813
O O13 0.186381 0.570953 0.547922
O O14 0.000000 0.700237 0.589788
O O15 0.500000 0.563903 0.083013
O O16 0.500000 0.921610 0.434361
O O17 0.685633 0.000000 0.500000
#
# Coordination Sequence:
#
# PCOD8218069 Si02
#       7
#     8   8   8   4   8   8   8
#     4   9  17  30  51  75 104 137 171 211 264 321
#     4  10  20  33  54  80 108 142 183 222 257 319
#     4  11  22  36  57  82 110 142 179 226 277 326
#     4  10  20  32  56  80 102 134 176 226 264 324
#     4  10  18  31  53  82 112 142 175 215 263 316
#     4   9  17  31  50  78 111 141 171 214 271 318
#     4  10  21  38  57  76 108 150 184 224 277 327
#
# _framework density 17.666027
#
# number of rings (size 3 to 8) (size 9 to 14) (size 15 to 20)
#    0.462    1.692    3.077    0.923    0.000    3.385 
#    0.000    1.538    1.692    1.846    0.000    0.000 
#    0.000    0.000    0.000    0.000    0.000    0.000 
#
# Total GULP energy -644224.591283 kJ/mol
# GULP energy per Si atom -12388.934448 kJ/mol
# Density = 1.762582 g / cm^3
# Si number density = 17.666027 Si / 1000 Ang^3
#
#
#
# Elastic Constant Matrix: (Units=GPa)
#
#
# Indices 1 2 3 4 5 6 
#
# 1 83.6726 55.0678 29.4872 0.0000 0.0000 0.0000
# 2 55.0678 111.2275 41.2802 0.0000 0.0000 0.0000
# 3 29.4872 41.2802 64.7439 0.0000 0.0000 0.0000
# 4 0.0000 0.0000 0.0000 8.7391 0.0000 0.0000
# 5 0.0000 0.0000 0.0000 0.0000 21.6986 0.0000
# 6 0.0000 0.0000 0.0000 0.0000 0.0000 13.6305
#
#
#
# Elastic Compliance Matrix: (Units=1/GPa)
#
#
# Indices 1 2 3 4 5 6 
#
# 1 0.018264 -0.007801 -0.003344 0.000000 0.000000 0.000000
# 2 -0.007801 0.015110 -0.006081 0.000000 0.000000 0.000000
# 3 -0.003344 -0.006081 0.020846 0.000000 0.000000 0.000000
# 4 0.000000 0.000000 0.000000 0.114428 0.000000 0.000000
# 5 0.000000 0.000000 0.000000 0.000000 0.046086 0.000000
# 6 0.000000 0.000000 0.000000 0.000000 0.000000 0.073365
#
#
# Mechanical properties :
#
#
# Convention : Reuss Voigt Hill
#
# Bulk Modulus (GPa) = 50.58969 56.81273 53.70121
# Shear Modulus (GPa) = 15.19109 17.73423 16.46266
#
# Velocity S-wave (km/s) = 2.93559 3.17181 3.05599
# Velocity P-wave (km/s) = 6.33949 6.75596 6.55104
#
# Compressibility (1/GPa) = 0.01976687
#
# Stress axis : x y z
#
# Youngs Moduli (GPa) = 54.75192 66.18259 47.97164
#
# Poissons Ratio (x) = 0.51631 0.16043
# Poissons Ratio (y) = 0.42714 0.29171
# Poissons Ratio (z) = 0.18311 0.40244
#
# Static dielectric constant tensor:
#      x y z
#    x 3.142110 0.000000 0.000000 
#    y 0.000000 3.131920 0.000000 
#    z 0.000000 0.000000 3.258530 
# 
# 
# High freq. dielectric constant tensor:
#      x y z
#    x 1.668290 0.000000 0.000000 
#    y 0.000000 1.665800 0.000000 
#    z 0.000000 0.000000 1.677650 
# 
# From -- ./inp_files/36263.got.cif
#   From: 2010.03.12/outbox.cif.g09.slc.cpg/sg53_19_cif.got.tgz:36263.got - 2010.04.16 14:36:59.
