data_PCOD8218100
_publ_section_title
;
Structure prediction by ZEFSAII (Michael W. Deem and Ramdas Pophale) SiO2 
 PCOD8218100
Probable space group: P M N A
;
_chemical_formula_sum "Si O2"
_cell_formula_units_Z 40
_cell_length_a 15.446672
_cell_length_b 5.043038
_cell_length_c 25.735657
_cell_angle_alpha 90.000000
_cell_angle_beta 90.000000
_cell_angle_gamma 90.000000
_cell_volume 2004.760169
_symmetry_space_group_name_H-M "P M N A"
_symmetry_group_IT_number 53
_symmetry_cell_setting 'orthorhombic'
loop_
_space_group_symop_operation_xyz
x,y,z
1/2-x,-y,1/2+z
x,-y,-z
1/2-x,y,1/2-z
-x,-y,-z
1/2+x,y,1/2-z
-x,y,z
1/2+x,-y,1/2+z
loop_
_atom_site_type_symbol
_atom_site_label
_atom_site_fract_x
_atom_site_fract_y
_atom_site_fract_z
Si Si1 0.831657 0.908318 0.714990
Si Si2 0.095501 0.159331 0.807835
Si Si3 0.800790 0.433423 0.944494
Si Si4 0.271649 0.393583 0.836768
Si Si5 0.402189 0.067535 0.417628
O O1 0.750000 0.967588 0.750000
O O2 0.909144 0.985168 0.754428
O O3 0.824276 0.118259 0.667733
O O4 0.830778 0.611569 0.692720
O O5 0.173897 0.377041 0.811282
O O6 0.000000 0.296350 0.813451
O O7 0.111658 0.958458 0.855629
O O8 0.731735 0.462850 0.897873
O O9 0.879217 0.635749 0.934136
O O10 0.840288 0.139631 0.947033
O O11 0.756042 0.500000 0.000000
O O12 0.500000 0.008990 0.434362
#
# Coordination Sequence:
#
# PCOD8218100 Si02
#       5
#     8   8   8   8   8
#     4  10  18  32  51  69  96 131 160 191 245 299
#     4   9  19  34  53  77 103 133 168 203 242 295
#     4  11  21  33  48  65  89 124 167 207 237 276
#     4  10  20  34  48  69  98 130 162 199 245 289
#     4  10  21  33  45  66  96 126 158 197 239 281
#
# _framework density 19.952511999999999
#
# number of rings (size 3 to 8) (size 9 to 14) (size 15 to 20)
#    0.000    2.000    0.000    6.600    0.000    4.800 
#    0.000   13.000    0.000    0.000    0.000    0.000 
#    0.000    4.800    0.000    0.000    0.000    0.000 
#
# Total GULP energy -495646.427809 kJ/mol
# GULP energy per Si atom -12391.160695 kJ/mol
# Density = 1.990710 g / cm^3
# Si number density = 19.952512 Si / 1000 Ang^3
#
#
#
# Elastic Constant Matrix: (Units=GPa)
#
#
# Indices 1 2 3 4 5 6 
#
# 1 22.9133 7.6262 12.4775 0.0000 0.0000 0.0000
# 2 7.6262 91.5138 20.0085 0.0000 0.0000 0.0000
# 3 12.4775 20.0085 110.6882 0.0000 0.0000 0.0000
# 4 0.0000 0.0000 0.0000 23.2514 0.0000 0.0000
# 5 0.0000 0.0000 0.0000 0.0000 11.6592 0.0000
# 6 0.0000 0.0000 0.0000 0.0000 0.0000 15.8736
#
#
#
# Elastic Compliance Matrix: (Units=1/GPa)
#
#
# Indices 1 2 3 4 5 6 
#
# 1 0.047218 -0.002885 -0.004801 0.000000 0.000000 0.000000
# 2 -0.002885 0.011553 -0.001763 0.000000 0.000000 0.000000
# 3 -0.004801 -0.001763 0.009894 0.000000 0.000000 0.000000
# 4 0.000000 0.000000 0.000000 0.043008 0.000000 0.000000
# 5 0.000000 0.000000 0.000000 0.000000 0.085769 0.000000
# 6 0.000000 0.000000 0.000000 0.000000 0.000000 0.062998
#
#
# Mechanical properties :
#
#
# Convention : Reuss Voigt Hill
#
# Bulk Modulus (GPa) = 20.09396 33.92664 27.01030
# Shear Modulus (GPa) = 16.89602 22.49038 19.69320
#
# Velocity S-wave (km/s) = 2.91316 3.36102 3.14507
# Velocity P-wave (km/s) = 4.62689 5.66591 5.17255
#
# Compressibility (1/GPa) = 0.04976621
#
# Stress axis : x y z
#
# Youngs Moduli (GPa) = 21.17858 86.55572 101.06809
#
# Poissons Ratio (x) = 0.24972 0.48524
# Poissons Ratio (y) = 0.06110 0.17820
# Poissons Ratio (z) = 0.10168 0.15261
#
# Static dielectric constant tensor:
#      x y z
#    x 3.523000 0.000000 0.000000 
#    y 0.000000 3.615080 0.000000 
#    z 0.000000 0.000000 4.099650 
# 
# 
# High freq. dielectric constant tensor:
#      x y z
#    x 1.706180 0.000000 0.000000 
#    y 0.000000 1.784950 0.000000 
#    z 0.000000 0.000000 1.781550 
# 
# From -- ./inp_files/38779.got.cif
#   From: 2010.03.12/outbox.cif.g09.slc.cpg/sg53_20_cif.got.tgz:38779.got - 2010.04.16 14:36:59.
