data_PCOD8218970
_publ_section_title
;
Structure prediction by ZEFSAII (Michael W. Deem and Ramdas Pophale) SiO2 
 PCOD8218970
Probable space group: P M N A
;
_chemical_formula_sum "Si O2"
_cell_formula_units_Z 48
_cell_length_a 9.161230
_cell_length_b 15.427334
_cell_length_c 18.019594
_cell_angle_alpha 90.000000
_cell_angle_beta 90.000000
_cell_angle_gamma 90.000000
_cell_volume 2546.769677
_symmetry_space_group_name_H-M "P M N A"
_symmetry_group_IT_number 53
_symmetry_cell_setting 'orthorhombic'
loop_
_space_group_symop_operation_xyz
x,y,z
1/2-x,-y,1/2+z
x,-y,-z
1/2-x,y,1/2-z
-x,-y,-z
1/2+x,y,1/2-z
-x,y,z
1/2+x,-y,1/2+z
loop_
_atom_site_type_symbol
_atom_site_label
_atom_site_fract_x
_atom_site_fract_y
_atom_site_fract_z
Si Si1 0.171086 0.843830 0.172995
Si Si2 0.838979 0.488050 0.087674
Si Si3 0.827859 0.678283 0.571175
Si Si4 0.170536 0.676223 0.083271
Si Si5 0.331489 0.988491 0.086418
Si Si6 0.170894 0.161638 0.327828
O O1 0.250000 0.861444 0.250000
O O2 0.207934 0.747351 0.144989
O O3 0.229438 0.910884 0.112652
O O4 0.000000 0.858284 0.184126
O O5 0.727997 0.411346 0.108621
O O6 0.787507 0.582143 0.118715
O O7 0.000000 0.463745 0.118247
O O8 0.844932 0.500000 0.000000
O O9 0.760292 0.696012 0.490841
O O10 0.778833 0.755988 0.624320
O O11 0.000000 0.672712 0.561715
O O12 0.000000 0.677235 0.061306
O O13 0.500000 0.965396 0.102516
O O14 0.283757 0.075670 0.128111
O O15 0.303111 0.000000 0.000000
O O16 0.250000 0.163373 0.250000
O O17 0.000000 0.164481 0.312806
#
# Coordination Sequence:
#
# PCOD8218970 Si02
#       6
#     8   8   8   8   8   8
#     4  11  23  38  56  80 110 143 180 220 265 318
#     4   8  15  30  51  75 105 139 173 213 263 313
#     4  10  19  32  53  81 107 134 176 224 265 307
#     4   9  19  35  54  77 106 141 178 215 261 317
#     4  10  21  39  61  83 108 138 173 217 268 318
#     4  10  22  37  53  76 107 142 175 210 258 313
#
# _framework density 18.847404000000001
#
# number of rings (size 3 to 8) (size 9 to 14) (size 15 to 20)
#    0.000    2.333    0.000    3.500    0.000    9.333 
#    0.000    0.833    0.000    4.000    0.000    0.000 
#    0.000    0.000    0.000    0.000    0.000    0.000 
#
# Total GULP energy -595205.632691 kJ/mol
# GULP energy per Si atom -12400.117348 kJ/mol
# Density = 1.880451 g / cm^3
# Si number density = 18.847404 Si / 1000 Ang^3
#
#
#
# Elastic Constant Matrix: (Units=GPa)
#
#
# Indices 1 2 3 4 5 6 
#
# 1 70.5907 44.6001 34.2191 0.0000 0.0000 0.0000
# 2 44.6001 116.3458 22.7971 0.0000 0.0000 0.0000
# 3 34.2191 22.7971 61.5640 0.0000 0.0000 0.0000
# 4 0.0000 0.0000 0.0000 13.3565 0.0000 0.0000
# 5 0.0000 0.0000 0.0000 0.0000 15.8140 0.0000
# 6 0.0000 0.0000 0.0000 0.0000 0.0000 33.9521
#
#
#
# Elastic Compliance Matrix: (Units=1/GPa)
#
#
# Indices 1 2 3 4 5 6 
#
# 1 0.023740 -0.007025 -0.010594 0.000000 0.000000 0.000000
# 2 -0.007025 0.011346 -0.000297 0.000000 0.000000 0.000000
# 3 -0.010594 -0.000297 0.022242 0.000000 0.000000 0.000000
# 4 0.000000 0.000000 0.000000 0.074870 0.000000 0.000000
# 5 0.000000 0.000000 0.000000 0.000000 0.063235 0.000000
# 6 0.000000 0.000000 0.000000 0.000000 0.000000 0.029453
#
#
# Mechanical properties :
#
#
# Convention : Reuss Voigt Hill
#
# Bulk Modulus (GPa) = 46.51958 50.19257 48.35608
# Shear Modulus (GPa) = 18.66485 22.41680 20.54082
#
# Velocity S-wave (km/s) = 3.15034 3.45249 3.30487
# Velocity P-wave (km/s) = 6.16187 6.52547 6.34627
#
# Compressibility (1/GPa) = 0.02149632
#
# Stress axis : x y z
#
# Youngs Moduli (GPa) = 42.12298 88.13610 44.96047
#
# Poissons Ratio (x) = 0.61913 0.47632
# Poissons Ratio (y) = 0.29590 0.01335
# Poissons Ratio (z) = 0.44626 0.02617
#
# Static dielectric constant tensor:
#      x y z
#    x 3.437660 0.000000 0.000000 
#    y 0.000000 3.983360 0.000000 
#    z 0.000000 0.000000 3.201320 
# 
# 
# High freq. dielectric constant tensor:
#      x y z
#    x 1.730720 0.000000 0.000000 
#    y 0.000000 1.754260 0.000000 
#    z 0.000000 0.000000 1.710590 
# 
# From -- ./inp_files/26232.got.cif
#   From: 2010.03.12/outbox.cif.g09.slc.cpg/sg53_14_cif.got.tgz:26232.got - 2010.04.16 14:36:59.
