data_PCOD8218856
_publ_section_title
;
Structure prediction by ZEFSAII (Michael W. Deem and Ramdas Pophale) SiO2 
 PCOD8218856
Probable space group: P M N A
;
_chemical_formula_sum "Si O2"
_cell_formula_units_Z 40
_cell_length_a 14.458628
_cell_length_b 9.600757
_cell_length_c 14.400228
_cell_angle_alpha 90.000000
_cell_angle_beta 90.000000
_cell_angle_gamma 90.000000
_cell_volume 1998.949995
_symmetry_space_group_name_H-M "P M N A"
_symmetry_group_IT_number 53
_symmetry_cell_setting 'orthorhombic'
loop_
_space_group_symop_operation_xyz
x,y,z
1/2-x,-y,1/2+z
x,-y,-z
1/2-x,y,1/2-z
-x,-y,-z
1/2+x,y,1/2-z
-x,y,z
1/2+x,-y,1/2+z
loop_
_atom_site_type_symbol
_atom_site_label
_atom_site_fract_x
_atom_site_fract_y
_atom_site_fract_z
Si Si1 0.897824 0.752540 0.377240
Si Si2 0.652258 0.027864 0.210262
Si Si3 0.291624 0.245490 0.061503
Si Si4 0.397154 0.742079 0.651460
Si Si5 0.606406 0.547401 0.816454
O O1 0.902520 0.887218 0.311496
O O2 0.818676 0.770865 0.454414
O O3 0.875680 0.617980 0.313872
O O4 0.000000 0.734685 0.423048
O O5 0.750000 0.981961 0.250000
O O6 0.664054 0.117321 0.116857
O O7 0.598155 0.118387 0.286508
O O8 0.179477 0.245567 0.070468
O O9 0.332097 0.389585 0.100846
O O10 0.500000 0.718183 0.608655
O O11 0.365565 0.613183 0.717111
O O12 0.500000 0.584857 0.837167
#
# Coordination Sequence:
#
# PCOD8218856 Si02
#       5
#     8   8   8   8   8
#     4  11  21  32  52  82 110 132 161 212 267 303
#     4   9  19  33  51  75 105 138 172 208 251 302
#     4  10  19  32  51  77 105 136 170 207 254 304
#     4   9  18  35  56  74  97 136 180 210 241 299
#     4   9  18  32  50  74 102 131 166 207 255 309
#
# _framework density 20.010505999999999
#
# number of rings (size 3 to 8) (size 9 to 14) (size 15 to 20)
#    0.000    2.400    0.000    4.200    0.000    6.400 
#    0.000    0.000    0.000   13.200    0.000    0.000 
#    0.000    0.000    0.000    0.000    0.000    0.000 
#
# Total GULP energy -495948.934033 kJ/mol
# GULP energy per Si atom -12398.723351 kJ/mol
# Density = 1.996496 g / cm^3
# Si number density = 20.010506 Si / 1000 Ang^3
#
#
#
# Elastic Constant Matrix: (Units=GPa)
#
#
# Indices 1 2 3 4 5 6 
#
# 1 94.3747 28.8831 34.0242 0.0000 0.0000 0.0000
# 2 28.8831 137.2091 30.0878 0.0000 0.0000 0.0000
# 3 34.0242 30.0878 58.1364 0.0000 0.0000 0.0000
# 4 0.0000 0.0000 0.0000 11.9067 0.0000 0.0000
# 5 0.0000 0.0000 0.0000 0.0000 24.1103 0.0000
# 6 0.0000 0.0000 0.0000 0.0000 0.0000 25.0495
#
#
#
# Elastic Compliance Matrix: (Units=1/GPa)
#
#
# Indices 1 2 3 4 5 6 
#
# 1 0.013621 -0.001262 -0.007318 0.000000 0.000000 0.000000
# 2 -0.001262 0.008338 -0.003576 0.000000 0.000000 0.000000
# 3 -0.007318 -0.003576 0.023335 0.000000 0.000000 0.000000
# 4 0.000000 0.000000 0.000000 0.083987 0.000000 0.000000
# 5 0.000000 0.000000 0.000000 0.000000 0.041476 0.000000
# 6 0.000000 0.000000 0.000000 0.000000 0.000000 0.039921
#
#
# Mechanical properties :
#
#
# Convention : Reuss Voigt Hill
#
# Bulk Modulus (GPa) = 47.66536 52.85670 50.26103
# Shear Modulus (GPa) = 20.66245 25.32830 22.99537
#
# Velocity S-wave (km/s) = 3.21686 3.56160 3.39361
# Velocity P-wave (km/s) = 6.13755 6.58674 6.36611
#
# Compressibility (1/GPa) = 0.02097960
#
# Stress axis : x y z
#
# Youngs Moduli (GPa) = 73.41711 119.93045 42.85437
#
# Poissons Ratio (x) = 0.15141 0.31362
# Poissons Ratio (y) = 0.09269 0.15327
# Poissons Ratio (z) = 0.53728 0.42893
#
# Static dielectric constant tensor:
#      x y z
#    x 3.714090 0.000000 0.000000 
#    y 0.000000 3.707710 0.000000 
#    z 0.000000 0.000000 3.116770 
# 
# 
# High freq. dielectric constant tensor:
#      x y z
#    x 1.787290 0.000000 0.000000 
#    y 0.000000 1.786850 0.000000 
#    z 0.000000 0.000000 1.731650 
# 
# From -- ./inp_files/22392.got.cif
#   From: 2010.03.12/outbox.cif.g09.slc.cpg/sg53_12_cif.got.tgz:22392.got - 2010.04.16 14:36:59.
