data_PCOD8218952
_publ_section_title
;
Structure prediction by ZEFSAII (Michael W. Deem and Ramdas Pophale) SiO2 
 PCOD8218952
Probable space group: P M N A
;
_chemical_formula_sum "Si O2"
_cell_formula_units_Z 64
_cell_length_a 8.911089
_cell_length_b 21.050061
_cell_length_c 18.680873
_cell_angle_alpha 90.000000
_cell_angle_beta 90.000000
_cell_angle_gamma 90.000000
_cell_volume 3504.138860
_symmetry_space_group_name_H-M "P M N A"
_symmetry_group_IT_number 53
_symmetry_cell_setting 'orthorhombic'
loop_
_space_group_symop_operation_xyz
x,y,z
1/2-x,-y,1/2+z
x,-y,-z
1/2-x,y,1/2-z
-x,-y,-z
1/2+x,y,1/2-z
-x,y,z
1/2+x,-y,1/2+z
loop_
_atom_site_type_symbol
_atom_site_label
_atom_site_fract_x
_atom_site_fract_y
_atom_site_fract_z
Si Si1 0.678211 0.696554 0.528742
Si Si2 0.323687 0.882453 0.173078
Si Si3 0.676597 0.564297 0.468294
Si Si4 0.677205 0.253484 0.891922
Si Si5 0.324524 0.990641 0.419305
Si Si6 0.822409 0.374380 0.823171
Si Si7 0.823096 0.246967 0.177519
Si Si8 0.174144 0.104031 0.179796
O O1 0.500000 0.704656 0.518346
O O2 0.732792 0.624717 0.513816
O O3 0.758378 0.743529 0.472567
O O4 0.730032 0.712636 0.609088
O O5 0.250000 0.892890 0.250000
O O6 0.500000 0.889768 0.182753
O O7 0.279750 0.814139 0.141361
O O8 0.267414 0.934946 0.117657
O O9 0.752045 0.500000 0.500000
O O10 0.500000 0.559171 0.476838
O O11 0.719021 0.574576 0.384969
O O12 0.500000 0.265256 0.893026
O O13 0.754993 0.305957 0.842170
O O14 0.500000 0.973826 0.413496
O O15 0.270841 0.000000 0.500000
O O16 0.285536 0.058580 0.385298
O O17 0.750000 0.400038 0.750000
O O18 0.000000 0.366841 0.814657
O O19 0.750000 0.274922 0.250000
O O20 0.766307 0.175014 0.163924
O O21 0.000000 0.250943 0.186609
O O22 0.250000 0.074857 0.250000
O O23 0.000000 0.106448 0.195511
#
# Coordination Sequence:
#
# PCOD8218952 Si02
#       8
#     8   8   8   8   8   8   8   8
#     4   9  18  32  54  79 103 138 177 215 261 309
#     4  11  24  39  55  77 105 138 172 212 263 314
#     4   8  15  30  51  75 103 137 176 212 251 304
#     4  10  21  35  53  79 108 137 172 215 265 316
#     4  10  22  37  55  77 101 134 172 212 259 308
#     4  10  19  32  53  79 106 140 178 218 263 308
#     4   9  18  32  51  75 102 131 169 213 257 307
#     4   9  18  33  51  72  95 126 166 207 253 301
#
# _framework density 18.264115
#
# number of rings (size 3 to 8) (size 9 to 14) (size 15 to 20)
#    0.000    2.500    0.000    2.625    1.750    5.250 
#    0.000    0.625    0.000    9.375    0.000    0.000 
#    0.000    0.000    0.000    0.000    0.000    0.000 
#
# Total GULP energy -793565.523320 kJ/mol
# GULP energy per Si atom -12399.461302 kJ/mol
# Density = 1.822255 g / cm^3
# Si number density = 18.264115 Si / 1000 Ang^3
#
#
#
# Elastic Constant Matrix: (Units=GPa)
#
#
# Indices 1 2 3 4 5 6 
#
# 1 49.1428 38.1116 46.9678 0.0000 0.0000 0.0000
# 2 38.1116 98.2313 75.4438 0.0000 0.0000 0.0000
# 3 46.9678 75.4438 175.5013 0.0000 0.0000 0.0000
# 4 0.0000 0.0000 0.0000 35.1142 0.0000 0.0000
# 5 0.0000 0.0000 0.0000 0.0000 32.8478 0.0000
# 6 0.0000 0.0000 0.0000 0.0000 0.0000 20.6327
#
#
#
# Elastic Compliance Matrix: (Units=1/GPa)
#
#
# Indices 1 2 3 4 5 6 
#
# 1 0.031554 -0.008594 -0.004750 0.000000 0.000000 0.000000
# 2 -0.008594 0.017538 -0.005239 0.000000 0.000000 0.000000
# 3 -0.004750 -0.005239 0.009221 0.000000 0.000000 0.000000
# 4 0.000000 0.000000 0.000000 0.028479 0.000000 0.000000
# 5 0.000000 0.000000 0.000000 0.000000 0.030443 0.000000
# 6 0.000000 0.000000 0.000000 0.000000 0.000000 0.048467
#
#
# Mechanical properties :
#
#
# Convention : Reuss Voigt Hill
#
# Bulk Modulus (GPa) = 47.28903 71.54686 59.41795
# Shear Modulus (GPa) = 23.81887 28.54241 26.18064
#
# Velocity S-wave (km/s) = 3.61520 3.95746 3.79020
# Velocity P-wave (km/s) = 6.58591 7.75503 7.19426
#
# Compressibility (1/GPa) = 0.02114655
#
# Stress axis : x y z
#
# Youngs Moduli (GPa) = 31.69215 57.01820 108.44272
#
# Poissons Ratio (x) = 0.49001 0.51511
# Poissons Ratio (y) = 0.27236 0.56817
# Poissons Ratio (z) = 0.15054 0.29874
#
# Static dielectric constant tensor:
#      x y z
#    x 3.241200 0.000000 0.000000 
#    y 0.000000 3.540140 0.000000 
#    z 0.000000 0.000000 3.545590 
# 
# 
# High freq. dielectric constant tensor:
#      x y z
#    x 1.695260 0.000000 0.000000 
#    y 0.000000 1.699660 0.000000 
#    z 0.000000 0.000000 1.718720 
# 
# From -- ./inp_files/26802.got.cif
#   From: 2010.03.12/outbox.cif.g09.slc.cpg/sg53_14_cif.got.tgz:26802.got - 2010.04.16 14:36:59.
