data_PCOD8218853
_publ_section_title
;
Structure prediction by ZEFSAII (Michael W. Deem and Ramdas Pophale) SiO2 
 PCOD8218853
Probable space group: P M N A
;
_chemical_formula_sum "Si O2"
_cell_formula_units_Z 56
_cell_length_a 9.159074
_cell_length_b 17.673890
_cell_length_c 16.235697
_cell_angle_alpha 90.000000
_cell_angle_beta 90.000000
_cell_angle_gamma 90.000000
_cell_volume 2628.177260
_symmetry_space_group_name_H-M "P M N A"
_symmetry_group_IT_number 53
_symmetry_cell_setting 'orthorhombic'
loop_
_space_group_symop_operation_xyz
x,y,z
1/2-x,-y,1/2+z
x,-y,-z
1/2-x,y,1/2-z
-x,-y,-z
1/2+x,y,1/2-z
-x,y,z
1/2+x,-y,1/2+z
loop_
_atom_site_type_symbol
_atom_site_label
_atom_site_fract_x
_atom_site_fract_y
_atom_site_fract_z
Si Si1 0.673093 0.318504 0.836419
Si Si2 0.840089 0.802263 0.676288
Si Si3 0.831274 0.882210 0.952515
Si Si4 0.669769 0.989994 0.323267
Si Si5 0.672294 0.587075 0.003972
Si Si6 0.839859 0.627346 0.673702
Si Si7 0.827559 0.146816 0.617894
O O1 0.750000 0.342058 0.750000
O O2 0.500000 0.327916 0.824389
O O3 0.731579 0.370863 0.913072
O O4 0.715522 0.232264 0.858203
O O5 0.750000 0.840399 0.750000
O O6 0.749702 0.814079 0.593596
O O7 0.860685 0.714514 0.693466
O O8 0.000000 0.840990 0.670934
O O9 0.811229 0.962625 0.907177
O O10 0.000000 0.861040 0.961567
O O11 0.757349 0.885050 0.039632
O O12 0.750000 0.037543 0.250000
O O13 0.500000 0.973478 0.306084
O O14 0.763561 0.912097 0.317193
O O15 0.500000 0.599253 0.005210
O O16 0.719306 0.500000 0.000000
O O17 0.734574 0.619843 0.917035
O O18 0.750000 0.589959 0.750000
O O19 0.000000 0.587462 0.672480
O O20 0.000000 0.139435 0.605323
#
# Coordination Sequence:
#
# PCOD8218853 Si02
#       7
#     8   8   8   8   8   8   8
#     4  10  22  40  62  90 120 155 201 247 294 349
#     4  10  19  32  51  76 108 144 184 229 279 340
#     4  11  23  37  55  81 113 147 188 240 295 351
#     4  11  24  40  57  80 111 147 190 241 296 354
#     4   9  18  35  59  85 116 154 191 229 282 349
#     4   9  18  33  54  81 112 147 188 233 281 340
#     4  11  23  39  60  83 111 149 194 243 294 352
#
# _framework density 21.307544
#
# number of rings (size 3 to 8) (size 9 to 14) (size 15 to 20)
#    0.000    1.857    0.000    3.857    0.000   10.857 
#    0.000    0.714    0.000    0.857    0.000    0.000 
#    0.000    0.000    0.000    0.000    0.000    0.000 
#
# Total GULP energy -693857.716685 kJ/mol
# GULP energy per Si atom -12390.316369 kJ/mol
# Density = 2.125905 g / cm^3
# Si number density = 21.307544 Si / 1000 Ang^3
#
#
#
# Elastic Constant Matrix: (Units=GPa)
#
#
# Indices 1 2 3 4 5 6 
#
# 1 112.3173 34.7013 65.2893 0.0000 0.0000 0.0000
# 2 34.7013 73.5576 37.0401 0.0000 0.0000 0.0000
# 3 65.2893 37.0401 160.1337 0.0000 0.0000 0.0000
# 4 0.0000 0.0000 0.0000 -18.9953 0.0000 0.0000
# 5 0.0000 0.0000 0.0000 0.0000 41.3225 0.0000
# 6 0.0000 0.0000 0.0000 0.0000 0.0000 14.0825
#
#
#
# Elastic Compliance Matrix: (Units=1/GPa)
#
#
# Indices 1 2 3 4 5 6 
#
# 1 0.012533 -0.003780 -0.004236 0.000000 0.000000 0.000000
# 2 -0.003780 0.016527 -0.002282 0.000000 0.000000 0.000000
# 3 -0.004236 -0.002282 0.008500 0.000000 0.000000 0.000000
# 4 0.000000 0.000000 0.000000 -0.052645 0.000000 0.000000
# 5 0.000000 0.000000 0.000000 0.000000 0.024200 0.000000
# 6 0.000000 0.000000 0.000000 0.000000 0.000000 0.071010
#
#
# Mechanical properties :
#
#
# Convention : Reuss Voigt Hill
#
# Bulk Modulus (GPa) = 58.94388 68.89668 63.92028
# Shear Modulus (GPa) = 47.00368 21.21381 34.10874
#
# Velocity S-wave (km/s) = 4.70186 3.15874 4.00532
# Velocity P-wave (km/s) = 7.56308 6.76078 7.17315
#
# Compressibility (1/GPa) = 0.01696529
#
# Stress axis : x y z
#
# Youngs Moduli (GPa) = 79.78699 60.50744 117.65309
#
# Poissons Ratio (x) = 0.22870 0.49835
# Poissons Ratio (y) = 0.30158 0.26845
# Poissons Ratio (z) = 0.33796 0.13806
#
# Static dielectric constant tensor:
#      x y z
#    x 3.938860 0.000000 0.000000 
#    y 0.000000 3.685830 0.000000 
#    z 0.000000 0.000000 3.957620 
# 
# 
# High freq. dielectric constant tensor:
#      x y z
#    x 1.818380 0.000000 0.000000 
#    y 0.000000 1.823840 0.000000 
#    z 0.000000 0.000000 1.858720 
# 
# From -- ./inp_files/20455.got.cif
#   From: 2010.03.12/outbox.cif.g09.slc.cpg/sg53_11_cif.got.tgz:20455.got - 2010.04.16 14:36:59.
