data_PCOD8218802
_publ_section_title
;
Structure prediction by ZEFSAII (Michael W. Deem and Ramdas Pophale) SiO2 
 PCOD8218802
Probable space group: P M N A
;
_chemical_formula_sum "Si O2"
_cell_formula_units_Z 48
_cell_length_a 8.806134
_cell_length_b 15.537596
_cell_length_c 19.443121
_cell_angle_alpha 90.000000
_cell_angle_beta 90.000000
_cell_angle_gamma 90.000000
_cell_volume 2660.327437
_symmetry_space_group_name_H-M "P M N A"
_symmetry_group_IT_number 53
_symmetry_cell_setting 'orthorhombic'
loop_
_space_group_symop_operation_xyz
x,y,z
1/2-x,-y,1/2+z
x,-y,-z
1/2-x,y,1/2-z
-x,-y,-z
1/2+x,y,1/2-z
-x,y,z
1/2+x,-y,1/2+z
loop_
_atom_site_type_symbol
_atom_site_label
_atom_site_fract_x
_atom_site_fract_y
_atom_site_fract_z
Si Si1 0.827791 0.905176 0.418421
Si Si2 0.822030 0.733455 0.080577
Si Si3 0.819733 0.405661 0.676996
Si Si4 0.822229 0.263290 0.077273
Si Si5 0.670457 0.907383 0.918255
Si Si6 0.318521 0.413192 0.323238
O O1 0.718605 0.829132 0.391364
O O2 0.823389 0.906779 0.500076
O O3 0.000000 0.888415 0.392963
O O4 0.769201 0.999065 0.391626
O O5 0.722821 0.665209 0.121379
O O6 0.000000 0.716171 0.091151
O O7 0.769836 0.724159 0.001382
O O8 0.750000 0.378014 0.750000
O O9 0.748460 0.495761 0.652349
O O10 0.000000 0.414411 0.683842
O O11 0.765756 0.173174 0.110098
O O12 0.761176 0.342777 0.121999
O O13 0.000000 0.259755 0.080962
O O14 0.500000 0.895072 0.891678
O O15 0.250000 0.386684 0.250000
O O16 0.500000 0.419305 0.318622
#
# Coordination Sequence:
#
# PCOD8218802 Si02
#       6
#     8   8   8   8   8   8
#     4   8  14  26  43  68  99 131 163 200 243 288
#     4  10  19  32  50  75 103 132 163 201 246 292
#     4  11  22  37  55  74  96 127 164 203 244 295
#     4   9  19  32  49  74 104 132 162 202 249 293
#     4   8  14  25  44  68  98 131 164 200 241 287
#     4  10  20  36  54  73  97 129 166 204 244 293
#
# _framework density 18.042891999999998
#
# number of rings (size 3 to 8) (size 9 to 14) (size 15 to 20)
#    0.000    2.667    0.000    4.500    0.000    3.333 
#    0.000    6.667    0.000    1.000    0.000    2.333 
#    0.000    0.000    0.000    0.000    0.000    0.000 
#
# Total GULP energy -594932.376556 kJ/mol
# GULP energy per Si atom -12394.424512 kJ/mol
# Density = 1.800183 g / cm^3
# Si number density = 18.042892 Si / 1000 Ang^3
#
#
#
# Elastic Constant Matrix: (Units=GPa)
#
#
# Indices 1 2 3 4 5 6 
#
# 1 66.3925 48.2569 28.6403 0.0000 0.0000 0.0000
# 2 48.2569 164.6081 65.9362 0.0000 0.0000 0.0000
# 3 28.6403 65.9362 51.4997 0.0000 0.0000 0.0000
# 4 0.0000 0.0000 0.0000 0.5701 0.0000 0.0000
# 5 0.0000 0.0000 0.0000 0.0000 16.4057 0.0000
# 6 0.0000 0.0000 0.0000 0.0000 0.0000 36.5401
#
#
#
# Elastic Compliance Matrix: (Units=1/GPa)
#
#
# Indices 1 2 3 4 5 6 
#
# 1 0.020496 -0.002962 -0.007606 0.000000 0.000000 0.000000
# 2 -0.002962 0.012899 -0.014867 0.000000 0.000000 0.000000
# 3 -0.007606 -0.014867 0.042682 0.000000 0.000000 0.000000
# 4 0.000000 0.000000 0.000000 1.754059 0.000000 0.000000
# 5 0.000000 0.000000 0.000000 0.000000 0.060955 0.000000
# 6 0.000000 0.000000 0.000000 0.000000 0.000000 0.027367
#
#
# Mechanical properties :
#
#
# Convention : Reuss Voigt Hill
#
# Bulk Modulus (GPa) = 39.67234 63.12966 51.40100
# Shear Modulus (GPa) = 2.52815 20.01430 11.27122
#
# Velocity S-wave (km/s) = 1.18500 3.33417 2.50209
# Velocity P-wave (km/s) = 4.88956 7.06306 6.07432
#
# Compressibility (1/GPa) = 0.02520648
#
# Stress axis : x y z
#
# Youngs Moduli (GPa) = 48.79032 77.52747 23.42881
#
# Poissons Ratio (x) = 0.22963 0.17820
# Poissons Ratio (y) = 0.14451 0.34832
# Poissons Ratio (z) = 0.37110 1.15262
#
# Static dielectric constant tensor:
#      x y z
#    x 3.344160 0.000000 0.000000 
#    y 0.000000 3.919640 0.000000 
#    z 0.000000 0.000000 3.121110 
# 
# 
# High freq. dielectric constant tensor:
#      x y z
#    x 1.699920 0.000000 0.000000 
#    y 0.000000 1.718760 0.000000 
#    z 0.000000 0.000000 1.652660 
# 
# From -- ./inp_files/26217.got.cif
#   From: 2010.03.12/outbox.cif.g09.slc.cpg/sg53_14_cif.got.tgz:26217.got - 2010.04.16 14:36:59.
