data_PCOD8218522
_publ_section_title
;
Structure prediction by ZEFSAII (Michael W. Deem and Ramdas Pophale) SiO2 
 PCOD8218522
Probable space group: P M N A
;
_chemical_formula_sum "Si O2"
_cell_formula_units_Z 40
_cell_length_a 7.758257
_cell_length_b 14.218502
_cell_length_c 20.054396
_cell_angle_alpha 90.000000
_cell_angle_beta 90.000000
_cell_angle_gamma 90.000000
_cell_volume 2212.216319
_symmetry_space_group_name_H-M "P M N A"
_symmetry_group_IT_number 53
_symmetry_cell_setting 'orthorhombic'
loop_
_space_group_symop_operation_xyz
x,y,z
1/2-x,-y,1/2+z
x,-y,-z
1/2-x,y,1/2-z
-x,-y,-z
1/2+x,y,1/2-z
-x,y,z
1/2+x,-y,1/2+z
loop_
_atom_site_type_symbol
_atom_site_label
_atom_site_fract_x
_atom_site_fract_y
_atom_site_fract_z
Si Si1 0.193208 0.249900 0.548924
Si Si2 0.000000 0.085415 0.090224
Si Si3 0.203489 0.454139 0.931480
Si Si4 0.807329 0.785636 0.602757
Si Si5 0.701327 0.394209 0.324589
Si Si6 0.500000 0.121497 0.566072
O O1 0.208099 0.353604 0.579509
O O2 0.235744 0.255949 0.470195
O O3 0.328442 0.180238 0.584658
O O4 0.000000 0.211262 0.561443
O O5 0.828771 0.132894 0.121314
O O6 0.000000 0.974889 0.108664
O O7 0.000000 0.096967 0.011336
O O8 0.263239 0.520153 0.870906
O O9 0.000000 0.438643 0.933754
O O10 0.270016 0.500000 0.000000
O O11 0.797585 0.701331 0.655543
O O12 0.000000 0.828844 0.605253
O O13 0.750000 0.422347 0.250000
O O14 0.500000 0.376472 0.334127
#
# Coordination Sequence:
#
# PCOD8218522 Si02
#       6
#     8   4   8   8   8   4
#     4  10  19  30  51  78 107 143 180 219 268 320
#     4   9  18  32  51  72 105 144 169 217 274 313
#     4  10  19  32  54  76 105 148 184 222 266 327
#     4  10  19  32  51  76 105 141 180 217 267 328
#     4  11  22  35  52  77 114 146 179 224 273 324
#     4   9  18  32  48  75 110 135 176 223 264 314
#
# _framework density 18.081415
#
# number of rings (size 3 to 8) (size 9 to 14) (size 15 to 20)
#    0.000    2.000    4.000    0.600    0.000    2.800 
#    0.000    4.000    0.000    0.000    0.000    1.400 
#    0.000    0.000    0.000    0.000    0.000    0.000 
#
# Total GULP energy -496078.709966 kJ/mol
# GULP energy per Si atom -12401.967749 kJ/mol
# Density = 1.804026 g / cm^3
# Si number density = 18.081415 Si / 1000 Ang^3
#
#
#
# Elastic Constant Matrix: (Units=GPa)
#
#
# Indices 1 2 3 4 5 6 
#
# 1 118.1475 63.8342 24.3415 0.0000 0.0000 0.0000
# 2 63.8342 144.0561 39.0521 0.0000 0.0000 0.0000
# 3 24.3415 39.0521 71.0953 0.0000 0.0000 0.0000
# 4 0.0000 0.0000 0.0000 14.2532 0.0000 0.0000
# 5 0.0000 0.0000 0.0000 0.0000 17.5004 0.0000
# 6 0.0000 0.0000 0.0000 0.0000 0.0000 12.9914
#
#
#
# Elastic Compliance Matrix: (Units=1/GPa)
#
#
# Indices 1 2 3 4 5 6 
#
# 1 0.011231 -0.004622 -0.001306 0.000000 0.000000 0.000000
# 2 -0.004622 0.010059 -0.003943 0.000000 0.000000 0.000000
# 3 -0.001306 -0.003943 0.016678 0.000000 0.000000 0.000000
# 4 0.000000 0.000000 0.000000 0.070160 0.000000 0.000000
# 5 0.000000 0.000000 0.000000 0.000000 0.057142 0.000000
# 6 0.000000 0.000000 0.000000 0.000000 0.000000 0.076974
#
#
# Mechanical properties :
#
#
# Convention : Reuss Voigt Hill
#
# Bulk Modulus (GPa) = 54.86774 65.30606 60.08690
# Shear Modulus (GPa) = 18.65250 22.68707 20.66979
#
# Velocity S-wave (km/s) = 3.21531 3.54604 3.38472
# Velocity P-wave (km/s) = 6.64793 7.27750 6.96983
#
# Compressibility (1/GPa) = 0.01822565
#
# Stress axis : x y z
#
# Youngs Moduli (GPa) = 89.04290 99.41511 59.95771
#
# Poissons Ratio (x) = 0.45954 0.07831
# Poissons Ratio (y) = 0.41159 0.23639
# Poissons Ratio (z) = 0.11629 0.39196
#
# Static dielectric constant tensor:
#      x y z
#    x 3.437540 0.000000 0.000000 
#    y 0.000000 3.359840 0.000000 
#    z 0.000000 0.000000 2.941210 
# 
# 
# High freq. dielectric constant tensor:
#      x y z
#    x 1.715260 0.000000 0.000000 
#    y 0.000000 1.692930 0.000000 
#    z 0.000000 0.000000 1.645950 
# 
# From -- ./inp_files/30407.got.cif
#   From: 2010.03.12/outbox.cif.g09.slc.cpg/sg53_16_cif.got.tgz:30407.got - 2010.04.16 14:36:59.
