data_PCOD8218453
_publ_section_title
;
Structure prediction by ZEFSAII (Michael W. Deem and Ramdas Pophale) SiO2 
 PCOD8218453
Probable space group: P M N A
;
_chemical_formula_sum "Si O2"
_cell_formula_units_Z 40
_cell_length_a 8.813805
_cell_length_b 13.788025
_cell_length_c 18.212398
_cell_angle_alpha 90.000000
_cell_angle_beta 90.000000
_cell_angle_gamma 90.000000
_cell_volume 2213.261006
_symmetry_space_group_name_H-M "P M N A"
_symmetry_group_IT_number 53
_symmetry_cell_setting 'orthorhombic'
loop_
_space_group_symop_operation_xyz
x,y,z
1/2-x,-y,1/2+z
x,-y,-z
1/2-x,y,1/2-z
-x,-y,-z
1/2+x,y,1/2-z
-x,y,z
1/2+x,-y,1/2+z
loop_
_atom_site_type_symbol
_atom_site_label
_atom_site_fract_x
_atom_site_fract_y
_atom_site_fract_z
Si Si1 0.820896 0.873652 0.879808
Si Si2 0.678192 0.799430 0.464939
Si Si3 0.179027 0.398180 0.033500
Si Si4 0.179851 0.914641 0.172601
Si Si5 0.820816 0.317456 0.324475
O O1 0.733820 0.793024 0.833338
O O2 0.000000 0.855541 0.871147
O O3 0.769433 0.977207 0.849334
O O4 0.772189 0.864596 0.965271
O O5 0.500000 0.806964 0.456283
O O6 0.728200 0.687805 0.477598
O O7 0.748011 0.842263 0.389678
O O8 0.264368 0.385751 0.110012
O O9 0.000000 0.393677 0.048640
O O10 0.230548 0.500000 0.000000
O O11 0.250000 0.883836 0.250000
O O12 0.000000 0.907605 0.178377
O O13 0.750000 0.360334 0.250000
O O14 0.000000 0.320643 0.320052
#
# Coordination Sequence:
#
# PCOD8218453 Si02
#       5
#     8   8   8   8   8
#     4   9  17  31  51  72  95 127 167 205 243 289
#     4   8  15  30  51  72  94 125 164 201 241 295
#     4   9  18  35  58  78  97 126 166 210 255 302
#     4  10  19  30  46  69  99 133 165 198 238 289
#     4  11  21  33  51  76 105 132 162 204 252 297
#
# _framework density 18.072880000000001
#
# number of rings (size 3 to 8) (size 9 to 14) (size 15 to 20)
#    0.000    2.600    0.000    4.200    0.000    5.200 
#    0.000    5.000    0.000    8.400    0.000    0.000 
#    0.000    0.000    0.000    0.000    0.000    0.000 
#
# Total GULP energy -495931.944745 kJ/mol
# GULP energy per Si atom -12398.298619 kJ/mol
# Density = 1.803174 g / cm^3
# Si number density = 18.072880 Si / 1000 Ang^3
#
#
#
# Elastic Constant Matrix: (Units=GPa)
#
#
# Indices 1 2 3 4 5 6 
#
# 1 59.3599 38.6085 46.4626 0.0000 0.0000 0.0000
# 2 38.6085 101.9621 71.3254 0.0000 0.0000 0.0000
# 3 46.4626 71.3254 156.2664 0.0000 0.0000 0.0000
# 4 0.0000 0.0000 0.0000 1.6824 0.0000 0.0000
# 5 0.0000 0.0000 0.0000 0.0000 30.2009 0.0000
# 6 0.0000 0.0000 0.0000 0.0000 0.0000 4.1726
#
#
#
# Elastic Compliance Matrix: (Units=1/GPa)
#
#
# Indices 1 2 3 4 5 6 
#
# 1 0.024282 -0.006088 -0.004441 0.000000 0.000000 0.000000
# 2 -0.006088 0.015934 -0.005463 0.000000 0.000000 0.000000
# 3 -0.004441 -0.005463 0.010213 0.000000 0.000000 0.000000
# 4 0.000000 0.000000 0.000000 0.594375 0.000000 0.000000
# 5 0.000000 0.000000 0.000000 0.000000 0.033112 0.000000
# 6 0.000000 0.000000 0.000000 0.000000 0.000000 0.239657
#
#
# Mechanical properties :
#
#
# Convention : Reuss Voigt Hill
#
# Bulk Modulus (GPa) = 54.21231 70.04239 62.12735
# Shear Modulus (GPa) = 5.23174 17.95731 11.59453
#
# Velocity S-wave (km/s) = 1.70326 3.15557 2.53562
# Velocity P-wave (km/s) = 5.82492 7.21918 6.55920
#
# Compressibility (1/GPa) = 0.01844600
#
# Stress axis : x y z
#
# Youngs Moduli (GPa) = 41.18242 62.75818 97.91244
#
# Poissons Ratio (x) = 0.38207 0.43484
# Poissons Ratio (y) = 0.25072 0.53488
# Poissons Ratio (z) = 0.18289 0.34284
#
# Static dielectric constant tensor:
#      x y z
#    x 3.025920 0.000000 0.000000 
#    y 0.000000 3.363440 0.000000 
#    z 0.000000 0.000000 3.589400 
# 
# 
# High freq. dielectric constant tensor:
#      x y z
#    x 1.672780 0.000000 0.000000 
#    y 0.000000 1.686630 0.000000 
#    z 0.000000 0.000000 1.709940 
# 
# From -- ./inp_files/19857.got.cif
#   From: 2010.03.12/outbox.cif.g09.slc.cpg/sg53_10_cif.got.tgz:19857.got - 2010.04.16 14:36:59.
