data_PCOD8218550
_publ_section_title
;
Structure prediction by ZEFSAII (Michael W. Deem and Ramdas Pophale) SiO2 
 PCOD8218550
Probable space group: P M N A
;
_chemical_formula_sum "Si O2"
_cell_formula_units_Z 48
_cell_length_a 18.462984
_cell_length_b 26.694824
_cell_length_c 5.123681
_cell_angle_alpha 90.000000
_cell_angle_beta 90.000000
_cell_angle_gamma 90.000000
_cell_volume 2525.288715
_symmetry_space_group_name_H-M "P M N A"
_symmetry_group_IT_number 53
_symmetry_cell_setting 'orthorhombic'
loop_
_space_group_symop_operation_xyz
x,y,z
1/2-x,-y,1/2+z
x,-y,-z
1/2-x,y,1/2-z
-x,-y,-z
1/2+x,y,1/2-z
-x,y,z
1/2+x,-y,1/2+z
loop_
_atom_site_type_symbol
_atom_site_label
_atom_site_fract_x
_atom_site_fract_y
_atom_site_fract_z
Si Si1 0.796697 0.558238 0.996861
Si Si2 0.663585 0.970484 0.747947
Si Si3 0.163912 0.142021 0.247221
Si Si4 0.164111 0.201362 0.741701
Si Si5 0.418769 0.363327 0.417018
Si Si6 0.581068 0.298901 0.927471
O O1 0.750000 0.572907 0.750000
O O2 0.871103 0.587654 0.960908
O O3 0.817295 0.500000 0.000000
O O4 0.750000 0.573957 0.250000
O O5 0.750000 0.969036 0.750000
O O6 0.632492 0.914131 0.727199
O O7 0.633550 0.000000 0.500000
O O8 0.634198 0.000000 0.000000
O O9 0.250000 0.140031 0.250000
O O10 0.136480 0.163625 0.520105
O O11 0.135659 0.178141 0.014533
O O12 0.250000 0.207100 0.750000
O O13 0.132607 0.255080 0.671741
O O14 0.500000 0.379906 0.333666
O O15 0.420349 0.338130 0.696496
O O16 0.388488 0.325695 0.191111
O O17 0.500000 0.278137 0.982608
#
# Coordination Sequence:
#
# PCOD8218550 Si02
#       6
#     8   8   8   8   8   8
#     4  10  21  37  57  83 113 142 174 215 260 307
#     4   9  15  23  37  58  87 123 156 189 239 297
#     4   9  17  28  42  64  95 126 159 201 245 297
#     4  10  19  31  47  68  96 129 162 200 251 303
#     4  10  21  37  56  78 105 139 176 216 261 306
#     4  10  21  36  53  75 103 133 172 218 256 299
#
# _framework density 19.007726999999999
#
# number of rings (size 3 to 8) (size 9 to 14) (size 15 to 20)
#    0.000    2.333    0.000    3.000    0.000    6.333 
#    0.000    0.000    0.000    6.000    0.000    0.000 
#    0.000   13.333    0.000    0.000    0.000    0.000 
#
# Total GULP energy -595028.942255 kJ/mol
# GULP energy per Si atom -12396.436297 kJ/mol
# Density = 1.896446 g / cm^3
# Si number density = 19.007727 Si / 1000 Ang^3
#
#
#
# Elastic Constant Matrix: (Units=GPa)
#
#
# Indices 1 2 3 4 5 6 
#
# 1 49.9180 51.8682 29.4697 0.0000 0.0000 0.0000
# 2 51.8682 111.3773 40.1690 0.0000 0.0000 0.0000
# 3 29.4697 40.1690 134.2384 0.0000 0.0000 0.0000
# 4 0.0000 0.0000 0.0000 45.5730 0.0000 0.0000
# 5 0.0000 0.0000 0.0000 0.0000 12.0033 0.0000
# 6 0.0000 0.0000 0.0000 0.0000 0.0000 1.5853
#
#
#
# Elastic Compliance Matrix: (Units=1/GPa)
#
#
# Indices 1 2 3 4 5 6 
#
# 1 0.040330 -0.017474 -0.003625 0.000000 0.000000 0.000000
# 2 -0.017474 0.017636 -0.001441 0.000000 0.000000 0.000000
# 3 -0.003625 -0.001441 0.008676 0.000000 0.000000 0.000000
# 4 0.000000 0.000000 0.000000 0.021943 0.000000 0.000000
# 5 0.000000 0.000000 0.000000 0.000000 0.083310 0.000000
# 6 0.000000 0.000000 0.000000 0.000000 0.000000 0.630789
#
#
# Mechanical properties :
#
#
# Convention : Reuss Voigt Hill
#
# Bulk Modulus (GPa) = 46.37827 59.83862 53.10844
# Shear Modulus (GPa) = 5.84828 23.43412 14.64120
#
# Velocity S-wave (km/s) = 1.75598 3.51504 2.77840
# Velocity P-wave (km/s) = 5.34453 6.92990 6.18819
#
# Compressibility (1/GPa) = 0.02156182
#
# Stress axis : x y z
#
# Youngs Moduli (GPa) = 24.79573 56.70251 115.25466
#
# Poissons Ratio (x) = 0.99082 0.41777
# Poissons Ratio (y) = 0.43328 0.16610
# Poissons Ratio (z) = 0.08988 0.08172
#
# Static dielectric constant tensor:
#      x y z
#    x 3.126250 0.000000 0.000000 
#    y 0.000000 3.498870 0.000000 
#    z 0.000000 0.000000 3.869000 
# 
# 
# High freq. dielectric constant tensor:
#      x y z
#    x 1.690180 0.000000 0.000000 
#    y 0.000000 1.742830 0.000000 
#    z 0.000000 0.000000 1.764100 
# 
# From -- ./inp_files/2228.got.cif
#   From: 2010.03.12/outbox.cif.g09.slc.cpg/sg53_2_cif.got.tgz:2228.got - 2010.04.16 14:36:59.
