data_PCOD8218441
_publ_section_title
;
Structure prediction by ZEFSAII (Michael W. Deem and Ramdas Pophale) SiO2 
 PCOD8218441
Probable space group: P M N A
;
_chemical_formula_sum "Si O2"
_cell_formula_units_Z 64
_cell_length_a 8.806366
_cell_length_b 14.565481
_cell_length_c 30.054468
_cell_angle_alpha 90.000000
_cell_angle_beta 90.000000
_cell_angle_gamma 90.000000
_cell_volume 3855.055253
_symmetry_space_group_name_H-M "P M N A"
_symmetry_group_IT_number 53
_symmetry_cell_setting 'orthorhombic'
loop_
_space_group_symop_operation_xyz
x,y,z
1/2-x,-y,1/2+z
x,-y,-z
1/2-x,y,1/2-z
-x,-y,-z
1/2+x,y,1/2-z
-x,y,z
1/2+x,-y,1/2+z
loop_
_atom_site_type_symbol
_atom_site_label
_atom_site_fract_x
_atom_site_fract_y
_atom_site_fract_z
Si Si1 0.177468 0.930273 0.613965
Si Si2 0.171231 0.746712 0.018056
Si Si3 0.176681 0.747067 0.572179
Si Si4 0.820964 0.842392 0.703943
Si Si5 0.326204 0.454236 0.546372
Si Si6 0.319919 0.431736 0.120328
Si Si7 0.181080 0.645953 0.797149
Si Si8 0.175745 0.051304 0.955741
O O1 0.249771 0.840487 0.590531
O O2 0.211413 0.920613 0.666754
O O3 0.000000 0.937727 0.604951
O O4 0.252663 0.017784 0.590722
O O5 0.189215 0.656060 0.047810
O O6 0.207922 0.839793 0.044678
O O7 0.000000 0.752060 0.998424
O O8 0.293014 0.737637 0.979536
O O9 0.245382 0.659429 0.596766
O O10 0.000000 0.749090 0.582232
O O11 0.750000 0.878600 0.750000
O O12 0.745947 0.746140 0.689225
O O13 0.000000 0.824929 0.709623
O O14 0.265724 0.500000 0.500000
O O15 0.500000 0.485518 0.552859
O O16 0.228155 0.484384 0.588841
O O17 0.500000 0.433803 0.127002
O O18 0.237193 0.431985 0.168175
O O19 0.250000 0.616470 0.750000
O O20 0.000000 0.649576 0.794796
O O21 0.000000 0.027449 0.953901
O O22 0.244423 0.000000 0.000000
#
# Coordination Sequence:
#
# PCOD8218441 Si02
#       8
#     8   8   8   8   8   8   8   8
#     4  10  20  33  48  69  99 133 166 202 243 293
#     4  10  20  34  48  68 100 131 166 213 250 288
#     4  10  19  30  46  68  98 132 166 204 244 288
#     4  10  19  33  49  72 102 131 165 203 247 294
#     4  10  20  33  50  72  98 132 171 207 250 301
#     4  11  21  34  50  72 102 134 170 208 248 296
#     4  11  21  33  51  74 102 134 167 203 248 298
#     4  10  20  32  48  71  97 128 168 208 246 291
#
# _framework density 16.601579000000001
#
# number of rings (size 3 to 8) (size 9 to 14) (size 15 to 20)
#    0.000    1.750    3.750    2.625    0.000    3.000 
#    0.000    0.000    0.000    0.000    0.000    0.875 
#    0.000    2.000    0.000    0.000    0.000    0.000 
#
# Total GULP energy -793403.546742 kJ/mol
# GULP energy per Si atom -12396.930418 kJ/mol
# Density = 1.656379 g / cm^3
# Si number density = 16.601579 Si / 1000 Ang^3
#
#
#
# Elastic Constant Matrix: (Units=GPa)
#
#
# Indices 1 2 3 4 5 6 
#
# 1 71.6952 29.6569 45.6047 0.0000 0.0000 0.0000
# 2 29.6569 96.1558 48.2630 0.0000 0.0000 0.0000
# 3 45.6047 48.2630 116.4335 0.0000 0.0000 0.0000
# 4 0.0000 0.0000 0.0000 26.8119 0.0000 0.0000
# 5 0.0000 0.0000 0.0000 0.0000 28.0436 0.0000
# 6 0.0000 0.0000 0.0000 0.0000 0.0000 21.8009
#
#
#
# Elastic Compliance Matrix: (Units=1/GPa)
#
#
# Indices 1 2 3 4 5 6 
#
# 1 0.019115 -0.002699 -0.006368 0.000000 0.000000 0.000000
# 2 -0.002699 0.013513 -0.004544 0.000000 0.000000 0.000000
# 3 -0.006368 -0.004544 0.012966 0.000000 0.000000 0.000000
# 4 0.000000 0.000000 0.000000 0.037297 0.000000 0.000000
# 5 0.000000 0.000000 0.000000 0.000000 0.035659 0.000000
# 6 0.000000 0.000000 0.000000 0.000000 0.000000 0.045870
#
#
# Mechanical properties :
#
#
# Convention : Reuss Voigt Hill
#
# Bulk Modulus (GPa) = 54.43150 59.03710 56.73430
# Shear Modulus (GPa) = 25.28226 26.04860 25.66543
#
# Velocity S-wave (km/s) = 3.90665 3.96541 3.93614
# Velocity P-wave (km/s) = 7.29433 7.52359 7.40985
#
# Compressibility (1/GPa) = 0.01837172
#
# Stress axis : x y z
#
# Youngs Moduli (GPa) = 52.31431 74.00224 77.12210
#
# Poissons Ratio (x) = 0.19975 0.49113
# Poissons Ratio (y) = 0.14121 0.35045
# Poissons Ratio (z) = 0.33315 0.33627
#
# Static dielectric constant tensor:
#      x y z
#    x 3.065470 0.000000 0.000000 
#    y 0.000000 3.039900 0.000000 
#    z 0.000000 0.000000 3.114040 
# 
# 
# High freq. dielectric constant tensor:
#      x y z
#    x 1.641320 0.000000 0.000000 
#    y 0.000000 1.613310 0.000000 
#    z 0.000000 0.000000 1.630800 
# 
# From -- ./inp_files/38496.got.cif
#   From: 2010.03.12/outbox.cif.g09.slc.cpg/sg53_20_cif.got.tgz:38496.got - 2010.04.16 14:36:59.
