data_PCOD8218284
_publ_section_title
;
Structure prediction by ZEFSAII (Michael W. Deem and Ramdas Pophale) SiO2 
 PCOD8218284
Probable space group: P M N A
;
_chemical_formula_sum "Si O2"
_cell_formula_units_Z 64
_cell_length_a 18.103836
_cell_length_b 19.667641
_cell_length_c 9.105958
_cell_angle_alpha 90.000000
_cell_angle_beta 90.000000
_cell_angle_gamma 90.000000
_cell_volume 3242.265103
_symmetry_space_group_name_H-M "P M N A"
_symmetry_group_IT_number 53
_symmetry_cell_setting 'orthorhombic'
loop_
_space_group_symop_operation_xyz
x,y,z
1/2-x,-y,1/2+z
x,-y,-z
1/2-x,y,1/2-z
-x,-y,-z
1/2+x,y,1/2-z
-x,y,z
1/2+x,-y,1/2+z
loop_
_atom_site_type_symbol
_atom_site_label
_atom_site_fract_x
_atom_site_fract_y
_atom_site_fract_z
Si Si1 0.663335 0.565650 0.914310
Si Si2 0.587271 0.682785 0.069937
Si Si3 0.315082 0.961668 0.358680
Si Si4 0.913207 0.314321 0.897291
Si Si5 0.584218 0.955234 0.855350
Si Si6 0.332635 0.430217 0.428341
Si Si7 0.084922 0.171904 0.519965
Si Si8 0.084241 0.158857 0.862081
O O1 0.654553 0.557062 0.742173
O O2 0.746683 0.581469 0.964197
O O3 0.633929 0.500000 0.000000
O O4 0.609426 0.625889 0.956870
O O5 0.500000 0.692345 0.080338
O O6 0.615323 0.665407 0.234374
O O7 0.621880 0.753357 0.007896
O O8 0.250000 0.937676 0.250000
O O9 0.359209 0.896759 0.425444
O O10 0.280698 0.000000 0.500000
O O11 0.369224 0.013534 0.276163
O O12 0.894044 0.234391 0.919689
O O13 0.000000 0.326243 0.914735
O O14 0.873880 0.362913 0.015144
O O15 0.500000 0.947901 0.798925
O O16 0.620006 0.882359 0.906126
O O17 0.585726 0.000000 0.000000
O O18 0.362415 0.500000 0.500000
O O19 0.092297 0.148824 0.687939
O O20 0.000000 0.175850 0.475274
O O21 0.000000 0.143144 0.910151
#
# Coordination Sequence:
#
# PCOD8218284 Si02
#       8
#     8   8   8   8   8   8   8   8
#     4  10  21  37  57  81 113 154 194 236 281 347
#     4   9  18  34  56  85 116 147 187 236 285 335
#     4  12  26  41  56  82 120 156 196 249 301 348
#     4   9  19  37  61  88 114 144 191 242 286 341
#     4  10  18  34  63  88 109 147 195 236 288 355
#     4  10  21  38  58  82 115 152 195 236 284 340
#     4   8  15  31  59  87 108 141 186 232 280 343
#     4   9  18  38  64  85 112 150 196 241 286 350
#
# _framework density 19.739286
#
# number of rings (size 3 to 8) (size 9 to 14) (size 15 to 20)
#    0.000    2.375    1.250    3.000    0.000    3.500 
#    6.750    0.000    0.000    0.000    0.000    0.000 
#    0.000    0.000    0.000    0.000    0.000    0.000 
#
# Total GULP energy -793252.259878 kJ/mol
# GULP energy per Si atom -12394.566561 kJ/mol
# Density = 1.969436 g / cm^3
# Si number density = 19.739286 Si / 1000 Ang^3
#
#
#
# Elastic Constant Matrix: (Units=GPa)
#
#
# Indices 1 2 3 4 5 6 
#
# 1 48.9940 40.6540 24.0496 0.0000 0.0000 0.0000
# 2 40.6540 134.9947 48.3463 0.0000 0.0000 0.0000
# 3 24.0496 48.3463 66.3149 0.0000 0.0000 0.0000
# 4 0.0000 0.0000 0.0000 32.4403 0.0000 0.0000
# 5 0.0000 0.0000 0.0000 0.0000 27.4986 0.0000
# 6 0.0000 0.0000 0.0000 0.0000 0.0000 16.8839
#
#
#
# Elastic Compliance Matrix: (Units=1/GPa)
#
#
# Indices 1 2 3 4 5 6 
#
# 1 0.028643 -0.006639 -0.005547 0.000000 0.000000 0.000000
# 2 -0.006639 0.011564 -0.006023 0.000000 0.000000 0.000000
# 3 -0.005547 -0.006023 0.021482 0.000000 0.000000 0.000000
# 4 0.000000 0.000000 0.000000 0.030826 0.000000 0.000000
# 5 0.000000 0.000000 0.000000 0.000000 0.036365 0.000000
# 6 0.000000 0.000000 0.000000 0.000000 0.000000 0.059228
#
#
# Mechanical properties :
#
#
# Convention : Reuss Voigt Hill
#
# Bulk Modulus (GPa) = 39.57215 52.93373 46.25294
# Shear Modulus (GPa) = 21.46377 24.51480 22.98929
#
# Velocity S-wave (km/s) = 3.30110 3.52793 3.41639
# Velocity P-wave (km/s) = 5.88393 6.59315 6.24861
#
# Compressibility (1/GPa) = 0.02527029
#
# Stress axis : x y z
#
# Youngs Moduli (GPa) = 34.91302 86.47423 46.54989
#
# Poissons Ratio (x) = 0.57411 0.25822
# Poissons Ratio (y) = 0.23179 0.28037
# Poissons Ratio (z) = 0.19367 0.52083
#
# Static dielectric constant tensor:
#      x y z
#    x 3.372610 0.000000 0.000000 
#    y 0.000000 3.902420 0.000000 
#    z 0.000000 0.000000 3.431080 
# 
# 
# High freq. dielectric constant tensor:
#      x y z
#    x 1.743830 0.000000 0.000000 
#    y 0.000000 1.782720 0.000000 
#    z 0.000000 0.000000 1.755060 
# 
# From -- ./inp_files/10242.got.cif
#   From: 2010.03.12/outbox.cif.g09.slc.cpg/sg53_6_cif.got.tgz:10242.got - 2010.04.16 14:36:59.
