data_PCOD8218697
_publ_section_title
;
Structure prediction by ZEFSAII (Michael W. Deem and Ramdas Pophale) SiO2 
 PCOD8218697
Probable space group: P M N A
;
_chemical_formula_sum "Si O2"
_cell_formula_units_Z 64
_cell_length_a 9.459502
_cell_length_b 18.402916
_cell_length_c 19.742850
_cell_angle_alpha 90.000000
_cell_angle_beta 90.000000
_cell_angle_gamma 90.000000
_cell_volume 3436.883120
_symmetry_space_group_name_H-M "P M N A"
_symmetry_group_IT_number 53
_symmetry_cell_setting 'orthorhombic'
loop_
_space_group_symop_operation_xyz
x,y,z
1/2-x,-y,1/2+z
x,-y,-z
1/2-x,y,1/2-z
-x,-y,-z
1/2+x,y,1/2-z
-x,y,z
1/2+x,-y,1/2+z
loop_
_atom_site_type_symbol
_atom_site_label
_atom_site_fract_x
_atom_site_fract_y
_atom_site_fract_z
Si Si1 0.661490 0.696608 0.041068
Si Si2 0.338104 0.195178 0.074094
Si Si3 0.834958 0.924615 0.314969
Si Si4 0.343452 0.251615 0.309397
Si Si5 0.665007 0.242320 0.816312
Si Si6 0.155723 0.420492 0.189715
Si Si7 0.335255 0.424762 0.462725
Si Si8 0.667850 0.968838 0.931406
O O1 0.500000 0.668922 0.039721
O O2 0.711067 0.709969 0.118548
O O3 0.672916 0.773614 0.001933
O O4 0.756622 0.636754 0.005139
O O5 0.500000 0.200149 0.100228
O O6 0.237054 0.243870 0.120019
O O7 0.279245 0.113372 0.078217
O O8 0.750000 0.949987 0.250000
O O9 0.799899 0.841396 0.333675
O O10 0.000000 0.935309 0.301231
O O11 0.778640 0.978117 0.372833
O O12 0.250000 0.214266 0.250000
O O13 0.500000 0.215658 0.311717
O O14 0.360284 0.336037 0.294176
O O15 0.750000 0.268948 0.750000
O O16 0.500000 0.252185 0.800682
O O17 0.250000 0.456258 0.250000
O O18 0.222799 0.431794 0.114580
O O19 0.000000 0.457209 0.192380
O O20 0.308179 0.500000 0.500000
O O21 0.500000 0.403255 0.459932
O O22 0.500000 0.968785 0.936169
O O23 0.734634 0.000000 0.000000
#
# Coordination Sequence:
#
# PCOD8218697 Si02
#       8
#     8   8   8   8   8   8   8   8
#     4  10  20  34  54  79 107 134 170 218 263 312
#     4  10  19  31  50  76 103 135 174 217 266 313
#     4   9  17  31  51  72  99 134 173 215 256 304
#     4  10  19  32  50  73 102 134 171 212 254 303
#     4   9  18  33  53  78 103 134 175 218 263 310
#     4   9  18  33  54  78 103 136 173 208 247 297
#     4  10  21  38  58  81 110 142 176 212 260 318
#     4   9  17  30  49  72  98 132 174 216 259 308
#
# _framework density 18.621523
#
# number of rings (size 3 to 8) (size 9 to 14) (size 15 to 20)
#    0.000    2.500    1.250    1.125    0.000    5.250 
#    0.000    2.500    0.000    6.000    0.000    0.000 
#    0.000    0.000    0.000    0.000    0.000    0.000 
#
# Total GULP energy -793420.634360 kJ/mol
# GULP energy per Si atom -12397.197412 kJ/mol
# Density = 1.857914 g / cm^3
# Si number density = 18.621523 Si / 1000 Ang^3
#
#
#
# Elastic Constant Matrix: (Units=GPa)
#
#
# Indices 1 2 3 4 5 6 
#
# 1 70.5729 28.1607 60.7290 0.0000 0.0000 0.0000
# 2 28.1607 59.0353 47.5994 0.0000 0.0000 0.0000
# 3 60.7290 47.5994 166.7395 0.0000 0.0000 0.0000
# 4 0.0000 0.0000 0.0000 24.1651 0.0000 0.0000
# 5 0.0000 0.0000 0.0000 0.0000 30.7276 0.0000
# 6 0.0000 0.0000 0.0000 0.0000 0.0000 12.6445
#
#
#
# Elastic Compliance Matrix: (Units=1/GPa)
#
#
# Indices 1 2 3 4 5 6 
#
# 1 0.021798 -0.005192 -0.006457 0.000000 0.000000 0.000000
# 2 -0.005192 0.023240 -0.004744 0.000000 0.000000 0.000000
# 3 -0.006457 -0.004744 0.009703 0.000000 0.000000 0.000000
# 4 0.000000 0.000000 0.000000 0.041382 0.000000 0.000000
# 5 0.000000 0.000000 0.000000 0.000000 0.032544 0.000000
# 6 0.000000 0.000000 0.000000 0.000000 0.000000 0.079086
#
#
# Mechanical properties :
#
#
# Convention : Reuss Voigt Hill
#
# Bulk Modulus (GPa) = 45.54399 63.25845 54.40122
# Shear Modulus (GPa) = 20.17299 24.16468 22.16884
#
# Velocity S-wave (km/s) = 3.29495 3.60623 3.45410
# Velocity P-wave (km/s) = 6.24391 7.16828 6.72200
#
# Compressibility (1/GPa) = 0.02195679
#
# Stress axis : x y z
#
# Youngs Moduli (GPa) = 45.87648 43.02902 103.05821
#
# Poissons Ratio (x) = 0.22339 0.66544
# Poissons Ratio (y) = 0.23817 0.48886
# Poissons Ratio (z) = 0.29622 0.20411
#
# Static dielectric constant tensor:
#      x y z
#    x 3.401260 0.000000 0.000000 
#    y 0.000000 3.195870 0.000000 
#    z 0.000000 0.000000 3.585880 
# 
# 
# High freq. dielectric constant tensor:
#      x y z
#    x 1.705520 0.000000 0.000000 
#    y 0.000000 1.697970 0.000000 
#    z 0.000000 0.000000 1.734930 
# 
# From -- ./inp_files/31182.got.cif
#   From: 2010.03.12/outbox.cif.g09.slc.cpg/sg53_16_cif.got.tgz:31182.got - 2010.04.16 14:36:59.
