data_PCOD8218528
_publ_section_title
;
Structure prediction by ZEFSAII (Michael W. Deem and Ramdas Pophale) SiO2 
 PCOD8218528
Probable space group: P M N A
;
_chemical_formula_sum "Si O2"
_cell_formula_units_Z 64
_cell_length_a 8.992498
_cell_length_b 14.802698
_cell_length_c 29.502922
_cell_angle_alpha 90.000000
_cell_angle_beta 90.000000
_cell_angle_gamma 90.000000
_cell_volume 3927.229306
_symmetry_space_group_name_H-M "P M N A"
_symmetry_group_IT_number 53
_symmetry_cell_setting 'orthorhombic'
loop_
_space_group_symop_operation_xyz
x,y,z
1/2-x,-y,1/2+z
x,-y,-z
1/2-x,y,1/2-z
-x,-y,-z
1/2+x,y,1/2-z
-x,y,z
1/2+x,-y,1/2+z
loop_
_atom_site_type_symbol
_atom_site_label
_atom_site_fract_x
_atom_site_fract_y
_atom_site_fract_z
Si Si1 0.826534 0.331199 0.034346
Si Si2 0.825831 0.529866 0.887648
Si Si3 0.174906 0.372023 0.556728
Si Si4 0.326524 0.295693 0.794705
Si Si5 0.324482 0.052810 0.566242
Si Si6 0.673663 0.202244 0.884461
Si Si7 0.675124 0.494146 0.203846
Si Si8 0.324027 0.129833 0.471176
O O1 0.797237 0.383780 0.080654
O O2 0.764456 0.229214 0.041781
O O3 0.000000 0.331363 0.020989
O O4 0.738576 0.380678 0.993932
O O5 0.752433 0.442669 0.910153
O O6 0.749534 0.553618 0.839628
O O7 0.000000 0.511344 0.880544
O O8 0.210649 0.271892 0.575063
O O9 0.000000 0.392533 0.556782
O O10 0.250000 0.256040 0.750000
O O11 0.500000 0.280929 0.789475
O O12 0.262244 0.242219 0.837714
O O13 0.288128 0.400416 0.801315
O O14 0.500000 0.061338 0.571208
O O15 0.249409 0.105230 0.607785
O O16 0.265809 0.100950 0.520521
O O17 0.274001 0.947120 0.565184
O O18 0.500000 0.186479 0.880236
O O19 0.750000 0.456541 0.250000
O O20 0.500000 0.473860 0.205002
O O21 0.500000 0.130454 0.472501
#
# Coordination Sequence:
#
# PCOD8218528 Si02
#       8
#     8   8   8   8   8   8   8   8
#     4  10  20  34  49  67  95 129 166 205 240 279
#     4  11  22  33  48  70  95 129 167 200 240 285
#     4  11  21  33  46  65  97 134 166 198 237 280
#     4   9  18  32  47  66  92 121 153 189 232 278
#     4   9  16  28  49  70  88 119 159 191 230 280
#     4  10  19  31  45  67  98 126 153 191 237 280
#     4  10  19  34  52  71  96 124 158 199 241 286
#     4   8  15  29  47  68  92 118 154 200 236 270
#
# _framework density 16.296475999999998
#
# number of rings (size 3 to 8) (size 9 to 14) (size 15 to 20)
#    0.000    2.250    2.500    2.250    0.000    4.000 
#    0.000    1.875    0.000    0.000    0.000    0.875 
#    0.000    2.000    0.000    0.000    0.000    0.000 
#
# Total GULP energy -793478.797948 kJ/mol
# GULP energy per Si atom -12398.106218 kJ/mol
# Density = 1.625938 g / cm^3
# Si number density = 16.296476 Si / 1000 Ang^3
#
#
#
# Elastic Constant Matrix: (Units=GPa)
#
#
# Indices 1 2 3 4 5 6 
#
# 1 59.0798 27.8458 47.0232 0.0000 0.0000 0.0000
# 2 27.8458 62.0756 34.8744 0.0000 0.0000 0.0000
# 3 47.0232 34.8744 118.1329 0.0000 0.0000 0.0000
# 4 0.0000 0.0000 0.0000 22.1989 0.0000 0.0000
# 5 0.0000 0.0000 0.0000 0.0000 29.2113 0.0000
# 6 0.0000 0.0000 0.0000 0.0000 0.0000 16.8342
#
#
#
# Elastic Compliance Matrix: (Units=1/GPa)
#
#
# Indices 1 2 3 4 5 6 
#
# 1 0.027325 -0.007369 -0.008701 0.000000 0.000000 0.000000
# 2 -0.007369 0.021300 -0.003355 0.000000 0.000000 0.000000
# 3 -0.008701 -0.003355 0.012919 0.000000 0.000000 0.000000
# 4 0.000000 0.000000 0.000000 0.045047 0.000000 0.000000
# 5 0.000000 0.000000 0.000000 0.000000 0.034233 0.000000
# 6 0.000000 0.000000 0.000000 0.000000 0.000000 0.059403
#
#
# Mechanical properties :
#
#
# Convention : Reuss Voigt Hill
#
# Bulk Modulus (GPa) = 44.06526 50.97499 47.52013
# Shear Modulus (GPa) = 20.27230 22.28522 21.27876
#
# Velocity S-wave (km/s) = 3.53082 3.70197 3.61741
# Velocity P-wave (km/s) = 6.61216 7.04418 6.83159
#
# Compressibility (1/GPa) = 0.02269361
#
# Stress axis : x y z
#
# Youngs Moduli (GPa) = 36.59632 46.94918 77.40522
#
# Poissons Ratio (x) = 0.34597 0.67354
# Poissons Ratio (y) = 0.26968 0.25967
# Poissons Ratio (z) = 0.31844 0.15750
#
# Static dielectric constant tensor:
#      x y z
#    x 2.968290 0.000000 0.000000 
#    y 0.000000 3.178830 0.000000 
#    z 0.000000 0.000000 3.119170 
# 
# 
# High freq. dielectric constant tensor:
#      x y z
#    x 1.621370 0.000000 0.000000 
#    y 0.000000 1.607160 0.000000 
#    z 0.000000 0.000000 1.616240 
# 
# From -- ./inp_files/38437.got.cif
#   From: 2010.03.12/outbox.cif.g09.slc.cpg/sg53_20_cif.got.tgz:38437.got - 2010.04.16 14:36:59.
