data_PCOD8218370
_publ_section_title
;
Structure prediction by ZEFSAII (Michael W. Deem and Ramdas Pophale) SiO2 
 PCOD8218370
Probable space group: P M N A
;
_chemical_formula_sum "Si O2"
_cell_formula_units_Z 64
_cell_length_a 8.814981
_cell_length_b 31.113784
_cell_length_c 14.002928
_cell_angle_alpha 90.000000
_cell_angle_beta 90.000000
_cell_angle_gamma 90.000000
_cell_volume 3840.546862
_symmetry_space_group_name_H-M "P M N A"
_symmetry_group_IT_number 53
_symmetry_cell_setting 'orthorhombic'
loop_
_space_group_symop_operation_xyz
x,y,z
1/2-x,-y,1/2+z
x,-y,-z
1/2-x,y,1/2-z
-x,-y,-z
1/2+x,y,1/2-z
-x,y,z
1/2+x,-y,1/2+z
loop_
_atom_site_type_symbol
_atom_site_label
_atom_site_fract_x
_atom_site_fract_y
_atom_site_fract_z
Si Si1 0.179042 0.934505 0.540182
Si Si2 0.824184 0.141736 0.146646
Si Si3 0.178069 0.599586 0.958428
Si Si4 0.679346 0.427371 0.844602
Si Si5 0.323513 0.763302 0.647422
Si Si6 0.179685 0.320847 0.355015
Si Si7 0.821419 0.981223 0.351266
Si Si8 0.665533 0.480977 0.104587
O O1 0.258112 0.890321 0.568288
O O2 0.227963 0.946758 0.432083
O O3 0.000000 0.928666 0.545980
O O4 0.232033 0.971692 0.613665
O O5 0.750000 0.135266 0.250000
O O6 0.798391 0.189535 0.101503
O O7 0.000000 0.132287 0.161853
O O8 0.266173 0.640509 0.920303
O O9 0.215169 0.558184 0.891503
O O10 0.000000 0.607913 0.956280
O O11 0.234429 0.592340 0.065531
O O12 0.750000 0.405271 0.750000
O O13 0.500000 0.418562 0.854057
O O14 0.715739 0.478347 0.832371
O O15 0.250000 0.766815 0.750000
O O16 0.500000 0.751657 0.655379
O O17 0.237870 0.723742 0.594939
O O18 0.250000 0.325664 0.250000
O O19 0.000000 0.320863 0.347711
O O20 0.750000 0.968880 0.250000
O O21 0.000000 0.980722 0.339030
O O22 0.500000 0.463186 0.136485
O O23 0.651049 0.500000 0.000000
#
# Coordination Sequence:
#
# PCOD8218370 Si02
#       8
#     8   8   8   8   8   8   8   8
#     4   9  18  31  45  64  92 123 159 197 235 278
#     4  10  19  29  45  69  96 124 154 189 230 276
#     4  11  21  33  50  72  98 127 159 194 233 278
#     4  10  20  34  51  71  96 126 160 198 237 275
#     4   9  17  30  46  67  94 121 150 185 228 278
#     4  11  21  34  51  71  96 125 157 191 231 281
#     4   9  18  31  45  63  90 125 160 199 239 275
#     4   8  16  31  47  64  90 120 151 189 228 267
#
# _framework density 16.664294000000002
#
# number of rings (size 3 to 8) (size 9 to 14) (size 15 to 20)
#    0.000    2.375    0.000    6.000    0.000    6.750 
#    0.000    2.500    0.000    0.000    0.000    0.875 
#    0.000    4.000    0.000    0.000    0.000    0.000 
#
# Total GULP energy -793131.893844 kJ/mol
# GULP energy per Si atom -12392.685841 kJ/mol
# Density = 1.662636 g / cm^3
# Si number density = 16.664294 Si / 1000 Ang^3
#
#
#
# Elastic Constant Matrix: (Units=GPa)
#
#
# Indices 1 2 3 4 5 6 
#
# 1 107.6304 56.8526 37.9516 0.0000 0.0000 0.0000
# 2 56.8526 117.7394 39.7816 0.0000 0.0000 0.0000
# 3 37.9516 39.7816 75.0047 0.0000 0.0000 0.0000
# 4 0.0000 0.0000 0.0000 17.3020 0.0000 0.0000
# 5 0.0000 0.0000 0.0000 0.0000 25.0382 0.0000
# 6 0.0000 0.0000 0.0000 0.0000 0.0000 25.4333
#
#
#
# Elastic Compliance Matrix: (Units=1/GPa)
#
#
# Indices 1 2 3 4 5 6 
#
# 1 0.013428 -0.005103 -0.004088 0.000000 0.000000 0.000000
# 2 -0.005103 0.012287 -0.003935 0.000000 0.000000 0.000000
# 3 -0.004088 -0.003935 0.017488 0.000000 0.000000 0.000000
# 4 0.000000 0.000000 0.000000 0.057797 0.000000 0.000000
# 5 0.000000 0.000000 0.000000 0.000000 0.039939 0.000000
# 6 0.000000 0.000000 0.000000 0.000000 0.000000 0.039319
#
#
# Mechanical properties :
#
#
# Convention : Reuss Voigt Hill
#
# Bulk Modulus (GPa) = 58.99141 63.28289 61.13715
# Shear Modulus (GPa) = 23.56728 24.60726 24.08727
#
# Velocity S-wave (km/s) = 3.76472 3.84688 3.80602
# Velocity P-wave (km/s) = 7.37389 7.60190 7.48876
#
# Compressibility (1/GPa) = 0.01695162
#
# Stress axis : x y z
#
# Youngs Moduli (GPa) = 74.47212 81.38854 57.18216
#
# Poissons Ratio (x) = 0.41530 0.23376
# Poissons Ratio (y) = 0.38000 0.22500
# Poissons Ratio (z) = 0.30444 0.32025
#
# Static dielectric constant tensor:
#      x y z
#    x 3.205220 0.000000 0.000000 
#    y 0.000000 3.618820 0.000000 
#    z 0.000000 0.000000 3.175290 
# 
# 
# High freq. dielectric constant tensor:
#      x y z
#    x 1.654390 0.000000 0.000000 
#    y 0.000000 1.635570 0.000000 
#    z 0.000000 0.000000 1.613450 
# 
# From -- ./inp_files/21067.got.cif
#   From: 2010.03.12/outbox.cif.g09.slc.cpg/sg53_11_cif.got.tgz:21067.got - 2010.04.16 14:36:59.
