data_PCOD8218210
_publ_section_title
;
Structure prediction by ZEFSAII (Michael W. Deem and Ramdas Pophale) SiO2 
 PCOD8218210
Probable space group: P M N A
;
_chemical_formula_sum "Si O2"
_cell_formula_units_Z 64
_cell_length_a 8.763246
_cell_length_b 20.691308
_cell_length_c 19.282247
_cell_angle_alpha 90.000000
_cell_angle_beta 90.000000
_cell_angle_gamma 90.000000
_cell_volume 3496.315298
_symmetry_space_group_name_H-M "P M N A"
_symmetry_group_IT_number 53
_symmetry_cell_setting 'orthorhombic'
loop_
_space_group_symop_operation_xyz
x,y,z
1/2-x,-y,1/2+z
x,-y,-z
1/2-x,y,1/2-z
-x,-y,-z
1/2+x,y,1/2-z
-x,y,z
1/2+x,-y,1/2+z
loop_
_atom_site_type_symbol
_atom_site_label
_atom_site_fract_x
_atom_site_fract_y
_atom_site_fract_z
Si Si1 0.820172 0.439009 0.455669
Si Si2 0.180249 0.488177 0.178798
Si Si3 0.180653 0.994775 0.321202
Si Si4 0.180313 0.814510 0.966675
Si Si5 0.318929 0.865045 0.678608
Si Si6 0.680427 0.318544 0.531768
Si Si7 0.821956 0.365081 0.820234
Si Si8 0.678751 0.060937 0.547996
O O1 0.762263 0.500000 0.500000
O O2 0.741724 0.441855 0.381035
O O3 0.769627 0.374079 0.492597
O O4 0.000000 0.439989 0.446023
O O5 0.250000 0.461500 0.250000
O O6 0.237189 0.561869 0.166155
O O7 0.000000 0.483495 0.181555
O O8 0.250000 0.966927 0.250000
O O9 0.253186 0.064395 0.337045
O O10 0.000000 0.001482 0.315041
O O11 0.226617 0.945190 0.381318
O O12 0.229068 0.819089 0.885699
O O13 0.000000 0.816226 0.971781
O O14 0.242372 0.748786 0.000794
O O15 0.243308 0.875595 0.009493
O O16 0.250000 0.836200 0.750000
O O17 0.500000 0.870820 0.685824
O O18 0.500000 0.327980 0.520389
O O19 0.721603 0.321158 0.613597
O O20 0.750000 0.335713 0.750000
O O21 0.000000 0.366305 0.807655
O O22 0.500000 0.066064 0.565474
O O23 0.713480 0.000000 0.500000
#
# Coordination Sequence:
#
# PCOD8218210 Si02
#       8
#     8   8   8   8   8   8   8   8
#     4  11  22  35  54  81 111 143 181 226 272 321
#     4  10  19  33  54  82 110 141 178 225 275 325
#     4  11  21  33  52  81 111 143 182 229 277 325
#     4   9  19  35  57  80 108 145 185 222 272 332
#     4  10  18  33  54  80 107 141 181 224 274 326
#     4  10  20  37  57  80 108 146 188 225 269 331
#     4   9  18  31  52  78 105 136 176 220 268 322
#     4  10  18  34  57  80 108 143 180 222 272 328
#
# _framework density 18.304986
#
# number of rings (size 3 to 8) (size 9 to 14) (size 15 to 20)
#    0.000    2.000    2.500    3.000    0.000    1.750 
#    0.000    3.125    0.000    3.000    0.000    0.000 
#    0.000    0.000    0.000    0.000    0.000    0.000 
#
# Total GULP energy -793652.516235 kJ/mol
# GULP energy per Si atom -12400.820566 kJ/mol
# Density = 1.826332 g / cm^3
# Si number density = 18.304986 Si / 1000 Ang^3
#
#
#
# Elastic Constant Matrix: (Units=GPa)
#
#
# Indices 1 2 3 4 5 6 
#
# 1 70.2556 28.7099 51.8291 0.0000 0.0000 0.0000
# 2 28.7099 99.9370 66.6138 0.0000 0.0000 0.0000
# 3 51.8291 66.6138 171.4599 0.0000 0.0000 0.0000
# 4 0.0000 0.0000 0.0000 33.6177 0.0000 0.0000
# 5 0.0000 0.0000 0.0000 0.0000 34.9182 0.0000
# 6 0.0000 0.0000 0.0000 0.0000 0.0000 12.1607
#
#
#
# Elastic Compliance Matrix: (Units=1/GPa)
#
#
# Indices 1 2 3 4 5 6 
#
# 1 0.018658 -0.002160 -0.004801 0.000000 0.000000 0.000000
# 2 -0.002160 0.013753 -0.004690 0.000000 0.000000 0.000000
# 3 -0.004801 -0.004690 0.009106 0.000000 0.000000 0.000000
# 4 0.000000 0.000000 0.000000 0.029746 0.000000 0.000000
# 5 0.000000 0.000000 0.000000 0.000000 0.028638 0.000000
# 6 0.000000 0.000000 0.000000 0.000000 0.000000 0.082232
#
#
# Mechanical properties :
#
#
# Convention : Reuss Voigt Hill
#
# Bulk Modulus (GPa) = 54.90088 70.66201 62.78145
# Shear Modulus (GPa) = 23.63980 29.10598 26.37289
#
# Velocity S-wave (km/s) = 3.59756 3.99188 3.79984
# Velocity P-wave (km/s) = 6.87852 7.74165 7.32281
#
# Compressibility (1/GPa) = 0.01821464
#
# Stress axis : x y z
#
# Youngs Moduli (GPa) = 53.59608 72.71027 109.82163
#
# Poissons Ratio (x) = 0.15706 0.52723
# Poissons Ratio (y) = 0.11577 0.51510
# Poissons Ratio (z) = 0.25730 0.34103
#
# Static dielectric constant tensor:
#      x y z
#    x 3.223950 0.000000 0.000000 
#    y 0.000000 3.286540 0.000000 
#    z 0.000000 0.000000 3.496600 
# 
# 
# High freq. dielectric constant tensor:
#      x y z
#    x 1.701030 0.000000 0.000000 
#    y 0.000000 1.677720 0.000000 
#    z 0.000000 0.000000 1.728440 
# 
# From -- ./inp_files/31398.got.cif
#   From: 2010.03.12/outbox.cif.g09.slc.cpg/sg53_16_cif.got.tgz:31398.got - 2010.04.16 14:36:59.
