data_PCOD8218471
_publ_section_title
;
Structure prediction by ZEFSAII (Michael W. Deem and Ramdas Pophale) SiO2 
 PCOD8218471
Probable space group: P M N A
;
_chemical_formula_sum "Si O2"
_cell_formula_units_Z 56
_cell_length_a 23.807359
_cell_length_b 15.284614
_cell_length_c 8.853219
_cell_angle_alpha 90.000000
_cell_angle_beta 90.000000
_cell_angle_gamma 90.000000
_cell_volume 3221.565040
_symmetry_space_group_name_H-M "P M N A"
_symmetry_group_IT_number 53
_symmetry_cell_setting 'orthorhombic'
loop_
_space_group_symop_operation_xyz
x,y,z
1/2-x,-y,1/2+z
x,-y,-z
1/2-x,y,1/2-z
-x,-y,-z
1/2+x,y,1/2-z
-x,y,z
1/2+x,-y,1/2+z
loop_
_atom_site_type_symbol
_atom_site_label
_atom_site_fract_x
_atom_site_fract_y
_atom_site_fract_z
Si Si1 0.189289 0.000000 0.321196
Si Si2 0.934495 0.678106 0.177063
Si Si3 0.500000 0.097496 0.335548
Si Si4 0.390846 0.155948 0.178319
Si Si5 0.066352 0.500000 0.667680
Si Si6 0.000000 0.097495 0.835547
Si Si7 0.934494 0.321895 0.177063
Si Si8 0.609154 0.155947 0.821681
O O1 0.250000 0.000000 0.250000
O O2 0.158250 0.089495 0.268128
O O3 0.193474 0.000000 0.500000
O O4 0.158250 0.910505 0.268128
O O5 0.914052 0.586458 0.245410
O O6 0.890215 0.749584 0.240079
O O7 0.000000 0.701417 0.220875
O O8 0.927740 0.670289 0.000000
O O9 0.447932 0.112400 0.228658
O O10 0.500000 0.150934 0.500001
O O11 0.500000 1.000000 0.390468
O O12 0.390214 0.250417 0.259920
O O13 0.389190 0.170458 0.000000
O O14 0.092663 0.500000 0.500000
O O15 0.085948 0.586457 0.754591
O O16 0.000000 0.500001 0.658783
O O17 0.052068 0.112399 0.728656
O O18 0.000000 0.298584 0.220876
#
# Coordination Sequence:
#
# PCOD8218471 Si02
#       8
#     8   8   4   8   8   4   8   8
#     4  10  24  41  56  75  99 134 176 220 265 308
#     4  10  19  30  46  73 106 139 175 211 252 302
#     4  11  21  31  47  74 103 134 169 207 257 308
#     4  11  21  34  52  75 103 136 174 214 257 308
#     4   9  17  29  45  67 100 143 178 207 250 299
#     4  11  21  31  47  74 103 134 169 207 257 308
#     4  10  19  30  46  73 106 139 175 211 252 302
#     4  11  21  34  52  75 103 136 174 214 257 308
#
# _framework density 17.382854999999999
#
# number of rings (size 3 to 8) (size 9 to 14) (size 15 to 20)
#    0.000    1.714    2.857    2.571    0.000    5.714 
#    0.000    0.000    0.000    0.000    0.000    1.000 
#    0.000    0.000    0.000    0.000    0.000    0.000 
#
# Total GULP energy -693901.767833 kJ/mol
# GULP energy per Si atom -12391.102997 kJ/mol
# Density = 1.734329 g / cm^3
# Si number density = 17.382855 Si / 1000 Ang^3
#
#
#
# Elastic Constant Matrix: (Units=GPa)
#
#
# Indices 1 2 3 4 5 6 
#
# 1 85.0169 53.7513 28.4825 0.0000 0.0000 0.0000
# 2 53.7513 169.3163 62.7760 0.0000 0.0000 0.0000
# 3 28.4825 62.7760 87.6282 0.0000 0.0000 0.0000
# 4 0.0000 0.0000 0.0000 30.6181 0.0000 0.0000
# 5 0.0000 0.0000 0.0000 0.0000 24.2406 0.0000
# 6 0.0000 0.0000 0.0000 0.0000 0.0000 3.0184
#
#
#
# Elastic Compliance Matrix: (Units=1/GPa)
#
#
# Indices 1 2 3 4 5 6 
#
# 1 0.014966 -0.004014 -0.001989 0.000000 0.000000 0.000000
# 2 -0.004014 0.009119 -0.005228 0.000000 0.000000 0.000000
# 3 -0.001989 -0.005228 0.015804 0.000000 0.000000 0.000000
# 4 0.000000 0.000000 0.000000 0.032660 0.000000 0.000000
# 5 0.000000 0.000000 0.000000 0.000000 0.041253 0.000000
# 6 0.000000 0.000000 0.000000 0.000000 0.000000 0.331301
#
#
# Mechanical properties :
#
#
# Convention : Reuss Voigt Hill
#
# Bulk Modulus (GPa) = 57.38233 70.22011 63.80122
# Shear Modulus (GPa) = 10.56249 24.70553 17.63401
#
# Velocity S-wave (km/s) = 2.46771 3.77405 3.18850
# Velocity P-wave (km/s) = 6.41888 7.71201 7.09497
#
# Compressibility (1/GPa) = 0.01742697
#
# Stress axis : x y z
#
# Youngs Moduli (GPa) = 66.81604 109.66605 63.27662
#
# Poissons Ratio (x) = 0.44017 0.12588
# Poissons Ratio (y) = 0.26818 0.33080
# Poissons Ratio (z) = 0.13292 0.57332
#
# Static dielectric constant tensor:
#      x y z
#    x 2.884560 0.000000 0.000000 
#    y 0.000000 3.673890 0.000000 
#    z 0.000000 0.000000 3.324750 
# 
# 
# High freq. dielectric constant tensor:
#      x y z
#    x 1.605480 0.000000 0.000000 
#    y 0.000000 1.693270 0.000000 
#    z 0.000000 0.000000 1.690180 
# 
# From -- ./inp_files/11137.got.cif
#   From: 2010.03.12/outbox.cif.g09.slc.cpg/sg53_6_cif.got.tgz:11137.got - 2010.04.16 14:36:59.
