data_PCOD8218825
_publ_section_title
;
Structure prediction by ZEFSAII (Michael W. Deem and Ramdas Pophale) SiO2 
 PCOD8218825
Probable space group: P M N A
;
_chemical_formula_sum "Si O2"
_cell_formula_units_Z 32
_cell_length_a 18.117290
_cell_length_b 18.125725
_cell_length_c 5.068097
_cell_angle_alpha 90.000000
_cell_angle_beta 90.000000
_cell_angle_gamma 90.000000
_cell_volume 1664.307388
_symmetry_space_group_name_H-M "P M N A"
_symmetry_group_IT_number 53
_symmetry_cell_setting 'orthorhombic'
loop_
_space_group_symop_operation_xyz
x,y,z
1/2-x,-y,1/2+z
x,-y,-z
1/2-x,y,1/2-z
-x,-y,-z
1/2+x,y,1/2-z
-x,y,z
1/2+x,-y,1/2+z
loop_
_atom_site_type_symbol
_atom_site_label
_atom_site_fract_x
_atom_site_fract_y
_atom_site_fract_z
Si Si1 0.084319 0.453339 0.259669
Si Si2 0.298856 0.914802 0.003390
Si Si3 0.583242 0.797950 0.149537
Si Si4 0.083120 0.704168 0.866774
O O1 0.122141 0.500000 0.500000
O O2 0.123249 0.374884 0.185868
O O3 0.000000 0.436356 0.345484
O O4 0.089599 0.500000 0.000000
O O5 0.250000 0.892970 0.750000
O O6 0.250000 0.895232 0.250000
O O7 0.372864 0.868353 0.041101
O O8 0.322919 0.000000 0.000000
O O9 0.500000 0.824873 0.217070
O O10 0.619626 0.756830 0.406767
O O11 0.583461 0.740699 0.915398
O O12 0.000000 0.689437 0.971095
#
# Coordination Sequence:
#
# PCOD8218825 Si02
#       4
#     8   8   8   8
#     4   9  15  23  37  59  92 133 167 195 238 294
#     4  10  21  37  55  75 101 132 167 210 257 306
#     4  10  19  32  51  74 102 134 167 208 256 304
#     4   9  17  28  43  68 101 133 166 206 251 295
#
# _framework density 19.227217
#
# number of rings (size 3 to 8) (size 9 to 14) (size 15 to 20)
#    0.000    2.500    0.000    3.000    0.000    6.500 
#    0.000    0.000    0.000    9.000    0.000    0.000 
#    0.000   56.000    0.000    0.000    0.000    0.000 
#
# Total GULP energy -396461.025756 kJ/mol
# GULP energy per Si atom -12389.407055 kJ/mol
# Density = 1.918345 g / cm^3
# Si number density = 19.227217 Si / 1000 Ang^3
#
#
#
# Elastic Constant Matrix: (Units=GPa)
#
#
# Indices 1 2 3 4 5 6 
#
# 1 43.6631 46.8878 21.2300 0.0000 0.0000 0.0000
# 2 46.8878 119.9686 39.0954 0.0000 0.0000 0.0000
# 3 21.2300 39.0954 130.9557 0.0000 0.0000 0.0000
# 4 0.0000 0.0000 0.0000 41.4129 0.0000 0.0000
# 5 0.0000 0.0000 0.0000 0.0000 12.4709 0.0000
# 6 0.0000 0.0000 0.0000 0.0000 0.0000 2.3922
#
#
#
# Elastic Compliance Matrix: (Units=1/GPa)
#
#
# Indices 1 2 3 4 5 6 
#
# 1 0.039939 -0.014954 -0.002010 0.000000 0.000000 0.000000
# 2 -0.014954 0.014833 -0.002004 0.000000 0.000000 0.000000
# 3 -0.002010 -0.002004 0.008560 0.000000 0.000000 0.000000
# 4 0.000000 0.000000 0.000000 0.024147 0.000000 0.000000
# 5 0.000000 0.000000 0.000000 0.000000 0.080187 0.000000
# 6 0.000000 0.000000 0.000000 0.000000 0.000000 0.418024
#
#
# Mechanical properties :
#
#
# Convention : Reuss Voigt Hill
#
# Bulk Modulus (GPa) = 39.37740 56.55709 47.96724
# Shear Modulus (GPa) = 7.91023 23.74681 15.82852
#
# Velocity S-wave (km/s) = 2.03052 3.51816 2.87232
# Velocity P-wave (km/s) = 5.10116 6.78102 6.00017
#
# Compressibility (1/GPa) = 0.02539528
#
# Stress axis : x y z
#
# Youngs Moduli (GPa) = 25.03825 67.41615 116.81797
#
# Poissons Ratio (x) = 1.00817 0.23483
# Poissons Ratio (y) = 0.37443 0.23410
# Poissons Ratio (z) = 0.05033 0.13510
#
# Static dielectric constant tensor:
#      x y z
#    x 2.982710 0.000000 0.000000 
#    y 0.000000 3.382420 0.000000 
#    z 0.000000 0.000000 3.720300 
# 
# 
# High freq. dielectric constant tensor:
#      x y z
#    x 1.672300 0.000000 0.000000 
#    y 0.000000 1.761460 0.000000 
#    z 0.000000 0.000000 1.773780 
# 
# From -- ./inp_files/1180.got.cif
#   From: 2010.03.12/outbox.cif.g09.slc.cpg/sg53_1_cif.got.tgz:1180.got - 2010.04.16 14:36:59.
