data_PCOD8218703
_publ_section_title
;
Structure prediction by ZEFSAII (Michael W. Deem and Ramdas Pophale) SiO2 
 PCOD8218703
Probable space group: P M N A
;
_chemical_formula_sum "Si O2"
_cell_formula_units_Z 56
_cell_length_a 9.205367
_cell_length_b 14.882600
_cell_length_c 20.606509
_cell_angle_alpha 90.000000
_cell_angle_beta 90.000000
_cell_angle_gamma 90.000000
_cell_volume 2823.087507
_symmetry_space_group_name_H-M "P M N A"
_symmetry_group_IT_number 53
_symmetry_cell_setting 'orthorhombic'
loop_
_space_group_symop_operation_xyz
x,y,z
1/2-x,-y,1/2+z
x,-y,-z
1/2-x,y,1/2-z
-x,-y,-z
1/2+x,y,1/2-z
-x,y,z
1/2+x,-y,1/2+z
loop_
_atom_site_type_symbol
_atom_site_label
_atom_site_fract_x
_atom_site_fract_y
_atom_site_fract_z
Si Si1 0.327925 0.940857 0.563762
Si Si2 0.337425 0.558360 0.687229
Si Si3 0.665216 0.772110 0.979378
Si Si4 0.828152 0.032736 0.683513
Si Si5 0.660503 0.346415 0.690067
Si Si6 0.841494 0.781693 0.376595
Si Si7 0.327047 0.409948 0.459175
O O1 0.500000 0.936657 0.575558
O O2 0.266282 0.839203 0.561186
O O3 0.247902 0.980788 0.625450
O O4 0.291879 0.000000 0.500000
O O5 0.250000 0.595712 0.750000
O O6 0.500000 0.594211 0.696939
O O7 0.332181 0.451919 0.685128
O O8 0.277752 0.586645 0.616754
O O9 0.500000 0.764655 0.951266
O O10 0.737673 0.673947 0.986363
O O11 0.659340 0.817153 0.050197
O O12 0.750000 0.003912 0.750000
O O13 0.000000 0.010228 0.685886
O O14 0.800115 0.137932 0.671568
O O15 0.750000 0.307969 0.750000
O O16 0.500000 0.310072 0.698138
O O17 0.728162 0.300515 0.626767
O O18 0.000000 0.743163 0.358617
O O19 0.284584 0.500000 0.500000
O O20 0.500000 0.394671 0.465061
#
# Coordination Sequence:
#
# PCOD8218703 Si02
#       7
#     8   8   8   8   8   8   8
#     4  11  23  41  66  93 120 158 207 252 302 367
#     4   9  19  35  55  79 110 152 198 247 303 359
#     4  11  23  39  61  90 121 157 202 252 310 368
#     4  11  23  40  61  88 125 163 202 252 309 365
#     4  10  19  31  50  76 109 150 194 241 296 359
#     4  10  21  35  53  81 117 155 193 240 299 365
#     4  10  21  39  61  88 123 160 204 258 311 365
#
# _framework density 19.836438999999999
#
# number of rings (size 3 to 8) (size 9 to 14) (size 15 to 20)
#    0.000    1.714    1.429    3.000    0.000    6.571 
#    0.000    0.714    0.000    1.714    0.000    0.000 
#    0.000    0.000    0.000    0.000    0.000    0.000 
#
# Total GULP energy -694079.896450 kJ/mol
# GULP energy per Si atom -12394.283865 kJ/mol
# Density = 1.979129 g / cm^3
# Si number density = 19.836439 Si / 1000 Ang^3
#
#
#
# Elastic Constant Matrix: (Units=GPa)
#
#
# Indices 1 2 3 4 5 6 
#
# 1 124.1206 57.7078 52.4078 0.0000 0.0000 0.0000
# 2 57.7078 66.2273 36.8018 0.0000 0.0000 0.0000
# 3 52.4078 36.8018 117.6141 0.0000 0.0000 0.0000
# 4 0.0000 0.0000 0.0000 30.6564 0.0000 0.0000
# 5 0.0000 0.0000 0.0000 0.0000 34.9286 0.0000
# 6 0.0000 0.0000 0.0000 0.0000 0.0000 29.7803
#
#
#
# Elastic Compliance Matrix: (Units=1/GPa)
#
#
# Indices 1 2 3 4 5 6 
#
# 1 0.014372 -0.010852 -0.003009 0.000000 0.000000 0.000000
# 2 -0.010852 0.026471 -0.003447 0.000000 0.000000 0.000000
# 3 -0.003009 -0.003447 0.010922 0.000000 0.000000 0.000000
# 4 0.000000 0.000000 0.000000 0.032620 0.000000 0.000000
# 5 0.000000 0.000000 0.000000 0.000000 0.028630 0.000000
# 6 0.000000 0.000000 0.000000 0.000000 0.000000 0.033579
#
#
# Mechanical properties :
#
#
# Convention : Reuss Voigt Hill
#
# Bulk Modulus (GPa) = 58.31074 66.86631 62.58852
# Shear Modulus (GPa) = 26.74864 29.80936 28.27900
#
# Velocity S-wave (km/s) = 3.67612 3.88075 3.77982
# Velocity P-wave (km/s) = 6.89043 7.33909 7.11830
#
# Compressibility (1/GPa) = 0.01714950
#
# Stress axis : x y z
#
# Youngs Moduli (GPa) = 69.57837 37.77745 91.56041
#
# Poissons Ratio (x) = 0.40994 0.27548
# Poissons Ratio (y) = 0.75503 0.31565
# Poissons Ratio (z) = 0.20934 0.13024
#
# Static dielectric constant tensor:
#      x y z
#    x 3.792690 0.000000 0.000000 
#    y 0.000000 3.352130 0.000000 
#    z 0.000000 0.000000 3.779270 
# 
# 
# High freq. dielectric constant tensor:
#      x y z
#    x 1.781920 0.000000 0.000000 
#    y 0.000000 1.755490 0.000000 
#    z 0.000000 0.000000 1.778320 
# 
# From -- ./inp_files/30841.got.cif
#   From: 2010.03.12/outbox.cif.g09.slc.cpg/sg53_16_cif.got.tgz:30841.got - 2010.04.16 14:36:59.
