data_PCOD8218701
_publ_section_title
;
Structure prediction by ZEFSAII (Michael W. Deem and Ramdas Pophale) SiO2 
 PCOD8218701
Probable space group: P M N A
;
_chemical_formula_sum "Si O2"
_cell_formula_units_Z 48
_cell_length_a 9.185493
_cell_length_b 9.158637
_cell_length_c 31.049339
_cell_angle_alpha 90.000000
_cell_angle_beta 90.000000
_cell_angle_gamma 90.000000
_cell_volume 2612.075200
_symmetry_space_group_name_H-M "P M N A"
_symmetry_group_IT_number 53
_symmetry_cell_setting 'orthorhombic'
loop_
_space_group_symop_operation_xyz
x,y,z
1/2-x,-y,1/2+z
x,-y,-z
1/2-x,y,1/2-z
-x,-y,-z
1/2+x,y,1/2-z
-x,y,z
1/2+x,-y,1/2+z
loop_
_atom_site_type_symbol
_atom_site_label
_atom_site_fract_x
_atom_site_fract_y
_atom_site_fract_z
Si Si1 0.168770 0.901689 0.960609
Si Si2 0.335760 0.930436 0.208908
Si Si3 0.327875 0.608344 0.117387
Si Si4 0.670690 0.906800 0.377368
Si Si5 0.159208 0.415943 0.711018
Si Si6 0.829428 0.402537 0.460522
O O1 0.252473 0.751123 0.961191
O O2 0.000000 0.867691 0.967574
O O3 0.198375 0.979126 0.915317
O O4 0.227537 0.000000 0.000000
O O5 0.250000 0.997830 0.250000
O O6 0.500000 0.995363 0.206739
O O7 0.249060 0.969290 0.165278
O O8 0.344748 0.757783 0.214562
O O9 0.500000 0.647129 0.117986
O O10 0.239369 0.754537 0.106934
O O11 0.277960 0.544130 0.163872
O O12 0.287845 0.486023 0.083064
O O13 0.500000 0.884221 0.367719
O O14 0.250000 0.486020 0.750000
O O15 0.000000 0.483861 0.716187
O O16 0.772746 0.500000 0.500000
O O17 0.000000 0.374371 0.464391
#
# Coordination Sequence:
#
# PCOD8218701 Si02
#       6
#     8   8   8   8   8   8
#     4  10  22  38  54  75 104 136 171 212 258 310
#     4   9  16  27  45  71 103 136 170 211 256 299
#     4   9  18  32  49  73 104 133 165 209 258 304
#     4  10  19  31  50  76 104 136 175 214 254 304
#     4   8  14  24  40  64  95 127 158 196 239 284
#     4  10  21  36  55  78 101 128 167 213 259 310
#
# _framework density 18.376193000000001
#
# number of rings (size 3 to 8) (size 9 to 14) (size 15 to 20)
#    0.000    2.667    0.000    3.000    0.000    6.667 
#    0.000    0.000    0.000    1.000    0.000    4.667 
#    0.000    0.000    0.000    0.000    0.000    0.000 
#
# Total GULP energy -595092.899785 kJ/mol
# GULP energy per Si atom -12397.768746 kJ/mol
# Density = 1.833437 g / cm^3
# Si number density = 18.376193 Si / 1000 Ang^3
#
#
#
# Elastic Constant Matrix: (Units=GPa)
#
#
# Indices 1 2 3 4 5 6 
#
# 1 92.7981 53.1326 66.9444 0.0000 0.0000 0.0000
# 2 53.1326 93.2504 67.3695 0.0000 0.0000 0.0000
# 3 66.9444 67.3695 157.3835 0.0000 0.0000 0.0000
# 4 0.0000 0.0000 0.0000 19.9252 0.0000 0.0000
# 5 0.0000 0.0000 0.0000 0.0000 31.9185 0.0000
# 6 0.0000 0.0000 0.0000 0.0000 0.0000 24.2181
#
#
#
# Elastic Compliance Matrix: (Units=1/GPa)
#
#
# Indices 1 2 3 4 5 6 
#
# 1 0.018175 -0.006906 -0.004774 0.000000 0.000000 0.000000
# 2 -0.006906 0.018149 -0.004831 0.000000 0.000000 0.000000
# 3 -0.004774 -0.004831 0.010453 0.000000 0.000000 0.000000
# 4 0.000000 0.000000 0.000000 0.050188 0.000000 0.000000
# 5 0.000000 0.000000 0.000000 0.000000 0.031330 0.000000
# 6 0.000000 0.000000 0.000000 0.000000 0.000000 0.041291
#
#
# Mechanical properties :
#
#
# Convention : Reuss Voigt Hill
#
# Bulk Modulus (GPa) = 72.71306 79.81392 76.26349
# Shear Modulus (GPa) = 24.13195 25.61138 24.87167
#
# Velocity S-wave (km/s) = 3.62777 3.73731 3.68295
# Velocity P-wave (km/s) = 7.56324 7.88359 7.72508
#
# Compressibility (1/GPa) = 0.01375269
#
# Stress axis : x y z
#
# Youngs Moduli (GPa) = 55.02180 55.09834 95.66759
#
# Poissons Ratio (x) = 0.38053 0.45676
# Poissons Ratio (y) = 0.38000 0.46220
# Poissons Ratio (z) = 0.26270 0.26620
#
# Static dielectric constant tensor:
#      x y z
#    x 3.510550 0.000000 0.000000 
#    y 0.000000 2.908920 0.000000 
#    z 0.000000 0.000000 3.767040 
# 
# 
# High freq. dielectric constant tensor:
#      x y z
#    x 1.714190 0.000000 0.000000 
#    y 0.000000 1.666370 0.000000 
#    z 0.000000 0.000000 1.736350 
# 
# From -- ./inp_files/37751.got.cif
#   From: 2010.03.12/outbox.cif.g09.slc.cpg/sg53_19_cif.got.tgz:37751.got - 2010.04.16 14:36:59.
