data_PCOD8218173
_publ_section_title
;
Structure prediction by ZEFSAII (Michael W. Deem and Ramdas Pophale) SiO2 
 PCOD8218173
Probable space group: P M N A
;
_chemical_formula_sum "Si O2"
_cell_formula_units_Z 56
_cell_length_a 9.099183
_cell_length_b 17.604938
_cell_length_c 19.299386
_cell_angle_alpha 90.000000
_cell_angle_beta 90.000000
_cell_angle_gamma 90.000000
_cell_volume 3091.579308
_symmetry_space_group_name_H-M "P M N A"
_symmetry_group_IT_number 53
_symmetry_cell_setting 'orthorhombic'
loop_
_space_group_symop_operation_xyz
x,y,z
1/2-x,-y,1/2+z
x,-y,-z
1/2-x,y,1/2-z
-x,-y,-z
1/2+x,y,1/2-z
-x,y,z
1/2+x,-y,1/2+z
loop_
_atom_site_type_symbol
_atom_site_label
_atom_site_fract_x
_atom_site_fract_y
_atom_site_fract_z
Si Si1 0.172208 0.025013 0.924979
Si Si2 0.174401 0.557962 0.406710
Si Si3 0.326251 0.888981 0.677018
Si Si4 0.327216 0.304633 0.820474
Si Si5 0.174189 0.602888 0.556418
Si Si6 0.674057 0.230195 0.083045
Si Si7 0.171801 0.177832 0.569953
O O1 0.248144 0.102914 0.902499
O O2 0.000000 0.039778 0.928200
O O3 0.214605 0.961045 0.869851
O O4 0.232757 0.000000 0.000000
O O5 0.229095 0.611403 0.343950
O O6 0.238269 0.590212 0.479193
O O7 0.222882 0.469665 0.396245
O O8 0.000000 0.563212 0.411060
O O9 0.250000 0.902596 0.750000
O O10 0.500000 0.879381 0.686385
O O11 0.261659 0.813469 0.642338
O O12 0.250000 0.280393 0.750000
O O13 0.500000 0.303362 0.807732
O O14 0.280888 0.246463 0.880460
O O15 0.229506 0.682304 0.588189
O O16 0.000000 0.607329 0.550791
O O17 0.500000 0.222447 0.095667
O O18 0.719485 0.197500 0.008210
O O19 0.000000 0.162835 0.574127
#
# Coordination Sequence:
#
# PCOD8218173 Si02
#       7
#     8   8   8   8   8   8   8
#     4  10  21  38  58  81 108 138 175 219 266 318
#     4   8  13  25  47  75 105 136 176 221 264 309
#     4  11  24  41  59  80 109 143 177 216 268 325
#     4  10  20  34  50  75 110 146 182 221 267 319
#     4   8  13  24  49  80 104 132 174 224 266 307
#     4  10  18  32  56  85 111 137 177 226 270 314
#     4  10  20  33  54  82 109 138 180 226 264 314
#
# _framework density 18.113717999999999
#
# number of rings (size 3 to 8) (size 9 to 14) (size 15 to 20)
#    0.000    2.429    2.857    1.286    0.000    2.571 
#    0.000    3.571    0.000    2.571    0.000    2.000 
#    0.000    0.000    0.000    0.000    0.000    0.000 
#
# Total GULP energy -694218.097863 kJ/mol
# GULP energy per Si atom -12396.751748 kJ/mol
# Density = 1.807249 g / cm^3
# Si number density = 18.113718 Si / 1000 Ang^3
#
#
#
# Elastic Constant Matrix: (Units=GPa)
#
#
# Indices 1 2 3 4 5 6 
#
# 1 34.8707 43.8446 38.4111 0.0000 0.0000 0.0000
# 2 43.8446 155.3309 57.6188 0.0000 0.0000 0.0000
# 3 38.4111 57.6188 114.8697 0.0000 0.0000 0.0000
# 4 0.0000 0.0000 0.0000 23.4853 0.0000 0.0000
# 5 0.0000 0.0000 0.0000 0.0000 24.2805 0.0000
# 6 0.0000 0.0000 0.0000 0.0000 0.0000 11.2727
#
#
#
# Elastic Compliance Matrix: (Units=1/GPa)
#
#
# Indices 1 2 3 4 5 6 
#
# 1 0.057976 -0.011270 -0.013733 0.000000 0.000000 0.000000
# 2 -0.011270 0.010100 -0.001298 0.000000 0.000000 0.000000
# 3 -0.013733 -0.001298 0.013949 0.000000 0.000000 0.000000
# 4 0.000000 0.000000 0.000000 0.042580 0.000000 0.000000
# 5 0.000000 0.000000 0.000000 0.000000 0.041185 0.000000
# 6 0.000000 0.000000 0.000000 0.000000 0.000000 0.088710
#
#
# Mechanical properties :
#
#
# Convention : Reuss Voigt Hill
#
# Bulk Modulus (GPa) = 33.98787 64.98005 49.48396
# Shear Modulus (GPa) = 15.77738 22.82084 19.29911
#
# Velocity S-wave (km/s) = 2.95450 3.55331 3.26765
# Velocity P-wave (km/s) = 5.51753 7.26539 6.45093
#
# Compressibility (1/GPa) = 0.02942226
#
# Stress axis : x y z
#
# Youngs Moduli (GPa) = 17.24865 99.00515 71.69138
#
# Poissons Ratio (x) = 1.11582 0.98455
# Poissons Ratio (y) = 0.19440 0.09304
# Poissons Ratio (z) = 0.23688 0.12848
#
# Static dielectric constant tensor:
#      x y z
#    x 2.962510 0.000000 0.000000 
#    y 0.000000 3.682330 0.000000 
#    z 0.000000 0.000000 3.264140 
# 
# 
# High freq. dielectric constant tensor:
#      x y z
#    x 1.665020 0.000000 0.000000 
#    y 0.000000 1.720420 0.000000 
#    z 0.000000 0.000000 1.687080 
# 
# From -- ./inp_files/30972.got.cif
#   From: 2010.03.12/outbox.cif.g09.slc.cpg/sg53_16_cif.got.tgz:30972.got - 2010.04.16 14:36:59.
