data_PCOD8218075
_publ_section_title
;
Structure prediction by ZEFSAII (Michael W. Deem and Ramdas Pophale) SiO2 
 PCOD8218075
Probable space group: P M N A
;
_chemical_formula_sum "Si O2"
_cell_formula_units_Z 44
_cell_length_a 18.613579
_cell_length_b 8.647342
_cell_length_c 14.073458
_cell_angle_alpha 90.000000
_cell_angle_beta 90.000000
_cell_angle_gamma 90.000000
_cell_volume 2265.235420
_symmetry_space_group_name_H-M "P M N A"
_symmetry_group_IT_number 53
_symmetry_cell_setting 'orthorhombic'
loop_
_space_group_symop_operation_xyz
x,y,z
1/2-x,-y,1/2+z
x,-y,-z
1/2-x,y,1/2-z
-x,-y,-z
1/2+x,y,1/2-z
-x,y,z
1/2+x,-y,1/2+z
loop_
_atom_site_type_symbol
_atom_site_label
_atom_site_fract_x
_atom_site_fract_y
_atom_site_fract_z
Si Si1 0.920242 0.219050 0.939437
Si Si2 0.157018 0.718013 0.877061
Si Si3 0.696295 0.310649 0.828395
Si Si4 0.255685 0.500000 0.000000
Si Si5 0.783097 0.030230 0.891953
Si Si6 0.080629 0.542004 0.214999
O O1 0.858595 0.120997 0.887606
O O2 0.917998 0.389104 0.891799
O O3 0.000000 0.146730 0.923531
O O4 0.906653 0.226076 0.052336
O O5 0.123528 0.621523 0.789170
O O6 0.202047 0.866610 0.838803
O O7 0.209153 0.616805 0.940246
O O8 0.750000 0.386827 0.750000
O O9 0.696747 0.399112 0.928324
O O10 0.719919 0.130217 0.841477
O O11 0.616261 0.334368 0.787543
O O12 0.759080 0.000000 0.000000
O O13 0.000000 0.512187 0.251038
#
# Coordination Sequence:
#
# PCOD8218075 Si02
#       6
#     8   8   8   4   8   8
#     4  10  18  31  53  85 126 162 189 237 311 381
#     4  11  18  34  56  90 119 154 199 249 314 370
#     4  12  21  41  60  88 125 161 208 256 306 362
#     4  12  20  36  62  92 114 154 206 262 302 358
#     4  10  20  34  55  84 121 155 200 249 310 364
#     4  11  22  37  60  87 124 166 204 250 306 370
#
# _framework density 19.424029000000001
#
# number of rings (size 3 to 8) (size 9 to 14) (size 15 to 20)
#    0.000    1.091    9.091    0.545    0.000    5.455 
#    3.273    0.455    0.000    0.545    0.000    0.000 
#    0.000    0.000    0.000    0.000    0.000    0.000 
#
# Total GULP energy -545286.741392 kJ/mol
# GULP energy per Si atom -12392.880486 kJ/mol
# Density = 1.937982 g / cm^3
# Si number density = 19.424029 Si / 1000 Ang^3
#
#
#
# Elastic Constant Matrix: (Units=GPa)
#
#
# Indices 1 2 3 4 5 6 
#
# 1 87.6167 53.4694 44.1774 0.0000 0.0000 0.0000
# 2 53.4694 132.2077 34.7989 0.0000 0.0000 0.0000
# 3 44.1774 34.7989 50.7766 0.0000 0.0000 0.0000
# 4 0.0000 0.0000 0.0000 32.7147 0.0000 0.0000
# 5 0.0000 0.0000 0.0000 0.0000 22.1248 0.0000
# 6 0.0000 0.0000 0.0000 0.0000 0.0000 22.3000
#
#
#
# Elastic Compliance Matrix: (Units=1/GPa)
#
#
# Indices 1 2 3 4 5 6 
#
# 1 0.022616 -0.004841 -0.016359 0.000000 0.000000 0.000000
# 2 -0.004841 0.010265 -0.002823 0.000000 0.000000 0.000000
# 3 -0.016359 -0.002823 0.035862 0.000000 0.000000 0.000000
# 4 0.000000 0.000000 0.000000 0.030567 0.000000 0.000000
# 5 0.000000 0.000000 0.000000 0.000000 0.045198 0.000000
# 6 0.000000 0.000000 0.000000 0.000000 0.000000 0.044843
#
#
# Mechanical properties :
#
#
# Convention : Reuss Voigt Hill
#
# Bulk Modulus (GPa) = 48.31727 59.49917 53.90822
# Shear Modulus (GPa) = 20.46697 24.63825 22.55261
#
# Velocity S-wave (km/s) = 3.24959 3.56538 3.41114
# Velocity P-wave (km/s) = 6.24570 6.90272 6.58241
#
# Compressibility (1/GPa) = 0.02069653
#
# Stress axis : x y z
#
# Youngs Moduli (GPa) = 44.21652 97.42123 27.88470
#
# Poissons Ratio (x) = 0.47159 0.45617
# Poissons Ratio (y) = 0.21404 0.07872
# Poissons Ratio (z) = 0.72335 0.27504
#
# Static dielectric constant tensor:
#      x y z
#    x 3.412110 0.000000 0.000000 
#    y 0.000000 3.889380 0.000000 
#    z 0.000000 0.000000 3.690460 
# 
# 
# High freq. dielectric constant tensor:
#      x y z
#    x 1.729920 0.000000 0.000000 
#    y 0.000000 1.762510 0.000000 
#    z 0.000000 0.000000 1.726050 
# 
# From -- ./inp_files/23520.got.cif
#   From: 2010.03.12/outbox.cif.g09.slc.cpg/sg53_12_cif.got.tgz:23520.got - 2010.04.16 14:36:59.
