data_PCOD8218532
_publ_section_title
;
Structure prediction by ZEFSAII (Michael W. Deem and Ramdas Pophale) SiO2 
 PCOD8218532
Probable space group: P M N A
;
_chemical_formula_sum "Si O2"
_cell_formula_units_Z 56
_cell_length_a 9.018133
_cell_length_b 12.614968
_cell_length_c 30.106251
_cell_angle_alpha 90.000000
_cell_angle_beta 90.000000
_cell_angle_gamma 90.000000
_cell_volume 3424.991258
_symmetry_space_group_name_H-M "P M N A"
_symmetry_group_IT_number 53
_symmetry_cell_setting 'orthorhombic'
loop_
_space_group_symop_operation_xyz
x,y,z
1/2-x,-y,1/2+z
x,-y,-z
1/2-x,y,1/2-z
-x,-y,-z
1/2+x,y,1/2-z
-x,y,z
1/2+x,-y,1/2+z
loop_
_atom_site_type_symbol
_atom_site_label
_atom_site_fract_x
_atom_site_fract_y
_atom_site_fract_z
Si Si1 0.325904 0.608192 0.117799
Si Si2 0.666322 0.623559 0.292750
Si Si3 0.837511 0.627903 0.791542
Si Si4 0.833150 0.004325 0.052754
Si Si5 0.677562 0.613452 0.611178
Si Si6 0.830048 0.797235 0.447921
Si Si7 0.326729 0.785164 0.949001
O O1 0.500000 0.587083 0.124481
O O2 0.258336 0.653537 0.163412
O O3 0.246710 0.501280 0.101888
O O4 0.292828 0.692952 0.079683
O O5 0.750000 0.672749 0.250000
O O6 0.500000 0.670993 0.295853
O O7 0.656859 0.498040 0.287440
O O8 0.750000 0.678126 0.750000
O O9 0.769734 0.655436 0.840026
O O10 0.000000 0.677685 0.788030
O O11 0.766732 0.894429 0.071128
O O12 0.000000 0.018563 0.070857
O O13 0.733497 0.102555 0.069200
O O14 0.829910 0.000000 0.000000
O O15 0.500000 0.603455 0.609628
O O16 0.736371 0.692123 0.574192
O O17 0.793325 0.772362 0.498990
O O18 0.000000 0.831912 0.442886
O O19 0.500000 0.775889 0.937863
#
# Coordination Sequence:
#
# PCOD8218532 Si02
#       7
#     8   8   8   8   8   8   8
#     4  10  19  31  46  66  94 126 157 189 228 275
#     4   9  16  27  43  64  89 118 152 189 228 269
#     4   8  15  26  41  60  84 113 145 183 222 262
#     4   9  17  30  49  70  89 112 148 194 237 272
#     4  10  20  32  44  65  96 125 155 190 229 276
#     4   9  19  33  48  67  92 122 156 192 229 272
#     4  10  19  32  49  67  90 122 157 192 230 272
#
# _framework density 16.350406
#
# number of rings (size 3 to 8) (size 9 to 14) (size 15 to 20)
#    0.000    2.714    0.000    3.000    0.000    8.000 
#    0.000    2.857    0.000    0.000    0.000    1.000 
#    0.000    2.286    0.000    0.000    0.000    0.000 
#
# Total GULP energy -694237.486078 kJ/mol
# GULP energy per Si atom -12397.097966 kJ/mol
# Density = 1.631319 g / cm^3
# Si number density = 16.350406 Si / 1000 Ang^3
#
#
#
# Elastic Constant Matrix: (Units=GPa)
#
#
# Indices 1 2 3 4 5 6 
#
# 1 108.1638 52.3483 49.7252 0.0000 0.0000 0.0000
# 2 52.3483 80.8753 49.9081 0.0000 0.0000 0.0000
# 3 49.7252 49.9081 81.6091 0.0000 0.0000 0.0000
# 4 0.0000 0.0000 0.0000 -0.0520 0.0000 0.0000
# 5 0.0000 0.0000 0.0000 0.0000 27.2698 0.0000
# 6 0.0000 0.0000 0.0000 0.0000 0.0000 20.6416
#
#
#
# Elastic Compliance Matrix: (Units=1/GPa)
#
#
# Indices 1 2 3 4 5 6 
#
# 1 0.014640 -0.006378 -0.005019 0.000000 0.000000 0.000000
# 2 -0.006378 0.022638 -0.009958 0.000000 0.000000 0.000000
# 3 -0.005019 -0.009958 0.021402 0.000000 0.000000 0.000000
# 4 0.000000 0.000000 0.000000-19.236604 0.000000 0.000000
# 5 0.000000 0.000000 0.000000 0.000000 0.036671 0.000000
# 6 0.000000 0.000000 0.000000 0.000000 0.000000 0.048446
#
#
# Mechanical properties :
#
#
# Convention : Reuss Voigt Hill
#
# Bulk Modulus (GPa) = 62.62493 63.84574 63.23533
# Shear Modulus (GPa) = -0.26254 17.48297 8.61022
#
# Velocity S-wave (km/s) = -0.40115 3.27351 2.29728
# Velocity P-wave (km/s) = 6.17822 7.30897 6.76725
#
# Compressibility (1/GPa) = 0.01596808
#
# Stress axis : x y z
#
# Youngs Moduli (GPa) = 68.30712 44.17262 46.72501
#
# Poissons Ratio (x) = 0.28175 0.23453
# Poissons Ratio (y) = 0.43569 0.46529
# Poissons Ratio (z) = 0.34286 0.43988
#
# Static dielectric constant tensor:
#      x y z
#    x 3.315570 0.000000 0.000000 
#    y 0.000000 2.823390 0.000000 
#    z 0.000000 0.000000 3.121820 
# 
# 
# High freq. dielectric constant tensor:
#      x y z
#    x 1.645810 0.000000 0.000000 
#    y 0.000000 1.592070 0.000000 
#    z 0.000000 0.000000 1.617560 
# 
# From -- ./inp_files/38350.got.cif
#   From: 2010.03.12/outbox.cif.g09.slc.cpg/sg53_20_cif.got.tgz:38350.got - 2010.04.16 14:36:59.
