data_PCOD8218625
_publ_section_title
;
Structure prediction by ZEFSAII (Michael W. Deem and Ramdas Pophale) SiO2 
 PCOD8218625
Probable space group: P M N A
;
_chemical_formula_sum "Si O2"
_cell_formula_units_Z 48
_cell_length_a 9.340645
_cell_length_b 14.716795
_cell_length_c 20.211069
_cell_angle_alpha 90.000000
_cell_angle_beta 90.000000
_cell_angle_gamma 90.000000
_cell_volume 2778.301617
_symmetry_space_group_name_H-M "P M N A"
_symmetry_group_IT_number 53
_symmetry_cell_setting 'orthorhombic'
loop_
_space_group_symop_operation_xyz
x,y,z
1/2-x,-y,1/2+z
x,-y,-z
1/2-x,y,1/2-z
-x,-y,-z
1/2+x,y,1/2-z
-x,y,z
1/2+x,-y,1/2+z
loop_
_atom_site_type_symbol
_atom_site_label
_atom_site_fract_x
_atom_site_fract_y
_atom_site_fract_z
Si Si1 0.662952 0.504307 0.811535
Si Si2 0.168234 0.924685 0.053100
Si Si3 0.163183 0.562111 0.936970
Si Si4 0.660019 0.691951 0.145981
Si Si5 0.170240 0.108887 0.684829
Si Si6 0.162741 0.723321 0.024299
O O1 0.750000 0.545784 0.750000
O O2 0.500000 0.537981 0.807027
O O3 0.727583 0.540996 0.879160
O O4 0.672368 0.394839 0.806472
O O5 0.261245 0.938111 0.119746
O O6 0.207853 0.828687 0.018310
O O7 0.000000 0.931468 0.071060
O O8 0.213745 0.000000 0.000000
O O9 0.000000 0.545382 0.913220
O O10 0.198257 0.500000 0.000000
O O11 0.187254 0.668316 0.956292
O O12 0.500000 0.705164 0.119458
O O13 0.706874 0.783644 0.183420
O O14 0.754200 0.671878 0.082070
O O15 0.250000 0.069429 0.750000
O O16 0.000000 0.088967 0.688138
O O17 0.000000 0.716324 0.046920
#
# Coordination Sequence:
#
# PCOD8218625 Si02
#       6
#     8   8   8   8   8   8
#     4  11  22  33  47  68  98 134 170 209 249 289
#     4   9  18  33  53  76 101 129 163 203 248 296
#     4  10  19  32  50  72  98 130 166 201 239 289
#     4   9  18  30  45  69  99 130 162 197 239 290
#     4  10  19  31  48  72 102 133 163 198 244 297
#     4   9  17  30  50  73  97 128 162 198 241 289
#
# _framework density 17.276741000000001
#
# number of rings (size 3 to 8) (size 9 to 14) (size 15 to 20)
#    0.000    2.333    1.667    1.500    0.000    2.667 
#    0.000    0.000    0.000    1.000    0.000    0.000 
#    0.000    0.000    0.000    0.000    0.000    0.000 
#
# Total GULP energy -595056.380012 kJ/mol
# GULP energy per Si atom -12397.007917 kJ/mol
# Density = 1.723742 g / cm^3
# Si number density = 17.276741 Si / 1000 Ang^3
#
#
#
# Elastic Constant Matrix: (Units=GPa)
#
#
# Indices 1 2 3 4 5 6 
#
# 1 103.3476 28.4837 76.2668 0.0000 0.0000 0.0000
# 2 28.4837 54.0121 38.9326 0.0000 0.0000 0.0000
# 3 76.2668 38.9326 119.1021 0.0000 0.0000 0.0000
# 4 0.0000 0.0000 0.0000 18.7540 0.0000 0.0000
# 5 0.0000 0.0000 0.0000 0.0000 32.9652 0.0000
# 6 0.0000 0.0000 0.0000 0.0000 0.0000 19.0045
#
#
#
# Elastic Compliance Matrix: (Units=1/GPa)
#
#
# Indices 1 2 3 4 5 6 
#
# 1 0.018449 -0.001588 -0.011295 0.000000 0.000000 0.000000
# 2 -0.001588 0.024358 -0.006946 0.000000 0.000000 0.000000
# 3 -0.011295 -0.006946 0.017899 0.000000 0.000000 0.000000
# 4 0.000000 0.000000 0.000000 0.053322 0.000000 0.000000
# 5 0.000000 0.000000 0.000000 0.000000 0.030335 0.000000
# 6 0.000000 0.000000 0.000000 0.000000 0.000000 0.052619
#
#
# Mechanical properties :
#
#
# Convention : Reuss Voigt Hill
#
# Bulk Modulus (GPa) = 47.50591 62.64757 55.07674
# Shear Modulus (GPa) = 20.52086 22.99665 21.75876
#
# Velocity S-wave (km/s) = 3.45015 3.65235 3.55269
# Velocity P-wave (km/s) = 6.59000 7.35705 6.98406
#
# Compressibility (1/GPa) = 0.02105001
#
# Stress axis : x y z
#
# Youngs Moduli (GPa) = 54.20446 41.05403 55.86905
#
# Poissons Ratio (x) = 0.06519 0.63102
# Poissons Ratio (y) = 0.08607 0.38804
# Poissons Ratio (z) = 0.61221 0.28514
#
# Static dielectric constant tensor:
#      x y z
#    x 3.272840 0.000000 0.000000 
#    y 0.000000 3.161260 0.000000 
#    z 0.000000 0.000000 3.035580 
# 
# 
# High freq. dielectric constant tensor:
#      x y z
#    x 1.675150 0.000000 0.000000 
#    y 0.000000 1.638280 0.000000 
#    z 0.000000 0.000000 1.654500 
# 
# From -- ./inp_files/20199.got.cif
#   From: 2010.03.12/outbox.cif.g09.slc.cpg/sg53_11_cif.got.tgz:20199.got - 2010.04.16 14:36:59.
