data_PCOD8218067
_publ_section_title
;
Structure prediction by ZEFSAII (Michael W. Deem and Ramdas Pophale) SiO2 
 PCOD8218067
Probable space group: P M N A
;
_chemical_formula_sum "Si O2"
_cell_formula_units_Z 64
_cell_length_a 13.376713
_cell_length_b 9.383752
_cell_length_c 23.701279
_cell_angle_alpha 90.000000
_cell_angle_beta 90.000000
_cell_angle_gamma 90.000000
_cell_volume 2975.073594
_symmetry_space_group_name_H-M "P M N A"
_symmetry_group_IT_number 53
_symmetry_cell_setting 'orthorhombic'
loop_
_space_group_symop_operation_xyz
x,y,z
1/2-x,-y,1/2+z
x,-y,-z
1/2-x,y,1/2-z
-x,-y,-z
1/2+x,y,1/2-z
-x,y,z
1/2+x,-y,1/2+z
loop_
_atom_site_type_symbol
_atom_site_label
_atom_site_fract_x
_atom_site_fract_y
_atom_site_fract_z
Si Si1 0.112893 0.845960 0.486453
Si Si2 0.792728 0.826192 0.373649
Si Si3 0.116967 0.549932 0.335014
Si Si4 0.615128 0.324495 0.254982
Si Si5 0.886909 0.967752 0.065206
Si Si6 0.313273 0.670668 0.919642
Si Si7 0.613012 0.725200 0.618963
Si Si8 0.617516 0.903072 0.834423
O O1 0.119770 0.819307 0.420110
O O2 0.162292 0.706938 0.515733
O O3 0.000000 0.852128 0.507547
O O4 0.164534 0.000000 0.500000
O O5 0.804026 0.679853 0.338590
O O6 0.686348 0.850285 0.405855
O O7 0.819859 0.951497 0.330289
O O8 0.158148 0.456430 0.281869
O O9 0.123959 0.458388 0.392987
O O10 0.000000 0.594927 0.327538
O O11 0.500000 0.354769 0.258757
O O12 0.655947 0.304462 0.317968
O O13 0.639190 0.177755 0.223632
O O14 0.000000 0.905431 0.066347
O O15 0.882497 0.108806 0.103412
O O16 0.856533 0.000000 0.000000
O O17 0.193434 0.639570 0.918478
O O18 0.340347 0.817011 0.887596
O O19 0.500000 0.666800 0.610292
O O20 0.500000 0.930910 0.842905
#
# Coordination Sequence:
#
# PCOD8218067 Si02
#       8
#     8   8   8   8   8   8   8   8
#     4  11  20  31  54  87 122 158 201 248 295 365
#     4  12  21  35  56  89 123 163 202 241 309 376
#     4  10  22  37  54  82 127 165 196 245 311 374
#     4   8  18  36  59  84 115 156 202 254 304 361
#     4  10  21  39  63  95 131 161 206 274 329 364
#     4  11  20  35  54  81 117 158 206 251 300 363
#     4  10  19  36  64  89 111 153 215 265 302 362
#     4  10  18  31  53  81 115 153 198 250 302 361
#
# _framework density 21.512072
#
# number of rings (size 3 to 8) (size 9 to 14) (size 15 to 20)
#    0.000    1.750    2.500    4.125    0.000    2.500 
#    0.000    1.875    5.500    0.000    0.000    6.125 
#    0.000    0.000    0.000    0.000    0.000    0.000 
#
# Total GULP energy -793063.813316 kJ/mol
# GULP energy per Si atom -12391.622083 kJ/mol
# Density = 2.146311 g / cm^3
# Si number density = 21.512072 Si / 1000 Ang^3
#
#
#
# Elastic Constant Matrix: (Units=GPa)
#
#
# Indices 1 2 3 4 5 6 
#
# 1 127.8210 26.1009 25.5144 0.0000 0.0000 0.0000
# 2 26.1009 97.8518 28.4294 0.0000 0.0000 0.0000
# 3 25.5144 28.4294 71.5736 0.0000 0.0000 0.0000
# 4 0.0000 0.0000 0.0000 -29.0427 0.0000 0.0000
# 5 0.0000 0.0000 0.0000 0.0000 18.6991 0.0000
# 6 0.0000 0.0000 0.0000 0.0000 0.0000 19.5576
#
#
#
# Elastic Compliance Matrix: (Units=1/GPa)
#
#
# Indices 1 2 3 4 5 6 
#
# 1 0.008637 -0.001593 -0.002446 0.000000 0.000000 0.000000
# 2 -0.001593 0.011847 -0.004138 0.000000 0.000000 0.000000
# 3 -0.002446 -0.004138 0.016487 0.000000 0.000000 0.000000
# 4 0.000000 0.000000 0.000000 -0.034432 0.000000 0.000000
# 5 0.000000 0.000000 0.000000 0.000000 0.053478 0.000000
# 6 0.000000 0.000000 0.000000 0.000000 0.000000 0.051131
#
#
# Mechanical properties :
#
#
# Convention : Reuss Voigt Hill
#
# Bulk Modulus (GPa) = 48.50365 50.81508 49.65937
# Shear Modulus (GPa) = 38.35114 16.32292 27.33703
#
# Velocity S-wave (km/s) = 4.22687 2.75758 3.56866
# Velocity P-wave (km/s) = 6.81308 5.81481 6.33364
#
# Compressibility (1/GPa) = 0.02061700
#
# Stress axis : x y z
#
# Youngs Moduli (GPa) = 115.78060 84.41233 60.65356
#
# Poissons Ratio (x) = 0.13448 0.14836
# Poissons Ratio (y) = 0.18446 0.25096
# Poissons Ratio (z) = 0.28321 0.34926
#
# Static dielectric constant tensor:
#      x y z
#    x 4.075900 0.000000 0.000000 
#    y 0.000000 3.918560 0.000000 
#    z 0.000000 0.000000 3.951610 
# 
# 
# High freq. dielectric constant tensor:
#      x y z
#    x 1.857680 0.000000 0.000000 
#    y 0.000000 1.810020 0.000000 
#    z 0.000000 0.000000 1.832180 
# 
# From -- ./inp_files/35347.got.cif
#   From: 2010.03.12/outbox.cif.g09.slc.cpg/sg53_18_cif.got.tgz:35347.got - 2010.04.16 14:36:59.
