data_PCOD8218377
_publ_section_title
;
Structure prediction by ZEFSAII (Michael W. Deem and Ramdas Pophale) SiO2 
 PCOD8218377
Probable space group: P M N A
;
_chemical_formula_sum "Si O2"
_cell_formula_units_Z 56
_cell_length_a 22.017558
_cell_length_b 12.793962
_cell_length_c 11.381572
_cell_angle_alpha 90.000000
_cell_angle_beta 90.000000
_cell_angle_gamma 90.000000
_cell_volume 3206.095508
_symmetry_space_group_name_H-M "P M N A"
_symmetry_group_IT_number 53
_symmetry_cell_setting 'orthorhombic'
loop_
_space_group_symop_operation_xyz
x,y,z
1/2-x,-y,1/2+z
x,-y,-z
1/2-x,y,1/2-z
-x,-y,-z
1/2+x,y,1/2-z
-x,y,z
1/2+x,-y,1/2+z
loop_
_atom_site_type_symbol
_atom_site_label
_atom_site_fract_x
_atom_site_fract_y
_atom_site_fract_z
Si Si1 0.569079 0.606866 0.548632
Si Si2 0.070583 0.174361 0.939792
Si Si3 0.326723 0.112765 0.381427
Si Si4 0.737706 0.180272 0.929383
Si Si5 0.725478 0.610916 0.941750
Si Si6 0.161785 0.891152 0.232521
Si Si7 0.164375 0.332356 0.215387
O O1 0.598887 0.500000 0.500000
O O2 0.500000 0.585668 0.579091
O O3 0.578052 0.700893 0.455667
O O4 0.597655 0.636719 0.673592
O O5 0.093785 0.143350 0.808098
O O6 0.000000 0.140598 0.955344
O O7 0.113285 0.114662 0.034861
O O8 0.264467 0.116852 0.458175
O O9 0.326618 0.207747 0.289733
O O10 0.325495 0.010367 0.302495
O O11 0.792335 0.185143 0.836146
O O12 0.677371 0.125414 0.871353
O O13 0.721333 0.299158 0.960643
O O14 0.789570 0.612694 0.875300
O O15 0.672016 0.629554 0.847697
O O16 0.714349 0.500000 0.000000
#
# Coordination Sequence:
#
# PCOD8218377 Si02
#       7
#     8   8   8   8   8   8   8
#     4   9  17  30  49  71  94 121 153 194 237 270
#     4   9  17  29  46  71  98 121 153 192 231 279
#     4   9  18  32  46  67  95 124 154 186 230 276
#     4   9  19  31  43  66  95 119 153 188 222 275
#     4  10  20  32  48  69  94 124 152 186 231 275
#     4  10  19  29  47  69  95 124 150 192 236 266
#     4   9  19  32  48  68  93 124 157 185 223 285
#
# _framework density 17.466729999999998
#
# number of rings (size 3 to 8) (size 9 to 14) (size 15 to 20)
#    0.000    2.714    0.000    3.000    0.000   10.286 
#    0.000    0.000    0.000    1.286    0.000    0.000 
#    0.000   26.286    0.000    0.000    0.000    0.000 
#
# Total GULP energy -693997.983535 kJ/mol
# GULP energy per Si atom -12392.821135 kJ/mol
# Density = 1.742698 g / cm^3
# Si number density = 17.466730 Si / 1000 Ang^3
#
#
#
# Elastic Constant Matrix: (Units=GPa)
#
#
# Indices 1 2 3 4 5 6 
#
# 1 71.7735 44.0296 40.1805 0.0000 0.0000 0.0000
# 2 44.0296 136.9105 72.3069 0.0000 0.0000 0.0000
# 3 40.1805 72.3069 77.9098 0.0000 0.0000 0.0000
# 4 0.0000 0.0000 0.0000 24.2887 0.0000 0.0000
# 5 0.0000 0.0000 0.0000 0.0000 18.5134 0.0000
# 6 0.0000 0.0000 0.0000 0.0000 0.0000 17.9753
#
#
#
# Elastic Compliance Matrix: (Units=1/GPa)
#
#
# Indices 1 2 3 4 5 6 
#
# 1 0.019841 -0.001915 -0.008455 0.000000 0.000000 0.000000
# 2 -0.001915 0.014511 -0.012479 0.000000 0.000000 0.000000
# 3 -0.008455 -0.012479 0.028778 0.000000 0.000000 0.000000
# 4 0.000000 0.000000 0.000000 0.041171 0.000000 0.000000
# 5 0.000000 0.000000 0.000000 0.000000 0.054015 0.000000
# 6 0.000000 0.000000 0.000000 0.000000 0.000000 0.055632
#
#
# Mechanical properties :
#
#
# Convention : Reuss Voigt Hill
#
# Bulk Modulus (GPa) = 57.37223 66.62530 61.99877
# Shear Modulus (GPa) = 18.83541 20.82727 19.83134
#
# Velocity S-wave (km/s) = 3.28740 3.45686 3.37319
# Velocity P-wave (km/s) = 6.87948 7.35935 7.12346
#
# Compressibility (1/GPa) = 0.01743003
#
# Stress axis : x y z
#
# Youngs Moduli (GPa) = 50.40058 68.91417 34.74899
#
# Poissons Ratio (x) = 0.13200 0.29380
# Poissons Ratio (y) = 0.09654 0.43365
# Poissons Ratio (z) = 0.42614 0.86001
#
# Static dielectric constant tensor:
#      x y z
#    x 3.281150 0.000000 0.000000 
#    y 0.000000 3.312240 0.000000 
#    z 0.000000 0.000000 3.242090 
# 
# 
# High freq. dielectric constant tensor:
#      x y z
#    x 1.652630 0.000000 0.000000 
#    y 0.000000 1.686730 0.000000 
#    z 0.000000 0.000000 1.648280 
# 
# From -- ./inp_files/17866.got.cif
#   From: 2010.03.12/outbox.cif.g09.slc.cpg/sg53_9_cif.got.tgz:17866.got - 2010.04.16 14:36:59.
