data_PCOD8218131
_publ_section_title
;
Structure prediction by ZEFSAII (Michael W. Deem and Ramdas Pophale) SiO2 
 PCOD8218131
Probable space group: P M N A
;
_chemical_formula_sum "Si O2"
_cell_formula_units_Z 40
_cell_length_a 26.146154
_cell_length_b 9.184074
_cell_length_c 8.239815
_cell_angle_alpha 90.000000
_cell_angle_beta 90.000000
_cell_angle_gamma 90.000000
_cell_volume 1978.612053
_symmetry_space_group_name_H-M "P M N A"
_symmetry_group_IT_number 53
_symmetry_cell_setting 'orthorhombic'
loop_
_space_group_symop_operation_xyz
x,y,z
1/2-x,-y,1/2+z
x,-y,-z
1/2-x,y,1/2-z
-x,-y,-z
1/2+x,y,1/2-z
-x,y,z
1/2+x,-y,1/2+z
loop_
_atom_site_type_symbol
_atom_site_label
_atom_site_fract_x
_atom_site_fract_y
_atom_site_fract_z
Si Si1 0.788230 0.000000 0.000000
Si Si2 0.058242 0.291328 0.121628
Si Si3 0.640483 0.097709 0.230272
Si Si4 0.852637 0.224867 0.607842
Si Si5 0.059215 0.389001 0.764551
Si Si6 0.750000 0.787815 0.250000
O O1 0.751845 0.889926 0.093077
O O2 0.819614 0.102129 0.122820
O O3 0.087657 0.157858 0.200872
O O4 0.068110 0.438964 0.221241
O O5 0.000000 0.245007 0.132632
O O6 0.073664 0.312965 0.934271
O O7 0.632213 0.930857 0.181547
O O8 0.659241 0.201773 0.082843
O O9 0.901675 0.329496 0.628623
O O10 0.803374 0.295931 0.707868
O O11 0.000000 0.357010 0.715812
#
# Coordination Sequence:
#
# PCOD8218131 Si02
#       6
#     4   8   8   8   8   4
#     4  10  18  32  53  78 103 136 174 218 264 318
#     4   9  18  34  56  78 103 139 177 214 263 318
#     4  10  20  33  52  79 106 137 173 216 264 311
#     4  10  21  34  52  79 109 138 174 218 258 309
#     4   9  19  36  56  78 105 138 176 218 264 314
#     4  10  18  32  54  76 104 138 174 212 262 310
#
# _framework density 20.216190999999998
#
# number of rings (size 3 to 8) (size 9 to 14) (size 15 to 20)
#    0.000    2.400    0.000    6.000    0.000    2.400 
#    0.000    6.500    0.000   14.400    0.000    0.000 
#    0.000    0.000    0.000    0.000    0.000    0.000 
#
# Total GULP energy -495713.646430 kJ/mol
# GULP energy per Si atom -12392.841161 kJ/mol
# Density = 2.017018 g / cm^3
# Si number density = 20.216191 Si / 1000 Ang^3
#
#
#
# Elastic Constant Matrix: (Units=GPa)
#
#
# Indices 1 2 3 4 5 6 
#
# 1 107.3139 30.0775 34.5395 0.0000 0.0000 0.0000
# 2 30.0775 32.5758 15.4300 0.0000 0.0000 0.0000
# 3 34.5395 15.4300 90.3142 0.0000 0.0000 0.0000
# 4 0.0000 0.0000 0.0000 25.8975 0.0000 0.0000
# 5 0.0000 0.0000 0.0000 0.0000 32.8078 0.0000
# 6 0.0000 0.0000 0.0000 0.0000 0.0000 -35.0342
#
#
#
# Elastic Compliance Matrix: (Units=1/GPa)
#
#
# Indices 1 2 3 4 5 6 
#
# 1 0.013408 -0.010827 -0.003278 0.000000 0.000000 0.000000
# 2 -0.010827 0.042144 -0.003059 0.000000 0.000000 0.000000
# 3 -0.003278 -0.003059 0.012849 0.000000 0.000000 0.000000
# 4 0.000000 0.000000 0.000000 0.038614 0.000000 0.000000
# 5 0.000000 0.000000 0.000000 0.000000 0.030481 0.000000
# 6 0.000000 0.000000 0.000000 0.000000 0.000000 -0.028544
#
#
# Mechanical properties :
#
#
# Convention : Reuss Voigt Hill
#
# Bulk Modulus (GPa) = 29.35019 43.36645 36.35832
# Shear Modulus (GPa) = 32.33370 14.74468 23.53919
#
# Velocity S-wave (km/s) = 4.00358 2.70358 3.41599
# Velocity P-wave (km/s) = 5.99343 5.58961 5.79504
#
# Compressibility (1/GPa) = 0.03407132
#
# Stress axis : x y z
#
# Youngs Moduli (GPa) = 74.58200 23.72841 77.82853
#
# Poissons Ratio (x) = 0.25691 0.25512
# Poissons Ratio (y) = 0.80751 0.23811
# Poissons Ratio (z) = 0.24447 0.07260
#
# Static dielectric constant tensor:
#      x y z
#    x 3.707910 0.000000 0.000000 
#    y 0.000000 3.262240 0.000000 
#    z 0.000000 0.000000 3.942810 
# 
# 
# High freq. dielectric constant tensor:
#      x y z
#    x 1.796500 0.000000 0.000000 
#    y 0.000000 1.749900 0.000000 
#    z 0.000000 0.000000 1.800470 
# 
# From -- ./inp_files/11611.got.cif
#   From: 2010.03.12/outbox.cif.g09.slc.cpg/sg53_6_cif.got.tgz:11611.got - 2010.04.16 14:36:59.
