data_PCOD8218126
_publ_section_title
;
Structure prediction by ZEFSAII (Michael W. Deem and Ramdas Pophale) SiO2 
 PCOD8218126
Probable space group: P M N A
;
_chemical_formula_sum "Si O2"
_cell_formula_units_Z 64
_cell_length_a 8.690894
_cell_length_b 16.184206
_cell_length_c 24.081499
_cell_angle_alpha 90.000000
_cell_angle_beta 90.000000
_cell_angle_gamma 90.000000
_cell_volume 3387.188511
_symmetry_space_group_name_H-M "P M N A"
_symmetry_group_IT_number 53
_symmetry_cell_setting 'orthorhombic'
loop_
_space_group_symop_operation_xyz
x,y,z
1/2-x,-y,1/2+z
x,-y,-z
1/2-x,y,1/2-z
-x,-y,-z
1/2+x,y,1/2-z
-x,y,z
1/2+x,-y,1/2+z
loop_
_atom_site_type_symbol
_atom_site_label
_atom_site_fract_x
_atom_site_fract_y
_atom_site_fract_z
Si Si1 0.677076 0.638401 0.396160
Si Si2 0.318959 0.982040 0.691804
Si Si3 0.317382 0.711849 0.588265
Si Si4 0.178114 0.467671 0.057077
Si Si5 0.829187 0.889929 0.385249
Si Si6 0.670247 0.265239 0.806023
Si Si7 0.181975 0.767607 0.477572
Si Si8 0.317370 0.196341 0.191429
O O1 0.500000 0.661939 0.405881
O O2 0.703106 0.539831 0.398017
O O3 0.730581 0.663341 0.334947
O O4 0.772301 0.685473 0.443682
O O5 0.250000 0.016707 0.750000
O O6 0.500000 0.972740 0.699290
O O7 0.245976 0.894242 0.677370
O O8 0.285039 0.041867 0.639677
O O9 0.500000 0.715918 0.596320
O O10 0.252194 0.618950 0.577990
O O11 0.268530 0.769459 0.536459
O O12 0.235540 0.741528 0.643902
O O13 0.000000 0.449483 0.044899
O O14 0.255939 0.500000 0.000000
O O15 0.837601 0.814324 0.343695
O O16 0.770907 0.851578 0.444004
O O17 0.000000 0.928778 0.391893
O O18 0.750000 0.237465 0.750000
O O19 0.500000 0.299985 0.794497
O O20 0.000000 0.765764 0.486927
O O21 0.250000 0.227921 0.250000
O O22 0.500000 0.193112 0.195082
#
# Coordination Sequence:
#
# PCOD8218126 Si02
#       8
#     8   8   8   8   8   8   8   8
#     4  10  18  32  53  76 106 144 184 226 274 322
#     4  11  21  35  58  85 111 143 187 232 278 328
#     4  11  21  37  61  86 114 146 186 230 279 335
#     4   9  17  32  55  84 111 141 181 226 273 324
#     4   9  19  34  52  77 112 147 183 228 274 322
#     4  10  20  33  49  73 107 146 186 225 273 329
#     4  10  20  34  52  80 116 151 185 225 275 328
#     4  11  23  42  64  86 113 144 184 229 281 332
#
# _framework density 18.894725999999999
#
# number of rings (size 3 to 8) (size 9 to 14) (size 15 to 20)
#    0.000    1.875    1.250    5.625    0.000    4.000 
#    0.000    4.375    0.000    3.750    0.000    0.000 
#    0.000    0.000    0.000    0.000    0.000    0.000 
#
# Total GULP energy -793510.276542 kJ/mol
# GULP energy per Si atom -12398.598071 kJ/mol
# Density = 1.885172 g / cm^3
# Si number density = 18.894726 Si / 1000 Ang^3
#
#
#
# Elastic Constant Matrix: (Units=GPa)
#
#
# Indices 1 2 3 4 5 6 
#
# 1 108.3718 42.7068 39.7296 0.0000 0.0000 0.0000
# 2 42.7068 92.7263 52.7257 0.0000 0.0000 0.0000
# 3 39.7296 52.7257 104.3111 0.0000 0.0000 0.0000
# 4 0.0000 0.0000 0.0000 44.0528 0.0000 0.0000
# 5 0.0000 0.0000 0.0000 0.0000 33.2957 0.0000
# 6 0.0000 0.0000 0.0000 0.0000 0.0000 12.8359
#
#
#
# Elastic Compliance Matrix: (Units=1/GPa)
#
#
# Indices 1 2 3 4 5 6 
#
# 1 0.011697 -0.004005 -0.002431 0.000000 0.000000 0.000000
# 2 -0.004005 0.016506 -0.006818 0.000000 0.000000 0.000000
# 3 -0.002431 -0.006818 0.013959 0.000000 0.000000 0.000000
# 4 0.000000 0.000000 0.000000 0.022700 0.000000 0.000000
# 5 0.000000 0.000000 0.000000 0.000000 0.030034 0.000000
# 6 0.000000 0.000000 0.000000 0.000000 0.000000 0.077906
#
#
# Mechanical properties :
#
#
# Convention : Reuss Voigt Hill
#
# Bulk Modulus (GPa) = 63.87972 63.97037 63.92505
# Shear Modulus (GPa) = 24.44676 29.38670 26.91673
#
# Velocity S-wave (km/s) = 3.60090 3.94799 3.77843
# Velocity P-wave (km/s) = 7.15334 7.39675 7.27606
#
# Compressibility (1/GPa) = 0.01565442
#
# Stress axis : x y z
#
# Youngs Moduli (GPa) = 85.49276 60.58534 71.64081
#
# Poissons Ratio (x) = 0.24265 0.17413
# Poissons Ratio (y) = 0.34241 0.48842
# Poissons Ratio (z) = 0.20780 0.41305
#
# Static dielectric constant tensor:
#      x y z
#    x 3.537580 0.000000 0.000000 
#    y 0.000000 3.448190 0.000000 
#    z 0.000000 0.000000 3.658440 
# 
# 
# High freq. dielectric constant tensor:
#      x y z
#    x 1.735670 0.000000 0.000000 
#    y 0.000000 1.721070 0.000000 
#    z 0.000000 0.000000 1.729300 
# 
# From -- ./inp_files/34202.got.cif
#   From: 2010.03.12/outbox.cif.g09.slc.cpg/sg53_18_cif.got.tgz:34202.got - 2010.04.16 14:36:59.
