data_PCOD8218864
_publ_section_title
;
Structure prediction by ZEFSAII (Michael W. Deem and Ramdas Pophale) SiO2 
 PCOD8218864
Probable space group: P M N A
;
_chemical_formula_sum "Si O2"
_cell_formula_units_Z 64
_cell_length_a 9.230236
_cell_length_b 23.421532
_cell_length_c 14.599896
_cell_angle_alpha 90.000000
_cell_angle_beta 90.000000
_cell_angle_gamma 90.000000
_cell_volume 3156.297027
_symmetry_space_group_name_H-M "P M N A"
_symmetry_group_IT_number 53
_symmetry_cell_setting 'orthorhombic'
loop_
_space_group_symop_operation_xyz
x,y,z
1/2-x,-y,1/2+z
x,-y,-z
1/2-x,y,1/2-z
-x,-y,-z
1/2+x,y,1/2-z
-x,y,z
1/2+x,-y,1/2+z
loop_
_atom_site_type_symbol
_atom_site_label
_atom_site_fract_x
_atom_site_fract_y
_atom_site_fract_z
Si Si1 0.835043 0.375344 0.965168
Si Si2 0.838147 0.523592 0.398581
Si Si3 0.158012 0.766100 0.831717
Si Si4 0.658000 0.102276 0.331214
Si Si5 0.168364 0.245262 0.964730
Si Si6 0.168869 0.153130 0.654994
Si Si7 0.166054 0.065395 0.499555
Si Si8 0.169840 0.581933 0.835978
O O1 0.732527 0.413447 0.900886
O O2 0.814753 0.310434 0.932544
O O3 0.000000 0.396087 0.951334
O O4 0.795670 0.381428 0.073008
O O5 0.847224 0.500000 0.500000
O O6 0.736185 0.481783 0.341069
O O7 0.000000 0.527393 0.355915
O O8 0.250000 0.736891 0.750000
O O9 0.137285 0.831972 0.806617
O O10 0.000000 0.735570 0.833773
O O11 0.230507 0.759609 0.931689
O O12 0.750000 0.072047 0.250000
O O13 0.500000 0.072509 0.336404
O O14 0.736688 0.098980 0.427961
O O15 0.263456 0.206551 0.898316
O O16 0.000000 0.225366 0.962002
O O17 0.250000 0.143899 0.750000
O O18 0.189215 0.094597 0.598063
O O19 0.000000 0.166080 0.672590
O O20 0.000000 0.070039 0.467653
O O21 0.217379 0.000000 0.500000
O O22 0.250000 0.612478 0.750000
O O23 0.000000 0.577145 0.816885
#
# Coordination Sequence:
#
# PCOD8218864 Si02
#       8
#     8   8   8   8   8   8   8   8
#     4   9  19  34  54  78 108 146 184 230 282 335
#     4   9  17  31  51  74 102 138 181 227 274 328
#     4   9  18  31  51  79 111 147 185 227 274 332
#     4  10  19  33  55  83 115 150 186 227 277 335
#     4  10  20  38  60  84 117 155 197 241 289 344
#     4  11  24  42  65  88 115 153 195 242 292 343
#     4  10  22  40  61  88 120 151 190 239 289 344
#     4  10  19  32  51  78 111 146 184 225 279 338
#
# _framework density 20.276924999999999
#
# number of rings (size 3 to 8) (size 9 to 14) (size 15 to 20)
#    0.000    2.250    1.250    1.500    0.000    5.250 
#    0.000    1.875    0.000    3.000    0.000    0.000 
#    0.000    0.000    0.000    0.000    0.000    0.000 
#
# Total GULP energy -793507.668568 kJ/mol
# GULP energy per Si atom -12398.557321 kJ/mol
# Density = 2.023077 g / cm^3
# Si number density = 20.276925 Si / 1000 Ang^3
#
#
#
# Elastic Constant Matrix: (Units=GPa)
#
#
# Indices 1 2 3 4 5 6 
#
# 1 119.5530 37.0732 52.0523 0.0000 0.0000 0.0000
# 2 37.0732 84.4702 21.5555 0.0000 0.0000 0.0000
# 3 52.0523 21.5555 95.3873 0.0000 0.0000 0.0000
# 4 0.0000 0.0000 0.0000 10.2535 0.0000 0.0000
# 5 0.0000 0.0000 0.0000 0.0000 35.3073 0.0000
# 6 0.0000 0.0000 0.0000 0.0000 0.0000 19.6021
#
#
#
# Elastic Compliance Matrix: (Units=1/GPa)
#
#
# Indices 1 2 3 4 5 6 
#
# 1 0.012034 -0.003826 -0.005702 0.000000 0.000000 0.000000
# 2 -0.003826 0.013780 -0.001026 0.000000 0.000000 0.000000
# 3 -0.005702 -0.001026 0.013827 0.000000 0.000000 0.000000
# 4 0.000000 0.000000 0.000000 0.097527 0.000000 0.000000
# 5 0.000000 0.000000 0.000000 0.000000 0.028323 0.000000
# 6 0.000000 0.000000 0.000000 0.000000 0.000000 0.051015
#
#
# Mechanical properties :
#
#
# Convention : Reuss Voigt Hill
#
# Bulk Modulus (GPa) = 53.96153 57.86360 55.91256
# Shear Modulus (GPa) = 20.50935 25.61455 23.06195
#
# Velocity S-wave (km/s) = 3.18380 3.55806 3.37612
# Velocity P-wave (km/s) = 6.33920 6.74376 6.54461
#
# Compressibility (1/GPa) = 0.01853172
#
# Stress axis : x y z
#
# Youngs Moduli (GPa) = 83.10023 72.57077 72.32247
#
# Poissons Ratio (x) = 0.27768 0.41238
# Poissons Ratio (y) = 0.31797 0.07419
# Poissons Ratio (z) = 0.47384 0.07445
#
# Static dielectric constant tensor:
#      x y z
#    x 3.957890 0.000000 0.000000 
#    y 0.000000 3.490900 0.000000 
#    z 0.000000 0.000000 3.584720 
# 
# 
# High freq. dielectric constant tensor:
#      x y z
#    x 1.796550 0.000000 0.000000 
#    y 0.000000 1.776130 0.000000 
#    z 0.000000 0.000000 1.782740 
# 
# From -- ./inp_files/20957.got.cif
#   From: 2010.03.12/outbox.cif.g09.slc.cpg/sg53_11_cif.got.tgz:20957.got - 2010.04.16 14:36:59.
