data_PCOD8218619
_publ_section_title
;
Structure prediction by ZEFSAII (Michael W. Deem and Ramdas Pophale) SiO2 
 PCOD8218619
Probable space group: P M N A
;
_chemical_formula_sum "Si O2"
_cell_formula_units_Z 64
_cell_length_a 9.193539
_cell_length_b 21.160862
_cell_length_c 19.224008
_cell_angle_alpha 90.000000
_cell_angle_beta 90.000000
_cell_angle_gamma 90.000000
_cell_volume 3739.900227
_symmetry_space_group_name_H-M "P M N A"
_symmetry_group_IT_number 53
_symmetry_cell_setting 'orthorhombic'
loop_
_space_group_symop_operation_xyz
x,y,z
1/2-x,-y,1/2+z
x,-y,-z
1/2-x,y,1/2-z
-x,-y,-z
1/2+x,y,1/2-z
-x,y,z
1/2+x,-y,1/2+z
loop_
_atom_site_type_symbol
_atom_site_label
_atom_site_fract_x
_atom_site_fract_y
_atom_site_fract_z
Si Si1 0.337721 0.770766 0.878890
Si Si2 0.663776 0.897151 0.816180
Si Si3 0.667294 0.636045 0.911939
Si Si4 0.168243 0.394211 0.818685
Si Si5 0.329480 0.539837 0.679767
Si Si6 0.166143 0.183750 0.994811
Si Si7 0.169488 0.317686 0.952730
Si Si8 0.171881 0.066427 0.470410
O O1 0.500000 0.780585 0.912898
O O2 0.325355 0.820127 0.815056
O O3 0.321071 0.696706 0.859234
O O4 0.208855 0.787635 0.930937
O O5 0.750000 0.924536 0.750000
O O6 0.500000 0.920630 0.806248
O O7 0.723445 0.924200 0.890093
O O8 0.500000 0.613984 0.919135
O O9 0.764125 0.579079 0.883870
O O10 0.727760 0.655799 0.986920
O O11 0.250000 0.371226 0.750000
O O12 0.203499 0.466877 0.836540
O O13 0.220904 0.351535 0.882514
O O14 0.000000 0.384478 0.803474
O O15 0.250000 0.561440 0.750000
O O16 0.500000 0.553688 0.687327
O O17 0.262202 0.121437 0.980090
O O18 0.000000 0.161772 0.996036
O O19 0.191355 0.241906 0.941137
O O20 0.000000 0.332393 0.970142
O O21 0.000000 0.071536 0.475724
O O22 0.229282 0.000000 0.500000
#
# Coordination Sequence:
#
# PCOD8218619 Si02
#       8
#     8   8   8   8   8   8   8   8
#     4   8  16  30  44  61  90 125 156 184 220 271
#     4   9  17  29  45  66  91 119 153 191 226 263
#     4  10  19  31  48  71  97 126 162 200 236 282
#     4   9  19  35  53  70  91 122 161 203 249 301
#     4  10  20  34  49  65  90 125 162 202 247 295
#     4   9  16  27  47  73  96 116 145 188 232 273
#     4   9  18  33  51  72  98 126 154 193 247 295
#     4   9  18  33  51  69  94 130 164 190 224 275
#
# _framework density 17.112756999999998
#
# number of rings (size 3 to 8) (size 9 to 14) (size 15 to 20)
#    0.000    2.875    0.000    1.875    0.000    5.250 
#    0.000    3.750    0.000    0.750    0.000    5.250 
#    0.000    0.000    0.000    0.000    0.000    0.000 
#
# Total GULP energy -793092.166661 kJ/mol
# GULP energy per Si atom -12392.065104 kJ/mol
# Density = 1.707381 g / cm^3
# Si number density = 17.112757 Si / 1000 Ang^3
#
#
#
# Elastic Constant Matrix: (Units=GPa)
#
#
# Indices 1 2 3 4 5 6 
#
# 1 66.5523 44.3589 40.2266 0.0000 0.0000 0.0000
# 2 44.3589 103.9781 57.2992 0.0000 0.0000 0.0000
# 3 40.2266 57.2992 82.7890 0.0000 0.0000 0.0000
# 4 0.0000 0.0000 0.0000 19.6628 0.0000 0.0000
# 5 0.0000 0.0000 0.0000 0.0000 25.1437 0.0000
# 6 0.0000 0.0000 0.0000 0.0000 0.0000 23.8270
#
#
#
# Elastic Compliance Matrix: (Units=1/GPa)
#
#
# Indices 1 2 3 4 5 6 
#
# 1 0.023384 -0.006005 -0.007206 0.000000 0.000000 0.000000
# 2 -0.006005 0.017089 -0.008910 0.000000 0.000000 0.000000
# 3 -0.007206 -0.008910 0.021747 0.000000 0.000000 0.000000
# 4 0.000000 0.000000 0.000000 0.050857 0.000000 0.000000
# 5 0.000000 0.000000 0.000000 0.000000 0.039771 0.000000
# 6 0.000000 0.000000 0.000000 0.000000 0.000000 0.041969
#
#
# Mechanical properties :
#
#
# Convention : Reuss Voigt Hill
#
# Bulk Modulus (GPa) = 55.62254 59.67651 57.64952
# Shear Modulus (GPa) = 20.40384 21.15568 20.77976
#
# Velocity S-wave (km/s) = 3.45674 3.51985 3.48844
# Velocity P-wave (km/s) = 6.96464 7.17408 7.07013
#
# Compressibility (1/GPa) = 0.01797832
#
# Stress axis : x y z
#
# Youngs Moduli (GPa) = 42.76475 58.51656 45.98388
#
# Poissons Ratio (x) = 0.35139 0.33135
# Poissons Ratio (y) = 0.25680 0.40971
# Poissons Ratio (z) = 0.30816 0.52137
#
# Static dielectric constant tensor:
#      x y z
#    x 3.220620 0.000000 0.000000 
#    y 0.000000 3.408510 0.000000 
#    z 0.000000 0.000000 2.954490 
# 
# 
# High freq. dielectric constant tensor:
#      x y z
#    x 1.666890 0.000000 0.000000 
#    y 0.000000 1.657000 0.000000 
#    z 0.000000 0.000000 1.624410 
# 
# From -- ./inp_files/31407.got.cif
#   From: 2010.03.12/outbox.cif.g09.slc.cpg/sg53_16_cif.got.tgz:31407.got - 2010.04.16 14:36:59.
