data_PCOD8218488
_publ_section_title
;
Structure prediction by ZEFSAII (Michael W. Deem and Ramdas Pophale) SiO2 
 PCOD8218488
Probable space group: P M N A
;
_chemical_formula_sum "Si O2"
_cell_formula_units_Z 48
_cell_length_a 8.667204
_cell_length_b 12.719019
_cell_length_c 23.729049
_cell_angle_alpha 90.000000
_cell_angle_beta 90.000000
_cell_angle_gamma 90.000000
_cell_volume 2615.850790
_symmetry_space_group_name_H-M "P M N A"
_symmetry_group_IT_number 53
_symmetry_cell_setting 'orthorhombic'
loop_
_space_group_symop_operation_xyz
x,y,z
1/2-x,-y,1/2+z
x,-y,-z
1/2-x,y,1/2-z
-x,-y,-z
1/2+x,y,1/2-z
-x,y,z
1/2+x,-y,1/2+z
loop_
_atom_site_type_symbol
_atom_site_label
_atom_site_fract_x
_atom_site_fract_y
_atom_site_fract_z
Si Si1 0.318581 0.499866 0.810839
Si Si2 0.816689 0.381406 0.501759
Si Si3 0.183235 0.105094 0.689908
Si Si4 0.316724 0.696995 0.120208
Si Si5 0.318557 0.298398 0.117406
Si Si6 0.818211 0.118768 0.189935
O O1 0.250000 0.517361 0.750000
O O2 0.500000 0.491212 0.805144
O O3 0.250682 0.394415 0.839257
O O4 0.270415 0.597777 0.849046
O O5 0.748887 0.500000 0.500000
O O6 0.752889 0.320747 0.556932
O O7 0.765923 0.315205 0.447112
O O8 0.000000 0.389715 0.503612
O O9 0.250000 0.140565 0.750000
O O10 0.237285 0.190113 0.643507
O O11 0.000000 0.097696 0.694508
O O12 0.250168 0.993226 0.671283
O O13 0.500000 0.689539 0.119567
O O14 0.500000 0.275307 0.122610
O O15 0.224643 0.200570 0.141551
O O16 0.750000 0.155576 0.250000
O O17 0.000000 0.109359 0.196554
#
# Coordination Sequence:
#
# PCOD8218488 Si02
#       6
#     8   8   8   8   8   8
#     4  10  19  30  47  75 107 135 165 207 260 313
#     4   9  15  29  53  79 106 139 177 217 257 301
#     4  10  19  33  54  78 106 136 173 216 263 315
#     4   9  17  30  50  78 106 134 172 216 258 305
#     4  10  19  32  54  80 106 137 175 215 260 310
#     4  11  22  37  56  76 104 138 176 218 264 313
#
# _framework density 18.349668999999999
#
# number of rings (size 3 to 8) (size 9 to 14) (size 15 to 20)
#    0.000    2.167    1.667    4.000    0.000    2.000 
#    0.000    1.667    0.000    8.500    0.000    0.000 
#    0.000    0.000    0.000    0.000    0.000    0.000 
#
# Total GULP energy -595197.056498 kJ/mol
# GULP energy per Si atom -12399.938677 kJ/mol
# Density = 1.830790 g / cm^3
# Si number density = 18.349669 Si / 1000 Ang^3
#
#
#
# Elastic Constant Matrix: (Units=GPa)
#
#
# Indices 1 2 3 4 5 6 
#
# 1 52.4383 46.6483 40.3077 0.0000 0.0000 0.0000
# 2 46.6483 122.6496 61.9524 0.0000 0.0000 0.0000
# 3 40.3077 61.9524 115.7343 0.0000 0.0000 0.0000
# 4 0.0000 0.0000 0.0000 31.2225 0.0000 0.0000
# 5 0.0000 0.0000 0.0000 0.0000 21.2662 0.0000
# 6 0.0000 0.0000 0.0000 0.0000 0.0000 16.8880
#
#
#
# Elastic Compliance Matrix: (Units=1/GPa)
#
#
# Indices 1 2 3 4 5 6 
#
# 1 0.031872 -0.008930 -0.006320 0.000000 0.000000 0.000000
# 2 -0.008930 0.013677 -0.004211 0.000000 0.000000 0.000000
# 3 -0.006320 -0.004211 0.013096 0.000000 0.000000 0.000000
# 4 0.000000 0.000000 0.000000 0.032028 0.000000 0.000000
# 5 0.000000 0.000000 0.000000 0.000000 0.047023 0.000000
# 6 0.000000 0.000000 0.000000 0.000000 0.000000 0.059214
#
#
# Mechanical properties :
#
#
# Convention : Reuss Voigt Hill
#
# Bulk Modulus (GPa) = 50.70358 65.40432 58.05395
# Shear Modulus (GPa) = 20.62660 23.33626 21.98143
#
# Velocity S-wave (km/s) = 3.35638 3.57003 3.46485
# Velocity P-wave (km/s) = 6.53546 7.26046 6.90748
#
# Compressibility (1/GPa) = 0.01972247
#
# Stress axis : x y z
#
# Youngs Moduli (GPa) = 31.37559 73.11704 76.35975
#
# Poissons Ratio (x) = 0.65291 0.48261
# Poissons Ratio (y) = 0.28017 0.32156
# Poissons Ratio (z) = 0.19830 0.30791
#
# Static dielectric constant tensor:
#      x y z
#    x 3.051850 0.000000 0.000000 
#    y 0.000000 3.494550 0.000000 
#    z 0.000000 0.000000 3.569470 
# 
# 
# High freq. dielectric constant tensor:
#      x y z
#    x 1.679400 0.000000 0.000000 
#    y 0.000000 1.716580 0.000000 
#    z 0.000000 0.000000 1.715610 
# 
# From -- ./inp_files/33879.got.cif
#   From: 2010.03.12/outbox.cif.g09.slc.cpg/sg53_17_cif.got.tgz:33879.got - 2010.04.16 14:36:59.
