data_PCOD8218347
_publ_section_title
;
Structure prediction by ZEFSAII (Michael W. Deem and Ramdas Pophale) SiO2 
 PCOD8218347
Probable space group: P M N A
;
_chemical_formula_sum "Si O2"
_cell_formula_units_Z 56
_cell_length_a 9.386040
_cell_length_b 16.083087
_cell_length_c 21.023712
_cell_angle_alpha 90.000000
_cell_angle_beta 90.000000
_cell_angle_gamma 90.000000
_cell_volume 3173.665936
_symmetry_space_group_name_H-M "P M N A"
_symmetry_group_IT_number 53
_symmetry_cell_setting 'orthorhombic'
loop_
_space_group_symop_operation_xyz
x,y,z
1/2-x,-y,1/2+z
x,-y,-z
1/2-x,y,1/2-z
-x,-y,-z
1/2+x,y,1/2-z
-x,y,z
1/2+x,-y,1/2+z
loop_
_atom_site_type_symbol
_atom_site_label
_atom_site_fract_x
_atom_site_fract_y
_atom_site_fract_z
Si Si1 0.660037 0.981261 0.190171
Si Si2 0.838293 0.821824 0.690562
Si Si3 0.840122 0.567068 0.587477
Si Si4 0.841902 0.238552 0.963079
Si Si5 0.157327 0.714083 0.893318
Si Si6 0.831170 0.071814 0.550212
Si Si7 0.840399 0.386428 0.559694
O O1 0.750000 0.945958 0.250000
O O2 0.500000 0.949035 0.200466
O O3 0.718146 0.951171 0.121851
O O4 0.665555 0.079813 0.189033
O O5 0.750000 0.786064 0.750000
O O6 0.758876 0.789084 0.628295
O O7 0.000000 0.788900 0.692831
O O8 0.730757 0.626160 0.625602
O O9 0.788569 0.471291 0.594282
O O10 0.841779 0.596338 0.514956
O O11 0.000000 0.576447 0.615336
O O12 0.751164 0.154887 0.968012
O O13 0.761162 0.308984 0.921177
O O14 0.000000 0.221156 0.934520
O O15 0.859230 0.277587 0.031984
O O16 0.000000 0.718446 0.861565
O O17 0.000000 0.087364 0.546434
O O18 0.787221 0.000000 0.500000
O O19 0.000000 0.363501 0.582118
#
# Coordination Sequence:
#
# PCOD8218347 Si02
#       7
#     8   8   8   8   8   8   8
#     4   9  19  34  52  72  93 123 161 201 243 286
#     4  10  19  32  49  67  89 118 154 194 234 278
#     4   8  14  25  42  63  86 117 154 187 222 267
#     4  10  20  30  43  67  97 126 155 192 238 282
#     4  10  19  29  42  65  96 126 155 187 229 280
#     4  10  20  34  51  71  96 127 164 202 242 291
#     4   8  14  26  43  62  87 119 154 188 223 271
#
# _framework density 17.645209999999999
#
# number of rings (size 3 to 8) (size 9 to 14) (size 15 to 20)
#    0.000    2.714    0.000    3.000    0.000    4.857 
#    0.000    2.857    0.000    0.000    0.000    1.000 
#    0.000    4.571    0.000    0.000    0.000    0.000 
#
# Total GULP energy -694025.219081 kJ/mol
# GULP energy per Si atom -12393.307484 kJ/mol
# Density = 1.760505 g / cm^3
# Si number density = 17.645210 Si / 1000 Ang^3
#
#
#
# Elastic Constant Matrix: (Units=GPa)
#
#
# Indices 1 2 3 4 5 6 
#
# 1 112.4165 52.0601 25.3764 0.0000 0.0000 0.0000
# 2 52.0601 82.6476 20.4121 0.0000 0.0000 0.0000
# 3 25.3764 20.4121 45.4788 0.0000 0.0000 0.0000
# 4 0.0000 0.0000 0.0000 10.6299 0.0000 0.0000
# 5 0.0000 0.0000 0.0000 0.0000 22.5853 0.0000
# 6 0.0000 0.0000 0.0000 0.0000 0.0000 25.3678
#
#
#
# Elastic Compliance Matrix: (Units=1/GPa)
#
#
# Indices 1 2 3 4 5 6 
#
# 1 0.013202 -0.007306 -0.004087 0.000000 0.000000 0.000000
# 2 -0.007306 0.017652 -0.003846 0.000000 0.000000 0.000000
# 3 -0.004087 -0.003846 0.025995 0.000000 0.000000 0.000000
# 4 0.000000 0.000000 0.000000 0.094074 0.000000 0.000000
# 5 0.000000 0.000000 0.000000 0.000000 0.044277 0.000000
# 6 0.000000 0.000000 0.000000 0.000000 0.000000 0.039420
#
#
# Mechanical properties :
#
#
# Convention : Reuss Voigt Hill
#
# Bulk Modulus (GPa) = 37.92194 48.47112 43.19653
# Shear Modulus (GPa) = 18.25569 21.22955 19.74262
#
# Velocity S-wave (km/s) = 3.22001 3.47238 3.34857
# Velocity P-wave (km/s) = 5.94665 6.60349 6.28366
#
# Compressibility (1/GPa) = 0.02636996
#
# Stress axis : x y z
#
# Youngs Moduli (GPa) = 75.74804 56.65176 38.46919
#
# Poissons Ratio (x) = 0.41392 0.15722
# Poissons Ratio (y) = 0.55344 0.14794
# Poissons Ratio (z) = 0.30958 0.21787
#
# Static dielectric constant tensor:
#      x y z
#    x 3.667290 0.000000 0.000000 
#    y 0.000000 3.268160 0.000000 
#    z 0.000000 0.000000 2.984490 
# 
# 
# High freq. dielectric constant tensor:
#      x y z
#    x 1.691580 0.000000 0.000000 
#    y 0.000000 1.677210 0.000000 
#    z 0.000000 0.000000 1.631830 
# 
# From -- ./inp_files/30744.got.cif
#   From: 2010.03.12/outbox.cif.g09.slc.cpg/sg53_16_cif.got.tgz:30744.got - 2010.04.16 14:36:59.
