data_PCOD8218079
_publ_section_title
;
Structure prediction by ZEFSAII (Michael W. Deem and Ramdas Pophale) SiO2 
 PCOD8218079
Probable space group: P M N A
;
_chemical_formula_sum "Si O2"
_cell_formula_units_Z 48
_cell_length_a 8.862755
_cell_length_b 10.380317
_cell_length_c 28.111613
_cell_angle_alpha 90.000000
_cell_angle_beta 90.000000
_cell_angle_gamma 90.000000
_cell_volume 2586.217975
_symmetry_space_group_name_H-M "P M N A"
_symmetry_group_IT_number 53
_symmetry_cell_setting 'orthorhombic'
loop_
_space_group_symop_operation_xyz
x,y,z
1/2-x,-y,1/2+z
x,-y,-z
1/2-x,y,1/2-z
-x,-y,-z
1/2+x,y,1/2-z
-x,y,z
1/2+x,-y,1/2+z
loop_
_atom_site_type_symbol
_atom_site_label
_atom_site_fract_x
_atom_site_fract_y
_atom_site_fract_z
Si Si1 0.678398 0.246375 0.560618
Si Si2 0.324171 0.507338 0.103048
Si Si3 0.176542 0.388536 0.297359
Si Si4 0.677455 0.112725 0.297559
Si Si5 0.677248 0.020840 0.398619
Si Si6 0.321719 0.272881 0.451151
O O1 0.500000 0.255248 0.567917
O O2 0.755366 0.354336 0.592426
O O3 0.743458 0.109002 0.578430
O O4 0.724199 0.263756 0.506032
O O5 0.500000 0.507489 0.091861
O O6 0.290661 0.481150 0.158417
O O7 0.249949 0.400863 0.069754
O O8 0.250000 0.451246 0.250000
O O9 0.253527 0.252131 0.307756
O O10 0.000000 0.366348 0.289083
O O11 0.750000 0.050749 0.250000
O O12 0.500000 0.127918 0.290238
O O13 0.715950 0.022407 0.342493
O O14 0.500000 0.023813 0.407722
O O15 0.745344 0.147153 0.424461
O O16 0.500000 0.283222 0.444254
#
# Coordination Sequence:
#
# PCOD8218079 Si02
#       6
#     8   8   8   8   8   8
#     4  10  21  36  56  80 108 144 185 224 264 314
#     4  11  23  37  53  79 114 145 176 218 272 326
#     4  10  20  34  54  79 105 136 176 221 266 313
#     4  10  18  31  54  81 108 136 171 218 269 317
#     4   9  18  34  56  82 108 137 178 226 268 308
#     4  10  19  35  59  82 104 139 187 230 264 308
#
# _framework density 18.559920999999999
#
# number of rings (size 3 to 8) (size 9 to 14) (size 15 to 20)
#    0.000    2.000    1.667    3.500    0.000    6.667 
#    0.000    3.333    0.000    6.000    0.000    0.000 
#    0.000    0.000    0.000    0.000    0.000    0.000 
#
# Total GULP energy -595236.877907 kJ/mol
# GULP energy per Si atom -12400.768290 kJ/mol
# Density = 1.851768 g / cm^3
# Si number density = 18.559921 Si / 1000 Ang^3
#
#
#
# Elastic Constant Matrix: (Units=GPa)
#
#
# Indices 1 2 3 4 5 6 
#
# 1 60.9386 21.4035 48.9964 0.0000 0.0000 0.0000
# 2 21.4035 97.0571 47.1193 0.0000 0.0000 0.0000
# 3 48.9964 47.1193 127.8441 0.0000 0.0000 0.0000
# 4 0.0000 0.0000 0.0000 15.5618 0.0000 0.0000
# 5 0.0000 0.0000 0.0000 0.0000 26.2077 0.0000
# 6 0.0000 0.0000 0.0000 0.0000 0.0000 5.1887
#
#
#
# Elastic Compliance Matrix: (Units=1/GPa)
#
#
# Indices 1 2 3 4 5 6 
#
# 1 0.023798 -0.000999 -0.008752 0.000000 0.000000 0.000000
# 2 -0.000999 0.012590 -0.004258 0.000000 0.000000 0.000000
# 3 -0.008752 -0.004258 0.012746 0.000000 0.000000 0.000000
# 4 0.000000 0.000000 0.000000 0.064260 0.000000 0.000000
# 5 0.000000 0.000000 0.000000 0.000000 0.038157 0.000000
# 6 0.000000 0.000000 0.000000 0.000000 0.000000 0.192725
#
#
# Mechanical properties :
#
#
# Convention : Reuss Voigt Hill
#
# Bulk Modulus (GPa) = 47.35703 57.87536 52.61619
# Shear Modulus (GPa) = 13.18103 20.61302 16.89702
#
# Velocity S-wave (km/s) = 2.66783 3.33621 3.02056
# Velocity P-wave (km/s) = 5.92122 6.78904 6.36993
#
# Compressibility (1/GPa) = 0.02111619
#
# Stress axis : x y z
#
# Youngs Moduli (GPa) = 42.02024 79.42509 78.45820
#
# Poissons Ratio (x) = 0.07934 0.68670
# Poissons Ratio (y) = 0.04197 0.33404
# Poissons Ratio (z) = 0.36778 0.33816
#
# Static dielectric constant tensor:
#      x y z
#    x 3.296440 0.000000 0.000000 
#    y 0.000000 3.375320 0.000000 
#    z 0.000000 0.000000 3.716160 
# 
# 
# High freq. dielectric constant tensor:
#      x y z
#    x 1.707030 0.000000 0.000000 
#    y 0.000000 1.706290 0.000000 
#    z 0.000000 0.000000 1.739300 
# 
# From -- ./inp_files/37702.got.cif
#   From: 2010.03.12/outbox.cif.g09.slc.cpg/sg53_19_cif.got.tgz:37702.got - 2010.04.16 14:36:59.
