data_PCOD8218336
_publ_section_title
;
Structure prediction by ZEFSAII (Michael W. Deem and Ramdas Pophale) SiO2 
 PCOD8218336
Probable space group: P M N A
;
_chemical_formula_sum "Si O2"
_cell_formula_units_Z 64
_cell_length_a 8.869283
_cell_length_b 26.067796
_cell_length_c 18.142540
_cell_angle_alpha 90.000000
_cell_angle_beta 90.000000
_cell_angle_gamma 90.000000
_cell_volume 4194.603506
_symmetry_space_group_name_H-M "P M N A"
_symmetry_group_IT_number 53
_symmetry_cell_setting 'orthorhombic'
loop_
_space_group_symop_operation_xyz
x,y,z
1/2-x,-y,1/2+z
x,-y,-z
1/2-x,y,1/2-z
-x,-y,-z
1/2+x,y,1/2-z
-x,y,z
1/2+x,-y,1/2+z
loop_
_atom_site_type_symbol
_atom_site_label
_atom_site_fract_x
_atom_site_fract_y
_atom_site_fract_z
Si Si1 0.823708 0.507181 0.329149
Si Si2 0.329907 0.550953 0.548139
Si Si3 0.178764 0.895574 0.411378
Si Si4 0.324667 0.689546 0.326619
Si Si5 0.676282 0.392865 0.923542
Si Si6 0.175886 0.808501 0.173208
Si Si7 0.166016 0.048920 0.448100
Si Si8 0.822103 0.990328 0.171778
O O1 0.750000 0.508404 0.250000
O O2 0.754752 0.459903 0.375208
O O3 0.786371 0.560920 0.368075
O O4 0.000000 0.497843 0.321773
O O5 0.326588 0.500000 0.500000
O O6 0.500000 0.568677 0.564734
O O7 0.244493 0.595838 0.504119
O O8 0.244419 0.839951 0.391905
O O9 0.219241 0.904979 0.497835
O O10 0.254953 0.937459 0.358608
O O11 0.000000 0.898036 0.398739
O O12 0.250000 0.672434 0.250000
O O13 0.500000 0.676560 0.320850
O O14 0.251993 0.658587 0.393506
O O15 0.294124 0.749005 0.343099
O O16 0.500000 0.383929 0.932364
O O17 0.250000 0.825322 0.250000
O O18 0.000000 0.821520 0.176662
O O19 0.000000 0.060472 0.414442
O O20 0.153913 0.000000 0.500000
O O21 0.282946 0.038169 0.382265
O O22 0.750000 0.003095 0.250000
O O23 0.000000 0.984912 0.179048
#
# Coordination Sequence:
#
# PCOD8218336 Si02
#       8
#     8   8   8   8   8   8   8   8
#     4  10  19  29  42  62  87 114 145 178 213 253
#     4   9  17  29  44  61  83 111 142 176 213 253
#     4  10  19  31  46  62  84 113 143 176 214 254
#     4  10  20  32  45  62  85 113 145 182 218 251
#     4  10  19  30  45  63  85 114 146 179 214 255
#     4  10  20  32  45  62  85 112 145 182 216 251
#     4   8  16  30  44  60  83 109 138 173 211 250
#     4  11  20  29  43  62  86 114 144 176 209 249
#
# _framework density 15.257699000000001
#
# number of rings (size 3 to 8) (size 9 to 14) (size 15 to 20)
#    0.000    2.250    0.000    4.875    0.000    8.250 
#    0.000    0.000    0.000    0.000    0.000    0.000 
#    0.000    1.000    0.000    6.750    0.000    5.000 
#
# Total GULP energy -793616.832616 kJ/mol
# GULP energy per Si atom -12400.263010 kJ/mol
# Density = 1.522297 g / cm^3
# Si number density = 15.257699 Si / 1000 Ang^3
#
#
#
# Elastic Constant Matrix: (Units=GPa)
#
#
# Indices 1 2 3 4 5 6 
#
# 1 114.3165 43.5509 58.5381 0.0000 0.0000 0.0000
# 2 43.5509 58.7148 35.6800 0.0000 0.0000 0.0000
# 3 58.5381 35.6800 79.9657 0.0000 0.0000 0.0000
# 4 0.0000 0.0000 0.0000 27.8831 0.0000 0.0000
# 5 0.0000 0.0000 0.0000 0.0000 29.2170 0.0000
# 6 0.0000 0.0000 0.0000 0.0000 0.0000 19.8936
#
#
#
# Elastic Compliance Matrix: (Units=1/GPa)
#
#
# Indices 1 2 3 4 5 6 
#
# 1 0.015537 -0.006329 -0.008550 0.000000 0.000000 0.000000
# 2 -0.006329 0.025945 -0.006944 0.000000 0.000000 0.000000
# 3 -0.008550 -0.006944 0.021862 0.000000 0.000000 0.000000
# 4 0.000000 0.000000 0.000000 0.035864 0.000000 0.000000
# 5 0.000000 0.000000 0.000000 0.000000 0.034227 0.000000
# 6 0.000000 0.000000 0.000000 0.000000 0.000000 0.050267
#
#
# Mechanical properties :
#
#
# Convention : Reuss Voigt Hill
#
# Bulk Modulus (GPa) = 50.76110 58.72612 54.74361
# Shear Modulus (GPa) = 21.37546 23.08062 22.22804
#
# Velocity S-wave (km/s) = 3.74700 3.89359 3.82100
# Velocity P-wave (km/s) = 7.21536 7.66723 7.44473
#
# Compressibility (1/GPa) = 0.01970012
#
# Stress axis : x y z
#
# Youngs Moduli (GPa) = 64.36378 38.54270 45.74082
#
# Poissons Ratio (x) = 0.24392 0.39107
# Poissons Ratio (y) = 0.40733 0.31761
# Poissons Ratio (z) = 0.55029 0.26763
#
# Static dielectric constant tensor:
#      x y z
#    x 3.093420 0.000000 0.000000 
#    y 0.000000 2.808410 0.000000 
#    z 0.000000 0.000000 3.040570 
# 
# 
# High freq. dielectric constant tensor:
#      x y z
#    x 1.605110 0.000000 0.000000 
#    y 0.000000 1.550070 0.000000 
#    z 0.000000 0.000000 1.572350 
# 
# From -- ./inp_files/27031.got.cif
#   From: 2010.03.12/outbox.cif.g09.slc.cpg/sg53_14_cif.got.tgz:27031.got - 2010.04.16 14:36:59.
