data_PCOD8218835
_publ_section_title
;
Structure prediction by ZEFSAII (Michael W. Deem and Ramdas Pophale) SiO2 
 PCOD8218835
Probable space group: P M N A
;
_chemical_formula_sum "Si O2"
_cell_formula_units_Z 64
_cell_length_a 9.053314
_cell_length_b 12.679332
_cell_length_c 29.500714
_cell_angle_alpha 90.000000
_cell_angle_beta 90.000000
_cell_angle_gamma 90.000000
_cell_volume 3386.386190
_symmetry_space_group_name_H-M "P M N A"
_symmetry_group_IT_number 53
_symmetry_cell_setting 'orthorhombic'
loop_
_space_group_symop_operation_xyz
x,y,z
1/2-x,-y,1/2+z
x,-y,-z
1/2-x,y,1/2-z
-x,-y,-z
1/2+x,y,1/2-z
-x,y,z
1/2+x,-y,1/2+z
loop_
_atom_site_type_symbol
_atom_site_label
_atom_site_fract_x
_atom_site_fract_y
_atom_site_fract_z
Si Si1 0.675556 0.037260 0.887141
Si Si2 0.828694 0.895029 0.204812
Si Si3 0.671411 0.564803 0.705301
Si Si4 0.834074 0.665336 0.175453
Si Si5 0.175990 0.383652 0.386118
Si Si6 0.324929 0.175006 0.064399
Si Si7 0.175218 0.804006 0.464355
Si Si8 0.326761 0.609873 0.088529
O O1 0.500000 0.045936 0.880279
O O2 0.724981 0.922342 0.904786
O O3 0.754409 0.055033 0.839439
O O4 0.735293 0.119878 0.924699
O O5 0.750000 0.939818 0.250000
O O6 0.808054 0.768668 0.205543
O O7 0.000000 0.927582 0.205703
O O8 0.750000 0.610154 0.750000
O O9 0.500000 0.595743 0.705923
O O10 0.695944 0.438721 0.704992
O O11 0.748330 0.619878 0.662699
O O12 0.724706 0.670292 0.133321
O O13 0.000000 0.662598 0.155857
O O14 0.234028 0.283381 0.413894
O O15 0.230823 0.489058 0.413219
O O16 0.000000 0.382491 0.379586
O O17 0.500000 0.179152 0.060896
O O18 0.259186 0.164105 0.013383
O O19 0.222250 0.681991 0.454153
O O20 0.000000 0.815923 0.465306
O O21 0.500000 0.606380 0.091357
#
# Coordination Sequence:
#
# PCOD8218835 Si02
#       8
#     8   8   8   8   8   8   8   8
#     4  10  19  34  55  77 105 138 175 217 257 301
#     4  11  22  35  53  78 107 137 170 210 260 314
#     4  10  19  32  51  75 101 133 172 212 256 308
#     4   9  18  31  48  73 106 137 163 201 253 310
#     4   9  18  32  49  73 106 139 172 211 256 303
#     4   9  18  32  52  77 104 138 178 217 255 300
#     4   9  16  28  51  82 107 133 172 215 260 305
#     4   9  16  27  48  77 107 136 165 206 252 299
#
# _framework density 18.899203
#
# number of rings (size 3 to 8) (size 9 to 14) (size 15 to 20)
#    0.000    2.500    1.250    1.500    0.000    3.000 
#    0.000    3.750    0.000    3.750    0.000    3.500 
#    0.000    0.000    0.000    0.000    0.000    0.000 
#
# Total GULP energy -793316.194240 kJ/mol
# GULP energy per Si atom -12395.565535 kJ/mol
# Density = 1.885619 g / cm^3
# Si number density = 18.899203 Si / 1000 Ang^3
#
#
#
# Elastic Constant Matrix: (Units=GPa)
#
#
# Indices 1 2 3 4 5 6 
#
# 1 26.6640 36.9337 37.8837 0.0000 0.0000 0.0000
# 2 36.9337 100.2557 77.5400 0.0000 0.0000 0.0000
# 3 37.8837 77.5400 158.2574 0.0000 0.0000 0.0000
# 4 0.0000 0.0000 0.0000 18.4654 0.0000 0.0000
# 5 0.0000 0.0000 0.0000 0.0000 22.6573 0.0000
# 6 0.0000 0.0000 0.0000 0.0000 0.0000 6.0648
#
#
#
# Elastic Compliance Matrix: (Units=1/GPa)
#
#
# Indices 1 2 3 4 5 6 
#
# 1 0.082140 -0.024237 -0.007788 0.000000 0.000000 0.000000
# 2 -0.024237 0.023212 -0.005571 0.000000 0.000000 0.000000
# 3 -0.007788 -0.005571 0.010913 0.000000 0.000000 0.000000
# 4 0.000000 0.000000 0.000000 0.054155 0.000000 0.000000
# 5 0.000000 0.000000 0.000000 0.000000 0.044136 0.000000
# 6 0.000000 0.000000 0.000000 0.000000 0.000000 0.164887
#
#
# Mechanical properties :
#
#
# Convention : Reuss Voigt Hill
#
# Bulk Modulus (GPa) = 24.34668 65.54352 44.94510
# Shear Modulus (GPa) = 10.67637 18.29215 14.48426
#
# Velocity S-wave (km/s) = 2.37936 3.11445 2.77139
# Velocity P-wave (km/s) = 4.52315 6.90572 5.83729
#
# Compressibility (1/GPa) = 0.04107336
#
# Stress axis : x y z
#
# Youngs Moduli (GPa) = 12.17441 43.08099 91.63648
#
# Poissons Ratio (x) = 1.04414 0.71362
# Poissons Ratio (y) = 0.29507 0.51053
# Poissons Ratio (z) = 0.09481 0.24001
#
# Static dielectric constant tensor:
#      x y z
#    x 3.175590 0.000000 0.000000 
#    y 0.000000 3.603530 0.000000 
#    z 0.000000 0.000000 3.462100 
# 
# 
# High freq. dielectric constant tensor:
#      x y z
#    x 1.701530 0.000000 0.000000 
#    y 0.000000 1.727030 0.000000 
#    z 0.000000 0.000000 1.734790 
# 
# From -- ./inp_files/38311.got.cif
#   From: 2010.03.12/outbox.cif.g09.slc.cpg/sg53_20_cif.got.tgz:38311.got - 2010.04.16 14:36:59.
