data_PCOD8218717
_publ_section_title
;
Structure prediction by ZEFSAII (Michael W. Deem and Ramdas Pophale) SiO2 
 PCOD8218717
Probable space group: P M N A
;
_chemical_formula_sum "Si O2"
_cell_formula_units_Z 56
_cell_length_a 8.523933
_cell_length_b 22.751100
_cell_length_c 14.241644
_cell_angle_alpha 90.000000
_cell_angle_beta 90.000000
_cell_angle_gamma 90.000000
_cell_volume 2761.865673
_symmetry_space_group_name_H-M "P M N A"
_symmetry_group_IT_number 53
_symmetry_cell_setting 'orthorhombic'
loop_
_space_group_symop_operation_xyz
x,y,z
1/2-x,-y,1/2+z
x,-y,-z
1/2-x,y,1/2-z
-x,-y,-z
1/2+x,y,1/2-z
-x,y,z
1/2+x,-y,1/2+z
loop_
_atom_site_type_symbol
_atom_site_label
_atom_site_fract_x
_atom_site_fract_y
_atom_site_fract_z
Si Si1 0.683378 0.691298 0.855206
Si Si2 0.817948 0.203277 0.034563
Si Si3 0.186287 0.529716 0.355022
Si Si4 0.181101 0.900972 0.839368
Si Si5 0.814710 0.581312 0.960103
Si Si6 0.813255 0.978170 0.099697
Si Si7 0.184768 0.148967 0.847250
O O1 0.750000 0.692701 0.750000
O O2 0.500000 0.676211 0.850676
O O3 0.708312 0.752980 0.907593
O O4 0.774136 0.644655 0.919390
O O5 0.783770 0.136659 0.068078
O O6 0.000000 0.221172 0.050033
O O7 0.771919 0.198638 0.924864
O O8 0.250000 0.543019 0.250000
O O9 0.251710 0.575790 0.432673
O O10 0.236687 0.465230 0.389263
O O11 0.000000 0.534217 0.352200
O O12 0.250000 0.866308 0.750000
O O13 0.000000 0.906288 0.824962
O O14 0.249068 0.967428 0.837784
O O15 0.000000 0.570882 0.961062
O O16 0.739786 0.915713 0.132089
O O17 0.000000 0.971813 0.097707
O O18 0.751214 0.000000 0.000000
O O19 0.250000 0.173913 0.750000
O O20 0.000000 0.142152 0.842429
#
# Coordination Sequence:
#
# PCOD8218717 Si02
#       7
#     8   8   8   8   8   8   8
#     4  12  25  42  63  88 117 153 194 242 295 351
#     4  10  21  38  57  79 107 145 189 235 284 342
#     4  11  21  37  61  94 133 172 210 250 297 350
#     4  10  19  31  51  76 104 136 175 219 274 337
#     4  11  22  39  62  92 127 165 208 254 300 351
#     4   9  15  29  52  76 102 139 178 218 274 342
#     4  10  20  35  57  80 107 143 186 232 286 348
#
# _framework density 20.276150000000001
#
# number of rings (size 3 to 8) (size 9 to 14) (size 15 to 20)
#    0.000    1.571    1.429    6.000    0.000    2.286 
#    0.000    0.714    0.000    2.571    0.000    0.000 
#    0.000    0.000    0.000    0.000    0.000    0.000 
#
# Total GULP energy -693944.790204 kJ/mol
# GULP energy per Si atom -12391.871254 kJ/mol
# Density = 2.023000 g / cm^3
# Si number density = 20.276150 Si / 1000 Ang^3
#
#
#
# Elastic Constant Matrix: (Units=GPa)
#
#
# Indices 1 2 3 4 5 6 
#
# 1 69.3019 30.7192 41.8266 0.0000 0.0000 0.0000
# 2 30.7192 75.3031 43.8637 0.0000 0.0000 0.0000
# 3 41.8266 43.8637 171.6065 0.0000 0.0000 0.0000
# 4 0.0000 0.0000 0.0000 9.4575 0.0000 0.0000
# 5 0.0000 0.0000 0.0000 0.0000 33.8474 0.0000
# 6 0.0000 0.0000 0.0000 0.0000 0.0000 23.3431
#
#
#
# Elastic Compliance Matrix: (Units=1/GPa)
#
#
# Indices 1 2 3 4 5 6 
#
# 1 0.018922 -0.005913 -0.003101 0.000000 0.000000 0.000000
# 2 -0.005913 0.017450 -0.003019 0.000000 0.000000 0.000000
# 3 -0.003101 -0.003019 0.007355 0.000000 0.000000 0.000000
# 4 0.000000 0.000000 0.000000 0.105736 0.000000 0.000000
# 5 0.000000 0.000000 0.000000 0.000000 0.029544 0.000000
# 6 0.000000 0.000000 0.000000 0.000000 0.000000 0.042839
#
#
# Mechanical properties :
#
#
# Convention : Reuss Voigt Hill
#
# Bulk Modulus (GPa) = 50.86049 61.00338 55.93193
# Shear Modulus (GPa) = 19.80461 26.64973 23.22717
#
# Velocity S-wave (km/s) = 3.12868 3.62931 3.38826
# Velocity P-wave (km/s) = 6.17980 6.90754 6.55378
#
# Compressibility (1/GPa) = 0.01966163
#
# Stress axis : x y z
#
# Youngs Moduli (GPa) = 52.84869 57.30496 135.96674
#
# Poissons Ratio (x) = 0.33884 0.42157
# Poissons Ratio (y) = 0.31249 0.41052
# Poissons Ratio (z) = 0.16386 0.17302
#
# Static dielectric constant tensor:
#      x y z
#    x 3.472560 0.000000 0.000000 
#    y 0.000000 3.673710 0.000000 
#    z 0.000000 0.000000 4.147910 
# 
# 
# High freq. dielectric constant tensor:
#      x y z
#    x 1.776110 0.000000 0.000000 
#    y 0.000000 1.776300 0.000000 
#    z 0.000000 0.000000 1.810440 
# 
# From -- ./inp_files/20606.got.cif
#   From: 2010.03.12/outbox.cif.g09.slc.cpg/sg53_11_cif.got.tgz:20606.got - 2010.04.16 14:36:59.
