data_PCOD8218510
_publ_section_title
;
Structure prediction by ZEFSAII (Michael W. Deem and Ramdas Pophale) SiO2 
 PCOD8218510
Probable space group: P M N A
;
_chemical_formula_sum "Si O2"
_cell_formula_units_Z 64
_cell_length_a 14.696078
_cell_length_b 11.834686
_cell_length_c 19.275373
_cell_angle_alpha 90.000000
_cell_angle_beta 90.000000
_cell_angle_gamma 90.000000
_cell_volume 3352.439730
_symmetry_space_group_name_H-M "P M N A"
_symmetry_group_IT_number 53
_symmetry_cell_setting 'orthorhombic'
loop_
_space_group_symop_operation_xyz
x,y,z
1/2-x,-y,1/2+z
x,-y,-z
1/2-x,y,1/2-z
-x,-y,-z
1/2+x,y,1/2-z
-x,y,z
1/2+x,-y,1/2+z
loop_
_atom_site_type_symbol
_atom_site_label
_atom_site_fract_x
_atom_site_fract_y
_atom_site_fract_z
Si Si1 0.709441 0.267544 0.597440
Si Si2 0.396329 0.628869 0.521002
Si Si3 0.394681 0.637053 0.677309
Si Si4 0.106118 0.889370 0.808695
Si Si5 0.097549 0.723829 0.347563
Si Si6 0.654340 0.599843 0.277158
Si Si7 0.227563 0.990568 0.083071
Si Si8 0.103267 0.017712 0.670900
O O1 0.674326 0.295051 0.521133
O O2 0.815818 0.306919 0.604094
O O3 0.641732 0.336225 0.649247
O O4 0.700372 0.134143 0.609068
O O5 0.388790 0.500000 0.500000
O O6 0.500000 0.673312 0.511950
O O7 0.360972 0.642021 0.598703
O O8 0.500000 0.604029 0.679264
O O9 0.374046 0.758464 0.711324
O O10 0.344505 0.535756 0.717005
O O11 0.000000 0.906632 0.825343
O O12 0.159126 0.923949 0.878613
O O13 0.137727 0.961159 0.742334
O O14 0.084598 0.640853 0.281482
O O15 0.109556 0.848990 0.317038
O O16 0.000000 0.715143 0.388563
O O17 0.750000 0.644776 0.250000
O O18 0.330742 0.019176 0.107668
O O19 0.220939 0.000000 0.000000
O O20 0.000000 0.978685 0.652985
#
# Coordination Sequence:
#
# PCOD8218510 Si02
#       8
#     8   8   8   8   8   8   8   8
#     4  10  20  34  51  77 106 132 172 216 258 315
#     4  10  19  32  52  76 104 139 170 208 264 317
#     4  10  20  34  51  75 105 136 174 213 256 316
#     4  10  21  36  54  77 110 147 177 215 270 329
#     4   9  18  33  54  77 103 132 169 219 267 306
#     4  10  19  30  49  78 101 131 169 213 263 306
#     4  11  22  35  55  81 109 143 179 224 274 319
#     4   9  19  37  58  79 104 141 184 225 271 320
#
# _framework density 19.090575000000001
#
# number of rings (size 3 to 8) (size 9 to 14) (size 15 to 20)
#    0.000    2.125    1.250    2.250    0.000    4.500 
#    0.000    0.000    0.000    0.375    0.000    0.000 
#    0.000    0.000    0.000    0.000    0.000    0.000 
#
# Total GULP energy -793339.366443 kJ/mol
# GULP energy per Si atom -12395.927601 kJ/mol
# Density = 1.904712 g / cm^3
# Si number density = 19.090575 Si / 1000 Ang^3
#
#
#
# Elastic Constant Matrix: (Units=GPa)
#
#
# Indices 1 2 3 4 5 6 
#
# 1 72.3558 27.8217 29.7459 0.0000 0.0000 0.0000
# 2 27.8217 82.0088 26.2005 0.0000 0.0000 0.0000
# 3 29.7459 26.2005 74.8410 0.0000 0.0000 0.0000
# 4 0.0000 0.0000 0.0000 29.6258 0.0000 0.0000
# 5 0.0000 0.0000 0.0000 0.0000 27.9317 0.0000
# 6 0.0000 0.0000 0.0000 0.0000 0.0000 15.1393
#
#
#
# Elastic Compliance Matrix: (Units=1/GPa)
#
#
# Indices 1 2 3 4 5 6 
#
# 1 0.017739 -0.004240 -0.005566 0.000000 0.000000 0.000000
# 2 -0.004240 0.014743 -0.003476 0.000000 0.000000 0.000000
# 3 -0.005566 -0.003476 0.016791 0.000000 0.000000 0.000000
# 4 0.000000 0.000000 0.000000 0.033754 0.000000 0.000000
# 5 0.000000 0.000000 0.000000 0.000000 0.035802 0.000000
# 6 0.000000 0.000000 0.000000 0.000000 0.000000 0.066053
#
#
# Mechanical properties :
#
#
# Convention : Reuss Voigt Hill
#
# Bulk Modulus (GPa) = 44.03603 44.08241 44.05922
# Shear Modulus (GPa) = 22.82945 24.23521 23.53233
#
# Velocity S-wave (km/s) = 3.46186 3.56685 3.51475
# Velocity P-wave (km/s) = 6.25270 6.33281 6.29288
#
# Compressibility (1/GPa) = 0.02270868
#
# Stress axis : x y z
#
# Youngs Moduli (GPa) = 56.37257 67.83019 59.55610
#
# Poissons Ratio (x) = 0.28758 0.33150
# Poissons Ratio (y) = 0.23900 0.20702
# Poissons Ratio (z) = 0.31378 0.23578
#
# Static dielectric constant tensor:
#      x y z
#    x 3.556560 0.000000 0.000000 
#    y 0.000000 3.484360 0.000000 
#    z 0.000000 0.000000 3.287340 
# 
# 
# High freq. dielectric constant tensor:
#      x y z
#    x 1.742220 0.000000 0.000000 
#    y 0.000000 1.743040 0.000000 
#    z 0.000000 0.000000 1.723060 
# 
# From -- ./inp_files/28562.got.cif
#   From: 2010.03.12/outbox.cif.g09.slc.cpg/sg53_15_cif.got.tgz:28562.got - 2010.04.16 14:36:59.
