data_PCOD8218217
_publ_section_title
;
Structure prediction by ZEFSAII (Michael W. Deem and Ramdas Pophale) SiO2 
 PCOD8218217
Probable space group: P M N A
;
_chemical_formula_sum "Si O2"
_cell_formula_units_Z 48
_cell_length_a 8.810839
_cell_length_b 9.658905
_cell_length_c 30.624639
_cell_angle_alpha 90.000000
_cell_angle_beta 90.000000
_cell_angle_gamma 90.000000
_cell_volume 2606.250394
_symmetry_space_group_name_H-M "P M N A"
_symmetry_group_IT_number 53
_symmetry_cell_setting 'orthorhombic'
loop_
_space_group_symop_operation_xyz
x,y,z
1/2-x,-y,1/2+z
x,-y,-z
1/2-x,y,1/2-z
-x,-y,-z
1/2+x,y,1/2-z
-x,y,z
1/2+x,-y,1/2+z
loop_
_atom_site_type_symbol
_atom_site_label
_atom_site_fract_x
_atom_site_fract_y
_atom_site_fract_z
Si Si1 0.319378 0.706260 0.611745
Si Si2 0.324309 0.201660 0.796620
Si Si3 0.322937 0.645316 0.515585
Si Si4 0.821264 0.570344 0.363977
Si Si5 0.177576 0.784629 0.071927
Si Si6 0.180075 0.994288 0.629025
O O1 0.500000 0.708209 0.614400
O O2 0.256099 0.693506 0.562112
O O3 0.254184 0.579875 0.640216
O O4 0.254364 0.844818 0.632932
O O5 0.250000 0.189727 0.750000
O O6 0.500000 0.182207 0.789019
O O7 0.287823 0.349480 0.818770
O O8 0.265873 0.080075 0.828532
O O9 0.248188 0.500000 0.500000
O O10 0.500000 0.618975 0.522672
O O11 0.293234 0.764427 0.479741
O O12 0.744986 0.650966 0.404007
O O13 0.000000 0.559872 0.372966
O O14 0.000000 0.795141 0.082645
O O15 0.259760 0.925853 0.086095
O O16 0.000000 0.983163 0.625871
#
# Coordination Sequence:
#
# PCOD8218217 Si02
#       6
#     8   8   8   8   8   8
#     4  11  21  35  56  81 108 147 192 226 264 320
#     4   9  20  38  61  83 106 136 173 217 269 329
#     4   9  17  31  51  78 110 142 185 238 274 299
#     4  10  20  35  54  81 114 142 170 220 279 319
#     4  10  18  33  56  78 104 146 193 229 260 314
#     4  10  22  39  54  78 116 147 174 224 286 327
#
# _framework density 18.417263999999999
#
# number of rings (size 3 to 8) (size 9 to 14) (size 15 to 20)
#    0.000    2.167    1.667    3.000    0.000    4.667 
#    0.000    8.333    0.000    0.000    0.000    0.000 
#    0.000    0.000    0.000    0.000    0.000    0.000 
#
# Total GULP energy -595209.121213 kJ/mol
# GULP energy per Si atom -12400.190025 kJ/mol
# Density = 1.837534 g / cm^3
# Si number density = 18.417264 Si / 1000 Ang^3
#
#
#
# Elastic Constant Matrix: (Units=GPa)
#
#
# Indices 1 2 3 4 5 6 
#
# 1 87.8236 52.4287 34.7289 0.0000 0.0000 0.0000
# 2 52.4287 149.7111 47.3976 0.0000 0.0000 0.0000
# 3 34.7289 47.3976 109.2100 0.0000 0.0000 0.0000
# 4 0.0000 0.0000 0.0000 17.9895 0.0000 0.0000
# 5 0.0000 0.0000 0.0000 0.0000 24.8646 0.0000
# 6 0.0000 0.0000 0.0000 0.0000 0.0000 30.3222
#
#
#
# Elastic Compliance Matrix: (Units=1/GPa)
#
#
# Indices 1 2 3 4 5 6 
#
# 1 0.015158 -0.004385 -0.002917 0.000000 0.000000 0.000000
# 2 -0.004385 0.009012 -0.002517 0.000000 0.000000 0.000000
# 3 -0.002917 -0.002517 0.011177 0.000000 0.000000 0.000000
# 4 0.000000 0.000000 0.000000 0.055588 0.000000 0.000000
# 5 0.000000 0.000000 0.000000 0.000000 0.040218 0.000000
# 6 0.000000 0.000000 0.000000 0.000000 0.000000 0.032979
#
#
# Mechanical properties :
#
#
# Convention : Reuss Voigt Hill
#
# Bulk Modulus (GPa) = 63.65879 68.42835 66.04357
# Shear Modulus (GPa) = 26.45439 28.78122 27.61781
#
# Velocity S-wave (km/s) = 3.79409 3.95743 3.87662
# Velocity P-wave (km/s) = 7.33711 7.62344 7.48164
#
# Compressibility (1/GPa) = 0.01570875
#
# Stress axis : x y z
#
# Youngs Moduli (GPa) = 65.97374 110.96511 89.47206
#
# Poissons Ratio (x) = 0.48654 0.26101
# Poissons Ratio (y) = 0.28927 0.22519
# Poissons Ratio (z) = 0.19246 0.27928
#
# Static dielectric constant tensor:
#      x y z
#    x 3.316330 0.000000 0.000000 
#    y 0.000000 3.415710 0.000000 
#    z 0.000000 0.000000 3.488120 
# 
# 
# High freq. dielectric constant tensor:
#      x y z
#    x 1.710520 0.000000 0.000000 
#    y 0.000000 1.716110 0.000000 
#    z 0.000000 0.000000 1.700740 
# 
# From -- ./inp_files/37734.got.cif
#   From: 2010.03.12/outbox.cif.g09.slc.cpg/sg53_19_cif.got.tgz:37734.got - 2010.04.16 14:36:59.
