data_PCOD8218239
_publ_section_title
;
Structure prediction by ZEFSAII (Michael W. Deem and Ramdas Pophale) SiO2 
 PCOD8218239
Probable space group: P M N A
;
_chemical_formula_sum "Si O2"
_cell_formula_units_Z 64
_cell_length_a 8.964939
_cell_length_b 15.458754
_cell_length_c 23.761721
_cell_angle_alpha 90.000000
_cell_angle_beta 90.000000
_cell_angle_gamma 90.000000
_cell_volume 3293.060558
_symmetry_space_group_name_H-M "P M N A"
_symmetry_group_IT_number 53
_symmetry_cell_setting 'orthorhombic'
loop_
_space_group_symop_operation_xyz
x,y,z
1/2-x,-y,1/2+z
x,-y,-z
1/2-x,y,1/2-z
-x,-y,-z
1/2+x,y,1/2-z
-x,y,z
1/2+x,-y,1/2+z
loop_
_atom_site_type_symbol
_atom_site_label
_atom_site_fract_x
_atom_site_fract_y
_atom_site_fract_z
Si Si1 0.825641 0.642827 0.502026
Si Si2 0.676417 0.905856 0.113905
Si Si3 0.676844 0.249754 0.309414
Si Si4 0.322815 0.749452 0.189665
Si Si5 0.176885 0.839034 0.502892
Si Si6 0.675515 0.590060 0.613500
Si Si7 0.673783 0.581405 0.121772
Si Si8 0.676581 0.900327 0.876383
O O1 0.767667 0.740814 0.498444
O O2 0.738230 0.593555 0.550602
O O3 0.790288 0.596366 0.443621
O O4 0.000000 0.639140 0.516623
O O5 0.500000 0.896130 0.109918
O O6 0.738860 0.833025 0.156041
O O7 0.720176 0.000457 0.136795
O O8 0.741560 0.891190 0.050848
O O9 0.750000 0.271397 0.250000
O O10 0.500000 0.243966 0.302779
O O11 0.726589 0.325661 0.351820
O O12 0.738153 0.158592 0.331716
O O13 0.250000 0.749814 0.250000
O O14 0.500000 0.752662 0.195132
O O15 0.270123 0.663642 0.157107
O O16 0.235774 0.880053 0.560812
O O17 0.000000 0.843505 0.502127
O O18 0.500000 0.582872 0.611541
O O19 0.739762 0.503782 0.643083
O O20 0.500000 0.566235 0.131778
O O21 0.500000 0.883813 0.870957
#
# Coordination Sequence:
#
# PCOD8218239 Si02
#       8
#     8   8   8   8   8   8   8   8
#     4  10  18  33  59  87 114 147 187 226 271 331
#     4   9  17  32  56  88 119 147 186 231 274 326
#     4  11  25  43  60  79 109 148 191 237 283 334
#     4  10  21  38  57  79 111 148 188 233 277 324
#     4   9  15  28  55  88 117 145 183 227 271 325
#     4  11  24  39  57  84 116 146 179 229 287 338
#     4  10  21  37  59  84 112 148 187 229 274 328
#     4  10  19  33  60  91 116 147 184 230 281 329
#
# _framework density 19.434809000000001
#
# number of rings (size 3 to 8) (size 9 to 14) (size 15 to 20)
#    0.000    2.000    2.500    1.500    0.000    6.500 
#    0.000    4.375    0.000    3.000    0.000    0.000 
#    0.000    0.000    0.000    0.000    0.000    0.000 
#
# Total GULP energy -793684.482354 kJ/mol
# GULP energy per Si atom -12401.320037 kJ/mol
# Density = 1.939057 g / cm^3
# Si number density = 19.434809 Si / 1000 Ang^3
#
#
#
# Elastic Constant Matrix: (Units=GPa)
#
#
# Indices 1 2 3 4 5 6 
#
# 1 34.5668 33.4792 32.9203 0.0000 0.0000 0.0000
# 2 33.4792 135.4351 44.4740 0.0000 0.0000 0.0000
# 3 32.9203 44.4740 106.2879 0.0000 0.0000 0.0000
# 4 0.0000 0.0000 0.0000 12.8804 0.0000 0.0000
# 5 0.0000 0.0000 0.0000 0.0000 24.6182 0.0000
# 6 0.0000 0.0000 0.0000 0.0000 0.0000 1.5152
#
#
#
# Elastic Compliance Matrix: (Units=1/GPa)
#
#
# Indices 1 2 3 4 5 6 
#
# 1 0.047513 -0.008014 -0.011363 0.000000 0.000000 0.000000
# 2 -0.008014 0.009911 -0.001665 0.000000 0.000000 0.000000
# 3 -0.011363 -0.001665 0.013625 0.000000 0.000000 0.000000
# 4 0.000000 0.000000 0.000000 0.077637 0.000000 0.000000
# 5 0.000000 0.000000 0.000000 0.000000 0.040620 0.000000
# 6 0.000000 0.000000 0.000000 0.000000 0.000000 0.659962
#
#
# Mechanical properties :
#
#
# Convention : Reuss Voigt Hill
#
# Bulk Modulus (GPa) = 34.52415 55.33742 44.93079
# Shear Modulus (GPa) = 5.54935 18.83052 12.18993
#
# Velocity S-wave (km/s) = 1.69162 3.11610 2.50716
# Velocity P-wave (km/s) = 4.64952 6.44065 5.61694
#
# Compressibility (1/GPa) = 0.02896523
#
# Stress axis : x y z
#
# Youngs Moduli (GPa) = 21.04703 100.89421 73.39693
#
# Poissons Ratio (x) = 0.80853 0.83400
# Poissons Ratio (y) = 0.16866 0.12222
# Poissons Ratio (z) = 0.23915 0.16800
#
# Static dielectric constant tensor:
#      x y z
#    x 3.144300 0.000000 0.000000 
#    y 0.000000 3.820290 0.000000 
#    z 0.000000 0.000000 3.576900 
# 
# 
# High freq. dielectric constant tensor:
#      x y z
#    x 1.717440 0.000000 0.000000 
#    y 0.000000 1.776100 0.000000 
#    z 0.000000 0.000000 1.756830 
# 
# From -- ./inp_files/34149.got.cif
#   From: 2010.03.12/outbox.cif.g09.slc.cpg/sg53_18_cif.got.tgz:34149.got - 2010.04.16 14:36:59.
