data_PCOD8218746
_publ_section_title
;
Structure prediction by ZEFSAII (Michael W. Deem and Ramdas Pophale) SiO2 
 PCOD8218746
Probable space group: P M N A
;
_chemical_formula_sum "Si O2"
_cell_formula_units_Z 44
_cell_length_a 31.454150
_cell_length_b 17.048514
_cell_length_c 5.117739
_cell_angle_alpha 90.000000
_cell_angle_beta 90.000000
_cell_angle_gamma 90.000000
_cell_volume 2744.369712
_symmetry_space_group_name_H-M "P M N A"
_symmetry_group_IT_number 53
_symmetry_cell_setting 'orthorhombic'
loop_
_space_group_symop_operation_xyz
x,y,z
1/2-x,-y,1/2+z
x,-y,-z
1/2-x,y,1/2-z
-x,-y,-z
1/2+x,y,1/2-z
-x,y,z
1/2+x,-y,1/2+z
loop_
_atom_site_type_symbol
_atom_site_label
_atom_site_fract_x
_atom_site_fract_y
_atom_site_fract_z
Si Si1 0.550426 0.317663 0.974311
Si Si2 0.628251 0.909979 0.566748
Si Si3 0.582868 0.147629 0.910414
Si Si4 0.727114 0.091911 0.494407
Si Si5 0.050428 0.587344 0.975009
Si Si6 0.500000 0.945475 0.241581
O O1 0.500000 0.304853 0.979929
O O2 0.572963 0.234560 0.007744
O O3 0.566439 0.358514 0.710621
O O4 0.565914 0.373546 0.207615
O O5 0.613182 0.851497 0.339723
O O6 0.677932 0.891943 0.560114
O O7 0.617897 0.000000 0.500000
O O8 0.605357 0.895998 0.845863
O O9 0.541216 0.108045 0.785877
O O10 0.750000 0.129331 0.750000
O O11 0.736276 0.000000 0.500000
O O12 0.750000 0.132155 0.250000
O O13 0.000000 0.581339 0.983068
O O14 0.069971 0.500000 0.000000
O O15 0.500000 0.000000 0.500000
O O16 0.500000 0.000000 0.000000
#
# Coordination Sequence:
#
# PCOD8218746 Si02
#       6
#     8   8   8   8   8   4
#     4  10  19  32  46  64  90 121 156 195 238 277
#     4  11  22  34  50  68  92 120 162 209 243 285
#     4  12  22  35  47  66  92 127 166 206 246 273
#     4   9  17  31  50  70  88 110 143 191 248 300
#     4   9  17  29  48  68  86 109 148 196 238 283
#     4  12  24  36  48  60  83 128 179 220 244 264
#
# _framework density 16.032824000000002
#
# number of rings (size 3 to 8) (size 9 to 14) (size 15 to 20)
#    0.000    1.636    0.909    6.000    0.000    5.091 
#    0.000    0.000    0.000    0.000    0.000    0.000 
#    0.000    0.000    0.000    0.000    0.000  229.091 
#
# Total GULP energy -545292.138273 kJ/mol
# GULP energy per Si atom -12393.003143 kJ/mol
# Density = 1.599633 g / cm^3
# Si number density = 16.032824 Si / 1000 Ang^3
#
#
#
# Elastic Constant Matrix: (Units=GPa)
#
#
# Indices 1 2 3 4 5 6 
#
# 1 67.5094 26.1989 48.9264 0.0000 0.0000 0.0000
# 2 26.1989 76.3545 25.5768 0.0000 0.0000 0.0000
# 3 48.9264 25.5768 132.3032 0.0000 0.0000 0.0000
# 4 0.0000 0.0000 0.0000 24.8657 0.0000 0.0000
# 5 0.0000 0.0000 0.0000 0.0000 23.2242 0.0000
# 6 0.0000 0.0000 0.0000 0.0000 0.0000 4.2210
#
#
#
# Elastic Compliance Matrix: (Units=1/GPa)
#
#
# Indices 1 2 3 4 5 6 
#
# 1 0.021982 -0.005153 -0.007133 0.000000 0.000000 0.000000
# 2 -0.005153 0.015212 -0.001035 0.000000 0.000000 0.000000
# 3 -0.007133 -0.001035 0.010396 0.000000 0.000000 0.000000
# 4 0.000000 0.000000 0.000000 0.040216 0.000000 0.000000
# 5 0.000000 0.000000 0.000000 0.000000 0.043059 0.000000
# 6 0.000000 0.000000 0.000000 0.000000 0.000000 0.236910
#
#
# Mechanical properties :
#
#
# Convention : Reuss Voigt Hill
#
# Bulk Modulus (GPa) = 47.73771 53.06348 50.40059
# Shear Modulus (GPa) = 12.45644 22.15984 17.30814
#
# Velocity S-wave (km/s) = 2.79038 3.72177 3.28921
# Velocity P-wave (km/s) = 6.34202 7.18591 6.77712
#
# Compressibility (1/GPa) = 0.02094780
#
# Stress axis : x y z
#
# Youngs Moduli (GPa) = 45.49173 65.73889 96.18856
#
# Poissons Ratio (x) = 0.33877 0.68610
# Poissons Ratio (y) = 0.23443 0.09956
# Poissons Ratio (z) = 0.32449 0.06804
#
# Static dielectric constant tensor:
#      x y z
#    x 2.855700 0.000000 0.000000 
#    y 0.000000 2.922730 0.000000 
#    z 0.000000 0.000000 3.373370 
# 
# 
# High freq. dielectric constant tensor:
#      x y z
#    x 1.584860 0.000000 0.000000 
#    y 0.000000 1.588930 0.000000 
#    z 0.000000 0.000000 1.644810 
# 
# From -- ./inp_files/4410.got.cif
#   From: 2010.03.12/outbox.cif.g09.slc.cpg/sg53_3_cif.got.tgz:4410.got - 2010.04.16 14:36:59.
