data_PCOD8218898
_publ_section_title
;
Structure prediction by ZEFSAII (Michael W. Deem and Ramdas Pophale) SiO2 
 PCOD8218898
Probable space group: P M N A
;
_chemical_formula_sum "Si O2"
_cell_formula_units_Z 64
_cell_length_a 9.200076
_cell_length_b 23.420190
_cell_length_c 14.585668
_cell_angle_alpha 90.000000
_cell_angle_beta 90.000000
_cell_angle_gamma 90.000000
_cell_volume 3142.737827
_symmetry_space_group_name_H-M "P M N A"
_symmetry_group_IT_number 53
_symmetry_cell_setting 'orthorhombic'
loop_
_space_group_symop_operation_xyz
x,y,z
1/2-x,-y,1/2+z
x,-y,-z
1/2-x,y,1/2-z
-x,-y,-z
1/2+x,y,1/2-z
-x,y,z
1/2+x,-y,1/2+z
loop_
_atom_site_type_symbol
_atom_site_label
_atom_site_fract_x
_atom_site_fract_y
_atom_site_fract_z
Si Si1 0.834826 0.375553 0.964571
Si Si2 0.837535 0.523392 0.398212
Si Si3 0.340133 0.758472 0.833416
Si Si4 0.842017 0.109309 0.331166
Si Si5 0.165804 0.247777 0.980548
Si Si6 0.327318 0.145268 0.653311
Si Si7 0.170117 0.065540 0.520691
Si Si8 0.170390 0.582367 0.836258
O O1 0.731958 0.413318 0.899640
O O2 0.817213 0.309943 0.933834
O O3 0.000000 0.397174 0.951827
O O4 0.792859 0.381708 0.072339
O O5 0.844833 0.500000 0.500000
O O6 0.735257 0.481669 0.340461
O O7 0.000000 0.526619 0.355825
O O8 0.250000 0.729534 0.750000
O O9 0.500000 0.729756 0.837941
O O10 0.358746 0.824586 0.809579
O O11 0.263679 0.752460 0.930181
O O12 0.750000 0.079703 0.250000
O O13 0.772967 0.099992 0.431342
O O14 0.000000 0.078974 0.330759
O O15 0.215518 0.200110 0.908168
O O16 0.000000 0.237140 0.011598
O O17 0.250000 0.153938 0.750000
O O18 0.500000 0.139485 0.666375
O O19 0.264481 0.087992 0.606064
O O20 0.000000 0.076622 0.541262
O O21 0.203670 0.000000 0.500000
O O22 0.250000 0.613026 0.750000
O O23 0.000000 0.578656 0.817564
#
# Coordination Sequence:
#
# PCOD8218898 Si02
#       8
#     8   8   8   8   8   8   8   8
#     4   9  19  35  54  77 108 144 185 232 284 338
#     4   9  17  31  51  75 103 137 181 226 272 330
#     4  10  19  32  53  80 111 147 186 231 281 342
#     4   9  18  32  52  79 110 145 180 221 273 331
#     4  10  21  38  59  84 114 154 199 244 293 347
#     4  11  24  42  65  88 117 156 199 246 294 347
#     4  10  21  39  62  89 121 153 190 238 290 344
#     4  10  19  32  52  77 108 145 181 225 280 338
#
# _framework density 20.364409999999999
#
# number of rings (size 3 to 8) (size 9 to 14) (size 15 to 20)
#    0.000    2.250    1.250    1.500    0.000    5.250 
#    0.000    3.125    0.000    1.500    0.000    0.000 
#    0.000    0.000    0.000    0.000    0.000    0.000 
#
# Total GULP energy -793475.718886 kJ/mol
# GULP energy per Si atom -12398.058108 kJ/mol
# Density = 2.031806 g / cm^3
# Si number density = 20.364410 Si / 1000 Ang^3
#
#
#
# Elastic Constant Matrix: (Units=GPa)
#
#
# Indices 1 2 3 4 5 6 
#
# 1 114.5097 36.3761 49.4828 0.0000 0.0000 0.0000
# 2 36.3761 82.6084 22.7365 0.0000 0.0000 0.0000
# 3 49.4828 22.7365 90.6208 0.0000 0.0000 0.0000
# 4 0.0000 0.0000 0.0000 10.3663 0.0000 0.0000
# 5 0.0000 0.0000 0.0000 0.0000 37.4783 0.0000
# 6 0.0000 0.0000 0.0000 0.0000 0.0000 20.3313
#
#
#
# Elastic Compliance Matrix: (Units=1/GPa)
#
#
# Indices 1 2 3 4 5 6 
#
# 1 0.012496 -0.003893 -0.005847 0.000000 0.000000 0.000000
# 2 -0.003893 0.014216 -0.001441 0.000000 0.000000 0.000000
# 3 -0.005847 -0.001441 0.014589 0.000000 0.000000 0.000000
# 4 0.000000 0.000000 0.000000 0.096466 0.000000 0.000000
# 5 0.000000 0.000000 0.000000 0.000000 0.026682 0.000000
# 6 0.000000 0.000000 0.000000 0.000000 0.000000 0.049185
#
#
# Mechanical properties :
#
#
# Convention : Reuss Voigt Hill
#
# Bulk Modulus (GPa) = 52.79906 56.10329 54.45117
# Shear Modulus (GPa) = 20.63470 25.57808 23.10639
#
# Velocity S-wave (km/s) = 3.18665 3.54788 3.37210
# Velocity P-wave (km/s) = 6.28674 6.66279 6.47749
#
# Compressibility (1/GPa) = 0.01893973
#
# Stress axis : x y z
#
# Youngs Moduli (GPa) = 80.02447 70.34163 68.54489
#
# Poissons Ratio (x) = 0.27387 0.40075
# Poissons Ratio (y) = 0.31157 0.09876
# Poissons Ratio (z) = 0.46787 0.10135
#
# Static dielectric constant tensor:
#      x y z
#    x 3.932600 0.000000 0.000000 
#    y 0.000000 3.581510 0.000000 
#    z 0.000000 0.000000 3.595670 
# 
# 
# High freq. dielectric constant tensor:
#      x y z
#    x 1.800110 0.000000 0.000000 
#    y 0.000000 1.783440 0.000000 
#    z 0.000000 0.000000 1.784310 
# 
# From -- ./inp_files/20958.got.cif
#   From: 2010.03.12/outbox.cif.g09.slc.cpg/sg53_11_cif.got.tgz:20958.got - 2010.04.16 14:36:59.
