data_PCOD8218322
_publ_section_title
;
Structure prediction by ZEFSAII (Michael W. Deem and Ramdas Pophale) SiO2 
 PCOD8218322
Probable space group: P M N A
;
_chemical_formula_sum "Si O2"
_cell_formula_units_Z 48
_cell_length_a 9.185420
_cell_length_b 15.130397
_cell_length_c 19.815808
_cell_angle_alpha 90.000000
_cell_angle_beta 90.000000
_cell_angle_gamma 90.000000
_cell_volume 2753.982195
_symmetry_space_group_name_H-M "P M N A"
_symmetry_group_IT_number 53
_symmetry_cell_setting 'orthorhombic'
loop_
_space_group_symop_operation_xyz
x,y,z
1/2-x,-y,1/2+z
x,-y,-z
1/2-x,y,1/2-z
-x,-y,-z
1/2+x,y,1/2-z
-x,y,z
1/2+x,-y,1/2+z
loop_
_atom_site_type_symbol
_atom_site_label
_atom_site_fract_x
_atom_site_fract_y
_atom_site_fract_z
Si Si1 0.669443 0.249690 0.892212
Si Si2 0.836199 0.918502 0.089875
Si Si3 0.831330 0.453196 0.067538
Si Si4 0.663160 0.110928 0.431197
Si Si5 0.331407 0.721707 0.950663
Si Si6 0.170320 0.404390 0.818145
O O1 0.500000 0.255901 0.874068
O O2 0.724951 0.150386 0.876007
O O3 0.760068 0.314560 0.845243
O O4 0.700108 0.274968 0.969608
O O5 0.000000 0.902081 0.117177
O O6 0.786870 0.019705 0.105586
O O7 0.834131 0.904597 0.010443
O O8 0.744702 0.363547 0.081009
O O9 0.802335 0.516866 0.129933
O O10 0.000000 0.428997 0.058371
O O11 0.771496 0.500000 0.000000
O O12 0.500000 0.135804 0.408009
O O13 0.769900 0.191418 0.412786
O O14 0.500000 0.716268 0.934185
O O15 0.250000 0.433132 0.750000
O O16 0.000000 0.388200 0.805459
#
# Coordination Sequence:
#
# PCOD8218322 Si02
#       6
#     8   8   8   8   8   8
#     4  10  19  30  46  71 101 133 166 204 252 303
#     4   8  14  25  42  64  92 130 168 201 240 288
#     4  10  20  35  54  74  97 132 174 212 255 310
#     4   8  14  25  41  63  95 131 166 202 242 293
#     4  10  19  28  45  73 103 132 165 210 257 300
#     4  11  23  38  55  74 100 133 170 214 258 308
#
# _framework density 17.429306
#
# number of rings (size 3 to 8) (size 9 to 14) (size 15 to 20)
#    0.000    2.500    1.667    2.500    0.000    3.667 
#    0.000    3.333    0.000    0.000    0.000    1.167 
#    0.000    5.333    0.000    0.000    0.000    0.000 
#
# Total GULP energy -595105.288984 kJ/mol
# GULP energy per Si atom -12398.026854 kJ/mol
# Density = 1.738964 g / cm^3
# Si number density = 17.429306 Si / 1000 Ang^3
#
#
#
# Elastic Constant Matrix: (Units=GPa)
#
#
# Indices 1 2 3 4 5 6 
#
# 1 109.6216 80.8126 43.1268 0.0000 0.0000 0.0000
# 2 80.8126 152.8134 37.1519 0.0000 0.0000 0.0000
# 3 43.1268 37.1519 49.9815 0.0000 0.0000 0.0000
# 4 0.0000 0.0000 0.0000 12.7917 0.0000 0.0000
# 5 0.0000 0.0000 0.0000 0.0000 20.5366 0.0000
# 6 0.0000 0.0000 0.0000 0.0000 0.0000 25.7607
#
#
#
# Elastic Compliance Matrix: (Units=1/GPa)
#
#
# Indices 1 2 3 4 5 6 
#
# 1 0.018719 -0.007290 -0.010733 0.000000 0.000000 0.000000
# 2 -0.007290 0.010826 -0.001757 0.000000 0.000000 0.000000
# 3 -0.010733 -0.001757 0.030575 0.000000 0.000000 0.000000
# 4 0.000000 0.000000 0.000000 0.078176 0.000000 0.000000
# 5 0.000000 0.000000 0.000000 0.000000 0.048694 0.000000
# 6 0.000000 0.000000 0.000000 0.000000 0.000000 0.038819
#
#
# Mechanical properties :
#
#
# Convention : Reuss Voigt Hill
#
# Bulk Modulus (GPa) = 48.63916 70.51102 59.57509
# Shear Modulus (GPa) = 18.36743 21.90615 20.13679
#
# Velocity S-wave (km/s) = 3.24979 3.54906 3.40272
# Velocity P-wave (km/s) = 6.48449 7.57217 7.04934
#
# Compressibility (1/GPa) = 0.02055956
#
# Stress axis : x y z
#
# Youngs Moduli (GPa) = 53.42241 92.36875 32.70672
#
# Poissons Ratio (x) = 0.67334 0.35104
# Poissons Ratio (y) = 0.38943 0.05748
# Poissons Ratio (z) = 0.57339 0.16232
#
# Static dielectric constant tensor:
#      x y z
#    x 3.311990 0.000000 0.000000 
#    y 0.000000 3.559430 0.000000 
#    z 0.000000 0.000000 2.799240 
# 
# 
# High freq. dielectric constant tensor:
#      x y z
#    x 1.678850 0.000000 0.000000 
#    y 0.000000 1.689260 0.000000 
#    z 0.000000 0.000000 1.611870 
# 
# From -- ./inp_files/26257.got.cif
#   From: 2010.03.12/outbox.cif.g09.slc.cpg/sg53_14_cif.got.tgz:26257.got - 2010.04.16 14:36:59.
