data_PCOD8218742
_publ_section_title
;
Structure prediction by ZEFSAII (Michael W. Deem and Ramdas Pophale) SiO2 
 PCOD8218742
Probable space group: P M N A
;
_chemical_formula_sum "Si O2"
_cell_formula_units_Z 64
_cell_length_a 14.733613
_cell_length_b 11.707449
_cell_length_c 17.667785
_cell_angle_alpha 90.000000
_cell_angle_beta 90.000000
_cell_angle_gamma 90.000000
_cell_volume 3047.569641
_symmetry_space_group_name_H-M "P M N A"
_symmetry_group_IT_number 53
_symmetry_cell_setting 'orthorhombic'
loop_
_space_group_symop_operation_xyz
x,y,z
1/2-x,-y,1/2+z
x,-y,-z
1/2-x,y,1/2-z
-x,-y,-z
1/2+x,y,1/2-z
-x,y,z
1/2+x,-y,1/2+z
loop_
_atom_site_type_symbol
_atom_site_label
_atom_site_fract_x
_atom_site_fract_y
_atom_site_fract_z
Si Si1 0.100256 0.235928 0.919476
Si Si2 0.750418 0.394314 0.543399
Si Si3 0.789964 0.067299 0.421822
Si Si4 0.815704 0.517730 0.685257
Si Si5 0.400931 0.014387 0.368256
Si Si6 0.391520 0.693729 0.932276
Si Si7 0.900265 0.697714 0.250621
Si Si8 0.343049 0.066601 0.783865
O O1 0.181526 0.288463 0.969510
O O2 0.115551 0.100954 0.916141
O O3 0.111326 0.294476 0.838643
O O4 0.000000 0.263249 0.952931
O O5 0.704847 0.500000 0.500000
O O6 0.761282 0.432869 0.629760
O O7 0.848994 0.366514 0.506504
O O8 0.844384 0.184391 0.425692
O O9 0.786871 0.000000 0.500000
O O10 0.686376 0.091658 0.390568
O O11 0.851607 0.989255 0.366158
O O12 0.750000 0.570867 0.750000
O O13 0.867815 0.619409 0.642474
O O14 0.884291 0.432563 0.726700
O O15 0.500000 0.069059 0.390846
O O16 0.413251 0.980619 0.279248
O O17 0.500000 0.703819 0.941591
O O18 0.840631 0.795172 0.292627
O O19 0.000000 0.732339 0.276479
O O20 0.250000 0.022417 0.750000
#
# Coordination Sequence:
#
# PCOD8218742 Si02
#       8
#     8   8   8   8   8   8   8   8
#     4   9  17  33  60  96 126 148 192 258 320 375
#     4  10  22  39  61  85 122 169 207 249 306 373
#     4  11  24  41  62  89 128 170 215 262 318 375
#     4  11  22  39  66  91 121 159 209 258 315 373
#     4   9  19  37  64  93 120 154 205 265 326 381
#     4  11  27  46  61  87 128 175 219 259 311 379
#     4  10  19  31  58  94 120 149 199 261 320 371
#     4   9  19  34  58  89 120 157 202 259 319 372
#
# _framework density 21.000340999999999
#
# number of rings (size 3 to 8) (size 9 to 14) (size 15 to 20)
#    0.000    2.000    1.250    2.625    5.250    6.000 
#    0.000    0.625    0.000    1.500    0.000    0.000 
#    0.000    0.000    0.000    0.000    0.000    0.000 
#
# Total GULP energy -792927.655842 kJ/mol
# GULP energy per Si atom -12389.494623 kJ/mol
# Density = 2.095254 g / cm^3
# Si number density = 21.000341 Si / 1000 Ang^3
#
#
#
# Elastic Constant Matrix: (Units=GPa)
#
#
# Indices 1 2 3 4 5 6 
#
# 1 138.1225 40.1924 37.9996 0.0000 0.0000 0.0000
# 2 40.1924 78.1809 29.7883 0.0000 0.0000 0.0000
# 3 37.9996 29.7883 78.6926 0.0000 0.0000 0.0000
# 4 0.0000 0.0000 0.0000 28.2058 0.0000 0.0000
# 5 0.0000 0.0000 0.0000 0.0000 19.0450 0.0000
# 6 0.0000 0.0000 0.0000 0.0000 0.0000 26.8257
#
#
#
# Elastic Compliance Matrix: (Units=1/GPa)
#
#
# Indices 1 2 3 4 5 6 
#
# 1 0.009106 -0.003513 -0.003068 0.000000 0.000000 0.000000
# 2 -0.003513 0.016302 -0.004475 0.000000 0.000000 0.000000
# 3 -0.003068 -0.004475 0.015883 0.000000 0.000000 0.000000
# 4 0.000000 0.000000 0.000000 0.035454 0.000000 0.000000
# 5 0.000000 0.000000 0.000000 0.000000 0.052507 0.000000
# 6 0.000000 0.000000 0.000000 0.000000 0.000000 0.037278
#
#
# Mechanical properties :
#
#
# Convention : Reuss Voigt Hill
#
# Bulk Modulus (GPa) = 52.13522 56.77297 54.45409
# Shear Modulus (GPa) = 25.63683 27.28302 26.45992
#
# Velocity S-wave (km/s) = 3.49776 3.60831 3.55346
# Velocity P-wave (km/s) = 6.41812 6.66730 6.54389
#
# Compressibility (1/GPa) = 0.01918089
#
# Stress axis : x y z
#
# Youngs Moduli (GPa) = 109.81783 61.34390 62.96138
#
# Poissons Ratio (x) = 0.21547 0.19313
# Poissons Ratio (y) = 0.38574 0.28173
# Poissons Ratio (z) = 0.33687 0.27449
#
# Static dielectric constant tensor:
#      x y z
#    x 3.995100 0.000000 0.000000 
#    y 0.000000 3.610120 0.000000 
#    z 0.000000 0.000000 3.980770 
# 
# 
# High freq. dielectric constant tensor:
#      x y z
#    x 1.825990 0.000000 0.000000 
#    y 0.000000 1.806370 0.000000 
#    z 0.000000 0.000000 1.817590 
# 
# From -- ./inp_files/28547.got.cif
#   From: 2010.03.12/outbox.cif.g09.slc.cpg/sg53_15_cif.got.tgz:28547.got - 2010.04.16 14:36:59.
