data_PCOD8218389
_publ_section_title
;
Structure prediction by ZEFSAII (Michael W. Deem and Ramdas Pophale) SiO2 
 PCOD8218389
Probable space group: P M N A
;
_chemical_formula_sum "Si O2"
_cell_formula_units_Z 64
_cell_length_a 9.125647
_cell_length_b 17.112381
_cell_length_c 23.460553
_cell_angle_alpha 90.000000
_cell_angle_beta 90.000000
_cell_angle_gamma 90.000000
_cell_volume 3663.636281
_symmetry_space_group_name_H-M "P M N A"
_symmetry_group_IT_number 53
_symmetry_cell_setting 'orthorhombic'
loop_
_space_group_symop_operation_xyz
x,y,z
1/2-x,-y,1/2+z
x,-y,-z
1/2-x,y,1/2-z
-x,-y,-z
1/2+x,y,1/2-z
-x,y,z
1/2+x,-y,1/2+z
loop_
_atom_site_type_symbol
_atom_site_label
_atom_site_fract_x
_atom_site_fract_y
_atom_site_fract_z
Si Si1 0.830338 0.776163 0.694077
Si Si2 0.832338 0.413709 0.003441
Si Si3 0.336337 0.295764 0.587587
Si Si4 0.672770 0.928094 0.388598
Si Si5 0.162716 0.786436 0.193484
Si Si6 0.830227 0.168452 0.525013
Si Si7 0.672474 0.279817 0.072388
Si Si8 0.827833 0.041382 0.307635
O O1 0.750000 0.742632 0.750000
O O2 0.775195 0.731194 0.637554
O O3 0.796977 0.867302 0.686123
O O4 0.000000 0.760946 0.703751
O O5 0.821877 0.381961 0.938442
O O6 0.000000 0.419457 0.024329
O O7 0.760688 0.500000 0.000000
O O8 0.751561 0.355932 0.047027
O O9 0.500000 0.260995 0.571859
O O10 0.322695 0.293667 0.656324
O O11 0.205973 0.243853 0.562881
O O12 0.500000 0.944290 0.393087
O O13 0.714823 0.857920 0.345924
O O14 0.734899 0.905358 0.451809
O O15 0.755818 0.003434 0.363858
O O16 0.250000 0.775789 0.250000
O O17 0.000000 0.802965 0.214089
O O18 0.790494 0.198102 0.460937
O O19 0.000000 0.145707 0.530688
O O20 0.500000 0.295225 0.068098
O O21 0.750000 0.009159 0.250000
O O22 0.000000 0.021486 0.304521
#
# Coordination Sequence:
#
# PCOD8218389 Si02
#       8
#     8   8   8   8   8   8   8   8
#     4   9  19  35  53  73  96 124 161 203 245 289
#     4   9  17  30  51  77  99 121 151 186 227 278
#     4   8  15  28  42  60  90 120 146 182 225 267
#     4  10  19  30  43  62  91 124 159 201 245 285
#     4   9  17  26  38  57  82 115 150 184 220 260
#     4   9  16  27  45  67  90 120 156 192 234 282
#     4   9  18  33  52  74 100 127 156 194 240 290
#     4  10  19  31  47  66  90 122 161 206 252 293
#
# _framework density 17.468983000000001
#
# number of rings (size 3 to 8) (size 9 to 14) (size 15 to 20)
#    0.000    2.875    0.000    2.250    0.000    5.250 
#    0.000    0.625    0.000    4.500    0.000    3.500 
#    0.000    0.000    0.000    0.000    0.000    0.000 
#
# Total GULP energy -792970.836385 kJ/mol
# GULP energy per Si atom -12390.169319 kJ/mol
# Density = 1.742922 g / cm^3
# Si number density = 17.468983 Si / 1000 Ang^3
#
#
#
# Elastic Constant Matrix: (Units=GPa)
#
#
# Indices 1 2 3 4 5 6 
#
# 1 66.9916 31.7499 44.4595 0.0000 0.0000 0.0000
# 2 31.7499 55.5292 39.4391 0.0000 0.0000 0.0000
# 3 44.4595 39.4391 113.4354 0.0000 0.0000 0.0000
# 4 0.0000 0.0000 0.0000 20.1579 0.0000 0.0000
# 5 0.0000 0.0000 0.0000 0.0000 27.5133 0.0000
# 6 0.0000 0.0000 0.0000 0.0000 0.0000 17.5432
#
#
#
# Elastic Compliance Matrix: (Units=1/GPa)
#
#
# Indices 1 2 3 4 5 6 
#
# 1 0.023138 -0.009015 -0.005934 0.000000 0.000000 0.000000
# 2 -0.009015 0.027426 -0.006002 0.000000 0.000000 0.000000
# 3 -0.005934 -0.006002 0.013228 0.000000 0.000000 0.000000
# 4 0.000000 0.000000 0.000000 0.049608 0.000000 0.000000
# 5 0.000000 0.000000 0.000000 0.000000 0.036346 0.000000
# 6 0.000000 0.000000 0.000000 0.000000 0.000000 0.057002
#
#
# Mechanical properties :
#
#
# Convention : Reuss Voigt Hill
#
# Bulk Modulus (GPa) = 45.68387 51.91704 48.80045
# Shear Modulus (GPa) = 19.53521 21.06340 20.29931
#
# Velocity S-wave (km/s) = 3.34770 3.47617 3.41254
# Velocity P-wave (km/s) = 6.41490 6.77464 6.59722
#
# Compressibility (1/GPa) = 0.02188957
#
# Stress axis : x y z
#
# Youngs Moduli (GPa) = 43.21870 36.46191 75.59528
#
# Poissons Ratio (x) = 0.32870 0.44862
# Poissons Ratio (y) = 0.38961 0.45374
# Poissons Ratio (z) = 0.25648 0.21885
#
# Static dielectric constant tensor:
#      x y z
#    x 3.288930 0.000000 0.000000 
#    y 0.000000 3.029040 0.000000 
#    z 0.000000 0.000000 3.442120 
# 
# 
# High freq. dielectric constant tensor:
#      x y z
#    x 1.678080 0.000000 0.000000 
#    y 0.000000 1.638440 0.000000 
#    z 0.000000 0.000000 1.671550 
# 
# From -- ./inp_files/34466.got.cif
#   From: 2010.03.12/outbox.cif.g09.slc.cpg/sg53_18_cif.got.tgz:34466.got - 2010.04.16 14:36:59.
