data_PCOD8218942
_publ_section_title
;
Structure prediction by ZEFSAII (Michael W. Deem and Ramdas Pophale) SiO2 
 PCOD8218942
Probable space group: P M N A
;
_chemical_formula_sum "Si O2"
_cell_formula_units_Z 64
_cell_length_a 9.056295
_cell_length_b 19.997104
_cell_length_c 19.345076
_cell_angle_alpha 90.000000
_cell_angle_beta 90.000000
_cell_angle_gamma 90.000000
_cell_volume 3503.386937
_symmetry_space_group_name_H-M "P M N A"
_symmetry_group_IT_number 53
_symmetry_cell_setting 'orthorhombic'
loop_
_space_group_symop_operation_xyz
x,y,z
1/2-x,-y,1/2+z
x,-y,-z
1/2-x,y,1/2-z
-x,-y,-z
1/2+x,y,1/2-z
-x,y,z
1/2+x,-y,1/2+z
loop_
_atom_site_type_symbol
_atom_site_label
_atom_site_fract_x
_atom_site_fract_y
_atom_site_fract_z
Si Si1 0.833044 0.001969 0.417797
Si Si2 0.173263 0.491162 0.078797
Si Si3 0.172227 0.236346 0.320464
Si Si4 0.672806 0.865420 0.582429
Si Si5 0.827940 0.393248 0.818909
Si Si6 0.671065 0.128913 0.578303
Si Si7 0.173241 0.757200 0.180730
Si Si8 0.828120 0.392314 0.320847
O O1 0.761289 0.933455 0.390301
O O2 0.000000 0.007787 0.390257
O O3 0.826892 0.000000 0.500000
O O4 0.740272 0.064961 0.389484
O O5 0.214557 0.559958 0.117130
O O6 0.260236 0.430302 0.113659
O O7 0.000000 0.474853 0.083048
O O8 0.225494 0.500000 0.000000
O O9 0.250000 0.213347 0.250000
O O10 0.246042 0.196783 0.382988
O O11 0.199691 0.314320 0.334414
O O12 0.000000 0.219032 0.315573
O O13 0.500000 0.863847 0.599680
O O14 0.705469 0.858249 0.501520
O O15 0.750000 0.420487 0.750000
O O16 0.774483 0.318175 0.837074
O O17 0.000000 0.395051 0.803477
O O18 0.500000 0.112330 0.589772
O O19 0.721862 0.195516 0.617920
O O20 0.250000 0.783471 0.250000
O O21 0.000000 0.760031 0.193053
O O22 0.750000 0.415700 0.250000
O O23 0.000000 0.409437 0.313756
#
# Coordination Sequence:
#
# PCOD8218942 Si02
#       8
#     8   8   8   8   8   8   8   8
#     4   9  17  30  49  73 102 135 171 212 255 303
#     4  10  21  35  53  79 109 138 171 215 262 307
#     4  10  21  37  55  77 105 136 172 214 260 311
#     4  10  19  32  53  78 103 134 171 212 258 309
#     4   9  18  33  52  73  98 132 171 207 248 300
#     4   9  18  32  51  75 102 133 170 212 258 308
#     4   9  18  33  51  72 100 132 167 208 252 299
#     4  10  21  37  57  78 103 138 177 215 257 311
#
# _framework density 18.268035999999999
#
# number of rings (size 3 to 8) (size 9 to 14) (size 15 to 20)
#    0.000    2.500    0.000    1.875    0.000    6.750 
#    0.000    3.125    0.000    4.500    0.000    0.000 
#    0.000    0.000    0.000    0.000    0.000    0.000 
#
# Total GULP energy -793749.100644 kJ/mol
# GULP energy per Si atom -12402.329698 kJ/mol
# Density = 1.822646 g / cm^3
# Si number density = 18.268036 Si / 1000 Ang^3
#
#
#
# Elastic Constant Matrix: (Units=GPa)
#
#
# Indices 1 2 3 4 5 6 
#
# 1 94.4075 60.2337 55.4268 0.0000 0.0000 0.0000
# 2 60.2337 108.7054 69.7218 0.0000 0.0000 0.0000
# 3 55.4268 69.7218 108.8274 0.0000 0.0000 0.0000
# 4 0.0000 0.0000 0.0000 21.1910 0.0000 0.0000
# 5 0.0000 0.0000 0.0000 0.0000 29.5968 0.0000
# 6 0.0000 0.0000 0.0000 0.0000 0.0000 33.3415
#
#
#
# Elastic Compliance Matrix: (Units=1/GPa)
#
#
# Indices 1 2 3 4 5 6 
#
# 1 0.017658 -0.006817 -0.004626 0.000000 0.000000 0.000000
# 2 -0.006817 0.018248 -0.008219 0.000000 0.000000 0.000000
# 3 -0.004626 -0.008219 0.016810 0.000000 0.000000 0.000000
# 4 0.000000 0.000000 0.000000 0.047190 0.000000 0.000000
# 5 0.000000 0.000000 0.000000 0.000000 0.033787 0.000000
# 6 0.000000 0.000000 0.000000 0.000000 0.000000 0.029993
#
#
# Mechanical properties :
#
#
# Convention : Reuss Voigt Hill
#
# Bulk Modulus (GPa) = 74.66842 75.85612 75.26227
# Shear Modulus (GPa) = 24.09948 25.26304 24.68126
#
# Velocity S-wave (km/s) = 3.63604 3.72278 3.67967
# Velocity P-wave (km/s) = 7.65443 7.75196 7.70335
#
# Compressibility (1/GPa) = 0.01339254
#
# Stress axis : x y z
#
# Youngs Moduli (GPa) = 56.63261 54.80053 59.48788
#
# Poissons Ratio (x) = 0.37359 0.27517
# Poissons Ratio (y) = 0.38608 0.48891
# Poissons Ratio (z) = 0.26196 0.45039
#
# Static dielectric constant tensor:
#      x y z
#    x 3.413880 0.000000 0.000000 
#    y 0.000000 3.545550 0.000000 
#    z 0.000000 0.000000 3.262550 
# 
# 
# High freq. dielectric constant tensor:
#      x y z
#    x 1.712440 0.000000 0.000000 
#    y 0.000000 1.717430 0.000000 
#    z 0.000000 0.000000 1.689440 
# 
# From -- ./inp_files/27004.got.cif
#   From: 2010.03.12/outbox.cif.g09.slc.cpg/sg53_14_cif.got.tgz:27004.got - 2010.04.16 14:36:59.
