data_PCOD8218432
_publ_section_title
;
Structure prediction by ZEFSAII (Michael W. Deem and Ramdas Pophale) SiO2 
 PCOD8218432
Probable space group: P M N A
;
_chemical_formula_sum "Si O2"
_cell_formula_units_Z 48
_cell_length_a 25.231506
_cell_length_b 5.015915
_cell_length_c 23.258477
_cell_angle_alpha 90.000000
_cell_angle_beta 90.000000
_cell_angle_gamma 90.000000
_cell_volume 2943.571670
_symmetry_space_group_name_H-M "P M N A"
_symmetry_group_IT_number 53
_symmetry_cell_setting 'orthorhombic'
loop_
_space_group_symop_operation_xyz
x,y,z
1/2-x,-y,1/2+z
x,-y,-z
1/2-x,y,1/2-z
-x,-y,-z
1/2+x,y,1/2-z
-x,y,z
1/2+x,-y,1/2+z
loop_
_atom_site_type_symbol
_atom_site_label
_atom_site_fract_x
_atom_site_fract_y
_atom_site_fract_z
Si Si1 0.174458 0.515685 0.376934
Si Si2 0.667344 0.965959 0.723600
Si Si3 0.000000 0.379711 0.303943
Si Si4 0.000000 0.864915 0.382699
Si Si5 0.389095 0.473698 0.759880
Si Si6 0.231071 0.990594 0.659044
Si Si7 0.593692 0.254857 0.964193
O O1 0.133362 0.520441 0.324367
O O2 0.204919 0.233908 0.382132
O O3 0.142342 0.593990 0.433662
O O4 0.221327 0.725515 0.369148
O O5 0.638767 0.684909 0.718657
O O6 0.703394 0.975014 0.779627
O O7 0.705373 0.977812 0.667680
O O8 0.622065 0.192912 0.728473
O O9 0.049632 0.445869 0.263361
O O10 0.000000 0.568710 0.358646
O O11 0.000000 0.079550 0.330408
O O12 0.947554 0.888882 0.421223
O O13 0.566654 0.500000 0.000000
O O14 0.615097 0.000000 0.000000
#
# Coordination Sequence:
#
# PCOD8218432 Si02
#       7
#     8   8   4   4   8   8   8
#     4  10  19  31  48  63  84 110 141 189 238 282
#     4   9  17  29  45  67  87 108 133 177 224 275
#     4  12  22  33  50  66  88 122 158 196 232 289
#     4  12  24  37  50  60  82 120 166 206 252 279
#     4  10  19  30  46  63  89 113 145 183 226 267
#     4   9  17  29  47  67  85 105 135 173 232 285
#     4  12  24  37  49  64  85 114 159 210 252 288
#
# _framework density 16.306721
#
# number of rings (size 3 to 8) (size 9 to 14) (size 15 to 20)
#    0.000    1.667    1.667    4.500    4.667    4.000 
#    0.000    0.000    0.000    0.000    0.000    0.000 
#    0.000    0.000    0.000    0.000    0.000    0.000 
#
# Total GULP energy -594906.433988 kJ/mol
# GULP energy per Si atom -12393.884041 kJ/mol
# Density = 1.626961 g / cm^3
# Si number density = 16.306721 Si / 1000 Ang^3
#
#
#
# Elastic Constant Matrix: (Units=GPa)
#
#
# Indices 1 2 3 4 5 6 
#
# 1 82.9961 19.8065 31.7940 0.0000 0.0000 0.0000
# 2 19.8065 81.2220 7.2846 0.0000 0.0000 0.0000
# 3 31.7940 7.2846 19.9154 0.0000 0.0000 0.0000
# 4 0.0000 0.0000 0.0000 17.3519 0.0000 0.0000
# 5 0.0000 0.0000 0.0000 0.0000 7.8866 0.0000
# 6 0.0000 0.0000 0.0000 0.0000 0.0000 -6.3410
#
#
#
# Elastic Compliance Matrix: (Units=1/GPa)
#
#
# Indices 1 2 3 4 5 6 
#
# 1 0.031860 -0.003316 -0.049651 0.000000 0.000000 0.000000
# 2 -0.003316 0.013075 0.000512 0.000000 0.000000 0.000000
# 3 -0.049651 0.000512 0.129290 0.000000 0.000000 0.000000
# 4 0.000000 0.000000 0.000000 0.057631 0.000000 0.000000
# 5 0.000000 0.000000 0.000000 0.000000 0.126797 0.000000
# 6 0.000000 0.000000 0.000000 0.000000 0.000000 -0.157705
#
#
# Mechanical properties :
#
#
# Convention : Reuss Voigt Hill
#
# Bulk Modulus (GPa) = 14.42682 33.54485 23.98584
# Shear Modulus (GPa) = 15.19926 12.12939 13.66432
#
# Velocity S-wave (km/s) = 3.05632 2.73028 2.89789
# Velocity P-wave (km/s) = 4.61748 5.52766 5.09295
#
# Compressibility (1/GPa) = 0.06931535
#
# Stress axis : x y z
#
# Youngs Moduli (GPa) = 31.38708 76.48342 7.73453
#
# Poissons Ratio (x) = 0.25364 0.38402
# Poissons Ratio (y) = 0.10409 -0.00396
# Poissons Ratio (z) = 1.55839 -0.03915
#
# Static dielectric constant tensor:
#      x y z
#    x 3.137470 0.000000 0.000000 
#    y 0.000000 3.357400 0.000000 
#    z 0.000000 0.000000 2.735310 
# 
# 
# High freq. dielectric constant tensor:
#      x y z
#    x 1.613950 0.000000 0.000000 
#    y 0.000000 1.655290 0.000000 
#    z 0.000000 0.000000 1.561560 
# 
# From -- ./inp_files/35591.got.cif
#   From: 2010.03.12/outbox.cif.g09.slc.cpg/sg53_18_cif.got.tgz:35591.got - 2010.04.16 14:36:59.
