data_PCOD8218359
_publ_section_title
;
Structure prediction by ZEFSAII (Michael W. Deem and Ramdas Pophale) SiO2 
 PCOD8218359
Probable space group: P M N A
;
_chemical_formula_sum "Si O2"
_cell_formula_units_Z 64
_cell_length_a 9.051658
_cell_length_b 20.365621
_cell_length_c 18.749588
_cell_angle_alpha 90.000000
_cell_angle_beta 90.000000
_cell_angle_gamma 90.000000
_cell_volume 3456.348481
_symmetry_space_group_name_H-M "P M N A"
_symmetry_group_IT_number 53
_symmetry_cell_setting 'orthorhombic'
loop_
_space_group_symop_operation_xyz
x,y,z
1/2-x,-y,1/2+z
x,-y,-z
1/2-x,y,1/2-z
-x,-y,-z
1/2+x,y,1/2-z
-x,y,z
1/2+x,-y,1/2+z
loop_
_atom_site_type_symbol
_atom_site_label
_atom_site_fract_x
_atom_site_fract_y
_atom_site_fract_z
Si Si1 0.175188 0.798050 0.580878
Si Si2 0.174732 0.032284 0.572503
Si Si3 0.675738 0.179213 0.923979
Si Si4 0.175323 0.438638 0.415910
Si Si5 0.323641 0.297957 0.826812
Si Si6 0.175268 0.415931 0.573401
Si Si7 0.825907 0.081492 0.325300
Si Si8 0.674718 0.679034 0.823843
O O1 0.237406 0.796793 0.500504
O O2 0.234522 0.861632 0.622785
O O3 0.230298 0.732810 0.619905
O O4 0.000000 0.801150 0.578275
O O5 0.237461 0.105336 0.588329
O O6 0.000000 0.036665 0.562583
O O7 0.240927 0.000000 0.500000
O O8 0.218527 0.987963 0.639958
O O9 0.500000 0.179197 0.924718
O O10 0.729842 0.229487 0.862811
O O11 0.234909 0.411034 0.491969
O O12 0.228847 0.512572 0.398018
O O13 0.229862 0.391504 0.352565
O O14 0.000000 0.437917 0.421445
O O15 0.250000 0.304351 0.750000
O O16 0.500000 0.300561 0.818618
O O17 0.263391 0.357807 0.876372
O O18 0.000000 0.410786 0.573673
O O19 0.750000 0.088860 0.250000
O O20 0.000000 0.087678 0.314345
O O21 0.750000 0.695226 0.750000
O O22 0.500000 0.681678 0.813588
#
# Coordination Sequence:
#
# PCOD8218359 Si02
#       8
#     8   8   8   8   8   8   8   8
#     4   9  16  28  47  69  90 115 154 196 225 258
#     4   9  15  27  47  71  93 115 152 198 233 262
#     4   9  16  28  49  72  90 115 157 201 229 259
#     4   8  14  26  46  69  90 114 154 199 232 262
#     4  10  20  32  48  71  98 125 155 192 237 283
#     4   8  14  27  47  69  90 116 153 198 234 264
#     4  10  19  30  47  71  96 121 148 185 232 278
#     4  10  19  29  43  66  94 121 147 181 225 271
#
# _framework density 18.516651
#
# number of rings (size 3 to 8) (size 9 to 14) (size 15 to 20)
#    0.000    2.875    1.250    1.875    0.000    4.000 
#    0.000    0.000    0.000    4.125    0.000    1.750 
#    0.000    0.000    0.000    0.000    0.000    0.000 
#
# Total GULP energy -793194.536269 kJ/mol
# GULP energy per Si atom -12393.664629 kJ/mol
# Density = 1.847451 g / cm^3
# Si number density = 18.516651 Si / 1000 Ang^3
#
#
#
# Elastic Constant Matrix: (Units=GPa)
#
#
# Indices 1 2 3 4 5 6 
#
# 1 11.3041 14.2514 16.1841 0.0000 0.0000 0.0000
# 2 14.2514 145.8763 55.6409 0.0000 0.0000 0.0000
# 3 16.1841 55.6409 106.8556 0.0000 0.0000 0.0000
# 4 0.0000 0.0000 0.0000 20.3906 0.0000 0.0000
# 5 0.0000 0.0000 0.0000 0.0000 24.5436 0.0000
# 6 0.0000 0.0000 0.0000 0.0000 0.0000 7.8194
#
#
#
# Elastic Compliance Matrix: (Units=1/GPa)
#
#
# Indices 1 2 3 4 5 6 
#
# 1 0.116785 -0.005818 -0.014658 0.000000 0.000000 0.000000
# 2 -0.005818 0.008844 -0.003724 0.000000 0.000000 0.000000
# 3 -0.014658 -0.003724 0.013518 0.000000 0.000000 0.000000
# 4 0.000000 0.000000 0.000000 0.049042 0.000000 0.000000
# 5 0.000000 0.000000 0.000000 0.000000 0.040744 0.000000
# 6 0.000000 0.000000 0.000000 0.000000 0.000000 0.127888
#
#
# Mechanical properties :
#
#
# Convention : Reuss Voigt Hill
#
# Bulk Modulus (GPa) = 11.01980 48.46543 29.74261
# Shear Modulus (GPa) = 11.48183 22.41468 16.94826
#
# Velocity S-wave (km/s) = 2.49285 3.48302 3.02867
# Velocity P-wave (km/s) = 3.77491 6.51199 5.32240
#
# Compressibility (1/GPa) = 0.09074577
#
# Stress axis : x y z
#
# Youngs Moduli (GPa) = 8.56271 113.07190 73.97742
#
# Poissons Ratio (x) = 0.65788 1.08439
# Poissons Ratio (y) = 0.04982 0.27549
# Poissons Ratio (z) = 0.12552 0.42107
#
# Static dielectric constant tensor:
#      x y z
#    x 2.680120 0.000000 0.000000 
#    y 0.000000 3.906200 0.000000 
#    z 0.000000 0.000000 3.464140 
# 
# 
# High freq. dielectric constant tensor:
#      x y z
#    x 1.638330 0.000000 0.000000 
#    y 0.000000 1.739770 0.000000 
#    z 0.000000 0.000000 1.722900 
# 
# From -- ./inp_files/26809.got.cif
#   From: 2010.03.12/outbox.cif.g09.slc.cpg/sg53_14_cif.got.tgz:26809.got - 2010.04.16 14:36:59.
