data_PCOD8218824
_publ_section_title
;
Structure prediction by ZEFSAII (Michael W. Deem and Ramdas Pophale) SiO2 
 PCOD8218824
Probable space group: P M N A
;
_chemical_formula_sum "Si O2"
_cell_formula_units_Z 48
_cell_length_a 8.976361
_cell_length_b 18.398704
_cell_length_c 16.262460
_cell_angle_alpha 90.000000
_cell_angle_beta 90.000000
_cell_angle_gamma 90.000000
_cell_volume 2685.800708
_symmetry_space_group_name_H-M "P M N A"
_symmetry_group_IT_number 53
_symmetry_cell_setting 'orthorhombic'
loop_
_space_group_symop_operation_xyz
x,y,z
1/2-x,-y,1/2+z
x,-y,-z
1/2-x,y,1/2-z
-x,-y,-z
1/2+x,y,1/2-z
-x,y,z
1/2+x,-y,1/2+z
loop_
_atom_site_type_symbol
_atom_site_label
_atom_site_fract_x
_atom_site_fract_y
_atom_site_fract_z
Si Si1 0.832536 0.455562 0.583717
Si Si2 0.175873 0.085368 0.665151
Si Si3 0.675124 0.580699 0.667582
Si Si4 0.663962 0.959974 0.586445
Si Si5 0.675266 0.831213 0.481883
Si Si6 0.325957 0.665643 0.504815
O O1 0.830624 0.500000 0.500000
O O2 0.738063 0.499868 0.650742
O O3 0.759178 0.377122 0.567527
O O4 0.000000 0.444665 0.616790
O O5 0.250000 0.110337 0.750000
O O6 0.232233 0.140294 0.595550
O O7 0.000000 0.090527 0.672458
O O8 0.220889 0.001569 0.645468
O O9 0.750000 0.612067 0.750000
O O10 0.500000 0.575138 0.679980
O O11 0.718788 0.635535 0.594382
O O12 0.500000 0.960842 0.628530
O O13 0.714517 0.877544 0.564630
O O14 0.654600 0.000000 0.500000
O O15 0.500000 0.838984 0.461740
O O16 0.722709 0.749143 0.500355
O O17 0.500000 0.654618 0.489117
#
# Coordination Sequence:
#
# PCOD8218824 Si02
#       6
#     8   8   8   8   8   8
#     4   9  17  30  49  72  97 126 162 202 241 286
#     4  11  21  33  51  74 100 130 167 210 252 294
#     4  10  19  32  51  74 100 131 167 207 250 294
#     4   8  15  30  51  72  96 127 161 197 239 289
#     4   9  18  34  54  75 102 134 165 200 247 301
#     4   9  18  33  53  75 101 134 167 200 245 301
#
# _framework density 17.871765
#
# number of rings (size 3 to 8) (size 9 to 14) (size 15 to 20)
#    0.000    2.667    0.000    3.500    0.000    6.333 
#    0.000    1.667    0.000    6.000    0.000    0.000 
#    0.000    0.000    0.000    0.000    0.000    0.000 
#
# Total GULP energy -595086.194896 kJ/mol
# GULP energy per Si atom -12397.629060 kJ/mol
# Density = 1.783109 g / cm^3
# Si number density = 17.871765 Si / 1000 Ang^3
#
#
#
# Elastic Constant Matrix: (Units=GPa)
#
#
# Indices 1 2 3 4 5 6 
#
# 1 107.6856 50.1840 49.5995 0.0000 0.0000 0.0000
# 2 50.1840 137.2162 38.8637 0.0000 0.0000 0.0000
# 3 49.5995 38.8637 76.6115 0.0000 0.0000 0.0000
# 4 0.0000 0.0000 0.0000 17.2715 0.0000 0.0000
# 5 0.0000 0.0000 0.0000 0.0000 29.6843 0.0000
# 6 0.0000 0.0000 0.0000 0.0000 0.0000 21.4567
#
#
#
# Elastic Compliance Matrix: (Units=1/GPa)
#
#
# Indices 1 2 3 4 5 6 
#
# 1 0.014236 -0.003032 -0.007679 0.000000 0.000000 0.000000
# 2 -0.003032 0.009156 -0.002682 0.000000 0.000000 0.000000
# 3 -0.007679 -0.002682 0.019385 0.000000 0.000000 0.000000
# 4 0.000000 0.000000 0.000000 0.057899 0.000000 0.000000
# 5 0.000000 0.000000 0.000000 0.000000 0.033688 0.000000
# 6 0.000000 0.000000 0.000000 0.000000 0.000000 0.046606
#
#
# Mechanical properties :
#
#
# Convention : Reuss Voigt Hill
#
# Bulk Modulus (GPa) = 62.53085 66.53420 64.53252
# Shear Modulus (GPa) = 23.46490 25.87356 24.66923
#
# Velocity S-wave (km/s) = 3.62741 3.80904 3.71933
# Velocity P-wave (km/s) = 7.25319 7.52692 7.39132
#
# Compressibility (1/GPa) = 0.01599211
#
# Stress axis : x y z
#
# Youngs Moduli (GPa) = 70.24512 109.21608 51.58716
#
# Poissons Ratio (x) = 0.33111 0.39612
# Poissons Ratio (y) = 0.21296 0.13836
# Poissons Ratio (z) = 0.53939 0.29292
#
# Static dielectric constant tensor:
#      x y z
#    x 3.322260 0.000000 0.000000 
#    y 0.000000 3.521340 0.000000 
#    z 0.000000 0.000000 3.173650 
# 
# 
# High freq. dielectric constant tensor:
#      x y z
#    x 1.694100 0.000000 0.000000 
#    y 0.000000 1.683610 0.000000 
#    z 0.000000 0.000000 1.670610 
# 
# From -- ./inp_files/26412.got.cif
#   From: 2010.03.12/outbox.cif.g09.slc.cpg/sg53_14_cif.got.tgz:26412.got - 2010.04.16 14:36:59.
