data_PCOD8218123
_publ_section_title
;
Structure prediction by ZEFSAII (Michael W. Deem and Ramdas Pophale) SiO2 
 PCOD8218123
Probable space group: P M N A
;
_chemical_formula_sum "Si O2"
_cell_formula_units_Z 48
_cell_length_a 9.199832
_cell_length_b 12.361781
_cell_length_c 25.058482
_cell_angle_alpha 90.000000
_cell_angle_beta 90.000000
_cell_angle_gamma 90.000000
_cell_volume 2849.808652
_symmetry_space_group_name_H-M "P M N A"
_symmetry_group_IT_number 53
_symmetry_cell_setting 'orthorhombic'
loop_
_space_group_symop_operation_xyz
x,y,z
1/2-x,-y,1/2+z
x,-y,-z
1/2-x,y,1/2-z
-x,-y,-z
1/2+x,y,1/2-z
-x,y,z
1/2+x,-y,1/2+z
loop_
_atom_site_type_symbol
_atom_site_label
_atom_site_fract_x
_atom_site_fract_y
_atom_site_fract_z
Si Si1 0.828784 0.278400 0.391132
Si Si2 0.331371 0.553368 0.802837
Si Si3 0.837623 0.775199 0.987863
Si Si4 0.826816 0.169909 0.894673
Si Si5 0.337491 0.924807 0.603095
Si Si6 0.671134 0.695881 0.195910
O O1 0.778577 0.375309 0.352724
O O2 0.763714 0.301791 0.450615
O O3 0.765357 0.164426 0.367811
O O4 0.000000 0.269421 0.395501
O O5 0.250000 0.592955 0.750000
O O6 0.500000 0.570755 0.791635
O O7 0.295226 0.429274 0.816129
O O8 0.776901 0.785752 0.047606
O O9 0.000000 0.725711 0.988913
O O10 0.840505 0.894559 0.960203
O O11 0.738778 0.236687 0.851753
O O12 0.000000 0.181686 0.887228
O O13 0.777263 0.045356 0.889072
O O14 0.500000 0.915884 0.627207
O O15 0.750000 0.732930 0.250000
O O16 0.500000 0.718833 0.200997
#
# Coordination Sequence:
#
# PCOD8218123 Si02
#       6
#     8   8   8   8   8   8
#     4   9  17  30  48  73 101 126 159 204 247 286
#     4   9  19  35  54  72  93 125 164 207 250 295
#     4   8  16  30  49  74 102 134 165 197 241 291
#     4  10  18  32  53  75 101 134 168 200 241 290
#     4   8  16  30  49  73 101 132 161 193 238 286
#     4  10  21  37  54  73  96 125 165 207 249 293
#
# _framework density 16.843236000000001
#
# number of rings (size 3 to 8) (size 9 to 14) (size 15 to 20)
#    1.000    2.000    0.000    1.000    0.000    5.333 
#    0.000    2.500    0.000    7.000    0.000    0.000 
#    0.000    0.000    0.000    0.000    0.000    0.000 
#
# Total GULP energy -594738.939161 kJ/mol
# GULP energy per Si atom -12390.394566 kJ/mol
# Density = 1.680490 g / cm^3
# Si number density = 16.843236 Si / 1000 Ang^3
#
#
#
# Elastic Constant Matrix: (Units=GPa)
#
#
# Indices 1 2 3 4 5 6 
#
# 1 68.8664 44.6809 56.7946 0.0000 0.0000 0.0000
# 2 44.6809 74.1566 78.2749 0.0000 0.0000 0.0000
# 3 56.7946 78.2749 108.8347 0.0000 0.0000 0.0000
# 4 0.0000 0.0000 0.0000 31.9161 0.0000 0.0000
# 5 0.0000 0.0000 0.0000 0.0000 31.7144 0.0000
# 6 0.0000 0.0000 0.0000 0.0000 0.0000 21.7700
#
#
#
# Elastic Compliance Matrix: (Units=1/GPa)
#
#
# Indices 1 2 3 4 5 6 
#
# 1 0.026038 -0.005589 -0.009568 0.000000 0.000000 0.000000
# 2 -0.005589 0.057189 -0.038214 0.000000 0.000000 0.000000
# 3 -0.009568 -0.038214 0.041665 0.000000 0.000000 0.000000
# 4 0.000000 0.000000 0.000000 0.031332 0.000000 0.000000
# 5 0.000000 0.000000 0.000000 0.000000 0.031531 0.000000
# 6 0.000000 0.000000 0.000000 0.000000 0.000000 0.045935
#
#
# Mechanical properties :
#
#
# Convention : Reuss Voigt Hill
#
# Bulk Modulus (GPa) = 55.09766 67.92875 61.51321
# Shear Modulus (GPa) = 14.43075 21.88726 18.15901
#
# Velocity S-wave (km/s) = 2.93024 3.60873 3.28703
# Velocity P-wave (km/s) = 6.65067 7.60141 7.14188
#
# Compressibility (1/GPa) = 0.01814959
#
# Stress axis : x y z
#
# Youngs Moduli (GPa) = 38.40563 17.48594 24.00083
#
# Poissons Ratio (x) = 0.09773 0.22964
# Poissons Ratio (y) = 0.21465 0.91717
# Poissons Ratio (z) = 0.36747 0.66821
#
# Static dielectric constant tensor:
#      x y z
#    x 3.090200 0.000000 0.000000 
#    y 0.000000 3.037340 0.000000 
#    z 0.000000 0.000000 3.056080 
# 
# 
# High freq. dielectric constant tensor:
#      x y z
#    x 1.649880 0.000000 0.000000 
#    y 0.000000 1.633620 0.000000 
#    z 0.000000 0.000000 1.636700 
# 
# From -- ./inp_files/31911.got.cif
#   From: 2010.03.12/outbox.cif.g09.slc.cpg/sg53_16_cif.got.tgz:31911.got - 2010.04.16 14:36:59.
