data_PCOD8218705
_publ_section_title
;
Structure prediction by ZEFSAII (Michael W. Deem and Ramdas Pophale) SiO2 
 PCOD8218705
Probable space group: P M N A
;
_chemical_formula_sum "Si O2"
_cell_formula_units_Z 64
_cell_length_a 9.316976
_cell_length_b 16.411183
_cell_length_c 24.433741
_cell_angle_alpha 90.000000
_cell_angle_beta 90.000000
_cell_angle_gamma 90.000000
_cell_volume 3735.982481
_symmetry_space_group_name_H-M "P M N A"
_symmetry_group_IT_number 53
_symmetry_cell_setting 'orthorhombic'
loop_
_space_group_symop_operation_xyz
x,y,z
1/2-x,-y,1/2+z
x,-y,-z
1/2-x,y,1/2-z
-x,-y,-z
1/2+x,y,1/2-z
-x,y,z
1/2+x,-y,1/2+z
loop_
_atom_site_type_symbol
_atom_site_label
_atom_site_fract_x
_atom_site_fract_y
_atom_site_fract_z
Si Si1 0.152366 0.471866 0.559924
Si Si2 0.333954 0.438888 0.164447
Si Si3 0.831349 0.849817 0.588385
Si Si4 0.655566 0.973738 0.061794
Si Si5 0.329081 0.829009 0.475391
Si Si6 0.830044 0.256105 0.305776
Si Si7 0.668252 0.403535 0.699792
Si Si8 0.334482 0.328164 0.586884
O O1 0.126570 0.500000 0.500000
O O2 0.190767 0.548081 0.599338
O O3 0.273813 0.405116 0.555308
O O4 0.000000 0.434489 0.581665
O O5 0.500000 0.450670 0.181716
O O6 0.282032 0.348413 0.180095
O O7 0.235578 0.506394 0.193403
O O8 0.742483 0.820304 0.535205
O O9 0.783177 0.801508 0.643168
O O10 0.000000 0.834948 0.576476
O O11 0.799724 0.946478 0.597333
O O12 0.500000 0.940384 0.082942
O O13 0.779194 0.905854 0.061450
O O14 0.633600 0.000000 0.000000
O O15 0.500000 0.833402 0.482731
O O16 0.272468 0.754450 0.438260
O O17 0.750000 0.228141 0.250000
O O18 0.000000 0.249457 0.296241
O O19 0.750000 0.360990 0.750000
O O20 0.500000 0.413824 0.710296
O O21 0.701121 0.341078 0.650664
O O22 0.500000 0.329188 0.574762
#
# Coordination Sequence:
#
# PCOD8218705 Si02
#       8
#     8   8   8   8   8   8   8   8
#     4   9  18  30  47  70  96 128 166 203 237 284
#     4   9  18  32  48  70  96 125 164 205 245 285
#     4   9  19  34  52  73  99 132 163 198 247 295
#     4   8  15  30  50  73  98 125 156 188 232 287
#     4  10  19  31  50  77 104 128 160 200 243 295
#     4  10  21  35  51  71  99 131 167 209 247 289
#     4  10  19  33  51  68  91 124 162 204 245 285
#     4   9  20  34  46  68 100 130 156 192 244 293
#
# _framework density 17.130701999999999
#
# number of rings (size 3 to 8) (size 9 to 14) (size 15 to 20)
#    0.000    2.750    0.000    1.875    1.750    6.000 
#    0.000    0.000    0.000    0.750    0.000    5.250 
#    0.000    0.000    0.000    0.000    0.000    0.000 
#
# Total GULP energy -792882.155201 kJ/mol
# GULP energy per Si atom -12388.783675 kJ/mol
# Density = 1.709171 g / cm^3
# Si number density = 17.130702 Si / 1000 Ang^3
#
#
#
# Elastic Constant Matrix: (Units=GPa)
#
#
# Indices 1 2 3 4 5 6 
#
# 1 48.0899 35.1758 57.2354 0.0000 0.0000 0.0000
# 2 35.1758 96.2060 65.6308 0.0000 0.0000 0.0000
# 3 57.2354 65.6308 104.2725 0.0000 0.0000 0.0000
# 4 0.0000 0.0000 0.0000 19.5649 0.0000 0.0000
# 5 0.0000 0.0000 0.0000 0.0000 -7.7807 0.0000
# 6 0.0000 0.0000 0.0000 0.0000 0.0000 25.5125
#
#
#
# Elastic Compliance Matrix: (Units=1/GPa)
#
#
# Indices 1 2 3 4 5 6 
#
# 1 0.060024 0.000928 -0.033531 0.000000 0.000000 0.000000
# 2 0.000928 0.018230 -0.011984 0.000000 0.000000 0.000000
# 3 -0.033531 -0.011984 0.035539 0.000000 0.000000 0.000000
# 4 0.000000 0.000000 0.000000 0.051112 0.000000 0.000000
# 5 0.000000 0.000000 0.000000 0.000000 -0.128523 0.000000
# 6 0.000000 0.000000 0.000000 0.000000 0.000000 0.039196
#
#
# Mechanical properties :
#
#
# Convention : Reuss Voigt Hill
#
# Bulk Modulus (GPa) = 40.62001 62.73914 51.67958
# Shear Modulus (GPa) = 28.90884 13.49444 21.20164
#
# Velocity S-wave (km/s) = 4.11243 2.80971 3.52183
# Velocity P-wave (km/s) = 6.80535 6.87235 6.83893
#
# Compressibility (1/GPa) = 0.02461841
#
# Stress axis : x y z
#
# Youngs Moduli (GPa) = 16.66012 54.85374 28.13844
#
# Poissons Ratio (x) = -0.05092 0.94352
# Poissons Ratio (y) = -0.01547 0.33721
# Poissons Ratio (z) = 0.55864 0.65737
#
# Static dielectric constant tensor:
#      x y z
#    x 3.343770 0.000000 0.000000 
#    y 0.000000 3.510180 0.000000 
#    z 0.000000 0.000000 3.163800 
# 
# 
# High freq. dielectric constant tensor:
#      x y z
#    x 1.665290 0.000000 0.000000 
#    y 0.000000 1.645800 0.000000 
#    z 0.000000 0.000000 1.651600 
# 
# From -- ./inp_files/34449.got.cif
#   From: 2010.03.12/outbox.cif.g09.slc.cpg/sg53_18_cif.got.tgz:34449.got - 2010.04.16 14:36:59.
