data_PCOD8218603
_publ_section_title
;
Structure prediction by ZEFSAII (Michael W. Deem and Ramdas Pophale) SiO2 
 PCOD8218603
Probable space group: P M N A
;
_chemical_formula_sum "Si O2"
_cell_formula_units_Z 64
_cell_length_a 9.093871
_cell_length_b 18.751958
_cell_length_c 21.043203
_cell_angle_alpha 90.000000
_cell_angle_beta 90.000000
_cell_angle_gamma 90.000000
_cell_volume 3588.452944
_symmetry_space_group_name_H-M "P M N A"
_symmetry_group_IT_number 53
_symmetry_cell_setting 'orthorhombic'
loop_
_space_group_symop_operation_xyz
x,y,z
1/2-x,-y,1/2+z
x,-y,-z
1/2-x,y,1/2-z
-x,-y,-z
1/2+x,y,1/2-z
-x,y,z
1/2+x,-y,1/2+z
loop_
_atom_site_type_symbol
_atom_site_label
_atom_site_fract_x
_atom_site_fract_y
_atom_site_fract_z
Si Si1 0.171892 0.982435 0.185668
Si Si2 0.663943 0.661343 0.535861
Si Si3 0.328315 0.057778 0.446379
Si Si4 0.838370 0.599776 0.101183
Si Si5 0.165620 0.469309 0.428932
Si Si6 0.165169 0.847333 0.361423
Si Si7 0.825500 0.806964 0.503198
Si Si8 0.835448 0.304811 0.688935
O O1 0.250000 0.011379 0.250000
O O2 0.224947 0.903298 0.169360
O O3 0.000000 0.979411 0.199872
O O4 0.207606 0.030961 0.124643
O O5 0.500000 0.675704 0.564181
O O6 0.645018 0.616453 0.472282
O O7 0.760171 0.608643 0.579921
O O8 0.747441 0.735625 0.527064
O O9 0.500000 0.076381 0.454412
O O10 0.230420 0.127946 0.453877
O O11 0.281865 0.000000 0.500000
O O12 0.757851 0.524677 0.113947
O O13 0.742503 0.664352 0.127394
O O14 0.000000 0.596672 0.133016
O O15 0.162958 0.500000 0.500000
O O16 0.000000 0.463439 0.402656
O O17 0.220801 0.823704 0.430896
O O18 0.166579 0.780254 0.314752
O O19 0.000000 0.879423 0.365997
O O20 0.000000 0.797254 0.509870
O O21 0.750000 0.332715 0.750000
O O22 0.000000 0.334496 0.691886
#
# Coordination Sequence:
#
# PCOD8218603 Si02
#       8
#     8   8   8   8   8   8   8   8
#     4  11  23  38  58  79 106 140 180 226 271 324
#     4  10  19  31  49  73 103 135 169 209 255 313
#     4  10  21  38  56  78 107 141 179 221 272 327
#     4  10  19  31  48  70  97 133 173 212 258 307
#     4   9  17  29  47  70  98 130 164 205 250 297
#     4  10  21  35  52  75 105 140 180 221 266 318
#     4  11  21  33  53  80 108 140 177 221 269 321
#     4  11  22  35  48  68 100 138 181 223 262 311
#
# _framework density 17.834985
#
# number of rings (size 3 to 8) (size 9 to 14) (size 15 to 20)
#    0.000    1.750    2.500    2.625    0.000    6.250 
#    0.000    0.000    0.000    0.000    0.000    0.875 
#    0.000    2.000    0.000    0.000    0.000    0.000 
#
# Total GULP energy -793528.336311 kJ/mol
# GULP energy per Si atom -12398.880255 kJ/mol
# Density = 1.779439 g / cm^3
# Si number density = 17.834985 Si / 1000 Ang^3
#
#
#
# Elastic Constant Matrix: (Units=GPa)
#
#
# Indices 1 2 3 4 5 6 
#
# 1 137.0897 52.9463 35.6871 0.0000 0.0000 0.0000
# 2 52.9463 94.5230 25.1783 0.0000 0.0000 0.0000
# 3 35.6871 25.1783 56.1862 0.0000 0.0000 0.0000
# 4 0.0000 0.0000 0.0000 11.5384 0.0000 0.0000
# 5 0.0000 0.0000 0.0000 0.0000 24.9269 0.0000
# 6 0.0000 0.0000 0.0000 0.0000 0.0000 33.2531
#
#
#
# Elastic Compliance Matrix: (Units=1/GPa)
#
#
# Indices 1 2 3 4 5 6 
#
# 1 0.010202 -0.004529 -0.004450 0.000000 0.000000 0.000000
# 2 -0.004529 0.014024 -0.003408 0.000000 0.000000 0.000000
# 3 -0.004450 -0.003408 0.022152 0.000000 0.000000 0.000000
# 4 0.000000 0.000000 0.000000 0.086667 0.000000 0.000000
# 5 0.000000 0.000000 0.000000 0.000000 0.040117 0.000000
# 6 0.000000 0.000000 0.000000 0.000000 0.000000 0.030072
#
#
# Mechanical properties :
#
#
# Convention : Reuss Voigt Hill
#
# Bulk Modulus (GPa) = 46.28897 57.26915 51.77906
# Shear Modulus (GPa) = 21.25748 25.54282 23.40015
#
# Velocity S-wave (km/s) = 3.45613 3.78851 3.62613
# Velocity P-wave (km/s) = 6.47587 7.16362 6.82841
#
# Compressibility (1/GPa) = 0.02160342
#
# Stress axis : x y z
#
# Youngs Moduli (GPa) = 98.01707 71.30530 45.14308
#
# Poissons Ratio (x) = 0.32296 0.20091
# Poissons Ratio (y) = 0.44395 0.15384
# Poissons Ratio (z) = 0.43622 0.24299
#
# Static dielectric constant tensor:
#      x y z
#    x 3.561600 0.000000 0.000000 
#    y 0.000000 3.206380 0.000000 
#    z 0.000000 0.000000 3.082330 
# 
# 
# High freq. dielectric constant tensor:
#      x y z
#    x 1.709990 0.000000 0.000000 
#    y 0.000000 1.683190 0.000000 
#    z 0.000000 0.000000 1.648060 
# 
# From -- ./inp_files/31191.got.cif
#   From: 2010.03.12/outbox.cif.g09.slc.cpg/sg53_16_cif.got.tgz:31191.got - 2010.04.16 14:36:59.
