data_PCOD8218727
_publ_section_title
;
Structure prediction by ZEFSAII (Michael W. Deem and Ramdas Pophale) SiO2 
 PCOD8218727
Probable space group: P M N A
;
_chemical_formula_sum "Si O2"
_cell_formula_units_Z 64
_cell_length_a 8.878606
_cell_length_b 19.539715
_cell_length_c 19.788774
_cell_angle_alpha 90.000000
_cell_angle_beta 90.000000
_cell_angle_gamma 90.000000
_cell_volume 3433.063983
_symmetry_space_group_name_H-M "P M N A"
_symmetry_group_IT_number 53
_symmetry_cell_setting 'orthorhombic'
loop_
_space_group_symop_operation_xyz
x,y,z
1/2-x,-y,1/2+z
x,-y,-z
1/2-x,y,1/2-z
-x,-y,-z
1/2+x,y,1/2-z
-x,y,z
1/2+x,-y,1/2+z
loop_
_atom_site_type_symbol
_atom_site_label
_atom_site_fract_x
_atom_site_fract_y
_atom_site_fract_z
Si Si1 0.174419 0.702803 0.556347
Si Si2 0.822679 0.394360 0.319114
Si Si3 0.176708 0.109397 0.888459
Si Si4 0.673382 0.647125 0.086729
Si Si5 0.821389 0.539271 0.179523
Si Si6 0.323665 0.154234 0.461850
Si Si7 0.170088 0.976934 0.577103
Si Si8 0.325746 0.770769 0.183221
O O1 0.211515 0.659896 0.622810
O O2 0.217063 0.656237 0.491705
O O3 0.272488 0.770877 0.560230
O O4 0.000000 0.724191 0.551737
O O5 0.750000 0.365805 0.250000
O O6 0.744441 0.465384 0.339197
O O7 0.000000 0.406801 0.309213
O O8 0.251362 0.156228 0.831676
O O9 0.000000 0.108060 0.877593
O O10 0.238933 0.032580 0.879210
O O11 0.222377 0.140904 0.960791
O O12 0.500000 0.624352 0.095761
O O13 0.779847 0.589826 0.118692
O O14 0.704434 0.719598 0.121779
O O15 0.750000 0.565901 0.250000
O O16 0.000000 0.535394 0.187693
O O17 0.500000 0.146737 0.450961
O O18 0.244232 0.097730 0.414368
O O19 0.000000 0.973490 0.603890
O O20 0.178077 0.000000 0.500000
O O21 0.250000 0.739003 0.250000
O O22 0.500000 0.782090 0.197085
#
# Coordination Sequence:
#
# PCOD8218727 Si02
#       8
#     8   8   8   8   8   8   8   8
#     4  10  21  37  58  83 112 147 182 224 277 334
#     4  10  21  39  62  84 109 141 181 225 274 333
#     4  10  19  32  50  75 107 140 181 228 274 322
#     4  10  21  37  56  80 111 145 185 229 274 327
#     4  11  22  37  58  81 110 146 187 229 273 325
#     4  10  19  31  51  80 112 142 175 224 276 323
#     4   9  17  29  49  74 103 140 180 220 265 320
#     4  11  22  35  53  75 107 149 191 230 274 329
#
# _framework density 18.642239
#
# number of rings (size 3 to 8) (size 9 to 14) (size 15 to 20)
#    0.000    1.875    1.250    4.125    0.000    6.500 
#    0.000    2.500    0.000    0.750    0.000    3.500 
#    0.000    0.000    0.000    0.000    0.000    0.000 
#
# Total GULP energy -793824.137810 kJ/mol
# GULP energy per Si atom -12403.502153 kJ/mol
# Density = 1.859981 g / cm^3
# Si number density = 18.642239 Si / 1000 Ang^3
#
#
#
# Elastic Constant Matrix: (Units=GPa)
#
#
# Indices 1 2 3 4 5 6 
#
# 1 112.9974 58.2262 45.9989 0.0000 0.0000 0.0000
# 2 58.2262 103.1859 48.2234 0.0000 0.0000 0.0000
# 3 45.9989 48.2234 85.9885 0.0000 0.0000 0.0000
# 4 0.0000 0.0000 0.0000 23.1747 0.0000 0.0000
# 5 0.0000 0.0000 0.0000 0.0000 26.9784 0.0000
# 6 0.0000 0.0000 0.0000 0.0000 0.0000 35.9779
#
#
#
# Elastic Compliance Matrix: (Units=1/GPa)
#
#
# Indices 1 2 3 4 5 6 
#
# 1 0.013409 -0.005711 -0.003970 0.000000 0.000000 0.000000
# 2 -0.005711 0.015566 -0.005674 0.000000 0.000000 0.000000
# 3 -0.003970 -0.005674 0.016936 0.000000 0.000000 0.000000
# 4 0.000000 0.000000 0.000000 0.043150 0.000000 0.000000
# 5 0.000000 0.000000 0.000000 0.000000 0.037067 0.000000
# 6 0.000000 0.000000 0.000000 0.000000 0.000000 0.027795
#
#
# Mechanical properties :
#
#
# Convention : Reuss Voigt Hill
#
# Bulk Modulus (GPa) = 65.79377 67.45211 66.62294
# Shear Modulus (GPa) = 26.35750 27.20774 26.78262
#
# Velocity S-wave (km/s) = 3.76421 3.82444 3.79445
# Velocity P-wave (km/s) = 7.36626 7.46745 7.41703
#
# Compressibility (1/GPa) = 0.01519901
#
# Stress axis : x y z
#
# Youngs Moduli (GPa) = 74.57852 64.24361 59.04732
#
# Poissons Ratio (x) = 0.36689 0.23443
# Poissons Ratio (y) = 0.42591 0.33506
# Poissons Ratio (z) = 0.29609 0.36455
#
# Static dielectric constant tensor:
#      x y z
#    x 3.479530 0.000000 0.000000 
#    y 0.000000 3.394670 0.000000 
#    z 0.000000 0.000000 3.265900 
# 
# 
# High freq. dielectric constant tensor:
#      x y z
#    x 1.735120 0.000000 0.000000 
#    y 0.000000 1.726180 0.000000 
#    z 0.000000 0.000000 1.697740 
# 
# From -- ./inp_files/31150.got.cif
#   From: 2010.03.12/outbox.cif.g09.slc.cpg/sg53_16_cif.got.tgz:31150.got - 2010.04.16 14:36:59.
