data_PCOD8218193
_publ_section_title
;
Structure prediction by ZEFSAII (Michael W. Deem and Ramdas Pophale) SiO2 
 PCOD8218193
Probable space group: P M N A
;
_chemical_formula_sum "Si O2"
_cell_formula_units_Z 48
_cell_length_a 17.845906
_cell_length_b 5.012555
_cell_length_c 30.038510
_cell_angle_alpha 90.000000
_cell_angle_beta 90.000000
_cell_angle_gamma 90.000000
_cell_volume 2687.052418
_symmetry_space_group_name_H-M "P M N A"
_symmetry_group_IT_number 53
_symmetry_cell_setting 'orthorhombic'
loop_
_space_group_symop_operation_xyz
x,y,z
1/2-x,-y,1/2+z
x,-y,-z
1/2-x,y,1/2-z
-x,-y,-z
1/2+x,y,1/2-z
-x,y,z
1/2+x,-y,1/2+z
loop_
_atom_site_type_symbol
_atom_site_label
_atom_site_fract_x
_atom_site_fract_y
_atom_site_fract_z
Si Si1 0.582776 0.070586 0.063753
Si Si2 0.322203 0.427662 0.953081
Si Si3 0.324020 0.378243 0.719544
Si Si4 0.774265 0.506798 0.357776
Si Si5 0.915141 0.881061 0.754784
Si Si6 0.631146 0.995323 0.841453
O O1 0.500000 0.031852 0.043393
O O2 0.609353 0.370027 0.054587
O O3 0.576479 0.025375 0.116629
O O4 0.641452 0.864719 0.041962
O O5 0.264739 0.444357 0.911245
O O6 0.281011 0.500000 0.000000
O O7 0.250000 0.392958 0.750000
O O8 0.303351 0.440254 0.668037
O O9 0.385742 0.584878 0.736410
O O10 0.360100 0.085820 0.720473
O O11 0.798849 0.205146 0.347664
O O12 0.836870 0.705726 0.337979
O O13 0.916123 0.934342 0.702207
O O14 0.000000 0.906582 0.772702
#
# Coordination Sequence:
#
# PCOD8218193 Si02
#       6
#     8   8   8   8   8   8
#     4  10  20  31  46  66  94 131 167 202 250 295
#     4  10  21  34  48  67  93 122 163 216 254 287
#     4  12  21  36  56  76 103 140 179 209 250 311
#     4  10  20  33  53  72  94 130 174 209 244 297
#     4  12  23  34  52  79 110 137 172 216 256 296
#     4  10  18  33  48  71  99 133 171 210 244 285
#
# _framework density 17.863440000000001
#
# number of rings (size 3 to 8) (size 9 to 14) (size 15 to 20)
#    0.000    1.333    3.333    3.500    0.000    2.000 
#    0.000    5.000    0.000    0.000    0.000    0.000 
#    0.000    4.000    0.000    0.000    0.000    0.000 
#
# Total GULP energy -595217.748876 kJ/mol
# GULP energy per Si atom -12400.369768 kJ/mol
# Density = 1.782278 g / cm^3
# Si number density = 17.863440 Si / 1000 Ang^3
#
#
#
# Elastic Constant Matrix: (Units=GPa)
#
#
# Indices 1 2 3 4 5 6 
#
# 1 60.3354 10.5203 28.4956 0.0000 0.0000 0.0000
# 2 10.5203 71.3370 3.9419 0.0000 0.0000 0.0000
# 3 28.4956 3.9419 88.8343 0.0000 0.0000 0.0000
# 4 0.0000 0.0000 0.0000 22.6932 0.0000 0.0000
# 5 0.0000 0.0000 0.0000 0.0000 1.2455 0.0000
# 6 0.0000 0.0000 0.0000 0.0000 0.0000 -21.0374
#
#
#
# Elastic Compliance Matrix: (Units=1/GPa)
#
#
# Indices 1 2 3 4 5 6 
#
# 1 0.020004 -0.002602 -0.006301 0.000000 0.000000 0.000000
# 2 -0.002602 0.014391 0.000196 0.000000 0.000000 0.000000
# 3 -0.006301 0.000196 0.013269 0.000000 0.000000 0.000000
# 4 0.000000 0.000000 0.000000 0.044066 0.000000 0.000000
# 5 0.000000 0.000000 0.000000 0.000000 0.802895 0.000000
# 6 0.000000 0.000000 0.000000 0.000000 0.000000 -0.047534
#
#
# Mechanical properties :
#
#
# Convention : Reuss Voigt Hill
#
# Bulk Modulus (GPa) = 33.05785 34.04694 33.55239
# Shear Modulus (GPa) = 5.71697 12.41684 9.06691
#
# Velocity S-wave (km/s) = 1.79090 2.63933 2.25537
# Velocity P-wave (km/s) = 4.77729 5.32814 5.06021
#
# Compressibility (1/GPa) = 0.03025000
#
# Stress axis : x y z
#
# Youngs Moduli (GPa) = 49.99089 69.48870 75.36106
#
# Poissons Ratio (x) = 0.18080 0.47486
# Poissons Ratio (y) = 0.13007 -0.01477
# Poissons Ratio (z) = 0.31500 -0.01362
#
# Static dielectric constant tensor:
#      x y z
#    x 2.878610 0.000000 0.000000 
#    y 0.000000 3.471040 0.000000 
#    z 0.000000 0.000000 3.656460 
# 
# 
# High freq. dielectric constant tensor:
#      x y z
#    x 1.630420 0.000000 0.000000 
#    y 0.000000 1.716470 0.000000 
#    z 0.000000 0.000000 1.694380 
# 
# From -- ./inp_files/38808.got.cif
#   From: 2010.03.12/outbox.cif.g09.slc.cpg/sg53_20_cif.got.tgz:38808.got - 2010.04.16 14:36:59.
