data_PCOD8218939
_publ_section_title
;
Structure prediction by ZEFSAII (Michael W. Deem and Ramdas Pophale) SiO2 
 PCOD8218939
Probable space group: P M N A
;
_chemical_formula_sum "Si O2"
_cell_formula_units_Z 48
_cell_length_a 26.942279
_cell_length_b 17.992045
_cell_length_c 5.145812
_cell_angle_alpha 90.000000
_cell_angle_beta 90.000000
_cell_angle_gamma 90.000000
_cell_volume 2494.415366
_symmetry_space_group_name_H-M "P M N A"
_symmetry_group_IT_number 53
_symmetry_cell_setting 'orthorhombic'
loop_
_space_group_symop_operation_xyz
x,y,z
1/2-x,-y,1/2+z
x,-y,-z
1/2-x,y,1/2-z
-x,-y,-z
1/2+x,y,1/2-z
-x,y,z
1/2+x,-y,1/2+z
loop_
_atom_site_type_symbol
_atom_site_label
_atom_site_fract_x
_atom_site_fract_y
_atom_site_fract_z
Si Si1 0.192439 0.547439 0.752573
Si Si2 0.944284 0.161401 0.602701
Si Si3 0.385601 0.837393 0.599816
Si Si4 0.444944 0.662139 0.124679
Si Si5 0.112321 0.661321 0.872023
Si Si6 0.218479 0.086959 0.002448
O O1 0.177124 0.500000 0.500000
O O2 0.250000 0.568590 0.750000
O O3 0.164027 0.625130 0.783646
O O4 0.177545 0.500000 0.000000
O O5 0.907998 0.132874 0.372198
O O6 0.946064 0.249552 0.614561
O O7 0.000000 0.129799 0.560236
O O8 0.923251 0.134199 0.878084
O O9 0.379696 0.749107 0.616700
O O10 0.332699 0.869783 0.523728
O O11 0.500000 0.630815 0.179561
O O12 0.407923 0.633064 0.349737
O O13 0.427325 0.634832 0.843209
O O14 0.250000 0.111112 0.750000
O O15 0.250000 0.110327 0.250000
O O16 0.206351 0.000000 0.000000
#
# Coordination Sequence:
#
# PCOD8218939 Si02
#       6
#     8   8   8   8   8   8
#     4  10  21  37  54  71  96 133 169 202 252 311
#     4   9  17  30  50  77 107 136 167 206 255 309
#     4  10  19  32  53  80 104 131 172 217 255 294
#     4   9  17  30  50  76 104 132 163 201 249 303
#     4  10  19  32  53  78 100 128 168 212 250 289
#     4  10  21  37  55  75 104 143 178 210 260 320
#
# _framework density 19.242986999999999
#
# number of rings (size 3 to 8) (size 9 to 14) (size 15 to 20)
#    0.000    2.333    0.000    3.000    0.000    4.667 
#    0.000    2.500    0.000   13.000    0.000    0.000 
#    0.000    0.000    0.000    0.000    0.000    0.000 
#
# Total GULP energy -595057.429761 kJ/mol
# GULP energy per Si atom -12397.029787 kJ/mol
# Density = 1.919919 g / cm^3
# Si number density = 19.242987 Si / 1000 Ang^3
#
#
#
# Elastic Constant Matrix: (Units=GPa)
#
#
# Indices 1 2 3 4 5 6 
#
# 1 139.8821 42.2674 63.1011 0.0000 0.0000 0.0000
# 2 42.2674 30.8118 29.6173 0.0000 0.0000 0.0000
# 3 63.1011 29.6173 165.7687 0.0000 0.0000 0.0000
# 4 0.0000 0.0000 0.0000 28.5993 0.0000 0.0000
# 5 0.0000 0.0000 0.0000 0.0000 72.2403 0.0000
# 6 0.0000 0.0000 0.0000 0.0000 0.0000 4.8842
#
#
#
# Elastic Compliance Matrix: (Units=1/GPa)
#
#
# Indices 1 2 3 4 5 6 
#
# 1 0.012784 -0.015526 -0.002092 0.000000 0.000000 0.000000
# 2 -0.015526 0.058040 -0.004460 0.000000 0.000000 0.000000
# 3 -0.002092 -0.004460 0.007626 0.000000 0.000000 0.000000
# 4 0.000000 0.000000 0.000000 0.034966 0.000000 0.000000
# 5 0.000000 0.000000 0.000000 0.000000 0.013843 0.000000
# 6 0.000000 0.000000 0.000000 0.000000 0.000000 0.204742
#
#
# Mechanical properties :
#
#
# Convention : Reuss Voigt Hill
#
# Bulk Modulus (GPa) = 29.15958 67.38157 48.27057
# Shear Modulus (GPa) = 12.90028 34.57657 23.73842
#
# Velocity S-wave (km/s) = 2.59200 4.24351 3.51609
# Velocity P-wave (km/s) = 4.91367 7.68779 6.45160
#
# Compressibility (1/GPa) = 0.03429405
#
# Stress axis : x y z
#
# Youngs Moduli (GPa) = 78.22189 17.22939 131.13350
#
# Poissons Ratio (x) = 0.26750 0.27439
# Poissons Ratio (y) = 1.21447 0.58483
# Poissons Ratio (z) = 0.16367 0.07684
#
# Static dielectric constant tensor:
#      x y z
#    x 4.475020 0.000000 0.000000 
#    y 0.000000 3.040480 0.000000 
#    z 0.000000 0.000000 3.888220 
# 
# 
# High freq. dielectric constant tensor:
#      x y z
#    x 1.757500 0.000000 0.000000 
#    y 0.000000 1.701340 0.000000 
#    z 0.000000 0.000000 1.773020 
# 
# From -- ./inp_files/3755.got.cif
#   From: 2010.03.12/outbox.cif.g09.slc.cpg/sg53_2_cif.got.tgz:3755.got - 2010.04.16 14:36:59.
