data_PCOD8218870
_publ_section_title
;
Structure prediction by ZEFSAII (Michael W. Deem and Ramdas Pophale) SiO2 
 PCOD8218870
Probable space group: P M N A
;
_chemical_formula_sum "Si O2"
_cell_formula_units_Z 40
_cell_length_a 9.449352
_cell_length_b 11.234362
_cell_length_c 21.374944
_cell_angle_alpha 90.000000
_cell_angle_beta 90.000000
_cell_angle_gamma 90.000000
_cell_volume 2269.109357
_symmetry_space_group_name_H-M "P M N A"
_symmetry_group_IT_number 53
_symmetry_cell_setting 'orthorhombic'
loop_
_space_group_symop_operation_xyz
x,y,z
1/2-x,-y,1/2+z
x,-y,-z
1/2-x,y,1/2-z
-x,-y,-z
1/2+x,y,1/2-z
-x,y,z
1/2+x,-y,1/2+z
loop_
_atom_site_type_symbol
_atom_site_label
_atom_site_fract_x
_atom_site_fract_y
_atom_site_fract_z
Si Si1 0.663171 0.694180 0.309013
Si Si2 0.341694 0.564738 0.092726
Si Si3 0.163990 0.028505 0.810902
Si Si4 0.832106 0.917723 0.942399
Si Si5 0.842300 0.683875 0.540955
O O1 0.750000 0.648318 0.250000
O O2 0.500000 0.666167 0.297745
O O3 0.717279 0.619725 0.367058
O O4 0.691034 0.832544 0.321446
O O5 0.500000 0.589771 0.119558
O O6 0.315941 0.422840 0.090025
O O7 0.326774 0.626676 0.026439
O O8 0.250000 0.981985 0.750000
O O9 0.000000 0.000175 0.798268
O O10 0.218072 0.967602 0.874955
O O11 0.771490 0.786253 0.949348
O O12 0.000000 0.909676 0.945090
O O13 0.777149 0.000000 0.000000
O O14 0.000000 0.737080 0.550048
#
# Coordination Sequence:
#
# PCOD8218870 Si02
#       5
#     8   8   8   8   8
#     4  10  19  32  52  76 100 129 166 205 247 295
#     4   9  18  34  52  72 101 131 162 204 250 295
#     4   9  19  34  51  73 102 134 166 205 252 299
#     4  10  20  34  52  76 105 133 167 212 255 299
#     4   9  19  34  52  74 100 131 165 204 250 297
#
# _framework density 17.628063000000001
#
# number of rings (size 3 to 8) (size 9 to 14) (size 15 to 20)
#    0.000    2.600    0.000    3.000    0.000    5.200 
#    0.000    3.000    0.000    2.400    0.000    0.000 
#    0.000    0.000    0.000    0.000    0.000    0.000 
#
# Total GULP energy -495911.807215 kJ/mol
# GULP energy per Si atom -12397.795180 kJ/mol
# Density = 1.758794 g / cm^3
# Si number density = 17.628063 Si / 1000 Ang^3
#
#
#
# Elastic Constant Matrix: (Units=GPa)
#
#
# Indices 1 2 3 4 5 6 
#
# 1 69.1145 42.5943 43.4662 0.0000 0.0000 0.0000
# 2 42.5943 76.7081 43.6827 0.0000 0.0000 0.0000
# 3 43.4662 43.6827 96.1556 0.0000 0.0000 0.0000
# 4 0.0000 0.0000 0.0000 26.1435 0.0000 0.0000
# 5 0.0000 0.0000 0.0000 0.0000 34.3302 0.0000
# 6 0.0000 0.0000 0.0000 0.0000 0.0000 31.9102
#
#
#
# Elastic Compliance Matrix: (Units=1/GPa)
#
#
# Indices 1 2 3 4 5 6 
#
# 1 0.024823 -0.009974 -0.006690 0.000000 0.000000 0.000000
# 2 -0.009974 0.021594 -0.005301 0.000000 0.000000 0.000000
# 3 -0.006690 -0.005301 0.015832 0.000000 0.000000 0.000000
# 4 0.000000 0.000000 0.000000 0.038250 0.000000 0.000000
# 5 0.000000 0.000000 0.000000 0.000000 0.029129 0.000000
# 6 0.000000 0.000000 0.000000 0.000000 0.000000 0.031338
#
#
# Mechanical properties :
#
#
# Convention : Reuss Voigt Hill
#
# Bulk Modulus (GPa) = 54.58908 55.71831 55.15369
# Shear Modulus (GPa) = 23.69647 25.95910 24.82778
#
# Velocity S-wave (km/s) = 3.67037 3.84161 3.75697
# Velocity P-wave (km/s) = 6.99976 7.16615 7.08344
#
# Compressibility (1/GPa) = 0.01831868
#
# Stress axis : x y z
#
# Youngs Moduli (GPa) = 40.28559 46.31002 63.16256
#
# Poissons Ratio (x) = 0.46189 0.42255
# Poissons Ratio (y) = 0.40181 0.33484
# Poissons Ratio (z) = 0.26950 0.24550
#
# Static dielectric constant tensor:
#      x y z
#    x 3.450540 0.000000 0.000000 
#    y 0.000000 3.210750 0.000000 
#    z 0.000000 0.000000 3.635770 
# 
# 
# High freq. dielectric constant tensor:
#      x y z
#    x 1.682680 0.000000 0.000000 
#    y 0.000000 1.671770 0.000000 
#    z 0.000000 0.000000 1.681860 
# 
# From -- ./inp_files/25839.got.cif
#   From: 2010.03.12/outbox.cif.g09.slc.cpg/sg53_13_cif.got.tgz:25839.got - 2010.04.16 14:36:59.
