data_PCOD8218274
_publ_section_title
;
Structure prediction by ZEFSAII (Michael W. Deem and Ramdas Pophale) SiO2 
 PCOD8218274
Probable space group: P M N A
;
_chemical_formula_sum "Si O2"
_cell_formula_units_Z 56
_cell_length_a 17.015853
_cell_length_b 11.930319
_cell_length_c 13.428320
_cell_angle_alpha 90.000000
_cell_angle_beta 90.000000
_cell_angle_gamma 90.000000
_cell_volume 2726.010117
_symmetry_space_group_name_H-M "P M N A"
_symmetry_group_IT_number 53
_symmetry_cell_setting 'orthorhombic'
loop_
_space_group_symop_operation_xyz
x,y,z
1/2-x,-y,1/2+z
x,-y,-z
1/2-x,y,1/2-z
-x,-y,-z
1/2+x,y,1/2-z
-x,y,z
1/2+x,-y,1/2+z
loop_
_atom_site_type_symbol
_atom_site_label
_atom_site_fract_x
_atom_site_fract_y
_atom_site_fract_z
Si Si1 0.841793 0.725147 0.618412
Si Si2 0.092012 0.330142 0.863595
Si Si3 0.341565 0.527850 0.745654
Si Si4 0.091751 0.861487 0.797183
Si Si5 0.592264 0.882906 0.040717
Si Si6 0.837865 0.306748 0.070840
Si Si7 0.092557 0.889066 0.240350
O O1 0.866185 0.598400 0.654415
O O2 0.853507 0.805679 0.713044
O O3 0.891464 0.773184 0.526533
O O4 0.752664 0.725520 0.581943
O O5 0.110332 0.413293 0.770603
O O6 0.122437 0.207245 0.832936
O O7 0.000000 0.334858 0.888236
O O8 0.141866 0.356874 0.962656
O O9 0.250000 0.498969 0.750000
O O10 0.362878 0.599490 0.649008
O O11 0.110077 0.803916 0.903639
O O12 0.000000 0.848300 0.768154
O O13 0.116636 0.991031 0.804441
O O14 0.500000 0.897540 0.048027
O O15 0.629472 0.867777 0.150242
O O16 0.628441 0.000000 0.000000
O O17 0.000000 0.879057 0.250417
#
# Coordination Sequence:
#
# PCOD8218274 Si02
#       7
#     8   8   8   8   8   8   8
#     4  10  20  37  58  89 119 146 195 252 307 358
#     4  11  23  40  60  86 120 161 209 249 296 366
#     4   9  21  40  60  80 114 155 196 251 305 351
#     4  10  18  35  60  83 113 156 197 240 301 360
#     4  10  18  34  60  87 114 151 199 244 294 355
#     4  10  22  38  56  85 122 153 196 251 301 361
#     4   9  20  36  54  82 118 151 190 246 300 353
#
# _framework density 20.542843000000001
#
# number of rings (size 3 to 8) (size 9 to 14) (size 15 to 20)
#    0.000    2.143    1.429    2.571    0.000    5.714 
#    2.571    5.714    0.000    2.571    0.000    0.000 
#    0.000    0.000    0.000    0.000    0.000    0.000 
#
# Total GULP energy -694088.365572 kJ/mol
# GULP energy per Si atom -12394.435099 kJ/mol
# Density = 2.049609 g / cm^3
# Si number density = 20.542843 Si / 1000 Ang^3
#
#
#
# Elastic Constant Matrix: (Units=GPa)
#
#
# Indices 1 2 3 4 5 6 
#
# 1 51.7232 34.6759 27.4066 0.0000 0.0000 0.0000
# 2 34.6759 113.5674 35.0698 0.0000 0.0000 0.0000
# 3 27.4066 35.0698 80.5479 0.0000 0.0000 0.0000
# 4 0.0000 0.0000 0.0000 33.2196 0.0000 0.0000
# 5 0.0000 0.0000 0.0000 0.0000 25.9593 0.0000
# 6 0.0000 0.0000 0.0000 0.0000 0.0000 21.8035
#
#
#
# Elastic Compliance Matrix: (Units=1/GPa)
#
#
# Indices 1 2 3 4 5 6 
#
# 1 0.026928 -0.006230 -0.006450 0.000000 0.000000 0.000000
# 2 -0.006230 0.011615 -0.002937 0.000000 0.000000 0.000000
# 3 -0.006450 -0.002937 0.015888 0.000000 0.000000 0.000000
# 4 0.000000 0.000000 0.000000 0.030103 0.000000 0.000000
# 5 0.000000 0.000000 0.000000 0.000000 0.038522 0.000000
# 6 0.000000 0.000000 0.000000 0.000000 0.000000 0.045864
#
#
# Mechanical properties :
#
#
# Convention : Reuss Voigt Hill
#
# Bulk Modulus (GPa) = 43.10934 48.90478 46.00706
# Shear Modulus (GPa) = 24.05163 26.10890 25.08027
#
# Velocity S-wave (km/s) = 3.42541 3.56890 3.49789
# Velocity P-wave (km/s) = 6.05601 6.39067 6.22559
#
# Compressibility (1/GPa) = 0.02319683
#
# Stress axis : x y z
#
# Youngs Moduli (GPa) = 37.13592 86.09830 62.93961
#
# Poissons Ratio (x) = 0.53642 0.40594
# Poissons Ratio (y) = 0.23137 0.18485
# Poissons Ratio (z) = 0.23952 0.25287
#
# Static dielectric constant tensor:
#      x y z
#    x 3.421530 0.000000 0.000000 
#    y 0.000000 3.993600 0.000000 
#    z 0.000000 0.000000 3.810770 
# 
# 
# High freq. dielectric constant tensor:
#      x y z
#    x 1.779560 0.000000 0.000000 
#    y 0.000000 1.807560 0.000000 
#    z 0.000000 0.000000 1.797870 
# 
# From -- ./inp_files/22816.got.cif
#   From: 2010.03.12/outbox.cif.g09.slc.cpg/sg53_12_cif.got.tgz:22816.got - 2010.04.16 14:36:59.
