data_PCOD8218634
_publ_section_title
;
Structure prediction by ZEFSAII (Michael W. Deem and Ramdas Pophale) SiO2 
 PCOD8218634
Probable space group: P M N A
;
_chemical_formula_sum "Si O2"
_cell_formula_units_Z 48
_cell_length_a 9.072589
_cell_length_b 19.692014
_cell_length_c 16.826457
_cell_angle_alpha 90.000000
_cell_angle_beta 90.000000
_cell_angle_gamma 90.000000
_cell_volume 3006.173576
_symmetry_space_group_name_H-M "P M N A"
_symmetry_group_IT_number 53
_symmetry_cell_setting 'orthorhombic'
loop_
_space_group_symop_operation_xyz
x,y,z
1/2-x,-y,1/2+z
x,-y,-z
1/2-x,y,1/2-z
-x,-y,-z
1/2+x,y,1/2-z
-x,y,z
1/2+x,-y,1/2+z
loop_
_atom_site_type_symbol
_atom_site_label
_atom_site_fract_x
_atom_site_fract_y
_atom_site_fract_z
Si Si1 0.334430 0.802948 0.511763
Si Si2 0.326669 0.436791 0.669554
Si Si3 0.672624 0.346502 0.518798
Si Si4 0.165668 0.863265 0.828681
Si Si5 0.665924 0.453285 0.076834
Si Si6 0.326386 0.069966 0.040097
O O1 0.500000 0.816278 0.479924
O O2 0.274183 0.731742 0.477826
O O3 0.335331 0.800255 0.608865
O O4 0.230940 0.866492 0.485483
O O5 0.250000 0.411130 0.750000
O O6 0.500000 0.445429 0.682549
O O7 0.290183 0.380461 0.603152
O O8 0.259366 0.509731 0.645424
O O9 0.500000 0.351619 0.499430
O O10 0.758163 0.382446 0.446532
O O11 0.250000 0.840184 0.750000
O O12 0.000000 0.885967 0.806781
O O13 0.249650 0.926017 0.872724
O O14 0.500000 0.439977 0.107565
O O15 0.665183 0.500000 0.000000
O O16 0.500000 0.075123 0.050384
O O17 0.277293 0.000000 0.000000
#
# Coordination Sequence:
#
# PCOD8218634 Si02
#       6
#     8   8   8   8   8   8
#     4   8  17  30  47  69  94 126 161 195 234 285
#     4  10  19  31  49  69  93 124 158 198 240 284
#     4   9  17  32  50  69  93 125 161 195 238 287
#     4   9  17  29  47  69  95 123 154 192 234 281
#     4   9  17  29  46  68  92 118 154 194 232 279
#     4   9  17  29  47  71  97 125 160 197 231 275
#
# _framework density 15.967141
#
# number of rings (size 3 to 8) (size 9 to 14) (size 15 to 20)
#    1.000    2.000    0.000    1.500    0.000    4.667 
#    0.000    0.833    0.000    3.000    0.000    4.667 
#    0.000    0.000    0.000    0.000    0.000    0.000 
#
# Total GULP energy -594751.372706 kJ/mol
# GULP energy per Si atom -12390.653598 kJ/mol
# Density = 1.593080 g / cm^3
# Si number density = 15.967141 Si / 1000 Ang^3
#
#
#
# Elastic Constant Matrix: (Units=GPa)
#
#
# Indices 1 2 3 4 5 6 
#
# 1 95.8981 50.3754 36.8597 0.0000 0.0000 0.0000
# 2 50.3754 113.5253 34.3764 0.0000 0.0000 0.0000
# 3 36.8597 34.3764 62.6082 0.0000 0.0000 0.0000
# 4 0.0000 0.0000 0.0000 16.8913 0.0000 0.0000
# 5 0.0000 0.0000 0.0000 0.0000 25.4047 0.0000
# 6 0.0000 0.0000 0.0000 0.0000 0.0000 22.1934
#
#
#
# Elastic Compliance Matrix: (Units=1/GPa)
#
#
# Indices 1 2 3 4 5 6 
#
# 1 0.015479 -0.004929 -0.006407 0.000000 0.000000 0.000000
# 2 -0.004929 0.012135 -0.003761 0.000000 0.000000 0.000000
# 3 -0.006407 -0.003761 0.021810 0.000000 0.000000 0.000000
# 4 0.000000 0.000000 0.000000 0.059202 0.000000 0.000000
# 5 0.000000 0.000000 0.000000 0.000000 0.039363 0.000000
# 6 0.000000 0.000000 0.000000 0.000000 0.000000 0.045058
#
#
# Mechanical properties :
#
#
# Convention : Reuss Voigt Hill
#
# Bulk Modulus (GPa) = 52.00248 57.25051 54.62650
# Shear Modulus (GPa) = 21.77221 22.92587 22.34904
#
# Velocity S-wave (km/s) = 3.69665 3.79333 3.74530
# Velocity P-wave (km/s) = 7.13158 7.42420 7.27936
#
# Compressibility (1/GPa) = 0.01922985
#
# Stress axis : x y z
#
# Youngs Moduli (GPa) = 64.60179 82.40949 45.85150
#
# Poissons Ratio (x) = 0.40617 0.29378
# Poissons Ratio (y) = 0.31840 0.17245
# Poissons Ratio (z) = 0.41391 0.30994
#
# Static dielectric constant tensor:
#      x y z
#    x 3.121040 0.000000 0.000000 
#    y 0.000000 2.905940 0.000000 
#    z 0.000000 0.000000 2.800150 
# 
# 
# High freq. dielectric constant tensor:
#      x y z
#    x 1.627500 0.000000 0.000000 
#    y 0.000000 1.592620 0.000000 
#    z 0.000000 0.000000 1.584840 
# 
# From -- ./inp_files/20212.got.cif
#   From: 2010.03.12/outbox.cif.g09.slc.cpg/sg53_11_cif.got.tgz:20212.got - 2010.04.16 14:36:59.
