data_PCOD8218751
_publ_section_title
;
Structure prediction by ZEFSAII (Michael W. Deem and Ramdas Pophale) SiO2 
 PCOD8218751
Probable space group: P M N A
;
_chemical_formula_sum "Si O2"
_cell_formula_units_Z 40
_cell_length_a 9.020651
_cell_length_b 10.140183
_cell_length_c 28.077502
_cell_angle_alpha 90.000000
_cell_angle_beta 90.000000
_cell_angle_gamma 90.000000
_cell_volume 2568.278643
_symmetry_space_group_name_H-M "P M N A"
_symmetry_group_IT_number 53
_symmetry_cell_setting 'orthorhombic'
loop_
_space_group_symop_operation_xyz
x,y,z
1/2-x,-y,1/2+z
x,-y,-z
1/2-x,y,1/2-z
-x,-y,-z
1/2+x,y,1/2-z
-x,y,z
1/2+x,-y,1/2+z
loop_
_atom_site_type_symbol
_atom_site_label
_atom_site_fract_x
_atom_site_fract_y
_atom_site_fract_z
Si Si1 0.831766 0.611388 0.357224
Si Si2 0.831938 0.531683 0.551719
Si Si3 0.825224 0.356575 0.133795
Si Si4 0.175077 0.825846 0.200831
Si Si5 0.672742 0.125976 0.298017
O O1 0.829896 0.600660 0.415204
O O2 0.752567 0.477741 0.337388
O O3 0.740206 0.739270 0.341930
O O4 0.000000 0.619231 0.337795
O O5 0.762342 0.500000 0.500000
O O6 0.735305 0.644083 0.579035
O O7 0.000000 0.584348 0.545634
O O8 0.779016 0.219496 0.158425
O O9 0.000000 0.378839 0.133959
O O10 0.250000 0.779661 0.250000
O O11 0.000000 0.805488 0.204630
O O12 0.218777 0.976646 0.189256
O O13 0.750000 0.175169 0.250000
O O14 0.500000 0.136214 0.288191
#
# Coordination Sequence:
#
# PCOD8218751 Si02
#       5
#     8   8   8   8   8
#     4   9  18  31  47  70  94 121 154 191 231 271
#     4   8  16  31  49  69  93 119 151 191 233 276
#     4   9  17  30  47  71  95 120 154 192 230 272
#     4  10  19  32  48  67  93 126 158 189 226 269
#     4   9  19  32  47  67  94 125 157 189 224 270
#
# _framework density 15.574634
#
# number of rings (size 3 to 8) (size 9 to 14) (size 15 to 20)
#    1.200    1.800    0.000    1.200    0.000    3.600 
#    0.000    2.000    0.000    1.200    0.000    8.400 
#    0.000    0.000    0.000    0.000    0.000    0.000 
#
# Total GULP energy -495598.711948 kJ/mol
# GULP energy per Si atom -12389.967799 kJ/mol
# Density = 1.553918 g / cm^3
# Si number density = 15.574634 Si / 1000 Ang^3
#
#
#
# Elastic Constant Matrix: (Units=GPa)
#
#
# Indices 1 2 3 4 5 6 
#
# 1 73.5215 37.5807 37.3237 0.0000 0.0000 0.0000
# 2 37.5807 79.0694 49.9036 0.0000 0.0000 0.0000
# 3 37.3237 49.9036 91.7622 0.0000 0.0000 0.0000
# 4 0.0000 0.0000 0.0000 13.0174 0.0000 0.0000
# 5 0.0000 0.0000 0.0000 0.0000 25.1336 0.0000
# 6 0.0000 0.0000 0.0000 0.0000 0.0000 19.7857
#
#
#
# Elastic Compliance Matrix: (Units=1/GPa)
#
#
# Indices 1 2 3 4 5 6 
#
# 1 0.019016 -0.006329 -0.004293 0.000000 0.000000 0.000000
# 2 -0.006329 0.021363 -0.009044 0.000000 0.000000 0.000000
# 3 -0.004293 -0.009044 0.017562 0.000000 0.000000 0.000000
# 4 0.000000 0.000000 0.000000 0.076821 0.000000 0.000000
# 5 0.000000 0.000000 0.000000 0.000000 0.039787 0.000000
# 6 0.000000 0.000000 0.000000 0.000000 0.000000 0.050541
#
#
# Mechanical properties :
#
#
# Convention : Reuss Voigt Hill
#
# Bulk Modulus (GPa) = 53.73355 54.88544 54.30949
# Shear Modulus (GPa) = 18.47585 19.55702 19.01643
#
# Velocity S-wave (km/s) = 3.44798 3.54743 3.49805
# Velocity P-wave (km/s) = 7.10119 7.21774 7.15970
#
# Compressibility (1/GPa) = 0.01861035
#
# Stress axis : x y z
#
# Youngs Moduli (GPa) = 52.58845 46.81023 56.94069
#
# Poissons Ratio (x) = 0.29624 0.24443
# Poissons Ratio (y) = 0.33281 0.51496
# Poissons Ratio (z) = 0.22575 0.42334
#
# Static dielectric constant tensor:
#      x y z
#    x 3.016190 0.000000 0.000000 
#    y 0.000000 2.873500 0.000000 
#    z 0.000000 0.000000 2.869510 
# 
# 
# High freq. dielectric constant tensor:
#      x y z
#    x 1.610080 0.000000 0.000000 
#    y 0.000000 1.577600 0.000000 
#    z 0.000000 0.000000 1.577790 
# 
# From -- ./inp_files/37529.got.cif
#   From: 2010.03.12/outbox.cif.g09.slc.cpg/sg53_19_cif.got.tgz:37529.got - 2010.04.16 14:36:59.
