data_PCOD8218900
_publ_section_title
;
Structure prediction by ZEFSAII (Michael W. Deem and Ramdas Pophale) SiO2 
 PCOD8218900
Probable space group: P M N A
;
_chemical_formula_sum "Si O2"
_cell_formula_units_Z 40
_cell_length_a 8.945813
_cell_length_b 9.662723
_cell_length_c 25.713341
_cell_angle_alpha 90.000000
_cell_angle_beta 90.000000
_cell_angle_gamma 90.000000
_cell_volume 2222.684673
_symmetry_space_group_name_H-M "P M N A"
_symmetry_group_IT_number 53
_symmetry_cell_setting 'orthorhombic'
loop_
_space_group_symop_operation_xyz
x,y,z
1/2-x,-y,1/2+z
x,-y,-z
1/2-x,y,1/2-z
-x,-y,-z
1/2+x,y,1/2-z
-x,y,z
1/2+x,-y,1/2+z
loop_
_atom_site_type_symbol
_atom_site_label
_atom_site_fract_x
_atom_site_fract_y
_atom_site_fract_z
Si Si1 0.164305 0.836421 0.495336
Si Si2 0.175686 0.861954 0.105932
Si Si3 0.174535 0.660418 0.197652
Si Si4 0.677098 0.842670 0.890135
Si Si5 0.323398 0.656293 0.696625
O O1 0.280440 0.795874 0.450077
O O2 0.216345 0.783153 0.552199
O O3 0.000000 0.776486 0.481278
O O4 0.152887 0.000000 0.500000
O O5 0.226586 0.752636 0.149294
O O6 0.000000 0.891415 0.106727
O O7 0.263157 0.002452 0.117375
O O8 0.250000 0.717555 0.250000
O O9 0.222370 0.502642 0.186634
O O10 0.000000 0.672163 0.206590
O O11 0.500000 0.843860 0.880745
O O12 0.758542 0.743534 0.850324
O O13 0.250000 0.709946 0.750000
O O14 0.500000 0.677510 0.700019
#
# Coordination Sequence:
#
# PCOD8218900 Si02
#       5
#     8   8   8   8   8
#     4   8  16  31  49  71 101 134 167 204 247 295
#     4  10  19  32  52  78 104 131 167 209 252 298
#     4   9  20  36  53  74 100 131 167 206 249 299
#     4  10  20  34  52  76 104 133 168 208 248 295
#     4  10  20  36  55  74  99 132 168 206 251 299
#
# _framework density 17.996255000000001
#
# number of rings (size 3 to 8) (size 9 to 14) (size 15 to 20)
#    0.000    2.600    0.000    3.000    0.000    7.600 
#    0.000    3.000    0.000    6.000    0.000    0.000 
#    0.000    0.000    0.000    0.000    0.000    0.000 
#
# Total GULP energy -495915.249372 kJ/mol
# GULP energy per Si atom -12397.881234 kJ/mol
# Density = 1.795529 g / cm^3
# Si number density = 17.996255 Si / 1000 Ang^3
#
#
#
# Elastic Constant Matrix: (Units=GPa)
#
#
# Indices 1 2 3 4 5 6 
#
# 1 77.8593 35.7204 61.9780 0.0000 0.0000 0.0000
# 2 35.7204 59.6406 64.2743 0.0000 0.0000 0.0000
# 3 61.9780 64.2743 166.8237 0.0000 0.0000 0.0000
# 4 0.0000 0.0000 0.0000 -51.9665 0.0000 0.0000
# 5 0.0000 0.0000 0.0000 0.0000 38.2494 0.0000
# 6 0.0000 0.0000 0.0000 0.0000 0.0000 7.1466
#
#
#
# Elastic Compliance Matrix: (Units=1/GPa)
#
#
# Indices 1 2 3 4 5 6 
#
# 1 0.019680 -0.006682 -0.004737 0.000000 0.000000 0.000000
# 2 -0.006682 0.030941 -0.009439 0.000000 0.000000 0.000000
# 3 -0.004737 -0.009439 0.011391 0.000000 0.000000 0.000000
# 4 0.000000 0.000000 0.000000 -0.019243 0.000000 0.000000
# 5 0.000000 0.000000 0.000000 0.000000 0.026144 0.000000
# 6 0.000000 0.000000 0.000000 0.000000 0.000000 0.139926
#
#
# Mechanical properties :
#
#
# Convention : Reuss Voigt Hill
#
# Bulk Modulus (GPa) = 49.26889 69.80768 59.53828
# Shear Modulus (GPa) = 19.43111 8.17597 13.80354
#
# Velocity S-wave (km/s) = 3.28949 2.13378 2.77252
# Velocity P-wave (km/s) = 6.47027 6.70410 6.58822
#
# Compressibility (1/GPa) = 0.02029679
#
# Stress axis : x y z
#
# Youngs Moduli (GPa) = 50.81299 32.31968 87.78997
#
# Poissons Ratio (x) = 0.21595 0.41587
# Poissons Ratio (y) = 0.33952 0.82862
# Poissons Ratio (z) = 0.24071 0.30505
#
# Static dielectric constant tensor:
#      x y z
#    x 3.379660 0.000000 0.000000 
#    y 0.000000 3.142720 0.000000 
#    z 0.000000 0.000000 3.793090 
# 
# 
# High freq. dielectric constant tensor:
#      x y z
#    x 1.705060 0.000000 0.000000 
#    y 0.000000 1.667290 0.000000 
#    z 0.000000 0.000000 1.712500 
# 
# From -- ./inp_files/33625.got.cif
#   From: 2010.03.12/outbox.cif.g09.slc.cpg/sg53_17_cif.got.tgz:33625.got - 2010.04.16 14:36:59.
