data_PCOD8218382
_publ_section_title
;
Structure prediction by ZEFSAII (Michael W. Deem and Ramdas Pophale) SiO2 
 PCOD8218382
Probable space group: P M N A
;
_chemical_formula_sum "Si O2"
_cell_formula_units_Z 48
_cell_length_a 36.475765
_cell_length_b 17.900243
_cell_length_c 5.130523
_cell_angle_alpha 90.000000
_cell_angle_beta 90.000000
_cell_angle_gamma 90.000000
_cell_volume 3349.847023
_symmetry_space_group_name_H-M "P M N A"
_symmetry_group_IT_number 53
_symmetry_cell_setting 'orthorhombic'
loop_
_space_group_symop_operation_xyz
x,y,z
1/2-x,-y,1/2+z
x,-y,-z
1/2-x,y,1/2-z
-x,-y,-z
1/2+x,y,1/2-z
-x,y,z
1/2+x,-y,1/2+z
loop_
_atom_site_type_symbol
_atom_site_label
_atom_site_fract_x
_atom_site_fract_y
_atom_site_fract_z
Si Si1 0.602325 0.411727 0.494421
Si Si2 0.458328 0.301278 0.333967
Si Si3 0.541574 0.792633 0.149756
Si Si4 0.542410 0.046136 0.741886
Si Si5 0.353748 0.588550 0.000159
Si Si6 0.728411 0.410862 0.998021
O O1 0.595473 0.500000 0.500000
O O2 0.563815 0.374677 0.419204
O O3 0.619494 0.383596 0.767777
O O4 0.630920 0.385265 0.276212
O O5 0.500000 0.327282 0.274367
O O6 0.456577 0.246157 0.574239
O O7 0.440870 0.258640 0.080896
O O8 0.500000 0.806851 0.055103
O O9 0.561078 0.873098 0.197938
O O10 0.500000 0.060322 0.670031
O O11 0.560494 0.000000 0.500000
O O12 0.547957 0.000000 0.000000
O O13 0.351559 0.500000 0.000000
O O14 0.312782 0.621744 0.021955
O O15 0.750000 0.380647 0.250000
O O16 0.727280 0.500000 0.000000
O O17 0.750000 0.379998 0.750000
#
# Coordination Sequence:
#
# PCOD8218382 Si02
#       6
#     8   8   8   8   8   8
#     4  10  19  30  42  54  70  95 128 167 208 240
#     4  10  19  30  42  54  70  95 128 167 208 240
#     4   9  17  28  40  55  74  93 116 150 193 237
#     4   9  15  23  37  56  75  93 111 134 174 230
#     4   9  17  28  40  55  74  93 116 150 193 237
#     4   9  15  23  37  56  75  93 111 134 174 230
#
# _framework density 14.329012000000001
#
# number of rings (size 3 to 8) (size 9 to 14) (size 15 to 20)
#    0.000    2.667    0.000    3.000    0.000    8.333 
#    0.000    0.000    0.000    6.000    0.000    0.000 
#    0.000    0.000    0.000    0.000    0.000    0.000 
#
# Total GULP energy -594820.448764 kJ/mol
# GULP energy per Si atom -12392.092683 kJ/mol
# Density = 1.429640 g / cm^3
# Si number density = 14.329012 Si / 1000 Ang^3
#
#
#
# Elastic Constant Matrix: (Units=GPa)
#
#
# Indices 1 2 3 4 5 6 
#
# 1 61.5123 27.8840 26.5978 0.0000 0.0000 0.0000
# 2 27.8840 49.0259 25.0575 0.0000 0.0000 0.0000
# 3 26.5978 25.0575 105.8888 0.0000 0.0000 0.0000
# 4 0.0000 0.0000 0.0000 17.3137 0.0000 0.0000
# 5 0.0000 0.0000 0.0000 0.0000 16.2982 0.0000
# 6 0.0000 0.0000 0.0000 0.0000 0.0000 0.8329
#
#
#
# Elastic Compliance Matrix: (Units=1/GPa)
#
#
# Indices 1 2 3 4 5 6 
#
# 1 0.022719 -0.011382 -0.003013 0.000000 0.000000 0.000000
# 2 -0.011382 0.028906 -0.003981 0.000000 0.000000 0.000000
# 3 -0.003013 -0.003981 0.011143 0.000000 0.000000 0.000000
# 4 0.000000 0.000000 0.000000 0.057758 0.000000 0.000000
# 5 0.000000 0.000000 0.000000 0.000000 0.061357 0.000000
# 6 0.000000 0.000000 0.000000 0.000000 0.000000 1.200624
#
#
# Mechanical properties :
#
#
# Convention : Reuss Voigt Hill
#
# Bulk Modulus (GPa) = 38.43918 41.72286 40.08102
# Shear Modulus (GPa) = 3.50157 16.01480 9.75818
#
# Velocity S-wave (km/s) = 1.56493 3.34675 2.61245
# Velocity P-wave (km/s) = 5.49087 6.64193 6.09364
#
# Compressibility (1/GPa) = 0.02601512
#
# Stress axis : x y z
#
# Youngs Moduli (GPa) = 44.01542 34.59523 89.74293
#
# Poissons Ratio (x) = 0.39375 0.27043
# Poissons Ratio (y) = 0.50097 0.35730
# Poissons Ratio (z) = 0.13264 0.13773
#
# Static dielectric constant tensor:
#      x y z
#    x 2.657930 0.000000 0.000000 
#    y 0.000000 2.573870 0.000000 
#    z 0.000000 0.000000 3.072530 
# 
# 
# High freq. dielectric constant tensor:
#      x y z
#    x 1.504320 0.000000 0.000000 
#    y 0.000000 1.506130 0.000000 
#    z 0.000000 0.000000 1.575380 
# 
# From -- ./inp_files/5287.got.cif
#   From: 2010.03.12/outbox.cif.g09.slc.cpg/sg53_3_cif.got.tgz:5287.got - 2010.04.16 14:36:59.
