data_PCOD8218535
_publ_section_title
;
Structure prediction by ZEFSAII (Michael W. Deem and Ramdas Pophale) SiO2 
 PCOD8218535
Probable space group: P M N A
;
_chemical_formula_sum "Si O2"
_cell_formula_units_Z 56
_cell_length_a 9.245370
_cell_length_b 19.178780
_cell_length_c 17.965624
_cell_angle_alpha 90.000000
_cell_angle_beta 90.000000
_cell_angle_gamma 90.000000
_cell_volume 3185.573133
_symmetry_space_group_name_H-M "P M N A"
_symmetry_group_IT_number 53
_symmetry_cell_setting 'orthorhombic'
loop_
_space_group_symop_operation_xyz
x,y,z
1/2-x,-y,1/2+z
x,-y,-z
1/2-x,y,1/2-z
-x,-y,-z
1/2+x,y,1/2-z
-x,y,z
1/2+x,-y,1/2+z
loop_
_atom_site_type_symbol
_atom_site_label
_atom_site_fract_x
_atom_site_fract_y
_atom_site_fract_z
Si Si1 0.665913 0.768379 0.115202
Si Si2 0.828558 0.083724 0.575093
Si Si3 0.328976 0.798848 0.824926
Si Si4 0.670721 0.357755 0.677484
Si Si5 0.330291 0.423791 0.521936
Si Si6 0.828332 0.067997 0.409306
Si Si7 0.663969 0.699504 0.957859
O O1 0.500000 0.759353 0.142610
O O2 0.722706 0.848522 0.122014
O O3 0.769446 0.720375 0.164858
O O4 0.679618 0.749261 0.028748
O O5 0.764618 0.084600 0.491262
O O6 0.000000 0.088229 0.568532
O O7 0.781730 0.010874 0.614793
O O8 0.250000 0.776762 0.750000
O O9 0.500000 0.799375 0.812239
O O10 0.270842 0.875183 0.850459
O O11 0.283400 0.742390 0.886467
O O12 0.750000 0.389715 0.750000
O O13 0.500000 0.354575 0.690908
O O14 0.711733 0.406498 0.607360
O O15 0.271905 0.500000 0.500000
O O16 0.500000 0.418448 0.510224
O O17 0.260273 0.369237 0.465356
O O18 0.000000 0.073774 0.413449
O O19 0.500000 0.674294 0.948148
#
# Coordination Sequence:
#
# PCOD8218535 Si02
#       7
#     8   8   8   8   8   8   8
#     4   9  15  27  49  74  97 123 160 205 246 285
#     4   8  12  21  43  70  91 118 159 208 251 288
#     4  10  19  31  46  67  97 132 169 209 249 291
#     4  10  20  34  52  75 102 132 161 193 238 291
#     4   9  19  36  57  79 102 128 158 194 239 290
#     4   8  13  23  41  66  93 121 162 208 248 290
#     4   9  17  30  49  73  98 124 161 204 239 282
#
# _framework density 17.579255
#
# number of rings (size 3 to 8) (size 9 to 14) (size 15 to 20)
#    0.000    3.000    1.429    1.286    0.000    1.429 
#    0.000    1.429    0.000    6.000    0.000    2.000 
#    0.000    0.000    0.000    0.000    0.000    0.000 
#
# Total GULP energy -694080.105871 kJ/mol
# GULP energy per Si atom -12394.287605 kJ/mol
# Density = 1.753924 g / cm^3
# Si number density = 17.579255 Si / 1000 Ang^3
#
#
#
# Elastic Constant Matrix: (Units=GPa)
#
#
# Indices 1 2 3 4 5 6 
#
# 1 40.2885 38.0957 33.6592 0.0000 0.0000 0.0000
# 2 38.0957 141.4218 50.6982 0.0000 0.0000 0.0000
# 3 33.6592 50.6982 91.8418 0.0000 0.0000 0.0000
# 4 0.0000 0.0000 0.0000 20.4070 0.0000 0.0000
# 5 0.0000 0.0000 0.0000 0.0000 24.7742 0.0000
# 6 0.0000 0.0000 0.0000 0.0000 0.0000 17.3885
#
#
#
# Elastic Compliance Matrix: (Units=1/GPa)
#
#
# Indices 1 2 3 4 5 6 
#
# 1 0.040658 -0.006995 -0.011040 0.000000 0.000000 0.000000
# 2 -0.006995 0.010019 -0.002967 0.000000 0.000000 0.000000
# 3 -0.011040 -0.002967 0.016572 0.000000 0.000000 0.000000
# 4 0.000000 0.000000 0.000000 0.049003 0.000000 0.000000
# 5 0.000000 0.000000 0.000000 0.000000 0.040365 0.000000
# 6 0.000000 0.000000 0.000000 0.000000 0.000000 0.057509
#
#
# Mechanical properties :
#
#
# Convention : Reuss Voigt Hill
#
# Bulk Modulus (GPa) = 39.60988 57.60649 48.60818
# Shear Modulus (GPa) = 18.90042 22.58719 20.74380
#
# Velocity S-wave (km/s) = 3.28251 3.58841 3.43886
# Velocity P-wave (km/s) = 6.07845 7.07175 6.59383
#
# Compressibility (1/GPa) = 0.02524623
#
# Stress axis : x y z
#
# Youngs Moduli (GPa) = 24.59528 99.81085 60.34231
#
# Poissons Ratio (x) = 0.69815 0.66616
# Poissons Ratio (y) = 0.17204 0.17904
# Poissons Ratio (z) = 0.27152 0.29615
#
# Static dielectric constant tensor:
#      x y z
#    x 2.922980 0.000000 0.000000 
#    y 0.000000 3.507350 0.000000 
#    z 0.000000 0.000000 3.137880 
# 
# 
# High freq. dielectric constant tensor:
#      x y z
#    x 1.644660 0.000000 0.000000 
#    y 0.000000 1.682810 0.000000 
#    z 0.000000 0.000000 1.662050 
# 
# From -- ./inp_files/26681.got.cif
#   From: 2010.03.12/outbox.cif.g09.slc.cpg/sg53_14_cif.got.tgz:26681.got - 2010.04.16 14:36:59.
