data_PCOD8218197
_publ_section_title
;
Structure prediction by ZEFSAII (Michael W. Deem and Ramdas Pophale) SiO2 
 PCOD8218197
Probable space group: P M N A
;
_chemical_formula_sum "Si O2"
_cell_formula_units_Z 64
_cell_length_a 8.769868
_cell_length_b 14.727773
_cell_length_c 29.570122
_cell_angle_alpha 90.000000
_cell_angle_beta 90.000000
_cell_angle_gamma 90.000000
_cell_volume 3819.295443
_symmetry_space_group_name_H-M "P M N A"
_symmetry_group_IT_number 53
_symmetry_cell_setting 'orthorhombic'
loop_
_space_group_symop_operation_xyz
x,y,z
1/2-x,-y,1/2+z
x,-y,-z
1/2-x,y,1/2-z
-x,-y,-z
1/2+x,y,1/2-z
-x,y,z
1/2+x,-y,1/2+z
loop_
_atom_site_type_symbol
_atom_site_label
_atom_site_fract_x
_atom_site_fract_y
_atom_site_fract_z
Si Si1 0.677102 0.329698 0.042282
Si Si2 0.821671 0.537392 0.889042
Si Si3 0.176036 0.372437 0.559226
Si Si4 0.320496 0.291586 0.795338
Si Si5 0.321049 0.045284 0.562319
Si Si6 0.677729 0.195985 0.885100
Si Si7 0.319856 0.501057 0.203459
Si Si8 0.178981 0.123126 0.473070
O O1 0.500000 0.345216 0.053282
O O2 0.777918 0.377342 0.080106
O O3 0.719017 0.223652 0.043517
O O4 0.716222 0.374196 0.993761
O O5 0.775468 0.444511 0.913759
O O6 0.741630 0.551289 0.840488
O O7 0.000000 0.536250 0.880706
O O8 0.209874 0.271421 0.576785
O O9 0.000000 0.397861 0.568033
O O10 0.250000 0.249119 0.750000
O O11 0.500000 0.288552 0.791803
O O12 0.262156 0.232786 0.837285
O O13 0.265298 0.394844 0.801968
O O14 0.500000 0.026568 0.562093
O O15 0.273754 0.105425 0.605314
O O16 0.272769 0.101026 0.518032
O O17 0.232009 0.949061 0.564954
O O18 0.500000 0.171100 0.883854
O O19 0.250000 0.460536 0.250000
O O20 0.500000 0.490809 0.205633
O O21 0.000000 0.113657 0.483855
#
# Coordination Sequence:
#
# PCOD8218197 Si02
#       8
#     8   8   8   8   8   8   8   8
#     4  10  21  36  54  71  94 136 181 218 253 295
#     4  12  24  34  48  74 105 138 171 209 258 308
#     4  10  19  35  52  69  98 138 181 214 245 293
#     4   9  18  31  50  72  98 129 165 207 251 295
#     4  11  21  31  48  76 104 129 159 207 258 296
#     4  10  18  33  52  72  98 137 176 205 244 302
#     4  10  19  35  54  74  99 130 169 212 255 300
#     4  10  19  35  54  71  94 131 173 208 246 300
#
# _framework density 16.757017000000001
#
# number of rings (size 3 to 8) (size 9 to 14) (size 15 to 20)
#    0.000    1.750    2.500    4.125    0.000    4.500 
#    0.000    0.000    0.000    0.000    0.000    0.875 
#    0.000    4.000    0.000    0.000    0.000    0.000 
#
# Total GULP energy -793712.471786 kJ/mol
# GULP energy per Si atom -12401.757372 kJ/mol
# Density = 1.671888 g / cm^3
# Si number density = 16.757017 Si / 1000 Ang^3
#
#
#
# Elastic Constant Matrix: (Units=GPa)
#
#
# Indices 1 2 3 4 5 6 
#
# 1 68.6084 25.1808 35.6771 0.0000 0.0000 0.0000
# 2 25.1808 60.0782 33.2612 0.0000 0.0000 0.0000
# 3 35.6771 33.2612 112.7252 0.0000 0.0000 0.0000
# 4 0.0000 0.0000 0.0000 17.0143 0.0000 0.0000
# 5 0.0000 0.0000 0.0000 0.0000 29.0165 0.0000
# 6 0.0000 0.0000 0.0000 0.0000 0.0000 17.3892
#
#
#
# Elastic Compliance Matrix: (Units=1/GPa)
#
#
# Indices 1 2 3 4 5 6 
#
# 1 0.018852 -0.005496 -0.004345 0.000000 0.000000 0.000000
# 2 -0.005496 0.021497 -0.004604 0.000000 0.000000 0.000000
# 3 -0.004345 -0.004604 0.011605 0.000000 0.000000 0.000000
# 4 0.000000 0.000000 0.000000 0.058774 0.000000 0.000000
# 5 0.000000 0.000000 0.000000 0.000000 0.034463 0.000000
# 6 0.000000 0.000000 0.000000 0.000000 0.000000 0.057507
#
#
# Mechanical properties :
#
#
# Convention : Reuss Voigt Hill
#
# Bulk Modulus (GPa) = 43.35606 47.73889 45.54748
# Shear Modulus (GPa) = 20.89642 22.50352 21.69997
#
# Velocity S-wave (km/s) = 3.53516 3.66858 3.60248
# Velocity P-wave (km/s) = 6.52630 6.81875 6.67413
#
# Compressibility (1/GPa) = 0.02306482
#
# Stress axis : x y z
#
# Youngs Moduli (GPa) = 53.04464 46.51762 86.17243
#
# Poissons Ratio (x) = 0.25566 0.37441
# Poissons Ratio (y) = 0.29153 0.39670
# Poissons Ratio (z) = 0.23047 0.21415
#
# Static dielectric constant tensor:
#      x y z
#    x 3.088930 0.000000 0.000000 
#    y 0.000000 3.156100 0.000000 
#    z 0.000000 0.000000 3.276720 
# 
# 
# High freq. dielectric constant tensor:
#      x y z
#    x 1.647640 0.000000 0.000000 
#    y 0.000000 1.626190 0.000000 
#    z 0.000000 0.000000 1.635880 
# 
# From -- ./inp_files/38489.got.cif
#   From: 2010.03.12/outbox.cif.g09.slc.cpg/sg53_20_cif.got.tgz:38489.got - 2010.04.16 14:36:59.
