data_PCOD8218860
_publ_section_title
;
Structure prediction by ZEFSAII (Michael W. Deem and Ramdas Pophale) SiO2 
 PCOD8218860
Probable space group: P M N A
;
_chemical_formula_sum "Si O2"
_cell_formula_units_Z 56
_cell_length_a 8.994409
_cell_length_b 18.923691
_cell_length_c 17.025387
_cell_angle_alpha 90.000000
_cell_angle_beta 90.000000
_cell_angle_gamma 90.000000
_cell_volume 2897.847139
_symmetry_space_group_name_H-M "P M N A"
_symmetry_group_IT_number 53
_symmetry_cell_setting 'orthorhombic'
loop_
_space_group_symop_operation_xyz
x,y,z
1/2-x,-y,1/2+z
x,-y,-z
1/2-x,y,1/2-z
-x,-y,-z
1/2+x,y,1/2-z
-x,y,z
1/2+x,-y,1/2+z
loop_
_atom_site_type_symbol
_atom_site_label
_atom_site_fract_x
_atom_site_fract_y
_atom_site_fract_z
Si Si1 0.327139 0.974678 0.586911
Si Si2 0.825863 0.169691 0.167257
Si Si3 0.174319 0.578638 0.489529
Si Si4 0.168905 0.295639 0.062855
Si Si5 0.329446 0.777908 0.396993
Si Si6 0.324575 0.649077 0.173083
Si Si7 0.823759 0.904085 0.331009
O O1 0.500000 0.992203 0.602024
O O2 0.293093 0.892233 0.603619
O O3 0.280492 0.000000 0.500000
O O4 0.226240 0.016739 0.648769
O O5 0.750000 0.153527 0.250000
O O6 0.768097 0.244592 0.131738
O O7 0.000000 0.174598 0.182613
O O8 0.239739 0.500000 0.500000
O O9 0.240492 0.631499 0.555101
O O10 0.217571 0.601620 0.401746
O O11 0.000000 0.579510 0.503529
O O12 0.000000 0.316952 0.080517
O O13 0.181607 0.251056 0.984051
O O14 0.500000 0.787996 0.370727
O O15 0.247342 0.726070 0.336457
O O16 0.242660 0.852109 0.397244
O O17 0.250000 0.613508 0.250000
O O18 0.500000 0.656007 0.184179
O O19 0.750000 0.879746 0.250000
O O20 0.000000 0.898915 0.326355
#
# Coordination Sequence:
#
# PCOD8218860 Si02
#       7
#     8   8   8   8   8   8   8
#     4  10  21  39  60  79 104 140 181 229 284 334
#     4  10  21  37  57  81 109 143 184 229 278 330
#     4   9  19  36  57  81 110 143 177 217 267 319
#     4   9  19  36  58  82 106 137 178 219 262 317
#     4  10  19  34  55  77 104 138 176 218 266 320
#     4  10  19  32  51  77 108 140 175 215 263 320
#     4  12  24  36  51  75 107 140 177 219 265 317
#
# _framework density 19.324691999999999
#
# number of rings (size 3 to 8) (size 9 to 14) (size 15 to 20)
#    0.000    2.000    0.000    3.857    0.000    6.286 
#    0.000    2.143    0.000    3.429    0.000    0.000 
#    0.000    0.000    0.000    0.000    0.000    0.000 
#
# Total GULP energy -694422.374831 kJ/mol
# GULP energy per Si atom -12400.399551 kJ/mol
# Density = 1.928071 g / cm^3
# Si number density = 19.324692 Si / 1000 Ang^3
#
#
#
# Elastic Constant Matrix: (Units=GPa)
#
#
# Indices 1 2 3 4 5 6 
#
# 1 86.7968 47.0799 34.6273 0.0000 0.0000 0.0000
# 2 47.0799 136.5318 43.9136 0.0000 0.0000 0.0000
# 3 34.6273 43.9136 84.0196 0.0000 0.0000 0.0000
# 4 0.0000 0.0000 0.0000 21.5815 0.0000 0.0000
# 5 0.0000 0.0000 0.0000 0.0000 27.7899 0.0000
# 6 0.0000 0.0000 0.0000 0.0000 0.0000 29.7266
#
#
#
# Elastic Compliance Matrix: (Units=1/GPa)
#
#
# Indices 1 2 3 4 5 6 
#
# 1 0.015354 -0.003918 -0.004280 0.000000 0.000000 0.000000
# 2 -0.003918 0.009804 -0.003510 0.000000 0.000000 0.000000
# 3 -0.004280 -0.003510 0.015500 0.000000 0.000000 0.000000
# 4 0.000000 0.000000 0.000000 0.046336 0.000000 0.000000
# 5 0.000000 0.000000 0.000000 0.000000 0.035984 0.000000
# 6 0.000000 0.000000 0.000000 0.000000 0.000000 0.033640
#
#
# Mechanical properties :
#
#
# Convention : Reuss Voigt Hill
#
# Bulk Modulus (GPa) = 57.99387 62.06555 60.02971
# Shear Modulus (GPa) = 26.91343 27.93475 27.42409
#
# Velocity S-wave (km/s) = 3.73593 3.80616 3.77121
# Velocity P-wave (km/s) = 6.97746 7.17654 7.07770
#
# Compressibility (1/GPa) = 0.01724320
#
# Stress axis : x y z
#
# Youngs Moduli (GPa) = 65.13068 101.99875 64.51498
#
# Poissons Ratio (x) = 0.39960 0.27613
# Poissons Ratio (y) = 0.25517 0.22642
# Poissons Ratio (z) = 0.27877 0.35797
#
# Static dielectric constant tensor:
#      x y z
#    x 3.486800 0.000000 0.000000 
#    y 0.000000 3.636550 0.000000 
#    z 0.000000 0.000000 3.502840 
# 
# 
# High freq. dielectric constant tensor:
#      x y z
#    x 1.748410 0.000000 0.000000 
#    y 0.000000 1.748350 0.000000 
#    z 0.000000 0.000000 1.746750 
# 
# From -- ./inp_files/26732.got.cif
#   From: 2010.03.12/outbox.cif.g09.slc.cpg/sg53_14_cif.got.tgz:26732.got - 2010.04.16 14:36:59.
