data_PCOD8218716
_publ_section_title
;
Structure prediction by ZEFSAII (Michael W. Deem and Ramdas Pophale) SiO2 
 PCOD8218716
Probable space group: P M N A
;
_chemical_formula_sum "Si O2"
_cell_formula_units_Z 64
_cell_length_a 17.539632
_cell_length_b 20.744272
_cell_length_c 9.053559
_cell_angle_alpha 90.000000
_cell_angle_beta 90.000000
_cell_angle_gamma 90.000000
_cell_volume 3294.109349
_symmetry_space_group_name_H-M "P M N A"
_symmetry_group_IT_number 53
_symmetry_cell_setting 'orthorhombic'
loop_
_space_group_symop_operation_xyz
x,y,z
1/2-x,-y,1/2+z
x,-y,-z
1/2-x,y,1/2-z
-x,-y,-z
1/2+x,y,1/2-z
-x,y,z
1/2+x,-y,1/2+z
loop_
_atom_site_type_symbol
_atom_site_label
_atom_site_fract_x
_atom_site_fract_y
_atom_site_fract_z
Si Si1 0.411246 0.497189 0.161592
Si Si2 0.584977 0.871401 0.677301
Si Si3 0.334878 0.611665 0.309673
Si Si4 0.827240 0.755346 0.177878
Si Si5 0.170175 0.001884 0.175593
Si Si6 0.591600 0.616509 0.623802
Si Si7 0.916340 0.876694 0.173614
Si Si8 0.828847 0.744973 0.831644
O O1 0.500000 0.486759 0.143294
O O2 0.395826 0.565582 0.235163
O O3 0.381276 0.437767 0.259980
O O4 0.371935 0.500000 0.000000
O O5 0.500000 0.863643 0.741692
O O6 0.582841 0.874115 0.501803
O O7 0.634867 0.810716 0.733564
O O8 0.618752 0.939002 0.733251
O O9 0.250000 0.592837 0.250000
O O10 0.352239 0.685217 0.262123
O O11 0.352194 0.604671 0.484320
O O12 0.750000 0.779206 0.250000
O O13 0.889469 0.806966 0.230463
O O14 0.812792 0.753874 0.003847
O O15 0.250000 0.012819 0.250000
O O16 0.135777 0.934572 0.233233
O O17 0.178285 0.000000 0.000000
O O18 0.500000 0.612796 0.586273
O O19 0.611122 0.686465 0.692494
O O20 0.000000 0.889201 0.237588
O O21 0.750000 0.729300 0.750000
#
# Coordination Sequence:
#
# PCOD8218716 Si02
#       8
#     8   8   8   8   8   8   8   8
#     4  10  22  38  56  80 111 145 180 222 273 329
#     4   9  17  31  51  76 104 135 178 222 259 310
#     4  10  21  35  55  82 107 138 182 230 277 324
#     4   9  19  34  51  74 104 136 170 214 267 319
#     4  10  19  31  51  76 103 137 172 214 265 312
#     4  10  21  38  59  81 109 149 190 226 273 334
#     4   9  17  30  51  77 101 132 177 221 257 305
#     4  10  20  33  54  80 107 139 178 226 273 317
#
# _framework density 19.428622000000001
#
# number of rings (size 3 to 8) (size 9 to 14) (size 15 to 20)
#    0.000    2.375    0.000    2.250    0.000   10.500 
#    0.000    0.000    0.000    4.500    0.000    0.000 
#    0.000    0.000    0.000    0.000    0.000    0.000 
#
# Total GULP energy -793261.530908 kJ/mol
# GULP energy per Si atom -12394.711420 kJ/mol
# Density = 1.938440 g / cm^3
# Si number density = 19.428622 Si / 1000 Ang^3
#
#
#
# Elastic Constant Matrix: (Units=GPa)
#
#
# Indices 1 2 3 4 5 6 
#
# 1 97.1687 44.5111 29.2047 0.0000 0.0000 0.0000
# 2 44.5111 138.9261 41.0844 0.0000 0.0000 0.0000
# 3 29.2047 41.0844 46.4098 0.0000 0.0000 0.0000
# 4 0.0000 0.0000 0.0000 14.1097 0.0000 0.0000
# 5 0.0000 0.0000 0.0000 0.0000 28.4905 0.0000
# 6 0.0000 0.0000 0.0000 0.0000 0.0000 32.1123
#
#
#
# Elastic Compliance Matrix: (Units=1/GPa)
#
#
# Indices 1 2 3 4 5 6 
#
# 1 0.013263 -0.002413 -0.006210 0.000000 0.000000 0.000000
# 2 -0.002413 0.010190 -0.007502 0.000000 0.000000 0.000000
# 3 -0.006210 -0.007502 0.032096 0.000000 0.000000 0.000000
# 4 0.000000 0.000000 0.000000 0.070873 0.000000 0.000000
# 5 0.000000 0.000000 0.000000 0.000000 0.035099 0.000000
# 6 0.000000 0.000000 0.000000 0.000000 0.000000 0.031141
#
#
# Mechanical properties :
#
#
# Convention : Reuss Voigt Hill
#
# Bulk Modulus (GPa) = 42.92055 56.90055 49.91055
# Shear Modulus (GPa) = 21.48879 26.12279 23.80579
#
# Velocity S-wave (km/s) = 3.32932 3.67079 3.50422
# Velocity P-wave (km/s) = 6.07606 6.87872 6.48981
#
# Compressibility (1/GPa) = 0.02329886
#
# Stress axis : x y z
#
# Youngs Moduli (GPa) = 75.39652 98.13798 31.15623
#
# Poissons Ratio (x) = 0.23680 0.19349
# Poissons Ratio (y) = 0.18193 0.23374
# Poissons Ratio (z) = 0.46823 0.73624
#
# Static dielectric constant tensor:
#      x y z
#    x 3.579320 0.000000 0.000000 
#    y 0.000000 3.872190 0.000000 
#    z 0.000000 0.000000 3.391140 
# 
# 
# High freq. dielectric constant tensor:
#      x y z
#    x 1.755070 0.000000 0.000000 
#    y 0.000000 1.778340 0.000000 
#    z 0.000000 0.000000 1.721110 
# 
# From -- ./inp_files/10253.got.cif
#   From: 2010.03.12/outbox.cif.g09.slc.cpg/sg53_6_cif.got.tgz:10253.got - 2010.04.16 14:36:59.
