data_PCOD8218203
_publ_section_title
;
Structure prediction by ZEFSAII (Michael W. Deem and Ramdas Pophale) SiO2 
 PCOD8218203
Probable space group: P M N A
;
_chemical_formula_sum "Si O2"
_cell_formula_units_Z 64
_cell_length_a 9.066505
_cell_length_b 20.517811
_cell_length_c 19.191280
_cell_angle_alpha 90.000000
_cell_angle_beta 90.000000
_cell_angle_gamma 90.000000
_cell_volume 3570.054715
_symmetry_space_group_name_H-M "P M N A"
_symmetry_group_IT_number 53
_symmetry_cell_setting 'orthorhombic'
loop_
_space_group_symop_operation_xyz
x,y,z
1/2-x,-y,1/2+z
x,-y,-z
1/2-x,y,1/2-z
-x,-y,-z
1/2+x,y,1/2-z
-x,y,z
1/2+x,-y,1/2+z
loop_
_atom_site_type_symbol
_atom_site_label
_atom_site_fract_x
_atom_site_fract_y
_atom_site_fract_z
Si Si1 0.673602 0.689638 0.045019
Si Si2 0.171132 0.197471 0.035752
Si Si3 0.827904 0.882308 0.179654
Si Si4 0.331416 0.249663 0.316596
Si Si5 0.827175 0.269132 0.820864
Si Si6 0.174644 0.398004 0.179288
Si Si7 0.828210 0.563875 0.543361
Si Si8 0.825480 0.935061 0.034643
O O1 0.500000 0.693140 0.058882
O O2 0.757948 0.687223 0.118335
O O3 0.723770 0.752521 0.002684
O O4 0.719419 0.625768 0.002433
O O5 0.197561 0.202938 0.118150
O O6 0.000000 0.212130 0.015954
O O7 0.219006 0.125232 0.014132
O O8 0.750000 0.906820 0.250000
O O9 0.793391 0.806754 0.163923
O O10 0.767074 0.923580 0.113594
O O11 0.000000 0.893350 0.190668
O O12 0.250000 0.219339 0.250000
O O13 0.500000 0.252590 0.295478
O O14 0.276753 0.322924 0.333235
O O15 0.750000 0.291555 0.750000
O O16 0.000000 0.282857 0.815458
O O17 0.250000 0.424267 0.250000
O O18 0.235368 0.439103 0.114405
O O19 0.000000 0.407030 0.184592
O O20 0.788429 0.500000 0.500000
O O21 0.000000 0.566948 0.562887
O O22 0.000000 0.941724 0.038424
O O23 0.755590 0.000000 0.000000
#
# Coordination Sequence:
#
# PCOD8218203 Si02
#       8
#     8   8   8   8   8   8   8   8
#     4  11  21  33  54  81 106 136 173 216 267 317
#     4  10  18  33  53  76 104 136 176 221 263 309
#     4   9  17  30  50  74 100 133 170 214 258 305
#     4   9  18  30  49  75 105 136 169 216 265 310
#     4  10  19  33  53  79 109 138 174 220 268 315
#     4  10  19  33  55  81 108 139 178 220 267 321
#     4  10  22  39  56  78 110 144 179 221 267 318
#     4   9  17  31  52  76 102 137 181 217 255 310
#
# _framework density 17.926897
#
# number of rings (size 3 to 8) (size 9 to 14) (size 15 to 20)
#    0.000    2.250    2.500    1.125    0.000    2.250 
#    0.000    1.250    0.000    1.500    0.000    0.000 
#    0.000    0.000    0.000    0.000    0.000    0.000 
#
# Total GULP energy -793677.647125 kJ/mol
# GULP energy per Si atom -12401.213236 kJ/mol
# Density = 1.788609 g / cm^3
# Si number density = 17.926897 Si / 1000 Ang^3
#
#
#
# Elastic Constant Matrix: (Units=GPa)
#
#
# Indices 1 2 3 4 5 6 
#
# 1 63.7087 30.8460 61.6436 0.0000 0.0000 0.0000
# 2 30.8460 84.3436 63.4616 0.0000 0.0000 0.0000
# 3 61.6436 63.4616 165.3691 0.0000 0.0000 0.0000
# 4 0.0000 0.0000 0.0000 24.0402 0.0000 0.0000
# 5 0.0000 0.0000 0.0000 0.0000 37.6768 0.0000
# 6 0.0000 0.0000 0.0000 0.0000 0.0000 14.6384
#
#
#
# Elastic Compliance Matrix: (Units=1/GPa)
#
#
# Indices 1 2 3 4 5 6 
#
# 1 0.025082 -0.003006 -0.008196 0.000000 0.000000 0.000000
# 2 -0.003006 0.017030 -0.005415 0.000000 0.000000 0.000000
# 3 -0.008196 -0.005415 0.011180 0.000000 0.000000 0.000000
# 4 0.000000 0.000000 0.000000 0.041597 0.000000 0.000000
# 5 0.000000 0.000000 0.000000 0.000000 0.026542 0.000000
# 6 0.000000 0.000000 0.000000 0.000000 0.000000 0.068314
#
#
# Mechanical properties :
#
#
# Convention : Reuss Voigt Hill
#
# Bulk Modulus (GPa) = 49.85454 69.48045 59.66749
# Shear Modulus (GPa) = 21.77086 25.76910 23.76998
#
# Velocity S-wave (km/s) = 3.48864 3.79549 3.64530
# Velocity P-wave (km/s) = 6.64061 7.61902 7.14658
#
# Compressibility (1/GPa) = 0.02005836
#
# Stress axis : x y z
#
# Youngs Moduli (GPa) = 39.86853 58.72061 89.44337
#
# Poissons Ratio (x) = 0.17652 0.73309
# Poissons Ratio (y) = 0.11985 0.48431
# Poissons Ratio (z) = 0.32677 0.31796
#
# Static dielectric constant tensor:
#      x y z
#    x 3.186010 0.000000 0.000000 
#    y 0.000000 3.229680 0.000000 
#    z 0.000000 0.000000 3.536590 
# 
# 
# High freq. dielectric constant tensor:
#      x y z
#    x 1.683040 0.000000 0.000000 
#    y 0.000000 1.663910 0.000000 
#    z 0.000000 0.000000 1.710860 
# 
# From -- ./inp_files/31181.got.cif
#   From: 2010.03.12/outbox.cif.g09.slc.cpg/sg53_16_cif.got.tgz:31181.got - 2010.04.16 14:36:59.
