data_PCOD8218081
_publ_section_title
;
Structure prediction by ZEFSAII (Michael W. Deem and Ramdas Pophale) SiO2 
 PCOD8218081
Probable space group: P M N A
;
_chemical_formula_sum "Si O2"
_cell_formula_units_Z 48
_cell_length_a 8.449302
_cell_length_b 15.529587
_cell_length_c 18.085189
_cell_angle_alpha 90.000000
_cell_angle_beta 90.000000
_cell_angle_gamma 90.000000
_cell_volume 2373.033073
_symmetry_space_group_name_H-M "P M N A"
_symmetry_group_IT_number 53
_symmetry_cell_setting 'orthorhombic'
loop_
_space_group_symop_operation_xyz
x,y,z
1/2-x,-y,1/2+z
x,-y,-z
1/2-x,y,1/2-z
-x,-y,-z
1/2+x,y,1/2-z
-x,y,z
1/2+x,-y,1/2+z
loop_
_atom_site_type_symbol
_atom_site_label
_atom_site_fract_x
_atom_site_fract_y
_atom_site_fract_z
Si Si1 0.816348 0.653107 0.420358
Si Si2 0.813938 0.666067 0.918327
Si Si3 0.313629 0.826144 0.833182
Si Si4 0.813354 0.821370 0.331790
Si Si5 0.313393 0.003266 0.667722
Si Si6 0.683616 0.498119 0.330346
O O1 0.782755 0.658002 0.506639
O O2 0.762841 0.742091 0.382999
O O3 0.718563 0.575672 0.385493
O O4 0.000000 0.635206 0.405989
O O5 0.777795 0.757098 0.881689
O O6 0.749791 0.590936 0.864181
O O7 0.000000 0.657035 0.934624
O O8 0.250000 0.821537 0.750000
O O9 0.500000 0.808886 0.835144
O O10 0.272607 0.920069 0.867871
O O11 0.750000 0.802177 0.250000
O O12 0.000000 0.835115 0.328188
O O13 0.735026 0.906319 0.370355
O O14 0.250000 0.014703 0.750000
O O15 0.500000 0.988054 0.665720
O O16 0.750000 0.517953 0.250000
O O17 0.500000 0.487424 0.320405
#
# Coordination Sequence:
#
# PCOD8218081 Si02
#       6
#     8   8   8   8   8   8
#     4  11  24  40  60  86 118 155 192 235 288 345
#     4  11  24  41  60  85 118 154 193 237 288 344
#     4  11  21  36  59  86 117 152 193 240 288 340
#     4  10  20  35  56  84 115 149 192 238 285 337
#     4  10  18  31  54  83 114 149 190 237 287 336
#     4  11  24  41  63  89 116 149 190 238 286 338
#
# _framework density 20.227277000000001
#
# number of rings (size 3 to 8) (size 9 to 14) (size 15 to 20)
#    0.000    1.333    0.000    8.500    0.000   10.000 
#    0.000    0.833    0.000    5.000    0.000    0.000 
#    0.000    0.000    0.000    0.000    0.000    0.000 
#
# Total GULP energy -595302.679439 kJ/mol
# GULP energy per Si atom -12402.139155 kJ/mol
# Density = 2.018124 g / cm^3
# Si number density = 20.227277 Si / 1000 Ang^3
#
#
#
# Elastic Constant Matrix: (Units=GPa)
#
#
# Indices 1 2 3 4 5 6 
#
# 1 48.4061 24.2184 14.9854 0.0000 0.0000 0.0000
# 2 24.2184 139.0053 36.2957 0.0000 0.0000 0.0000
# 3 14.9854 36.2957 75.3484 0.0000 0.0000 0.0000
# 4 0.0000 0.0000 0.0000 -13.4074 0.0000 0.0000
# 5 0.0000 0.0000 0.0000 0.0000 29.9195 0.0000
# 6 0.0000 0.0000 0.0000 0.0000 0.0000 35.8848
#
#
#
# Elastic Compliance Matrix: (Units=1/GPa)
#
#
# Indices 1 2 3 4 5 6 
#
# 1 0.023230 -0.003250 -0.003055 0.000000 0.000000 0.000000
# 2 -0.003250 0.008684 -0.003537 0.000000 0.000000 0.000000
# 3 -0.003055 -0.003537 0.015583 0.000000 0.000000 0.000000
# 4 0.000000 0.000000 0.000000 -0.074585 0.000000 0.000000
# 5 0.000000 0.000000 0.000000 0.000000 0.033423 0.000000
# 6 0.000000 0.000000 0.000000 0.000000 0.000000 0.027867
#
#
# Mechanical properties :
#
#
# Convention : Reuss Voigt Hill
#
# Bulk Modulus (GPa) = 35.95239 45.97319 40.96279
# Shear Modulus (GPa) = 79.17091 22.96339 51.06715
#
# Velocity S-wave (km/s) = 6.26304 3.37303 5.03006
# Velocity P-wave (km/s) = 8.37339 6.16015 7.35055
#
# Compressibility (1/GPa) = 0.02781456
#
# Stress axis : x y z
#
# Youngs Moduli (GPa) = 43.04760 115.15961 64.17329
#
# Poissons Ratio (x) = 0.37423 0.19603
# Poissons Ratio (y) = 0.13989 0.22696
# Poissons Ratio (z) = 0.13150 0.40728
#
# Static dielectric constant tensor:
#      x y z
#    x 3.699500 0.000000 0.000000 
#    y 0.000000 4.303380 0.000000 
#    z 0.000000 0.000000 3.578300 
# 
# 
# High freq. dielectric constant tensor:
#      x y z
#    x 1.803030 0.000000 0.000000 
#    y 0.000000 1.817260 0.000000 
#    z 0.000000 0.000000 1.765110 
# 
# From -- ./inp_files/26260.got.cif
#   From: 2010.03.12/outbox.cif.g09.slc.cpg/sg53_14_cif.got.tgz:26260.got - 2010.04.16 14:36:59.
