data_PCOD8218294
_publ_section_title
;
Structure prediction by ZEFSAII (Michael W. Deem and Ramdas Pophale) SiO2 
 PCOD8218294
Probable space group: P M N A
;
_chemical_formula_sum "Si O2"
_cell_formula_units_Z 56
_cell_length_a 9.014023
_cell_length_b 17.548877
_cell_length_c 19.340298
_cell_angle_alpha 90.000000
_cell_angle_beta 90.000000
_cell_angle_gamma 90.000000
_cell_volume 3059.364010
_symmetry_space_group_name_H-M "P M N A"
_symmetry_group_IT_number 53
_symmetry_cell_setting 'orthorhombic'
loop_
_space_group_symop_operation_xyz
x,y,z
1/2-x,-y,1/2+z
x,-y,-z
1/2-x,y,1/2-z
-x,-y,-z
1/2+x,y,1/2-z
-x,y,z
1/2+x,-y,1/2+z
loop_
_atom_site_type_symbol
_atom_site_label
_atom_site_fract_x
_atom_site_fract_y
_atom_site_fract_z
Si Si1 0.174892 0.810917 0.679055
Si Si2 0.326386 0.605925 0.323056
Si Si3 0.175996 0.938179 0.902042
Si Si4 0.825272 0.684118 0.567598
Si Si5 0.174529 0.099054 0.945596
Si Si6 0.324889 0.266636 0.572986
Si Si7 0.174205 0.528873 0.924455
O O1 0.250000 0.784382 0.750000
O O2 0.238340 0.893486 0.657827
O O3 0.220023 0.749475 0.621418
O O4 0.000000 0.816785 0.689478
O O5 0.250000 0.600252 0.250000
O O6 0.500000 0.605489 0.310532
O O7 0.276850 0.683877 0.360963
O O8 0.277593 0.534766 0.369593
O O9 0.000000 0.927805 0.891569
O O10 0.226182 0.027417 0.898786
O O11 0.233387 0.906056 0.975836
O O12 0.754791 0.701410 0.493986
O O13 0.762332 0.604657 0.596029
O O14 0.000000 0.677995 0.558974
O O15 0.224699 0.179268 0.912262
O O16 0.000000 0.092962 0.951733
O O17 0.500000 0.273471 0.559158
O O18 0.000000 0.546315 0.922134
O O19 0.221784 0.500000 0.000000
#
# Coordination Sequence:
#
# PCOD8218294 Si02
#       7
#     8   8   8   8   8   8   8
#     4  11  24  39  54  78 113 153 192 233 288 342
#     4  10  22  38  58  83 112 147 182 221 273 332
#     4   9  16  31  55  83 110 141 183 230 278 329
#     4  11  23  36  55  86 115 141 184 238 286 328
#     4   8  15  28  55  87 109 139 184 227 270 326
#     4  10  18  35  60  83 112 151 190 226 270 332
#     4  10  20  38  61  84 109 143 188 227 270 335
#
# _framework density 18.304456999999999
#
# number of rings (size 3 to 8) (size 9 to 14) (size 15 to 20)
#    0.000    2.143    2.857    1.714    0.000    3.714 
#    0.000    5.714    0.000    1.714    0.000    0.000 
#    0.000    0.000    0.000    0.000    0.000    0.000 
#
# Total GULP energy -694377.939301 kJ/mol
# GULP energy per Si atom -12399.606059 kJ/mol
# Density = 1.826280 g / cm^3
# Si number density = 18.304457 Si / 1000 Ang^3
#
#
#
# Elastic Constant Matrix: (Units=GPa)
#
#
# Indices 1 2 3 4 5 6 
#
# 1 47.4757 43.7033 41.8485 0.0000 0.0000 0.0000
# 2 43.7033 157.3921 68.9168 0.0000 0.0000 0.0000
# 3 41.8485 68.9168 127.2929 0.0000 0.0000 0.0000
# 4 0.0000 0.0000 0.0000 23.3160 0.0000 0.0000
# 5 0.0000 0.0000 0.0000 0.0000 29.1327 0.0000
# 6 0.0000 0.0000 0.0000 0.0000 0.0000 6.2335
#
#
#
# Elastic Compliance Matrix: (Units=1/GPa)
#
#
# Indices 1 2 3 4 5 6 
#
# 1 0.033301 -0.005837 -0.007788 0.000000 0.000000 0.000000
# 2 -0.005837 0.009351 -0.003144 0.000000 0.000000 0.000000
# 3 -0.007788 -0.003144 0.012118 0.000000 0.000000 0.000000
# 4 0.000000 0.000000 0.000000 0.042889 0.000000 0.000000
# 5 0.000000 0.000000 0.000000 0.000000 0.034326 0.000000
# 6 0.000000 0.000000 0.000000 0.000000 0.000000 0.160423
#
#
# Mechanical properties :
#
#
# Convention : Reuss Voigt Hill
#
# Bulk Modulus (GPa) = 47.09547 71.23310 59.16429
# Shear Modulus (GPa) = 15.01399 23.58258 19.29828
#
# Velocity S-wave (km/s) = 2.86708 3.59326 3.25051
# Velocity P-wave (km/s) = 6.06177 7.49770 6.81764
#
# Compressibility (1/GPa) = 0.02123346
#
# Stress axis : x y z
#
# Youngs Moduli (GPa) = 30.02892 106.94337 82.52001
#
# Poissons Ratio (x) = 0.62419 0.64267
# Poissons Ratio (y) = 0.17527 0.25942
# Poissons Ratio (z) = 0.23387 0.33619
#
# Static dielectric constant tensor:
#      x y z
#    x 3.148920 0.000000 0.000000 
#    y 0.000000 3.952190 0.000000 
#    z 0.000000 0.000000 3.314020 
# 
# 
# High freq. dielectric constant tensor:
#      x y z
#    x 1.690750 0.000000 0.000000 
#    y 0.000000 1.728100 0.000000 
#    z 0.000000 0.000000 1.693320 
# 
# From -- ./inp_files/31045.got.cif
#   From: 2010.03.12/outbox.cif.g09.slc.cpg/sg53_16_cif.got.tgz:31045.got - 2010.04.16 14:36:59.
