data_PCOD8218739
_publ_section_title
;
Structure prediction by ZEFSAII (Michael W. Deem and Ramdas Pophale) SiO2 
 PCOD8218739
Probable space group: P M N A
;
_chemical_formula_sum "Si O2"
_cell_formula_units_Z 52
_cell_length_a 24.424312
_cell_length_b 12.017497
_cell_length_c 8.916497
_cell_angle_alpha 90.000000
_cell_angle_beta 90.000000
_cell_angle_gamma 90.000000
_cell_volume 2617.162141
_symmetry_space_group_name_H-M "P M N A"
_symmetry_group_IT_number 53
_symmetry_cell_setting 'orthorhombic'
loop_
_space_group_symop_operation_xyz
x,y,z
1/2-x,-y,1/2+z
x,-y,-z
1/2-x,y,1/2-z
-x,-y,-z
1/2+x,y,1/2-z
-x,y,z
1/2+x,-y,1/2+z
loop_
_atom_site_type_symbol
_atom_site_label
_atom_site_fract_x
_atom_site_fract_y
_atom_site_fract_z
Si Si1 0.061575 0.796943 0.615041
Si Si2 0.760312 0.390408 0.922361
Si Si3 0.352799 0.243774 0.667449
Si Si4 0.361000 0.629468 0.030661
Si Si5 0.186664 0.003783 0.768681
Si Si6 0.096082 0.109249 0.069726
Si Si7 0.888611 0.000000 0.500000
O O1 0.103628 0.695862 0.591601
O O2 0.065706 0.847212 0.782950
O O3 0.072629 0.891158 0.486439
O O4 0.000000 0.752572 0.592590
O O5 0.750000 0.419142 0.750000
O O6 0.807798 0.300593 0.939482
O O7 0.703605 0.349124 0.998672
O O8 0.783104 0.500000 0.000000
O O9 0.374563 0.326216 0.799637
O O10 0.322262 0.136182 0.733566
O O11 0.402324 0.205783 0.557782
O O12 0.374792 0.500000 0.000000
O O13 0.250000 0.972720 0.750000
O O14 0.159501 0.932473 0.903126
O O15 0.150890 0.961578 0.631335
O O16 0.065142 0.000000 0.000000
#
# Coordination Sequence:
#
# PCOD8218739 Si02
#       7
#     8   8   8   8   8   8   4
#     4  11  23  41  61  82 110 151 199 248 293 333
#     4   9  19  33  54  82 116 154 191 225 275 339
#     4  10  19  35  56  81 121 153 181 230 284 345
#     4  10  21  38  59  86 115 149 195 238 282 339
#     4  10  19  31  54  84 121 154 182 217 280 351
#     4   9  22  37  53  84 117 149 190 234 288 343
#     4  10  21  36  58  86 118 148 191 236 278 342
#
# _framework density 19.868849999999998
#
# number of rings (size 3 to 8) (size 9 to 14) (size 15 to 20)
#    0.000    2.154    1.538    1.615    3.231    5.538 
#    0.000    0.769    0.000    0.923    0.000    0.000 
#    0.000    0.000    0.000    0.000    0.000    0.000 
#
# Total GULP energy -644192.533061 kJ/mol
# GULP energy per Si atom -12388.317943 kJ/mol
# Density = 1.982363 g / cm^3
# Si number density = 19.868850 Si / 1000 Ang^3
#
#
#
# Elastic Constant Matrix: (Units=GPa)
#
#
# Indices 1 2 3 4 5 6 
#
# 1 80.2308 31.7424 25.0724 0.0000 0.0000 0.0000
# 2 31.7424 113.4374 33.2878 0.0000 0.0000 0.0000
# 3 25.0724 33.2878 69.4480 0.0000 0.0000 0.0000
# 4 0.0000 0.0000 0.0000 38.6438 0.0000 0.0000
# 5 0.0000 0.0000 0.0000 0.0000 16.2657 0.0000
# 6 0.0000 0.0000 0.0000 0.0000 0.0000 16.1752
#
#
#
# Elastic Compliance Matrix: (Units=1/GPa)
#
#
# Indices 1 2 3 4 5 6 
#
# 1 0.014884 -0.003012 -0.003930 0.000000 0.000000 0.000000
# 2 -0.003012 0.010868 -0.004122 0.000000 0.000000 0.000000
# 3 -0.003930 -0.004122 0.017794 0.000000 0.000000 0.000000
# 4 0.000000 0.000000 0.000000 0.025877 0.000000 0.000000
# 5 0.000000 0.000000 0.000000 0.000000 0.061479 0.000000
# 6 0.000000 0.000000 0.000000 0.000000 0.000000 0.061823
#
#
# Mechanical properties :
#
#
# Convention : Reuss Voigt Hill
#
# Bulk Modulus (GPa) = 46.68863 49.25793 47.97328
# Shear Modulus (GPa) = 22.52348 25.75118 24.13733
#
# Velocity S-wave (km/s) = 3.37056 3.60399 3.48923
# Velocity P-wave (km/s) = 6.22069 6.49335 6.35848
#
# Compressibility (1/GPa) = 0.02141849
#
# Stress axis : x y z
#
# Youngs Moduli (GPa) = 67.18796 92.01591 56.19968
#
# Poissons Ratio (x) = 0.27711 0.22086
# Poissons Ratio (y) = 0.20234 0.23165
# Poissons Ratio (z) = 0.26404 0.37927
#
# Static dielectric constant tensor:
#      x y z
#    x 3.385720 0.000000 0.000000 
#    y 0.000000 3.611580 0.000000 
#    z 0.000000 0.000000 4.072770 
# 
# 
# High freq. dielectric constant tensor:
#      x y z
#    x 1.745190 0.000000 0.000000 
#    y 0.000000 1.771120 0.000000 
#    z 0.000000 0.000000 1.774660 
# 
# From -- ./inp_files/12503.got.cif
#   From: 2010.03.12/outbox.cif.g09.slc.cpg/sg53_7_cif.got.tgz:12503.got - 2010.04.16 14:36:59.
