data_PCOD8218429
_publ_section_title
;
Structure prediction by ZEFSAII (Michael W. Deem and Ramdas Pophale) SiO2 
 PCOD8218429
Probable space group: P M N A
;
_chemical_formula_sum "Si O2"
_cell_formula_units_Z 48
_cell_length_a 8.652592
_cell_length_b 11.480511
_cell_length_c 26.719030
_cell_angle_alpha 90.000000
_cell_angle_beta 90.000000
_cell_angle_gamma 90.000000
_cell_volume 2654.166310
_symmetry_space_group_name_H-M "P M N A"
_symmetry_group_IT_number 53
_symmetry_cell_setting 'orthorhombic'
loop_
_space_group_symop_operation_xyz
x,y,z
1/2-x,-y,1/2+z
x,-y,-z
1/2-x,y,1/2-z
-x,-y,-z
1/2+x,y,1/2-z
-x,y,z
1/2+x,-y,1/2+z
loop_
_atom_site_type_symbol
_atom_site_label
_atom_site_fract_x
_atom_site_fract_y
_atom_site_fract_z
Si Si1 0.183816 0.007810 0.943092
Si Si2 0.832341 0.009522 0.797317
Si Si3 0.683280 0.363002 0.303054
Si Si4 0.682269 0.616829 0.197639
Si Si5 0.180110 0.833740 0.635185
Si Si6 0.331445 0.791161 0.375059
O O1 0.251727 0.895928 0.914167
O O2 0.000000 0.001071 0.937788
O O3 0.240435 0.134919 0.921859
O O4 0.240518 0.000000 0.000000
O O5 0.750000 0.066584 0.750000
O O6 0.712575 0.914587 0.817292
O O7 0.000000 0.951241 0.785471
O O8 0.863232 0.112053 0.834522
O O9 0.750000 0.315327 0.250000
O O10 0.500000 0.362411 0.299976
O O11 0.742750 0.492617 0.312797
O O12 0.738975 0.288680 0.351227
O O13 0.750000 0.668485 0.250000
O O14 0.500000 0.605064 0.203660
O O15 0.717988 0.695362 0.148581
O O16 0.000000 0.812838 0.627072
O O17 0.500000 0.735293 0.388836
#
# Coordination Sequence:
#
# PCOD8218429 Si02
#       6
#     8   8   8   8   8   8
#     4   9  19  37  59  80 102 131 169 213 262 313
#     4  10  19  30  45  68  99 133 168 205 248 299
#     4  11  21  35  53  74 104 140 177 212 250 297
#     4  11  21  33  50  74 105 140 176 210 248 295
#     4  11  21  33  50  74 103 133 168 208 254 305
#     4   9  18  32  50  73 100 131 167 206 250 301
#
# _framework density 18.084773999999999
#
# number of rings (size 3 to 8) (size 9 to 14) (size 15 to 20)
#    0.000    1.833    0.000    8.000    0.000    5.000 
#    0.000    0.000    0.000    1.000    0.000    7.000 
#    0.000    0.000    0.000    0.000    0.000    0.000 
#
# Total GULP energy -594777.376123 kJ/mol
# GULP energy per Si atom -12391.195336 kJ/mol
# Density = 1.804361 g / cm^3
# Si number density = 18.084774 Si / 1000 Ang^3
#
#
#
# Elastic Constant Matrix: (Units=GPa)
#
#
# Indices 1 2 3 4 5 6 
#
# 1 122.1498 41.1801 49.2679 0.0000 0.0000 0.0000
# 2 41.1801 85.4812 47.0439 0.0000 0.0000 0.0000
# 3 49.2679 47.0439 101.4566 0.0000 0.0000 0.0000
# 4 0.0000 0.0000 0.0000 32.1443 0.0000 0.0000
# 5 0.0000 0.0000 0.0000 0.0000 23.4728 0.0000
# 6 0.0000 0.0000 0.0000 0.0000 0.0000 27.8243
#
#
#
# Elastic Compliance Matrix: (Units=1/GPa)
#
#
# Indices 1 2 3 4 5 6 
#
# 1 0.010759 -0.003098 -0.003788 0.000000 0.000000 0.000000
# 2 -0.003098 0.016599 -0.006192 0.000000 0.000000 0.000000
# 3 -0.003788 -0.006192 0.014567 0.000000 0.000000 0.000000
# 4 0.000000 0.000000 0.000000 0.031110 0.000000 0.000000
# 5 0.000000 0.000000 0.000000 0.000000 0.042603 0.000000
# 6 0.000000 0.000000 0.000000 0.000000 0.000000 0.035940
#
#
# Mechanical properties :
#
#
# Convention : Reuss Voigt Hill
#
# Bulk Modulus (GPa) = 63.41915 64.89684 64.15800
# Shear Modulus (GPa) = 27.32390 28.12798 27.72594
#
# Velocity S-wave (km/s) = 3.89122 3.94806 3.91974
# Velocity P-wave (km/s) = 7.43859 7.53297 7.48593
#
# Compressibility (1/GPa) = 0.01576811
#
# Stress axis : x y z
#
# Youngs Moduli (GPa) = 92.94468 60.24511 68.64819
#
# Poissons Ratio (x) = 0.18667 0.26004
# Poissons Ratio (y) = 0.28798 0.42507
# Poissons Ratio (z) = 0.35207 0.37304
#
# Static dielectric constant tensor:
#      x y z
#    x 3.359960 0.000000 0.000000 
#    y 0.000000 3.578760 0.000000 
#    z 0.000000 0.000000 2.192420 
# 
# 
# High freq. dielectric constant tensor:
#      x y z
#    x 1.711070 0.000000 0.000000 
#    y 0.000000 1.691210 0.000000 
#    z 0.000000 0.000000 1.674570 
# 
# From -- ./inp_files/33859.got.cif
#   From: 2010.03.12/outbox.cif.g09.slc.cpg/sg53_17_cif.got.tgz:33859.got - 2010.04.16 14:36:59.
