data_PCOD8218194
_publ_section_title
;
Structure prediction by ZEFSAII (Michael W. Deem and Ramdas Pophale) SiO2 
 PCOD8218194
Probable space group: P M N A
;
_chemical_formula_sum "Si O2"
_cell_formula_units_Z 56
_cell_length_a 20.138940
_cell_length_b 9.374905
_cell_length_c 16.854084
_cell_angle_alpha 90.000000
_cell_angle_beta 90.000000
_cell_angle_gamma 90.000000
_cell_volume 3182.062003
_symmetry_space_group_name_H-M "P M N A"
_symmetry_group_IT_number 53
_symmetry_cell_setting 'orthorhombic'
loop_
_space_group_symop_operation_xyz
x,y,z
1/2-x,-y,1/2+z
x,-y,-z
1/2-x,y,1/2-z
-x,-y,-z
1/2+x,y,1/2-z
-x,y,z
1/2+x,-y,1/2+z
loop_
_atom_site_type_symbol
_atom_site_label
_atom_site_fract_x
_atom_site_fract_y
_atom_site_fract_z
Si Si1 0.923384 0.252724 0.657699
Si Si2 0.132270 0.040242 0.350309
Si Si3 0.176662 0.231646 0.217650
Si Si4 0.200441 0.612391 0.561571
Si Si5 0.734592 0.095248 0.426342
Si Si6 0.574542 0.247363 0.028716
Si Si7 0.317156 0.475779 0.777884
O O1 0.911851 0.234838 0.564480
O O2 0.876801 0.372441 0.697750
O O3 0.000000 0.285985 0.679581
O O4 0.900595 0.099000 0.689516
O O5 0.127468 0.156224 0.279852
O O6 0.208281 0.008431 0.378321
O O7 0.090704 0.099040 0.425970
O O8 0.250000 0.209648 0.250000
O O9 0.174781 0.151210 0.131403
O O10 0.157728 0.401827 0.215376
O O11 0.229721 0.500000 0.500000
O O12 0.230935 0.763925 0.537866
O O13 0.120356 0.623567 0.558708
O O14 0.215725 0.566052 0.650168
O O15 0.706907 0.000000 0.500000
O O16 0.500000 0.294038 0.047031
O O17 0.250000 0.391119 0.750000
#
# Coordination Sequence:
#
# PCOD8218194 Si02
#       7
#     8   8   8   8   8   8   8
#     4  11  23  34  48  77 114 149 186 221 259 318
#     4  10  18  33  49  71 105 145 187 222 264 311
#     4   9  17  34  51  70 101 142 179 225 278 324
#     4  11  19  32  48  74 107 141 181 219 261 314
#     4  10  19  32  53  74 103 137 181 233 278 326
#     4  10  19  30  49  72 106 150 183 210 254 312
#     4  11  20  37  53  72 108 151 180 222 269 323
#
# _framework density 17.598651
#
# number of rings (size 3 to 8) (size 9 to 14) (size 15 to 20)
#    0.000    1.714    7.143    2.571    0.000    3.714 
#    0.000    0.000    0.000    0.000    0.000    0.000 
#    0.000    9.143    0.000    0.000    0.000    0.000 
#
# Total GULP energy -693736.921439 kJ/mol
# GULP energy per Si atom -12388.159311 kJ/mol
# Density = 1.755860 g / cm^3
# Si number density = 17.598651 Si / 1000 Ang^3
#
#
#
# Elastic Constant Matrix: (Units=GPa)
#
#
# Indices 1 2 3 4 5 6 
#
# 1 74.6975 47.5863 41.4803 0.0000 0.0000 0.0000
# 2 47.5863 103.9204 42.9774 0.0000 0.0000 0.0000
# 3 41.4803 42.9774 69.8847 0.0000 0.0000 0.0000
# 4 0.0000 0.0000 0.0000 29.7681 0.0000 0.0000
# 5 0.0000 0.0000 0.0000 0.0000 22.6777 0.0000
# 6 0.0000 0.0000 0.0000 0.0000 0.0000 19.0222
#
#
#
# Elastic Compliance Matrix: (Units=1/GPa)
#
#
# Indices 1 2 3 4 5 6 
#
# 1 0.022838 -0.006506 -0.009554 0.000000 0.000000 0.000000
# 2 -0.006506 0.014759 -0.005214 0.000000 0.000000 0.000000
# 3 -0.009554 -0.005214 0.023187 0.000000 0.000000 0.000000
# 4 0.000000 0.000000 0.000000 0.033593 0.000000 0.000000
# 5 0.000000 0.000000 0.000000 0.000000 0.044096 0.000000
# 6 0.000000 0.000000 0.000000 0.000000 0.000000 0.052570
#
#
# Mechanical properties :
#
#
# Convention : Reuss Voigt Hill
#
# Bulk Modulus (GPa) = 54.84410 56.95451 55.89931
# Shear Modulus (GPa) = 20.86204 22.05751 21.45977
#
# Velocity S-wave (km/s) = 3.44675 3.54413 3.49578
# Velocity P-wave (km/s) = 6.86087 7.01292 6.93731
#
# Compressibility (1/GPa) = 0.01823350
#
# Stress axis : x y z
#
# Youngs Moduli (GPa) = 43.78703 67.75744 43.12804
#
# Poissons Ratio (x) = 0.44086 0.41205
# Poissons Ratio (y) = 0.28490 0.22488
# Poissons Ratio (z) = 0.41835 0.35330
#
# Static dielectric constant tensor:
#      x y z
#    x 3.053450 0.000000 0.000000 
#    y 0.000000 3.351100 0.000000 
#    z 0.000000 0.000000 3.440440 
# 
# 
# High freq. dielectric constant tensor:
#      x y z
#    x 1.636160 0.000000 0.000000 
#    y 0.000000 1.687280 0.000000 
#    z 0.000000 0.000000 1.661100 
# 
# From -- ./inp_files/29333.got.cif
#   From: 2010.03.12/outbox.cif.g09.slc.cpg/sg53_15_cif.got.tgz:29333.got - 2010.04.16 14:36:59.
