data_PCOD8218320
_publ_section_title
;
Structure prediction by ZEFSAII (Michael W. Deem and Ramdas Pophale) SiO2 
 PCOD8218320
Probable space group: P M N A
;
_chemical_formula_sum "Si O2"
_cell_formula_units_Z 64
_cell_length_a 8.783180
_cell_length_b 18.348333
_cell_length_c 24.658857
_cell_angle_alpha 90.000000
_cell_angle_beta 90.000000
_cell_angle_gamma 90.000000
_cell_volume 3973.940302
_symmetry_space_group_name_H-M "P M N A"
_symmetry_group_IT_number 53
_symmetry_cell_setting 'orthorhombic'
loop_
_space_group_symop_operation_xyz
x,y,z
1/2-x,-y,1/2+z
x,-y,-z
1/2-x,y,1/2-z
-x,-y,-z
1/2+x,y,1/2-z
-x,y,z
1/2+x,-y,1/2+z
loop_
_atom_site_type_symbol
_atom_site_label
_atom_site_fract_x
_atom_site_fract_y
_atom_site_fract_z
Si Si1 0.830163 0.683771 0.388917
Si Si2 0.317970 0.988365 0.082755
Si Si3 0.828653 0.604185 0.957046
Si Si4 0.670960 0.740830 0.989642
Si Si5 0.828613 0.547817 0.078991
Si Si6 0.323052 0.217027 0.695774
Si Si7 0.819494 0.892997 0.993981
Si Si8 0.681190 0.050822 0.693507
O O1 0.822280 0.711498 0.449808
O O2 0.777798 0.599412 0.384394
O O3 0.718703 0.734393 0.355228
O O4 0.000000 0.689459 0.365340
O O5 0.500000 0.983665 0.081331
O O6 0.257455 0.992867 0.144113
O O7 0.260866 0.060929 0.053071
O O8 0.247724 0.917795 0.052219
O O9 0.768444 0.536114 0.920486
O O10 0.000000 0.624536 0.939612
O O11 0.724502 0.675785 0.949454
O O12 0.827667 0.578281 0.018590
O O13 0.500000 0.764043 0.973610
O O14 0.783593 0.808753 0.983440
O O15 0.000000 0.550449 0.102129
O O16 0.250000 0.250169 0.750000
O O17 0.500000 0.218228 0.704636
O O18 0.267111 0.134571 0.686094
O O19 0.000000 0.906027 0.993308
O O20 0.750000 0.020466 0.750000
O O21 0.500000 0.040254 0.692859
#
# Coordination Sequence:
#
# PCOD8218320 Si02
#       8
#     8   8   8   8   8   8   8   8
#     4  10  19  28  41  61  86 115 148 182 218 261
#     4  11  21  34  50  68  92 120 151 190 232 276
#     4   8  14  25  40  58  81 111 143 176 210 248
#     4  10  19  29  42  63  89 117 148 183 221 263
#     4   8  14  25  40  57  80 110 144 176 209 247
#     4  10  20  32  46  62  84 112 144 182 221 259
#     4  11  21  33  48  66  90 122 157 191 228 276
#     4  10  20  34  51  71  92 119 153 189 229 272
#
# _framework density 16.104921999999998
#
# number of rings (size 3 to 8) (size 9 to 14) (size 15 to 20)
#    0.000    2.250    0.000    6.000    0.000    5.500 
#    0.000    2.500    0.000    0.000    0.000    0.000 
#    0.000    1.000    0.000    5.500    0.000    6.125 
#
# Total GULP energy -793441.486820 kJ/mol
# GULP energy per Si atom -12397.523232 kJ/mol
# Density = 1.606827 g / cm^3
# Si number density = 16.104922 Si / 1000 Ang^3
#
#
#
# Elastic Constant Matrix: (Units=GPa)
#
#
# Indices 1 2 3 4 5 6 
#
# 1 86.5687 30.8369 27.6757 0.0000 0.0000 0.0000
# 2 30.8369 77.5598 18.0896 0.0000 0.0000 0.0000
# 3 27.6757 18.0896 61.7849 0.0000 0.0000 0.0000
# 4 0.0000 0.0000 0.0000 15.3130 0.0000 0.0000
# 5 0.0000 0.0000 0.0000 0.0000 23.9087 0.0000
# 6 0.0000 0.0000 0.0000 0.0000 0.0000 26.2454
#
#
#
# Elastic Compliance Matrix: (Units=1/GPa)
#
#
# Indices 1 2 3 4 5 6 
#
# 1 0.014921 -0.004694 -0.005309 0.000000 0.000000 0.000000
# 2 -0.004694 0.015315 -0.002381 0.000000 0.000000 0.000000
# 3 -0.005309 -0.002381 0.019261 0.000000 0.000000 0.000000
# 4 0.000000 0.000000 0.000000 0.065304 0.000000 0.000000
# 5 0.000000 0.000000 0.000000 0.000000 0.041826 0.000000
# 6 0.000000 0.000000 0.000000 0.000000 0.000000 0.038102
#
#
# Mechanical properties :
#
#
# Convention : Reuss Voigt Hill
#
# Bulk Modulus (GPa) = 40.44133 42.12419 41.28276
# Shear Modulus (GPa) = 21.95487 23.04751 22.50119
#
# Velocity S-wave (km/s) = 3.69621 3.78707 3.74192
# Velocity P-wave (km/s) = 6.58648 6.73316 6.66022
#
# Compressibility (1/GPa) = 0.02472718
#
# Stress axis : x y z
#
# Youngs Moduli (GPa) = 67.01967 65.29547 51.91936
#
# Poissons Ratio (x) = 0.30650 0.27566
# Poissons Ratio (y) = 0.31460 0.12364
# Poissons Ratio (z) = 0.35583 0.15549
#
# Static dielectric constant tensor:
#      x y z
#    x 3.217160 0.000000 0.000000 
#    y 0.000000 3.166620 0.000000 
#    z 0.000000 0.000000 2.784550 
# 
# 
# High freq. dielectric constant tensor:
#      x y z
#    x 1.634320 0.000000 0.000000 
#    y 0.000000 1.612080 0.000000 
#    z 0.000000 0.000000 1.573660 
# 
# From -- ./inp_files/34468.got.cif
#   From: 2010.03.12/outbox.cif.g09.slc.cpg/sg53_18_cif.got.tgz:34468.got - 2010.04.16 14:36:59.
