data_PCOD8218008
_publ_section_title
;
Structure prediction by ZEFSAII (Michael W. Deem and Ramdas Pophale) SiO2 
 PCOD8218008
Probable space group: P M N A
;
_chemical_formula_sum "Si O2"
_cell_formula_units_Z 40
_cell_length_a 7.815339
_cell_length_b 17.552641
_cell_length_c 14.214373
_cell_angle_alpha 90.000000
_cell_angle_beta 90.000000
_cell_angle_gamma 90.000000
_cell_volume 1949.925410
_symmetry_space_group_name_H-M "P M N A"
_symmetry_group_IT_number 53
_symmetry_cell_setting 'orthorhombic'
loop_
_space_group_symop_operation_xyz
x,y,z
1/2-x,-y,1/2+z
x,-y,-z
1/2-x,y,1/2-z
-x,-y,-z
1/2+x,y,1/2-z
-x,y,z
1/2+x,-y,1/2+z
loop_
_atom_site_type_symbol
_atom_site_label
_atom_site_fract_x
_atom_site_fract_y
_atom_site_fract_z
Si Si1 0.805002 0.155792 0.657091
Si Si2 0.806803 0.613505 0.521204
Si Si3 0.192451 0.481094 0.854379
Si Si4 0.697614 0.218227 0.045508
Si Si5 0.500000 0.050904 0.624586
Si Si6 0.000000 0.886863 0.915515
O O1 0.750000 0.205314 0.750000
O O2 0.776849 0.206566 0.565690
O O3 0.676657 0.084058 0.665094
O O4 0.000000 0.125824 0.661481
O O5 0.800356 0.551778 0.604906
O O6 0.702952 0.589135 0.427826
O O7 0.745370 0.694481 0.563190
O O8 0.000000 0.622732 0.486229
O O9 0.250000 0.456495 0.750000
O O10 0.000000 0.510158 0.849297
O O11 0.500000 0.201896 0.076416
O O12 0.828352 0.163614 0.101778
O O13 0.500000 0.074064 0.516117
O O14 0.500000 0.960857 0.651345
#
# Coordination Sequence:
#
# PCOD8218008 Si02
#       6
#     8   8   8   8   4   4
#     4  10  18  31  49  76 109 140 177 218 270 327
#     4  10  20  37  57  82 115 145 185 236 280 334
#     4  11  22  36  56  83 110 148 193 229 280 334
#     4   9  20  33  52  80 108 140 176 222 272 322
#     4   9  18  32  48  78  96 141 171 217 261 316
#     4   9  18  32  54  71 106 130 181 213 263 323
#
# _framework density 20.513604000000001
#
# number of rings (size 3 to 8) (size 9 to 14) (size 15 to 20)
#    0.000    2.200    1.000    3.600    2.800    1.600 
#    0.000    6.000    0.000    1.200    0.000    0.000 
#    0.000    0.000    0.000    0.000    0.000    0.000 
#
# Total GULP energy -495638.190356 kJ/mol
# GULP energy per Si atom -12390.954759 kJ/mol
# Density = 2.046691 g / cm^3
# Si number density = 20.513604 Si / 1000 Ang^3
#
#
#
# Elastic Constant Matrix: (Units=GPa)
#
#
# Indices 1 2 3 4 5 6 
#
# 1 112.0297 37.1199 3.2119 0.0000 0.0000 0.0000
# 2 37.1199 98.9403 -10.5162 0.0000 0.0000 0.0000
# 3 3.2119 -10.5162 38.6125 0.0000 0.0000 0.0000
# 4 0.0000 0.0000 0.0000 10.1817 0.0000 0.0000
# 5 0.0000 0.0000 0.0000 0.0000 19.6501 0.0000
# 6 0.0000 0.0000 0.0000 0.0000 0.0000 29.1677
#
#
#
# Elastic Compliance Matrix: (Units=1/GPa)
#
#
# Indices 1 2 3 4 5 6 
#
# 1 0.010337 -0.004088 -0.001973 0.000000 0.000000 0.000000
# 2 -0.004088 0.012025 0.003615 0.000000 0.000000 0.000000
# 3 -0.001973 0.003615 0.027047 0.000000 0.000000 0.000000
# 4 0.000000 0.000000 0.000000 0.098216 0.000000 0.000000
# 5 0.000000 0.000000 0.000000 0.000000 0.050890 0.000000
# 6 0.000000 0.000000 0.000000 0.000000 0.000000 0.034285
#
#
# Mechanical properties :
#
#
# Convention : Reuss Voigt Hill
#
# Bulk Modulus (GPa) = 22.46331 34.35709 28.41020
# Shear Modulus (GPa) = 19.79953 26.45102 23.12528
#
# Velocity S-wave (km/s) = 3.11012 3.59477 3.36119
# Velocity P-wave (km/s) = 4.88583 5.83221 5.37987
#
# Compressibility (1/GPa) = 0.04451704
#
# Stress axis : x y z
#
# Youngs Moduli (GPa) = 96.73697 83.15959 36.97260
#
# Poissons Ratio (x) = 0.33996 0.07296
# Poissons Ratio (y) = 0.39546 -0.13366
# Poissons Ratio (z) = 0.19089 -0.30063
#
# Static dielectric constant tensor:
#      x y z
#    x 3.908690 0.000000 0.000000 
#    y 0.000000 3.728320 0.000000 
#    z 0.000000 0.000000 3.614320 
# 
# 
# High freq. dielectric constant tensor:
#      x y z
#    x 1.818140 0.000000 0.000000 
#    y 0.000000 1.782880 0.000000 
#    z 0.000000 0.000000 1.776380 
# 
# From -- ./inp_files/19939.got.cif
#   From: 2010.03.12/outbox.cif.g09.slc.cpg/sg53_10_cif.got.tgz:19939.got - 2010.04.16 14:36:59.
