data_PCOD8218804
_publ_section_title
;
Structure prediction by ZEFSAII (Michael W. Deem and Ramdas Pophale) SiO2 
 PCOD8218804
Probable space group: P M N A
;
_chemical_formula_sum "Si O2"
_cell_formula_units_Z 64
_cell_length_a 8.421856
_cell_length_b 19.904311
_cell_length_c 20.280673
_cell_angle_alpha 90.000000
_cell_angle_beta 90.000000
_cell_angle_gamma 90.000000
_cell_volume 3399.674384
_symmetry_space_group_name_H-M "P M N A"
_symmetry_group_IT_number 53
_symmetry_cell_setting 'orthorhombic'
loop_
_space_group_symop_operation_xyz
x,y,z
1/2-x,-y,1/2+z
x,-y,-z
1/2-x,y,1/2-z
-x,-y,-z
1/2+x,y,1/2-z
-x,y,z
1/2+x,-y,1/2+z
loop_
_atom_site_type_symbol
_atom_site_label
_atom_site_fract_x
_atom_site_fract_y
_atom_site_fract_z
Si Si1 0.684019 0.424811 0.433647
Si Si2 0.312155 0.330803 0.179347
Si Si3 0.687586 0.177834 0.180218
Si Si4 0.689334 0.181420 0.820816
Si Si5 0.810940 0.924189 0.572625
Si Si6 0.687424 0.328233 0.678071
Si Si7 0.815764 0.431907 0.573585
Si Si8 0.811495 0.073960 0.574317
O O1 0.500000 0.417335 0.450169
O O2 0.730944 0.374333 0.376491
O O3 0.780896 0.406417 0.499587
O O4 0.718801 0.500609 0.410405
O O5 0.250000 0.356322 0.250000
O O6 0.500000 0.339149 0.175910
O O7 0.256630 0.254095 0.167705
O O8 0.750000 0.151031 0.250000
O O9 0.500000 0.173507 0.180489
O O10 0.760649 0.130290 0.123272
O O11 0.750000 0.156675 0.750000
O O12 0.500000 0.188409 0.820611
O O13 0.765614 0.252401 0.839541
O O14 0.754487 0.127486 0.873421
O O15 0.750758 0.906557 0.498911
O O16 0.000000 0.921992 0.574161
O O17 0.751934 0.998923 0.592691
O O18 0.750000 0.348756 0.750000
O O19 0.500000 0.337090 0.675788
O O20 0.768548 0.375085 0.624631
O O21 0.000000 0.448766 0.580504
O O22 0.000000 0.075181 0.575467
#
# Coordination Sequence:
#
# PCOD8218804 Si02
#       8
#     8   8   8   8   8   8   8   8
#     4  11  22  38  58  83 112 143 177 218 263 313
#     4  10  20  35  53  77 106 141 181 225 271 320
#     4   9  18  31  50  73 101 133 170 213 261 311
#     4  10  19  32  50  75 103 136 172 213 261 314
#     4   8  14  28  47  71  99 131 170 216 259 304
#     4  11  22  38  57  80 108 141 178 221 267 317
#     4  11  22  39  60  83 110 142 177 217 261 313
#     4   8  15  27  47  72 100 131 171 215 258 306
#
# _framework density 18.825330999999998
#
# number of rings (size 3 to 8) (size 9 to 14) (size 15 to 20)
#    0.000    2.250    0.000    6.375    0.000    2.500 
#    0.000    5.000    0.000    2.250    0.000    4.375 
#    0.000    0.000    0.000    0.000    0.000    0.000 
#
# Total GULP energy -793612.249702 kJ/mol
# GULP energy per Si atom -12400.191402 kJ/mol
# Density = 1.878248 g / cm^3
# Si number density = 18.825331 Si / 1000 Ang^3
#
#
#
# Elastic Constant Matrix: (Units=GPa)
#
#
# Indices 1 2 3 4 5 6 
#
# 1 56.4996 8.5606 14.9430 0.0000 0.0000 0.0000
# 2 8.5606 104.1375 97.3382 0.0000 0.0000 0.0000
# 3 14.9430 97.3382 145.2471 0.0000 0.0000 0.0000
# 4 0.0000 0.0000 0.0000 59.0813 0.0000 0.0000
# 5 0.0000 0.0000 0.0000 0.0000 30.3078 0.0000
# 6 0.0000 0.0000 0.0000 0.0000 0.0000 17.3931
#
#
#
# Elastic Compliance Matrix: (Units=1/GPa)
#
#
# Indices 1 2 3 4 5 6 
#
# 1 0.018212 0.000680 -0.002330 0.000000 0.000000 0.000000
# 2 0.000680 0.025729 -0.017312 0.000000 0.000000 0.000000
# 3 -0.002330 -0.017312 0.018726 0.000000 0.000000 0.000000
# 4 0.000000 0.000000 0.000000 0.016926 0.000000 0.000000
# 5 0.000000 0.000000 0.000000 0.000000 0.032995 0.000000
# 6 0.000000 0.000000 0.000000 0.000000 0.000000 0.057494
#
#
# Mechanical properties :
#
#
# Convention : Reuss Voigt Hill
#
# Bulk Modulus (GPa) = 40.41319 60.84087 50.62703
# Shear Modulus (GPa) = 23.12112 33.69262 28.40687
#
# Velocity S-wave (km/s) = 3.50836 4.23513 3.88876
# Velocity P-wave (km/s) = 6.15837 7.50359 6.86401
#
# Compressibility (1/GPa) = 0.02474439
#
# Stress axis : x y z
#
# Youngs Moduli (GPa) = 54.90800 38.86734 53.40076
#
# Poissons Ratio (x) = -0.02645 0.12441
# Poissons Ratio (y) = -0.03736 0.92448
# Poissons Ratio (z) = 0.12792 0.67288
#
# Static dielectric constant tensor:
#      x y z
#    x 3.314480 0.000000 0.000000 
#    y 0.000000 3.622590 0.000000 
#    z 0.000000 0.000000 3.650510 
# 
# 
# High freq. dielectric constant tensor:
#      x y z
#    x 1.719870 0.000000 0.000000 
#    y 0.000000 1.732610 0.000000 
#    z 0.000000 0.000000 1.738780 
# 
# From -- ./inp_files/31334.got.cif
#   From: 2010.03.12/outbox.cif.g09.slc.cpg/sg53_16_cif.got.tgz:31334.got - 2010.04.16 14:36:59.
