data_PCOD8218165
_publ_section_title
;
Structure prediction by ZEFSAII (Michael W. Deem and Ramdas Pophale) SiO2 
 PCOD8218165
Probable space group: P M N A
;
_chemical_formula_sum "Si O2"
_cell_formula_units_Z 48
_cell_length_a 8.543379
_cell_length_b 30.823215
_cell_length_c 9.044121
_cell_angle_alpha 90.000000
_cell_angle_beta 90.000000
_cell_angle_gamma 90.000000
_cell_volume 2381.628247
_symmetry_space_group_name_H-M "P M N A"
_symmetry_group_IT_number 53
_symmetry_cell_setting 'orthorhombic'
loop_
_space_group_symop_operation_xyz
x,y,z
1/2-x,-y,1/2+z
x,-y,-z
1/2-x,y,1/2-z
-x,-y,-z
1/2+x,y,1/2-z
-x,y,z
1/2+x,-y,1/2+z
loop_
_atom_site_type_symbol
_atom_site_label
_atom_site_fract_x
_atom_site_fract_y
_atom_site_fract_z
Si Si1 0.319640 0.956204 0.090393
Si Si2 0.316672 0.621739 0.087433
Si Si3 0.680770 0.543595 0.590619
Si Si4 0.316234 0.121649 0.411078
Si Si5 0.684905 0.709705 0.414370
Si Si6 0.315810 0.201411 0.913887
O O1 0.250000 0.965489 0.250000
O O2 0.500000 0.941281 0.100274
O O3 0.218385 0.918901 0.015207
O O4 0.301515 0.000000 0.000000
O O5 0.250000 0.612545 0.250000
O O6 0.500000 0.628407 0.102090
O O7 0.243647 0.665074 0.010348
O O8 0.279098 0.581679 0.983323
O O9 0.704072 0.500000 0.500000
O O10 0.750000 0.534200 0.750000
O O11 0.500000 0.557453 0.599180
O O12 0.250000 0.111270 0.250000
O O13 0.500000 0.129835 0.402866
O O14 0.233724 0.163926 0.475452
O O15 0.750000 0.707744 0.250000
O O16 0.500000 0.712150 0.417414
O O17 0.753585 0.753575 0.486425
O O18 0.250000 0.192808 0.750000
O O19 0.500000 0.203479 0.900190
#
# Coordination Sequence:
#
# PCOD8218165 Si02
#       6
#     8   8   8   8   8   8
#     4  11  24  42  65  93 124 159 199 244 295 350
#     4  11  21  36  59  87 119 155 195 240 291 346
#     4  11  24  41  61  86 116 151 192 238 290 347
#     4  12  25  42  62  87 120 158 200 246 298 353
#     4  10  18  32  55  85 118 153 195 241 290 344
#     4  11  21  37  60  88 120 156 199 245 294 346
#
# _framework density 20.154278999999999
#
# number of rings (size 3 to 8) (size 9 to 14) (size 15 to 20)
#    0.000    1.000    0.000   10.500    0.000    5.333 
#    0.000    0.833    0.000    0.000    0.000    0.000 
#    0.000    0.000    0.000    0.000    0.000    0.000 
#
# Total GULP energy -595363.851320 kJ/mol
# GULP energy per Si atom -12403.413569 kJ/mol
# Density = 2.010841 g / cm^3
# Si number density = 20.154279 Si / 1000 Ang^3
#
#
#
# Elastic Constant Matrix: (Units=GPa)
#
#
# Indices 1 2 3 4 5 6 
#
# 1 179.3295 49.2660 38.2864 0.0000 0.0000 0.0000
# 2 49.2660 116.2548 34.4535 0.0000 0.0000 0.0000
# 3 38.2864 34.4535 99.8719 0.0000 0.0000 0.0000
# 4 0.0000 0.0000 0.0000 -7.7958 0.0000 0.0000
# 5 0.0000 0.0000 0.0000 0.0000 27.5439 0.0000
# 6 0.0000 0.0000 0.0000 0.0000 0.0000 40.4686
#
#
#
# Elastic Compliance Matrix: (Units=1/GPa)
#
#
# Indices 1 2 3 4 5 6 
#
# 1 0.006571 -0.002270 -0.001736 0.000000 0.000000 0.000000
# 2 -0.002270 0.010366 -0.002706 0.000000 0.000000 0.000000
# 3 -0.001736 -0.002706 0.011612 0.000000 0.000000 0.000000
# 4 0.000000 0.000000 0.000000 -0.128275 0.000000 0.000000
# 5 0.000000 0.000000 0.000000 0.000000 0.036306 0.000000
# 6 0.000000 0.000000 0.000000 0.000000 0.000000 0.024711
#
#
# Mechanical properties :
#
#
# Convention : Reuss Voigt Hill
#
# Bulk Modulus (GPa) = 66.11612 71.05200 68.58406
# Shear Modulus (GPa) = -246.96077 30.27337 -108.34370
#
# Velocity S-wave (km/s) = -11.08157 3.87987 -7.33988
# Velocity P-wave (km/s) = 11.43935 7.44324 6.14235
#
# Compressibility (1/GPa) = 0.01512491
#
# Stress axis : x y z
#
# Youngs Moduli (GPa) = 152.19462 96.47259 86.12061
#
# Poissons Ratio (x) = 0.21900 0.14948
# Poissons Ratio (y) = 0.34549 0.23301
# Poissons Ratio (z) = 0.26417 0.26102
#
# Static dielectric constant tensor:
#      x y z
#    x 3.900380 0.000000 0.000000 
#    y 0.000000 4.397070 0.000000 
#    z 0.000000 0.000000 3.496000 
# 
# 
# High freq. dielectric constant tensor:
#      x y z
#    x 1.811080 0.000000 0.000000 
#    y 0.000000 1.811730 0.000000 
#    z 0.000000 0.000000 1.765850 
# 
# From -- ./inp_files/6672.got.cif
#   From: 2010.03.12/outbox.cif.g09.slc.cpg/sg53_4_cif.got.tgz:6672.got - 2010.04.16 14:36:59.
