data_PCOD8218480
_publ_section_title
;
Structure prediction by ZEFSAII (Michael W. Deem and Ramdas Pophale) SiO2 
 PCOD8218480
Probable space group: P M N A
;
_chemical_formula_sum "Si O2"
_cell_formula_units_Z 64
_cell_length_a 8.947154
_cell_length_b 23.020085
_cell_length_c 17.729872
_cell_angle_alpha 90.000000
_cell_angle_beta 90.000000
_cell_angle_gamma 90.000000
_cell_volume 3651.719711
_symmetry_space_group_name_H-M "P M N A"
_symmetry_group_IT_number 53
_symmetry_cell_setting 'orthorhombic'
loop_
_space_group_symop_operation_xyz
x,y,z
1/2-x,-y,1/2+z
x,-y,-z
1/2-x,y,1/2-z
-x,-y,-z
1/2+x,y,1/2-z
-x,y,z
1/2+x,-y,1/2+z
loop_
_atom_site_type_symbol
_atom_site_label
_atom_site_fract_x
_atom_site_fract_y
_atom_site_fract_z
Si Si1 0.322815 0.054772 0.169411
Si Si2 0.322999 0.423885 0.118958
Si Si3 0.676849 0.448898 0.828824
Si Si4 0.826083 0.373863 0.537391
Si Si5 0.826978 0.126255 0.477298
Si Si6 0.172519 0.259159 0.461232
Si Si7 0.168507 0.038286 0.925639
Si Si8 0.824275 0.313687 0.177179
O O1 0.250000 0.071684 0.250000
O O2 0.500000 0.051313 0.180121
O O3 0.261742 0.992176 0.141403
O O4 0.276857 0.102626 0.105639
O O5 0.500000 0.414522 0.126624
O O6 0.272668 0.488228 0.141100
O O7 0.240408 0.378839 0.173282
O O8 0.265737 0.409742 0.034504
O O9 0.750000 0.434332 0.750000
O O10 0.500000 0.446036 0.819792
O O11 0.743111 0.400407 0.886340
O O12 0.792564 0.304819 0.528968
O O13 0.000000 0.386503 0.542291
O O14 0.792768 0.194148 0.486436
O O15 0.741299 0.098864 0.548646
O O16 0.000000 0.111061 0.487443
O O17 0.280518 0.273864 0.392836
O O18 0.000000 0.266310 0.435460
O O19 0.000000 0.048532 0.896572
O O20 0.171604 0.000000 0.000000
O O21 0.750000 0.283563 0.250000
O O22 0.000000 0.315919 0.185719
#
# Coordination Sequence:
#
# PCOD8218480 Si02
#       8
#     8   8   8   8   8   8   8   8
#     4  10  19  31  48  73 105 133 158 192 238 287
#     4   9  17  31  50  69  90 118 155 196 239 291
#     4  10  19  30  47  71  95 120 151 191 242 294
#     4   8  15  30  51  70  90 121 160 198 235 283
#     4   9  18  32  51  74  98 127 163 203 243 284
#     4   9  18  34  53  71  92 124 167 205 238 279
#     4   9  17  30  49  72  98 129 163 196 232 276
#     4  11  21  32  46  66  95 128 160 195 239 288
#
# _framework density 17.525988999999999
#
# number of rings (size 3 to 8) (size 9 to 14) (size 15 to 20)
#    0.000    2.625    0.000    3.375    0.000    6.000 
#    0.000    3.750    0.000    4.500    0.000    1.750 
#    0.000    0.000    0.000    0.000    0.000    0.000 
#
# Total GULP energy -793332.757950 kJ/mol
# GULP energy per Si atom -12395.824343 kJ/mol
# Density = 1.748610 g / cm^3
# Si number density = 17.525989 Si / 1000 Ang^3
#
#
#
# Elastic Constant Matrix: (Units=GPa)
#
#
# Indices 1 2 3 4 5 6 
#
# 1 63.8965 28.9929 20.3476 0.0000 0.0000 0.0000
# 2 28.9929 95.4893 35.4955 0.0000 0.0000 0.0000
# 3 20.3476 35.4955 72.4630 0.0000 0.0000 0.0000
# 4 0.0000 0.0000 0.0000 9.5751 0.0000 0.0000
# 5 0.0000 0.0000 0.0000 0.0000 28.5527 0.0000
# 6 0.0000 0.0000 0.0000 0.0000 0.0000 -50.2882
#
#
#
# Elastic Compliance Matrix: (Units=1/GPa)
#
#
# Indices 1 2 3 4 5 6 
#
# 1 0.018675 -0.004549 -0.003015 0.000000 0.000000 0.000000
# 2 -0.004549 0.013912 -0.005537 0.000000 0.000000 0.000000
# 3 -0.003015 -0.005537 0.017359 0.000000 0.000000 0.000000
# 4 0.000000 0.000000 0.000000 0.104438 0.000000 0.000000
# 5 0.000000 0.000000 0.000000 0.000000 0.035023 0.000000
# 6 0.000000 0.000000 0.000000 0.000000 0.000000 -0.019885
#
#
# Mechanical properties :
#
#
# Convention : Reuss Voigt Hill
#
# Bulk Modulus (GPa) = 42.11921 44.61341 43.36631
# Shear Modulus (GPa) = 24.55325 7.36877 15.96101
#
# Velocity S-wave (km/s) = 3.74700 2.05271 3.02106
# Velocity P-wave (km/s) = 6.54253 5.57934 6.08003
#
# Compressibility (1/GPa) = 0.02374214
#
# Stress axis : x y z
#
# Youngs Moduli (GPa) = 53.54817 71.88068 57.60616
#
# Poissons Ratio (x) = 0.32700 0.17371
# Poissons Ratio (y) = 0.24360 0.31898
# Poissons Ratio (z) = 0.16147 0.39802
#
# Static dielectric constant tensor:
#      x y z
#    x 3.140450 0.000000 0.000000 
#    y 0.000000 3.283170 0.000000 
#    z 0.000000 0.000000 3.316690 
# 
# 
# High freq. dielectric constant tensor:
#      x y z
#    x 1.665850 0.000000 0.000000 
#    y 0.000000 1.667110 0.000000 
#    z 0.000000 0.000000 1.664890 
# 
# From -- ./inp_files/20820.got.cif
#   From: 2010.03.12/outbox.cif.g09.slc.cpg/sg53_11_cif.got.tgz:20820.got - 2010.04.16 14:36:59.
