data_PCOD8218601
_publ_section_title
;
Structure prediction by ZEFSAII (Michael W. Deem and Ramdas Pophale) SiO2 
 PCOD8218601
Probable space group: P M N A
;
_chemical_formula_sum "Si O2"
_cell_formula_units_Z 64
_cell_length_a 9.176846
_cell_length_b 21.205610
_cell_length_c 19.101986
_cell_angle_alpha 90.000000
_cell_angle_beta 90.000000
_cell_angle_gamma 90.000000
_cell_volume 3717.258267
_symmetry_space_group_name_H-M "P M N A"
_symmetry_group_IT_number 53
_symmetry_cell_setting 'orthorhombic'
loop_
_space_group_symop_operation_xyz
x,y,z
1/2-x,-y,1/2+z
x,-y,-z
1/2-x,y,1/2-z
-x,-y,-z
1/2+x,y,1/2-z
-x,y,z
1/2+x,-y,1/2+z
loop_
_atom_site_type_symbol
_atom_site_label
_atom_site_fract_x
_atom_site_fract_y
_atom_site_fract_z
Si Si1 0.170585 0.802099 0.056836
Si Si2 0.669958 0.567865 0.529256
Si Si3 0.672058 0.609352 0.683124
Si Si4 0.328437 0.893661 0.320663
Si Si5 0.331241 0.964343 0.680855
Si Si6 0.668786 0.155437 0.403106
Si Si7 0.162941 0.315276 0.517969
Si Si8 0.836068 0.729460 0.640177
O O1 0.225621 0.848283 0.117643
O O2 0.252713 0.735421 0.065780
O O3 0.000000 0.787966 0.062036
O O4 0.210190 0.836434 0.984193
O O5 0.714601 0.500000 0.500000
O O6 0.500000 0.582040 0.519691
O O7 0.711867 0.572241 0.611609
O O8 0.755115 0.617916 0.481558
O O9 0.750000 0.575482 0.750000
O O10 0.500000 0.611673 0.695412
O O11 0.735755 0.680050 0.681101
O O12 0.250000 0.871784 0.250000
O O13 0.500000 0.887991 0.309274
O O14 0.282482 0.965145 0.341009
O O15 0.250000 0.941022 0.750000
O O16 0.500000 0.963529 0.699607
O O17 0.295184 0.916594 0.617599
O O18 0.500000 0.172133 0.390465
O O19 0.763260 0.201706 0.353797
O O20 0.159699 0.289191 0.440254
O O21 0.000000 0.324771 0.547567
O O22 0.000000 0.730406 0.671510
#
# Coordination Sequence:
#
# PCOD8218601 Si02
#       8
#     8   8   8   8   8   8   8   8
#     4   9  17  30  49  70  92 120 154 194 238 282
#     4   9  18  33  53  75  99 130 164 194 229 276
#     4  10  19  31  48  70  97 127 160 197 233 272
#     4   9  18  32  49  68  89 117 154 196 244 294
#     4   9  18  31  45  62  87 119 154 193 237 286
#     4   9  17  29  45  66  92 122 156 193 234 280
#     4   9  17  29  47  72  98 121 149 188 230 271
#     4   9  17  29  44  64  92 123 154 188 227 272
#
# _framework density 17.216991
#
# number of rings (size 3 to 8) (size 9 to 14) (size 15 to 20)
#    0.000    2.875    0.000    1.125    0.000    5.750 
#    0.000    3.750    0.000    0.750    0.000    8.750 
#    0.000    0.000    0.000    0.000    0.000    0.000 
#
# Total GULP energy -793477.079478 kJ/mol
# GULP energy per Si atom -12398.079367 kJ/mol
# Density = 1.717780 g / cm^3
# Si number density = 17.216991 Si / 1000 Ang^3
#
#
#
# Elastic Constant Matrix: (Units=GPa)
#
#
# Indices 1 2 3 4 5 6 
#
# 1 72.4654 54.5257 40.8903 0.0000 0.0000 0.0000
# 2 54.5257 126.7946 64.8465 0.0000 0.0000 0.0000
# 3 40.8903 64.8465 84.1224 0.0000 0.0000 0.0000
# 4 0.0000 0.0000 0.0000 21.0193 0.0000 0.0000
# 5 0.0000 0.0000 0.0000 0.0000 24.8371 0.0000
# 6 0.0000 0.0000 0.0000 0.0000 0.0000 22.0379
#
#
#
# Elastic Compliance Matrix: (Units=1/GPa)
#
#
# Indices 1 2 3 4 5 6 
#
# 1 0.021882 -0.006554 -0.005584 0.000000 0.000000 0.000000
# 2 -0.006554 0.014983 -0.008364 0.000000 0.000000 0.000000
# 3 -0.005584 -0.008364 0.021049 0.000000 0.000000 0.000000
# 4 0.000000 0.000000 0.000000 0.047575 0.000000 0.000000
# 5 0.000000 0.000000 0.000000 0.000000 0.040262 0.000000
# 6 0.000000 0.000000 0.000000 0.000000 0.000000 0.045376
#
#
# Mechanical properties :
#
#
# Convention : Reuss Voigt Hill
#
# Bulk Modulus (GPa) = 59.13699 67.10083 63.11891
# Shear Modulus (GPa) = 21.02880 21.78684 21.40782
#
# Velocity S-wave (km/s) = 3.49864 3.56114 3.53003
# Velocity P-wave (km/s) = 7.12343 7.48112 7.30447
#
# Compressibility (1/GPa) = 0.01690989
#
# Stress axis : x y z
#
# Youngs Moduli (GPa) = 45.69896 66.74363 47.50803
#
# Poissons Ratio (x) = 0.43745 0.26530
# Poissons Ratio (y) = 0.29952 0.39734
# Poissons Ratio (z) = 0.25520 0.55822
#
# Static dielectric constant tensor:
#      x y z
#    x 3.301590 0.000000 0.000000 
#    y 0.000000 3.213910 0.000000 
#    z 0.000000 0.000000 3.131880 
# 
# 
# High freq. dielectric constant tensor:
#      x y z
#    x 1.667540 0.000000 0.000000 
#    y 0.000000 1.654140 0.000000 
#    z 0.000000 0.000000 1.642760 
# 
# From -- ./inp_files/27037.got.cif
#   From: 2010.03.12/outbox.cif.g09.slc.cpg/sg53_14_cif.got.tgz:27037.got - 2010.04.16 14:36:59.
