data_PCOD8218679
_publ_section_title
;
Structure prediction by ZEFSAII (Michael W. Deem and Ramdas Pophale) SiO2 
 PCOD8218679
Probable space group: P M N A
;
_chemical_formula_sum "Si O2"
_cell_formula_units_Z 40
_cell_length_a 8.646150
_cell_length_b 11.896939
_cell_length_c 21.016403
_cell_angle_alpha 90.000000
_cell_angle_beta 90.000000
_cell_angle_gamma 90.000000
_cell_volume 2161.804359
_symmetry_space_group_name_H-M "P M N A"
_symmetry_group_IT_number 53
_symmetry_cell_setting 'orthorhombic'
loop_
_space_group_symop_operation_xyz
x,y,z
1/2-x,-y,1/2+z
x,-y,-z
1/2-x,y,1/2-z
-x,-y,-z
1/2+x,y,1/2-z
-x,y,z
1/2+x,-y,1/2+z
loop_
_atom_site_type_symbol
_atom_site_label
_atom_site_fract_x
_atom_site_fract_y
_atom_site_fract_z
Si Si1 0.320155 0.827709 0.992176
Si Si2 0.320297 0.400978 0.449897
Si Si3 0.822655 0.638996 0.679160
Si Si4 0.325109 0.889758 0.815089
Si Si5 0.820958 0.027769 0.913399
O O1 0.500000 0.847201 0.976710
O O2 0.274443 0.700744 0.980366
O O3 0.217718 0.914556 0.952082
O O4 0.279941 0.864187 0.064909
O O5 0.290513 0.500000 0.500000
O O6 0.500000 0.369895 0.445192
O O7 0.261592 0.431061 0.377746
O O8 0.750000 0.621392 0.750000
O O9 0.815298 0.767365 0.650905
O O10 0.000000 0.599800 0.684942
O O11 0.250000 0.857151 0.750000
O O12 0.500000 0.931552 0.809521
O O13 0.225960 0.992932 0.842474
O O14 0.000000 0.058408 0.918425
#
# Coordination Sequence:
#
# PCOD8218679 Si02
#       5
#     8   8   8   8   8
#     4  11  21  34  52  76 106 140 178 219 266 321
#     4  11  23  38  57  82 113 147 187 234 281 332
#     4  10  20  34  55  80 111 145 181 228 278 332
#     4  10  19  31  49  77 109 143 178 220 269 324
#     4  11  20  32  52  76 107 142 174 216 265 321
#
# _framework density 18.503062
#
# number of rings (size 3 to 8) (size 9 to 14) (size 15 to 20)
#    0.000    1.400    2.000    6.600    0.000    3.200 
#    0.000    0.000    0.000    1.200    0.000    2.800 
#    0.000    0.000    0.000    0.000    0.000    0.000 
#
# Total GULP energy -495608.144904 kJ/mol
# GULP energy per Si atom -12390.203623 kJ/mol
# Density = 1.846095 g / cm^3
# Si number density = 18.503062 Si / 1000 Ang^3
#
#
#
# Elastic Constant Matrix: (Units=GPa)
#
#
# Indices 1 2 3 4 5 6 
#
# 1 116.9577 23.0720 38.9824 0.0000 0.0000 0.0000
# 2 23.0720 50.8537 35.0492 0.0000 0.0000 0.0000
# 3 38.9824 35.0492 94.2853 0.0000 0.0000 0.0000
# 4 0.0000 0.0000 0.0000 29.4520 0.0000 0.0000
# 5 0.0000 0.0000 0.0000 0.0000 32.0386 0.0000
# 6 0.0000 0.0000 0.0000 0.0000 0.0000 81.0678
#
#
#
# Elastic Compliance Matrix: (Units=1/GPa)
#
#
# Indices 1 2 3 4 5 6 
#
# 1 0.010112 -0.002294 -0.003328 0.000000 0.000000 0.000000
# 2 -0.002294 0.026958 -0.009073 0.000000 0.000000 0.000000
# 3 -0.003328 -0.009073 0.015355 0.000000 0.000000 0.000000
# 4 0.000000 0.000000 0.000000 0.033954 0.000000 0.000000
# 5 0.000000 0.000000 0.000000 0.000000 0.031212 0.000000
# 6 0.000000 0.000000 0.000000 0.000000 0.000000 0.012335
#
#
# Mechanical properties :
#
#
# Convention : Reuss Voigt Hill
#
# Bulk Modulus (GPa) = 43.41194 50.70042 47.05618
# Shear Modulus (GPa) = 29.94117 39.51122 34.72619
#
# Velocity S-wave (km/s) = 4.02702 4.62604 4.33688
# Velocity P-wave (km/s) = 6.71829 7.48293 7.11090
#
# Compressibility (1/GPa) = 0.02303513
#
# Stress axis : x y z
#
# Youngs Moduli (GPa) = 98.89379 37.09450 65.12635
#
# Poissons Ratio (x) = 0.08509 0.21674
# Poissons Ratio (y) = 0.22686 0.59088
# Poissons Ratio (z) = 0.32912 0.33655
#
# Static dielectric constant tensor:
#      x y z
#    x 3.544450 0.000000 0.000000 
#    y 0.000000 3.252730 0.000000 
#    z 0.000000 0.000000 3.804920 
# 
# 
# High freq. dielectric constant tensor:
#      x y z
#    x 1.736310 0.000000 0.000000 
#    y 0.000000 1.672240 0.000000 
#    z 0.000000 0.000000 1.722670 
# 
# From -- ./inp_files/30353.got.cif
#   From: 2010.03.12/outbox.cif.g09.slc.cpg/sg53_16_cif.got.tgz:30353.got - 2010.04.16 14:36:59.
