data_PCOD8218092
_publ_section_title
;
Structure prediction by ZEFSAII (Michael W. Deem and Ramdas Pophale) SiO2 
 PCOD8218092
Probable space group: P M N A
;
_chemical_formula_sum "Si O2"
_cell_formula_units_Z 64
_cell_length_a 8.825199
_cell_length_b 19.140556
_cell_length_c 21.346142
_cell_angle_alpha 90.000000
_cell_angle_beta 90.000000
_cell_angle_gamma 90.000000
_cell_volume 3605.773564
_symmetry_space_group_name_H-M "P M N A"
_symmetry_group_IT_number 53
_symmetry_cell_setting 'orthorhombic'
loop_
_space_group_symop_operation_xyz
x,y,z
1/2-x,-y,1/2+z
x,-y,-z
1/2-x,y,1/2-z
-x,-y,-z
1/2+x,y,1/2-z
-x,y,z
1/2+x,-y,1/2+z
loop_
_atom_site_type_symbol
_atom_site_label
_atom_site_fract_x
_atom_site_fract_y
_atom_site_fract_z
Si Si1 0.320055 0.316062 0.497568
Si Si2 0.679155 0.479446 0.814808
Si Si3 0.667615 0.838494 0.530323
Si Si4 0.820840 0.550886 0.555962
Si Si5 0.831728 0.967833 0.569076
Si Si6 0.820789 0.339996 0.860965
Si Si7 0.676968 0.201906 0.812183
Si Si8 0.166803 0.903291 0.105241
O O1 0.500000 0.317088 0.495255
O O2 0.260776 0.239054 0.477806
O O3 0.252376 0.372890 0.450419
O O4 0.264000 0.335037 0.567372
O O5 0.750000 0.509720 0.750000
O O6 0.500000 0.479985 0.807712
O O7 0.730812 0.523672 0.875726
O O8 0.736000 0.401286 0.824992
O O9 0.500000 0.832421 0.560716
O O10 0.773963 0.887613 0.572778
O O11 0.651696 0.877264 0.464941
O O12 0.761446 0.500000 0.500000
O O13 0.000000 0.557803 0.551280
O O14 0.000000 0.968579 0.598003
O O15 0.835741 0.000000 0.500000
O O16 0.720223 0.016329 0.609913
O O17 0.774825 0.270090 0.826182
O O18 0.000000 0.351422 0.856558
O O19 0.750000 0.169448 0.750000
O O20 0.500000 0.219616 0.806713
O O21 0.703520 0.143904 0.864455
O O22 0.000000 0.896804 0.137260
#
# Coordination Sequence:
#
# PCOD8218092 Si02
#       8
#     8   8   8   8   8   8   8   8
#     4  10  20  33  53  79 107 140 178 217 264 323
#     4  11  23  39  57  79 106 140 180 225 271 322
#     4   9  17  31  48  71 101 133 167 206 255 309
#     4  10  21  37  55  78 108 139 176 222 273 324
#     4   9  17  28  44  71  99 128 166 203 245 297
#     4  11  21  36  54  76 105 140 180 220 263 317
#     4  12  24  36  50  70 100 139 181 223 263 311
#     4  10  18  32  50  69  98 134 171 212 257 304
#
# _framework density 17.749312
#
# number of rings (size 3 to 8) (size 9 to 14) (size 15 to 20)
#    0.000    1.750    2.500    3.000    0.000    4.250 
#    0.000    0.000    0.000    0.000    0.000    0.875 
#    0.000    4.000    0.000    0.000    0.000    0.000 
#
# Total GULP energy -793479.979984 kJ/mol
# GULP energy per Si atom -12398.124687 kJ/mol
# Density = 1.770891 g / cm^3
# Si number density = 17.749312 Si / 1000 Ang^3
#
#
#
# Elastic Constant Matrix: (Units=GPa)
#
#
# Indices 1 2 3 4 5 6 
#
# 1 60.9857 31.5921 33.6929 0.0000 0.0000 0.0000
# 2 31.5921 107.6646 30.8583 0.0000 0.0000 0.0000
# 3 33.6929 30.8583 54.7218 0.0000 0.0000 0.0000
# 4 0.0000 0.0000 0.0000 7.8981 0.0000 0.0000
# 5 0.0000 0.0000 0.0000 0.0000 24.0678 0.0000
# 6 0.0000 0.0000 0.0000 0.0000 0.0000 22.9679
#
#
#
# Elastic Compliance Matrix: (Units=1/GPa)
#
#
# Indices 1 2 3 4 5 6 
#
# 1 0.025985 -0.003625 -0.013955 0.000000 0.000000 0.000000
# 2 -0.003625 0.011584 -0.004301 0.000000 0.000000 0.000000
# 3 -0.013955 -0.004301 0.029292 0.000000 0.000000 0.000000
# 4 0.000000 0.000000 0.000000 0.126613 0.000000 0.000000
# 5 0.000000 0.000000 0.000000 0.000000 0.041549 0.000000
# 6 0.000000 0.000000 0.000000 0.000000 0.000000 0.043539
#
#
# Mechanical properties :
#
#
# Convention : Reuss Voigt Hill
#
# Bulk Modulus (GPa) = 43.29068 46.18431 44.73750
# Shear Modulus (GPa) = 15.15043 19.46867 17.30955
#
# Velocity S-wave (km/s) = 2.92478 3.31549 3.12625
# Velocity P-wave (km/s) = 5.98738 6.38228 6.18798
#
# Compressibility (1/GPa) = 0.02309966
#
# Stress axis : x y z
#
# Youngs Moduli (GPa) = 38.48385 86.32279 34.13932
#
# Poissons Ratio (x) = 0.31292 0.47642
# Poissons Ratio (y) = 0.13951 0.14682
# Poissons Ratio (z) = 0.53704 0.37124
#
# Static dielectric constant tensor:
#      x y z
#    x 3.403140 0.000000 0.000000 
#    y 0.000000 3.363960 0.000000 
#    z 0.000000 0.000000 3.161870 
# 
# 
# High freq. dielectric constant tensor:
#      x y z
#    x 1.694920 0.000000 0.000000 
#    y 0.000000 1.684120 0.000000 
#    z 0.000000 0.000000 1.648070 
# 
# From -- ./inp_files/31127.got.cif
#   From: 2010.03.12/outbox.cif.g09.slc.cpg/sg53_16_cif.got.tgz:31127.got - 2010.04.16 14:36:59.
