data_PCOD8218195
_publ_section_title
;
Structure prediction by ZEFSAII (Michael W. Deem and Ramdas Pophale) SiO2 
 PCOD8218195
Probable space group: P M N A
;
_chemical_formula_sum "Si O2"
_cell_formula_units_Z 64
_cell_length_a 8.625536
_cell_length_b 14.454432
_cell_length_c 30.434301
_cell_angle_alpha 90.000000
_cell_angle_beta 90.000000
_cell_angle_gamma 90.000000
_cell_volume 3794.464150
_symmetry_space_group_name_H-M "P M N A"
_symmetry_group_IT_number 53
_symmetry_cell_setting 'orthorhombic'
loop_
_space_group_symop_operation_xyz
x,y,z
1/2-x,-y,1/2+z
x,-y,-z
1/2-x,y,1/2-z
-x,-y,-z
1/2+x,y,1/2-z
-x,y,z
1/2+x,-y,1/2+z
loop_
_atom_site_type_symbol
_atom_site_label
_atom_site_fract_x
_atom_site_fract_y
_atom_site_fract_z
Si Si1 0.681673 0.641485 0.294635
Si Si2 0.681636 0.059159 0.459237
Si Si3 0.181642 0.917581 0.111754
Si Si4 0.179147 0.740898 0.426990
Si Si5 0.182371 0.737908 0.980123
Si Si6 0.319335 0.555417 0.956457
Si Si7 0.817706 0.850146 0.204804
Si Si8 0.678775 0.428488 0.614579
O O1 0.750000 0.598808 0.250000
O O2 0.500000 0.650700 0.289903
O O3 0.748234 0.745792 0.302680
O O4 0.723206 0.569840 0.333706
O O5 0.500000 0.059655 0.467030
O O6 0.739522 0.165423 0.458628
O O7 0.755402 0.000000 0.500000
O O8 0.721340 0.015625 0.411347
O O9 0.281567 0.845902 0.083840
O O10 0.231539 0.914230 0.163101
O O11 0.000000 0.893445 0.106756
O O12 0.214668 0.719918 0.477289
O O13 0.292101 0.677490 0.398354
O O14 0.000000 0.718075 0.417385
O O15 0.223123 0.650356 0.949471
O O16 0.000000 0.739999 0.991090
O O17 0.500000 0.577939 0.959814
O O18 0.288669 0.495567 0.912940
O O19 0.262621 0.500000 0.000000
O O20 0.750000 0.892658 0.250000
O O21 0.000000 0.849575 0.209642
O O22 0.500000 0.454725 0.606279
#
# Coordination Sequence:
#
# PCOD8218195 Si02
#       8
#     8   8   8   8   8   8   8   8
#     4   9  18  31  48  73 100 129 163 199 242 295
#     4   9  17  30  52  76  95 124 168 210 240 282
#     4  10  18  33  51  70  97 133 171 203 240 287
#     4  12  22  30  45  72 103 134 166 205 247 289
#     4  11  21  35  53  71  96 133 172 208 246 290
#     4  11  23  36  50  74 103 130 166 208 254 297
#     4   9  17  29  46  69  98 130 161 198 240 288
#     4  11  21  35  53  73  97 134 176 205 240 294
#
# _framework density 16.866676999999999
#
# number of rings (size 3 to 8) (size 9 to 14) (size 15 to 20)
#    0.000    1.750    3.750    2.250    0.000    2.000 
#    0.000    1.875    0.000    0.000    0.000    0.875 
#    0.000    2.000    0.000    0.000    0.000    0.000 
#
# Total GULP energy -793362.604863 kJ/mol
# GULP energy per Si atom -12396.290701 kJ/mol
# Density = 1.682829 g / cm^3
# Si number density = 16.866677 Si / 1000 Ang^3
#
#
#
# Elastic Constant Matrix: (Units=GPa)
#
#
# Indices 1 2 3 4 5 6 
#
# 1 29.6705 20.2849 28.2942 0.0000 0.0000 0.0000
# 2 20.2849 93.5014 41.8998 0.0000 0.0000 0.0000
# 3 28.2942 41.8998 116.4118 0.0000 0.0000 0.0000
# 4 0.0000 0.0000 0.0000 13.9560 0.0000 0.0000
# 5 0.0000 0.0000 0.0000 0.0000 25.1758 0.0000
# 6 0.0000 0.0000 0.0000 0.0000 0.0000 12.7781
#
#
#
# Elastic Compliance Matrix: (Units=1/GPa)
#
#
# Indices 1 2 3 4 5 6 
#
# 1 0.046528 -0.005993 -0.009152 0.000000 0.000000 0.000000
# 2 -0.005993 0.013524 -0.003411 0.000000 0.000000 0.000000
# 3 -0.009152 -0.003411 0.012042 0.000000 0.000000 0.000000
# 4 0.000000 0.000000 0.000000 0.071654 0.000000 0.000000
# 5 0.000000 0.000000 0.000000 0.000000 0.039721 0.000000
# 6 0.000000 0.000000 0.000000 0.000000 0.000000 0.078259
#
#
# Mechanical properties :
#
#
# Convention : Reuss Voigt Hill
#
# Bulk Modulus (GPa) = 28.58565 46.72681 37.65623
# Shear Modulus (GPa) = 16.10308 20.32230 18.21269
#
# Velocity S-wave (km/s) = 3.09322 3.47490 3.28960
# Velocity P-wave (km/s) = 5.45363 6.62297 6.06654
#
# Compressibility (1/GPa) = 0.03498259
#
# Stress axis : x y z
#
# Youngs Moduli (GPa) = 21.49243 73.94421 83.04112
#
# Poissons Ratio (x) = 0.44315 0.75997
# Poissons Ratio (y) = 0.12881 0.28325
# Poissons Ratio (z) = 0.19669 0.25222
#
# Static dielectric constant tensor:
#      x y z
#    x 2.967100 0.000000 0.000000 
#    y 0.000000 3.084590 0.000000 
#    z 0.000000 0.000000 3.642420 
# 
# 
# High freq. dielectric constant tensor:
#      x y z
#    x 1.641820 0.000000 0.000000 
#    y 0.000000 1.620950 0.000000 
#    z 0.000000 0.000000 1.643040 
# 
# From -- ./inp_files/38519.got.cif
#   From: 2010.03.12/outbox.cif.g09.slc.cpg/sg53_20_cif.got.tgz:38519.got - 2010.04.16 14:36:59.
