data_PCOD8218138
_publ_section_title
;
Structure prediction by ZEFSAII (Michael W. Deem and Ramdas Pophale) SiO2 
 PCOD8218138
Probable space group: P M N A
;
_chemical_formula_sum "Si O2"
_cell_formula_units_Z 64
_cell_length_a 14.236912
_cell_length_b 8.780731
_cell_length_c 27.431600
_cell_angle_alpha 90.000000
_cell_angle_beta 90.000000
_cell_angle_gamma 90.000000
_cell_volume 3429.237882
_symmetry_space_group_name_H-M "P M N A"
_symmetry_group_IT_number 53
_symmetry_cell_setting 'orthorhombic'
loop_
_space_group_symop_operation_xyz
x,y,z
1/2-x,-y,1/2+z
x,-y,-z
1/2-x,y,1/2-z
-x,-y,-z
1/2+x,y,1/2-z
-x,y,z
1/2+x,-y,1/2+z
loop_
_atom_site_type_symbol
_atom_site_label
_atom_site_fract_x
_atom_site_fract_y
_atom_site_fract_z
Si Si1 0.102248 0.827715 0.081679
Si Si2 0.395770 0.625486 0.257666
Si Si3 0.395749 0.334262 0.482318
Si Si4 0.894660 0.475983 0.341238
Si Si5 0.223381 0.670039 0.152792
Si Si6 0.392599 0.134607 0.128696
Si Si7 0.813856 0.079484 0.707872
Si Si8 0.732923 0.081721 0.447903
O O1 0.089665 0.780443 0.026428
O O2 0.150080 0.684287 0.108916
O O3 0.000000 0.860421 0.105107
O O4 0.162426 0.981014 0.084334
O O5 0.500000 0.629708 0.280137
O O6 0.386818 0.493596 0.217225
O O7 0.322522 0.585360 0.300501
O O8 0.376732 0.788513 0.232426
O O9 0.359895 0.500000 0.500000
O O10 0.500000 0.350287 0.456827
O O11 0.314992 0.250725 0.450389
O O12 0.816348 0.583476 0.366296
O O13 0.871466 0.306601 0.356685
O O14 0.000000 0.524602 0.358373
O O15 0.246269 0.842488 0.168163
O O16 0.500000 0.109857 0.112498
O O17 0.375707 0.040714 0.178449
O O18 0.329831 0.091329 0.082058
O O19 0.750000 0.999911 0.750000
O O20 0.754093 0.000000 0.500000
#
# Coordination Sequence:
#
# PCOD8218138 Si02
#       8
#     8   8   8   8   8   8   8   8
#     4  10  19  33  55  84 112 140 172 214 275 336
#     4   9  17  32  53  78 108 143 181 226 268 322
#     4   9  19  35  58  83 108 142 179 220 274 340
#     4   9  20  34  50  72 105 145 186 221 266 319
#     4  10  18  32  53  82 107 141 179 224 268 317
#     4  11  22  37  57  80 111 151 190 233 283 337
#     4   9  18  32  53  79 108 141 189 226 271 322
#     4  10  21  38  58  83 112 146 183 235 289 338
#
# _framework density 18.663039999999999
#
# number of rings (size 3 to 8) (size 9 to 14) (size 15 to 20)
#    0.000    2.375    1.250    2.250    1.750    3.250 
#    0.000    0.000    0.000    0.375    0.000    0.000 
#    0.000    0.000    0.000    0.000    0.000    0.000 
#
# Total GULP energy -793075.004416 kJ/mol
# GULP energy per Si atom -12391.796944 kJ/mol
# Density = 1.862056 g / cm^3
# Si number density = 18.663040 Si / 1000 Ang^3
#
#
#
# Elastic Constant Matrix: (Units=GPa)
#
#
# Indices 1 2 3 4 5 6 
#
# 1 138.2286 53.6833 46.2868 0.0000 0.0000 0.0000
# 2 53.6833 82.8069 31.1981 0.0000 0.0000 0.0000
# 3 46.2868 31.1981 52.8906 0.0000 0.0000 0.0000
# 4 0.0000 0.0000 0.0000 20.1746 0.0000 0.0000
# 5 0.0000 0.0000 0.0000 0.0000 27.0968 0.0000
# 6 0.0000 0.0000 0.0000 0.0000 0.0000 27.8180
#
#
#
# Elastic Compliance Matrix: (Units=1/GPa)
#
#
# Indices 1 2 3 4 5 6 
#
# 1 0.011505 -0.004713 -0.007289 0.000000 0.000000 0.000000
# 2 -0.004713 0.017457 -0.006173 0.000000 0.000000 0.000000
# 3 -0.007289 -0.006173 0.028927 0.000000 0.000000 0.000000
# 4 0.000000 0.000000 0.000000 0.049567 0.000000 0.000000
# 5 0.000000 0.000000 0.000000 0.000000 0.036905 0.000000
# 6 0.000000 0.000000 0.000000 0.000000 0.000000 0.035948
#
#
# Mechanical properties :
#
#
# Convention : Reuss Voigt Hill
#
# Bulk Modulus (GPa) = 46.42480 59.58472 53.00476
# Shear Modulus (GPa) = 22.33743 24.53508 23.43625
#
# Velocity S-wave (km/s) = 3.46335 3.62972 3.54751
# Velocity P-wave (km/s) = 6.39706 7.04006 6.72624
#
# Compressibility (1/GPa) = 0.02154021
#
# Stress axis : x y z
#
# Youngs Moduli (GPa) = 86.91543 57.28273 34.56955
#
# Poissons Ratio (x) = 0.26996 0.25198
# Poissons Ratio (y) = 0.40961 0.21340
# Poissons Ratio (z) = 0.63353 0.35361
#
# Static dielectric constant tensor:
#      x y z
#    x 3.713600 0.000000 0.000000 
#    y 0.000000 3.260080 0.000000 
#    z 0.000000 0.000000 3.239560 
# 
# 
# High freq. dielectric constant tensor:
#      x y z
#    x 1.737160 0.000000 0.000000 
#    y 0.000000 1.708770 0.000000 
#    z 0.000000 0.000000 1.702410 
# 
# From -- ./inp_files/38948.got.cif
#   From: 2010.03.12/outbox.cif.g09.slc.cpg/sg53_20_cif.got.tgz:38948.got - 2010.04.16 14:36:59.
