data_PCOD8218980
_publ_section_title
;
Structure prediction by ZEFSAII (Michael W. Deem and Ramdas Pophale) SiO2 
 PCOD8218980
Probable space group: P M N A
;
_chemical_formula_sum "Si O2"
_cell_formula_units_Z 40
_cell_length_a 24.457422
_cell_length_b 4.939737
_cell_length_c 16.133050
_cell_angle_alpha 90.000000
_cell_angle_beta 90.000000
_cell_angle_gamma 90.000000
_cell_volume 1949.085919
_symmetry_space_group_name_H-M "P M N A"
_symmetry_group_IT_number 53
_symmetry_cell_setting 'orthorhombic'
loop_
_space_group_symop_operation_xyz
x,y,z
1/2-x,-y,1/2+z
x,-y,-z
1/2-x,y,1/2-z
-x,-y,-z
1/2+x,y,1/2-z
-x,y,z
1/2+x,-y,1/2+z
loop_
_atom_site_type_symbol
_atom_site_label
_atom_site_fract_x
_atom_site_fract_y
_atom_site_fract_z
Si Si1 0.200053 0.265536 0.943788
Si Si2 0.318609 0.365191 0.877890
Si Si3 0.629261 0.625982 0.290597
Si Si4 0.385646 0.858620 0.918218
Si Si5 0.062588 0.134347 0.250075
O O1 0.256236 0.376485 0.905502
O O2 0.157117 0.233340 0.869572
O O3 0.174939 0.500000 0.000000
O O4 0.207267 0.000000 0.000000
O O5 0.325278 0.433075 0.780285
O O6 0.353991 0.575495 0.933828
O O7 0.338456 0.059576 0.887931
O O8 0.598777 0.339497 0.306034
O O9 0.581878 0.828163 0.261669
O O10 0.431589 0.803698 0.848684
O O11 0.412385 0.000000 0.000000
O O12 0.000000 0.163284 0.223224
#
# Coordination Sequence:
#
# PCOD8218980 Si02
#       5
#     8   8   8   8   8
#     4  12  23  36  58  85 115 145 181 229 280 332
#     4  10  20  35  55  81 116 155 181 208 268 341
#     4  10  22  39  58  82 112 145 187 231 273 337
#     4  10  19  32  53  84 119 147 181 223 265 325
#     4  10  21  38  60  80 105 149 193 234 282 327
#
# _framework density 20.522442000000002
#
# number of rings (size 3 to 8) (size 9 to 14) (size 15 to 20)
#    0.000    1.600    0.000    6.000    0.000    0.400 
#    0.000    8.000    0.000   19.200    0.000    0.000 
#    0.000    0.000    0.000    0.000    0.000    0.000 
#
# Total GULP energy -495817.929031 kJ/mol
# GULP energy per Si atom -12395.448226 kJ/mol
# Density = 2.047573 g / cm^3
# Si number density = 20.522442 Si / 1000 Ang^3
#
#
#
# Elastic Constant Matrix: (Units=GPa)
#
#
# Indices 1 2 3 4 5 6 
#
# 1 75.9405 23.6834 36.6438 0.0000 0.0000 0.0000
# 2 23.6834 100.8621 32.0853 0.0000 0.0000 0.0000
# 3 36.6438 32.0853 87.1559 0.0000 0.0000 0.0000
# 4 0.0000 0.0000 0.0000 33.6550 0.0000 0.0000
# 5 0.0000 0.0000 0.0000 0.0000 13.0033 0.0000
# 6 0.0000 0.0000 0.0000 0.0000 0.0000 21.8201
#
#
#
# Elastic Compliance Matrix: (Units=1/GPa)
#
#
# Indices 1 2 3 4 5 6 
#
# 1 0.016844 -0.001928 -0.006372 0.000000 0.000000 0.000000
# 2 -0.001928 0.011450 -0.003405 0.000000 0.000000 0.000000
# 3 -0.006372 -0.003405 0.015406 0.000000 0.000000 0.000000
# 4 0.000000 0.000000 0.000000 0.029713 0.000000 0.000000
# 5 0.000000 0.000000 0.000000 0.000000 0.076903 0.000000
# 6 0.000000 0.000000 0.000000 0.000000 0.000000 0.045829
#
#
# Mechanical properties :
#
#
# Convention : Reuss Voigt Hill
#
# Bulk Modulus (GPa) = 49.28317 49.86483 49.57400
# Shear Modulus (GPa) = 22.09258 25.13208 23.61233
#
# Velocity S-wave (km/s) = 3.28458 3.50325 3.39567
# Velocity P-wave (km/s) = 6.20089 6.38076 6.29147
#
# Compressibility (1/GPa) = 0.02029090
#
# Stress axis : x y z
#
# Youngs Moduli (GPa) = 59.36720 87.33383 64.90900
#
# Poissons Ratio (x) = 0.16839 0.41361
# Poissons Ratio (y) = 0.11447 0.22099
# Poissons Ratio (z) = 0.37830 0.29734
#
# Static dielectric constant tensor:
#      x y z
#    x 3.288040 0.000000 0.000000 
#    y 0.000000 3.883600 0.000000 
#    z 0.000000 0.000000 3.780860 
# 
# 
# High freq. dielectric constant tensor:
#      x y z
#    x 1.768420 0.000000 0.000000 
#    y 0.000000 1.822240 0.000000 
#    z 0.000000 0.000000 1.795490 
# 
# From -- ./inp_files/24559.got.cif
#   From: 2010.03.12/outbox.cif.g09.slc.cpg/sg53_13_cif.got.tgz:24559.got - 2010.04.16 14:36:59.
