data_PCOD8218737
_publ_section_title
;
Structure prediction by ZEFSAII (Michael W. Deem and Ramdas Pophale) SiO2 
 PCOD8218737
Probable space group: P M N A
;
_chemical_formula_sum "Si O2"
_cell_formula_units_Z 64
_cell_length_a 9.150925
_cell_length_b 19.414203
_cell_length_c 20.250397
_cell_angle_alpha 90.000000
_cell_angle_beta 90.000000
_cell_angle_gamma 90.000000
_cell_volume 3597.643321
_symmetry_space_group_name_H-M "P M N A"
_symmetry_group_IT_number 53
_symmetry_cell_setting 'orthorhombic'
loop_
_space_group_symop_operation_xyz
x,y,z
1/2-x,-y,1/2+z
x,-y,-z
1/2-x,y,1/2-z
-x,-y,-z
1/2+x,y,1/2-z
-x,y,z
1/2+x,-y,1/2+z
loop_
_atom_site_type_symbol
_atom_site_label
_atom_site_fract_x
_atom_site_fract_y
_atom_site_fract_z
Si Si1 0.331272 0.431816 0.316873
Si Si2 0.828777 0.937726 0.683333
Si Si3 0.668962 0.664912 0.036348
Si Si4 0.829718 0.820626 0.443661
Si Si5 0.333455 0.690816 0.594499
Si Si6 0.172236 0.466296 0.931315
Si Si7 0.169983 0.153604 0.077792
Si Si8 0.668964 0.902022 0.184711
O O1 0.250000 0.448334 0.250000
O O2 0.500000 0.443997 0.303048
O O3 0.300525 0.353200 0.339827
O O4 0.274982 0.484042 0.372828
O O5 0.750000 0.912102 0.750000
O O6 0.760205 0.899765 0.621027
O O7 0.000000 0.920759 0.688772
O O8 0.798692 0.018038 0.671783
O O9 0.500000 0.645838 0.034767
O O10 0.696885 0.739643 0.068500
O O11 0.752275 0.607739 0.079343
O O12 0.726784 0.664133 0.961866
O O13 0.733173 0.848244 0.504004
O O14 0.774574 0.859868 0.378511
O O15 0.000000 0.835912 0.458995
O O16 0.500000 0.677305 0.570469
O O17 0.308191 0.771033 0.610061
O O18 0.000000 0.455101 0.930827
O O19 0.223958 0.500000 0.000000
O O20 0.000000 0.132577 0.075875
O O21 0.750000 0.875266 0.250000
O O22 0.500000 0.887696 0.196740
#
# Coordination Sequence:
#
# PCOD8218737 Si02
#       8
#     8   8   8   8   8   8   8   8
#     4  10  21  36  53  74 102 136 171 213 256 302
#     4  10  20  35  54  75 103 139 179 221 264 317
#     4  10  19  31  53  82 106 129 168 220 260 301
#     4   9  19  36  54  77 109 140 171 215 270 318
#     4   9  18  35  53  71 101 140 176 206 252 313
#     4  10  19  35  57  75  99 138 176 209 254 312
#     4  10  20  33  53  80 108 139 177 219 259 309
#     4   9  19  36  57  77 101 138 180 220 266 320
#
# _framework density 17.789422999999999
#
# number of rings (size 3 to 8) (size 9 to 14) (size 15 to 20)
#    0.000    2.375    1.250    1.125    0.000    4.250 
#    0.000    4.375    0.000    3.000    0.000    0.000 
#    0.000    0.000    0.000    0.000    0.000    0.000 
#
# Total GULP energy -793728.937917 kJ/mol
# GULP energy per Si atom -12402.014655 kJ/mol
# Density = 1.774893 g / cm^3
# Si number density = 17.789423 Si / 1000 Ang^3
#
#
#
# Elastic Constant Matrix: (Units=GPa)
#
#
# Indices 1 2 3 4 5 6 
#
# 1 76.2431 50.3850 59.8411 0.0000 0.0000 0.0000
# 2 50.3850 87.7552 71.6136 0.0000 0.0000 0.0000
# 3 59.8411 71.6136 138.4358 0.0000 0.0000 0.0000
# 4 0.0000 0.0000 0.0000 27.4731 0.0000 0.0000
# 5 0.0000 0.0000 0.0000 0.0000 34.2683 0.0000
# 6 0.0000 0.0000 0.0000 0.0000 0.0000 28.9545
#
#
#
# Elastic Compliance Matrix: (Units=1/GPa)
#
#
# Indices 1 2 3 4 5 6 
#
# 1 0.023293 -0.008925 -0.005452 0.000000 0.000000 0.000000
# 2 -0.008925 0.023140 -0.008113 0.000000 0.000000 0.000000
# 3 -0.005452 -0.008113 0.013777 0.000000 0.000000 0.000000
# 4 0.000000 0.000000 0.000000 0.036399 0.000000 0.000000
# 5 0.000000 0.000000 0.000000 0.000000 0.029181 0.000000
# 6 0.000000 0.000000 0.000000 0.000000 0.000000 0.034537
#
#
# Mechanical properties :
#
#
# Convention : Reuss Voigt Hill
#
# Bulk Modulus (GPa) = 65.65397 74.01263 69.83330
# Shear Modulus (GPa) = 23.76625 26.17880 24.97253
#
# Velocity S-wave (km/s) = 3.65907 3.84030 3.75078
# Velocity P-wave (km/s) = 7.40527 7.83320 7.62224
#
# Compressibility (1/GPa) = 0.01523137
#
# Stress axis : x y z
#
# Youngs Moduli (GPa) = 42.93173 43.21570 72.58500
#
# Poissons Ratio (x) = 0.38568 0.39573
# Poissons Ratio (y) = 0.38314 0.58885
# Poissons Ratio (z) = 0.23406 0.35059
#
# Static dielectric constant tensor:
#      x y z
#    x 3.317610 0.000000 0.000000 
#    y 0.000000 3.419940 0.000000 
#    z 0.000000 0.000000 3.181480 
# 
# 
# High freq. dielectric constant tensor:
#      x y z
#    x 1.691450 0.000000 0.000000 
#    y 0.000000 1.691980 0.000000 
#    z 0.000000 0.000000 1.674880 
# 
# From -- ./inp_files/26819.got.cif
#   From: 2010.03.12/outbox.cif.g09.slc.cpg/sg53_14_cif.got.tgz:26819.got - 2010.04.16 14:36:59.
