data_PCOD8218324
_publ_section_title
;
Structure prediction by ZEFSAII (Michael W. Deem and Ramdas Pophale) SiO2 
 PCOD8218324
Probable space group: P M N A
;
_chemical_formula_sum "Si O2"
_cell_formula_units_Z 64
_cell_length_a 9.136577
_cell_length_b 20.441255
_cell_length_c 21.710497
_cell_angle_alpha 90.000000
_cell_angle_beta 90.000000
_cell_angle_gamma 90.000000
_cell_volume 4054.719728
_symmetry_space_group_name_H-M "P M N A"
_symmetry_group_IT_number 53
_symmetry_cell_setting 'orthorhombic'
loop_
_space_group_symop_operation_xyz
x,y,z
1/2-x,-y,1/2+z
x,-y,-z
1/2-x,y,1/2-z
-x,-y,-z
1/2+x,y,1/2-z
-x,y,z
1/2+x,-y,1/2+z
loop_
_atom_site_type_symbol
_atom_site_label
_atom_site_fract_x
_atom_site_fract_y
_atom_site_fract_z
Si Si1 0.335606 0.509446 0.427021
Si Si2 0.170864 0.864355 0.814494
Si Si3 0.170673 0.088158 0.539503
Si Si4 0.829802 0.257299 0.098882
Si Si5 0.334957 0.384683 0.089084
Si Si6 0.328423 0.769809 0.026191
Si Si7 0.826294 0.956542 0.592886
Si Si8 0.337208 0.368015 0.942887
O O1 0.330463 0.500000 0.500000
O O2 0.500000 0.506498 0.401751
O O3 0.242932 0.452984 0.393377
O O4 0.270379 0.580768 0.409967
O O5 0.250000 0.858027 0.750000
O O6 0.198533 0.796361 0.849279
O O7 0.239820 0.925185 0.850804
O O8 0.000000 0.878172 0.805045
O O9 0.208286 0.162158 0.561748
O O10 0.229833 0.077633 0.470135
O O11 0.000000 0.076321 0.533569
O O12 0.224778 0.033188 0.587900
O O13 0.751073 0.324419 0.120044
O O14 0.000000 0.272457 0.088853
O O15 0.764580 0.230417 0.035662
O O16 0.500000 0.386413 0.114753
O O17 0.333469 0.376113 0.016058
O O18 0.500000 0.766125 0.007813
O O19 0.289449 0.707595 0.070016
O O20 0.000000 0.948237 0.604076
O O21 0.500000 0.381956 0.917725
#
# Coordination Sequence:
#
# PCOD8218324 Si02
#       8
#     8   8   8   8   8   8   8   8
#     4   9  15  22  32  47  70 100 132 167 201 233
#     4  11  23  35  47  63  84 112 144 181 222 263
#     4   8  14  25  45  68  86 110 141 174 213 258
#     4  10  19  29  40  58  80 101 134 176 215 252
#     4   9  16  25  38  52  69  98 133 168 203 241
#     4   9  15  25  41  59  81 110 141 170 205 250
#     4   9  16  29  48  66  85 109 141 177 213 260
#     4   8  14  21  31  49  73 102 135 167 195 233
#
# _framework density 15.784074
#
# number of rings (size 3 to 8) (size 9 to 14) (size 15 to 20)
#    0.000    2.875    1.250    3.000    0.000    6.000 
#    0.000    1.875    0.000    0.000    0.000    0.000 
#    0.000    0.000    0.000    1.125    0.000   17.625 
#
# Total GULP energy -793103.905955 kJ/mol
# GULP energy per Si atom -12392.248531 kJ/mol
# Density = 1.574815 g / cm^3
# Si number density = 15.784074 Si / 1000 Ang^3
#
#
#
# Elastic Constant Matrix: (Units=GPa)
#
#
# Indices 1 2 3 4 5 6 
#
# 1 101.9410 69.2410 29.2028 0.0000 0.0000 0.0000
# 2 69.2410 165.6976 28.5902 0.0000 0.0000 0.0000
# 3 29.2028 28.5902 32.1407 0.0000 0.0000 0.0000
# 4 0.0000 0.0000 0.0000 10.0989 0.0000 0.0000
# 5 0.0000 0.0000 0.0000 0.0000 11.5418 0.0000
# 6 0.0000 0.0000 0.0000 0.0000 0.0000 20.7405
#
#
#
# Elastic Compliance Matrix: (Units=1/GPa)
#
#
# Indices 1 2 3 4 5 6 
#
# 1 0.016113 -0.004970 -0.010219 0.000000 0.000000 0.000000
# 2 -0.004970 0.008662 -0.003190 0.000000 0.000000 0.000000
# 3 -0.010219 -0.003190 0.043236 0.000000 0.000000 0.000000
# 4 0.000000 0.000000 0.000000 0.099020 0.000000 0.000000
# 5 0.000000 0.000000 0.000000 0.000000 0.086642 0.000000
# 6 0.000000 0.000000 0.000000 0.000000 0.000000 0.048215
#
#
# Mechanical properties :
#
#
# Convention : Reuss Voigt Hill
#
# Bulk Modulus (GPa) = 31.99674 61.53859 46.76766
# Shear Modulus (GPa) = 14.32409 19.99260 17.15835
#
# Velocity S-wave (km/s) = 3.01575 3.56284 3.30065
# Velocity P-wave (km/s) = 5.69577 7.48315 6.64979
#
# Compressibility (1/GPa) = 0.03125318
#
# Stress axis : x y z
#
# Youngs Moduli (GPa) = 62.06291 115.44330 23.12912
#
# Poissons Ratio (x) = 0.57374 0.23636
# Poissons Ratio (y) = 0.30844 0.07378
# Poissons Ratio (z) = 0.63422 0.36824
#
# Static dielectric constant tensor:
#      x y z
#    x 3.036010 0.000000 0.000000 
#    y 0.000000 3.475810 0.000000 
#    z 0.000000 0.000000 2.365490 
# 
# 
# High freq. dielectric constant tensor:
#      x y z
#    x 1.605860 0.000000 0.000000 
#    y 0.000000 1.630140 0.000000 
#    z 0.000000 0.000000 1.519620 
# 
# From -- ./inp_files/34569.got.cif
#   From: 2010.03.12/outbox.cif.g09.slc.cpg/sg53_18_cif.got.tgz:34569.got - 2010.04.16 14:36:59.
