data_PCOD8218504
_publ_section_title
;
Structure prediction by ZEFSAII (Michael W. Deem and Ramdas Pophale) SiO2 
 PCOD8218504
Probable space group: P M N A
;
_chemical_formula_sum "Si O2"
_cell_formula_units_Z 48
_cell_length_a 9.053847
_cell_length_b 12.984454
_cell_length_c 18.548375
_cell_angle_alpha 90.000000
_cell_angle_beta 90.000000
_cell_angle_gamma 90.000000
_cell_volume 2180.533237
_symmetry_space_group_name_H-M "P M N A"
_symmetry_group_IT_number 53
_symmetry_cell_setting 'orthorhombic'
loop_
_space_group_symop_operation_xyz
x,y,z
1/2-x,-y,1/2+z
x,-y,-z
1/2-x,y,1/2-z
-x,-y,-z
1/2+x,y,1/2-z
-x,y,z
1/2+x,-y,1/2+z
loop_
_atom_site_type_symbol
_atom_site_label
_atom_site_fract_x
_atom_site_fract_y
_atom_site_fract_z
Si Si1 0.828333 0.293617 0.449146
Si Si2 0.175254 0.396606 0.171806
Si Si3 0.159834 0.080133 0.814839
Si Si4 0.837143 0.684426 0.184488
Si Si5 0.662679 0.104038 0.956891
Si Si6 0.170190 0.429035 0.580162
O O1 0.734990 0.299746 0.375388
O O2 0.768465 0.196143 0.494281
O O3 0.812972 0.405288 0.493447
O O4 0.000000 0.277927 0.429936
O O5 0.250000 0.396488 0.250000
O O6 0.221024 0.494357 0.123004
O O7 0.000000 0.389751 0.180701
O O8 0.250000 0.025232 0.750000
O O9 0.137519 0.198466 0.794016
O O10 0.236955 0.072074 0.890939
O O11 0.000000 0.025714 0.820102
O O12 0.750000 0.627123 0.250000
O O13 0.729807 0.679029 0.114187
O O14 0.000000 0.632665 0.173502
O O15 0.500000 0.140470 0.930557
O O16 0.647333 0.000000 0.000000
O O17 0.000000 0.452417 0.599553
#
# Coordination Sequence:
#
# PCOD8218504 Si02
#       6
#     8   8   8   8   8   8
#     4  10  22  41  64  91 124 161 201 250 306 363
#     4  12  26  43  63  88 122 163 209 255 300 360
#     4  10  20  34  56  85 121 158 198 248 305 365
#     4  10  19  30  48  78 116 155 193 236 288 348
#     4  10  21  40  66  94 124 161 205 254 311 373
#     4  11  21  36  60  88 122 160 198 245 299 360
#
# _framework density 22.012965999999999
#
# number of rings (size 3 to 8) (size 9 to 14) (size 15 to 20)
#    0.000    1.500    1.667    4.000    0.000    5.667 
#    0.000    0.833    0.000    0.000    0.000    0.000 
#    0.000    0.000    0.000    0.000    0.000    0.000 
#
# Total GULP energy -594762.256397 kJ/mol
# GULP energy per Si atom -12390.880342 kJ/mol
# Density = 2.196286 g / cm^3
# Si number density = 22.012966 Si / 1000 Ang^3
#
#
#
# Elastic Constant Matrix: (Units=GPa)
#
#
# Indices 1 2 3 4 5 6 
#
# 1 169.7627 13.6075 90.2670 0.0000 0.0000 0.0000
# 2 13.6075 45.3483 23.3654 0.0000 0.0000 0.0000
# 3 90.2670 23.3654 149.7275 0.0000 0.0000 0.0000
# 4 0.0000 0.0000 0.0000 6.6791 0.0000 0.0000
# 5 0.0000 0.0000 0.0000 0.0000 36.1288 0.0000
# 6 0.0000 0.0000 0.0000 0.0000 0.0000 2.7662
#
#
#
# Elastic Compliance Matrix: (Units=1/GPa)
#
#
# Indices 1 2 3 4 5 6 
#
# 1 0.008670 0.000100 -0.005243 0.000000 0.000000 0.000000
# 2 0.000100 0.023981 -0.003802 0.000000 0.000000 0.000000
# 3 -0.005243 -0.003802 0.010433 0.000000 0.000000 0.000000
# 4 0.000000 0.000000 0.000000 0.149722 0.000000 0.000000
# 5 0.000000 0.000000 0.000000 0.000000 0.027679 0.000000
# 6 0.000000 0.000000 0.000000 0.000000 0.000000 0.361513
#
#
# Mechanical properties :
#
#
# Convention : Reuss Voigt Hill
#
# Bulk Modulus (GPa) = 39.69333 68.81314 54.25324
# Shear Modulus (GPa) = 8.21983 24.95470 16.58726
#
# Velocity S-wave (km/s) = 1.93447 3.37060 2.74801
# Velocity P-wave (km/s) = 4.80214 6.81734 5.89647
#
# Compressibility (1/GPa) = 0.02519315
#
# Stress axis : x y z
#
# Youngs Moduli (GPa) = 115.33738 41.70005 95.85161
#
# Poissons Ratio (x) = -0.00415 0.50251
# Poissons Ratio (y) = -0.01148 0.36446
# Poissons Ratio (z) = 0.60467 0.15856
#
# Static dielectric constant tensor:
#      x y z
#    x 4.261000 0.000000 0.000000 
#    y 0.000000 3.846820 0.000000 
#    z 0.000000 0.000000 4.210650 
# 
# 
# High freq. dielectric constant tensor:
#      x y z
#    x 1.869710 0.000000 0.000000 
#    y 0.000000 1.838100 0.000000 
#    z 0.000000 0.000000 1.874960 
# 
# From -- ./inp_files/26291.got.cif
#   From: 2010.03.12/outbox.cif.g09.slc.cpg/sg53_14_cif.got.tgz:26291.got - 2010.04.16 14:36:59.
