data_PCOD8218620
_publ_section_title
;
Structure prediction by ZEFSAII (Michael W. Deem and Ramdas Pophale) SiO2 
 PCOD8218620
Probable space group: P M N A
;
_chemical_formula_sum "Si O2"
_cell_formula_units_Z 56
_cell_length_a 9.159763
_cell_length_b 19.576488
_cell_length_c 17.991377
_cell_angle_alpha 90.000000
_cell_angle_beta 90.000000
_cell_angle_gamma 90.000000
_cell_volume 3226.141586
_symmetry_space_group_name_H-M "P M N A"
_symmetry_group_IT_number 53
_symmetry_cell_setting 'orthorhombic'
loop_
_space_group_symop_operation_xyz
x,y,z
1/2-x,-y,1/2+z
x,-y,-z
1/2-x,y,1/2-z
-x,-y,-z
1/2+x,y,1/2-z
-x,y,z
1/2+x,-y,1/2+z
loop_
_atom_site_type_symbol
_atom_site_label
_atom_site_fract_x
_atom_site_fract_y
_atom_site_fract_z
Si Si1 0.658514 0.547131 0.571067
Si Si2 0.171775 0.159660 0.326035
Si Si3 0.328604 0.200191 0.467725
Si Si4 0.673021 0.657814 0.467723
Si Si5 0.169015 0.002809 0.323493
Si Si6 0.337653 0.935116 0.447889
Si Si7 0.324955 0.429108 0.671068
O O1 0.636634 0.500000 0.500000
O O2 0.500000 0.569038 0.602387
O O3 0.741686 0.614422 0.538239
O O4 0.733151 0.502124 0.637007
O O5 0.250000 0.181513 0.250000
O O6 0.238399 0.205754 0.391434
O O7 0.207585 0.080697 0.344998
O O8 0.000000 0.172928 0.318368
O O9 0.500000 0.200101 0.448437
O O10 0.284335 0.263237 0.521126
O O11 0.281419 0.131393 0.509249
O O12 0.500000 0.646737 0.471905
O O13 0.725324 0.630674 0.386799
O O14 0.250000 0.980290 0.250000
O O15 0.000000 0.993510 0.309509
O O16 0.220101 0.949630 0.385031
O O17 0.500000 0.922126 0.414742
O O18 0.343468 0.000000 0.500000
O O19 0.250000 0.415187 0.750000
O O20 0.500000 0.429445 0.680366
#
# Coordination Sequence:
#
# PCOD8218620 Si02
#       7
#     8   8   8   8   8   8   8
#     4   7  11  23  45  69  90 116 155 195 224 264
#     4  10  20  33  50  71  94 121 157 201 249 299
#     4  10  19  32  51  72  97 131 166 201 242 289
#     4   8  15  29  49  71  95 129 167 197 232 286
#     4  10  20  33  51  71  93 121 157 205 255 300
#     4  10  19  31  48  71  98 126 161 204 246 292
#     4   9  16  28  49  75  99 125 160 198 237 281
#
# _framework density 17.358197000000001
#
# number of rings (size 3 to 8) (size 9 to 14) (size 15 to 20)
#    0.000    2.857    1.429    2.571    0.000    2.000 
#    0.000    2.143    0.000    8.143    0.000    0.000 
#    0.000    0.000    0.000    0.000    0.000    0.000 
#
# Total GULP energy -693805.849975 kJ/mol
# GULP energy per Si atom -12389.390178 kJ/mol
# Density = 1.731869 g / cm^3
# Si number density = 17.358197 Si / 1000 Ang^3
#
#
#
# Elastic Constant Matrix: (Units=GPa)
#
#
# Indices 1 2 3 4 5 6 
#
# 1 46.1813 18.5035 43.6235 0.0000 0.0000 0.0000
# 2 18.5035 102.9236 57.4852 0.0000 0.0000 0.0000
# 3 43.6235 57.4852 126.7469 0.0000 0.0000 0.0000
# 4 0.0000 0.0000 0.0000 22.9681 0.0000 0.0000
# 5 0.0000 0.0000 0.0000 0.0000 31.6697 0.0000
# 6 0.0000 0.0000 0.0000 0.0000 0.0000 7.6089
#
#
#
# Elastic Compliance Matrix: (Units=1/GPa)
#
#
# Indices 1 2 3 4 5 6 
#
# 1 0.032107 0.000535 -0.011293 0.000000 0.000000 0.000000
# 2 0.000535 0.013021 -0.006090 0.000000 0.000000 0.000000
# 3 -0.011293 -0.006090 0.014539 0.000000 0.000000 0.000000
# 4 0.000000 0.000000 0.000000 0.043539 0.000000 0.000000
# 5 0.000000 0.000000 0.000000 0.000000 0.031576 0.000000
# 6 0.000000 0.000000 0.000000 0.000000 0.000000 0.131426
#
#
# Mechanical properties :
#
#
# Convention : Reuss Voigt Hill
#
# Bulk Modulus (GPa) = 38.50423 57.23066 47.86745
# Shear Modulus (GPa) = 16.20431 22.86531 19.53481
#
# Velocity S-wave (km/s) = 3.05868 3.63335 3.35833
# Velocity P-wave (km/s) = 5.89104 7.11643 6.53253
#
# Compressibility (1/GPa) = 0.02597117
#
# Stress axis : x y z
#
# Youngs Moduli (GPa) = 31.14568 76.79886 68.78188
#
# Poissons Ratio (x) = -0.04112 0.77678
# Poissons Ratio (y) = -0.01668 0.41887
# Poissons Ratio (z) = 0.35174 0.46770
#
# Static dielectric constant tensor:
#      x y z
#    x 2.965020 0.000000 0.000000 
#    y 0.000000 3.358510 0.000000 
#    z 0.000000 0.000000 2.312610 
# 
# 
# High freq. dielectric constant tensor:
#      x y z
#    x 1.639060 0.000000 0.000000 
#    y 0.000000 1.658020 0.000000 
#    z 0.000000 0.000000 1.665710 
# 
# From -- ./inp_files/26685.got.cif
#   From: 2010.03.12/outbox.cif.g09.slc.cpg/sg53_14_cif.got.tgz:26685.got - 2010.04.16 14:36:59.
