data_PCOD8218760
_publ_section_title
;
Structure prediction by ZEFSAII (Michael W. Deem and Ramdas Pophale) SiO2 
 PCOD8218760
Probable space group: P M N A
;
_chemical_formula_sum "Si O2"
_cell_formula_units_Z 48
_cell_length_a 8.677259
_cell_length_b 15.043055
_cell_length_c 21.523899
_cell_angle_alpha 90.000000
_cell_angle_beta 90.000000
_cell_angle_gamma 90.000000
_cell_volume 2809.568010
_symmetry_space_group_name_H-M "P M N A"
_symmetry_group_IT_number 53
_symmetry_cell_setting 'orthorhombic'
loop_
_space_group_symop_operation_xyz
x,y,z
1/2-x,-y,1/2+z
x,-y,-z
1/2-x,y,1/2-z
-x,-y,-z
1/2+x,y,1/2-z
-x,y,z
1/2+x,-y,1/2+z
loop_
_atom_site_type_symbol
_atom_site_label
_atom_site_fract_x
_atom_site_fract_y
_atom_site_fract_z
Si Si1 0.678958 0.940965 0.919948
Si Si2 0.179309 0.296888 0.536222
Si Si3 0.681994 0.659280 0.595721
Si Si4 0.830192 0.468642 0.929495
Si Si5 0.320196 0.199993 0.183496
Si Si6 0.319358 0.116075 0.547150
O O1 0.500000 0.937278 0.938618
O O2 0.712122 0.887320 0.857323
O O3 0.777427 0.897257 0.974965
O O4 0.732726 0.042779 0.910513
O O5 0.230861 0.305769 0.465000
O O6 0.215425 0.385215 0.576717
O O7 0.265959 0.214002 0.568072
O O8 0.000000 0.277431 0.537535
O O9 0.500000 0.669387 0.583890
O O10 0.724503 0.555411 0.609350
O O11 0.735417 0.714452 0.655104
O O12 0.000000 0.437444 0.907814
O O13 0.837525 0.500000 0.000000
O O14 0.250000 0.179038 0.250000
O O15 0.500000 0.221577 0.188541
O O16 0.500000 0.105317 0.556919
#
# Coordination Sequence:
#
# PCOD8218760 Si02
#       6
#     8   8   8   8   8   8
#     4  10  20  34  49  70  98 128 164 209 252 298
#     4  11  19  28  45  71 101 132 163 199 243 296
#     4  10  19  32  49  68  97 130 165 205 245 294
#     4   8  16  29  44  66  95 128 160 195 238 286
#     4  11  23  36  53  73  99 133 170 209 250 294
#     4  11  20  30  49  72  98 133 165 202 251 305
#
# _framework density 17.084475999999999
#
# number of rings (size 3 to 8) (size 9 to 14) (size 15 to 20)
#    0.000    1.833    1.667    6.500    0.000    5.667 
#    0.000    0.000    0.000    0.000    0.000    1.167 
#    0.000    2.667    0.000    0.000    0.000    0.000 
#
# Total GULP energy -595154.287858 kJ/mol
# GULP energy per Si atom -12399.047664 kJ/mol
# Density = 1.704559 g / cm^3
# Si number density = 17.084476 Si / 1000 Ang^3
#
#
#
# Elastic Constant Matrix: (Units=GPa)
#
#
# Indices 1 2 3 4 5 6 
#
# 1 84.4570 39.5550 20.6928 0.0000 0.0000 0.0000
# 2 39.5550 134.7475 38.1055 0.0000 0.0000 0.0000
# 3 20.6928 38.1055 58.9531 0.0000 0.0000 0.0000
# 4 0.0000 0.0000 0.0000 14.9628 0.0000 0.0000
# 5 0.0000 0.0000 0.0000 0.0000 16.4781 0.0000
# 6 0.0000 0.0000 0.0000 0.0000 0.0000 28.4190
#
#
#
# Elastic Compliance Matrix: (Units=1/GPa)
#
#
# Indices 1 2 3 4 5 6 
#
# 1 0.014091 -0.003350 -0.002781 0.000000 0.000000 0.000000
# 2 -0.003350 0.009878 -0.005209 0.000000 0.000000 0.000000
# 3 -0.002781 -0.005209 0.021305 0.000000 0.000000 0.000000
# 4 0.000000 0.000000 0.000000 0.066833 0.000000 0.000000
# 5 0.000000 0.000000 0.000000 0.000000 0.060687 0.000000
# 6 0.000000 0.000000 0.000000 0.000000 0.000000 0.035188
#
#
# Mechanical properties :
#
#
# Convention : Reuss Voigt Hill
#
# Bulk Modulus (GPa) = 44.25739 52.76268 48.51004
# Shear Modulus (GPa) = 20.99159 23.95893 22.47526
#
# Velocity S-wave (km/s) = 3.50908 3.74890 3.63097
# Velocity P-wave (km/s) = 6.50995 7.04907 6.78487
#
# Compressibility (1/GPa) = 0.02259510
#
# Stress axis : x y z
#
# Youngs Moduli (GPa) = 70.96964 101.23856 46.93648
#
# Poissons Ratio (x) = 0.33914 0.13051
# Poissons Ratio (y) = 0.23775 0.24448
# Poissons Ratio (z) = 0.19733 0.52733
#
# Static dielectric constant tensor:
#      x y z
#    x 3.285470 0.000000 0.000000 
#    y 0.000000 3.702050 0.000000 
#    z 0.000000 0.000000 2.730560 
# 
# 
# High freq. dielectric constant tensor:
#      x y z
#    x 1.674920 0.000000 0.000000 
#    y 0.000000 1.679870 0.000000 
#    z 0.000000 0.000000 1.589700 
# 
# From -- ./inp_files/30511.got.cif
#   From: 2010.03.12/outbox.cif.g09.slc.cpg/sg53_16_cif.got.tgz:30511.got - 2010.04.16 14:36:59.
