data_PCOD8218408
_publ_section_title
;
Structure prediction by ZEFSAII (Michael W. Deem and Ramdas Pophale) SiO2 
 PCOD8218408
Probable space group: P M N A
;
_chemical_formula_sum "Si O2"
_cell_formula_units_Z 48
_cell_length_a 34.340337
_cell_length_b 16.518957
_cell_length_c 5.004500
_cell_angle_alpha 90.000000
_cell_angle_beta 90.000000
_cell_angle_gamma 90.000000
_cell_volume 2838.885451
_symmetry_space_group_name_H-M "P M N A"
_symmetry_group_IT_number 53
_symmetry_cell_setting 'orthorhombic'
loop_
_space_group_symop_operation_xyz
x,y,z
1/2-x,-y,1/2+z
x,-y,-z
1/2-x,y,1/2-z
-x,-y,-z
1/2+x,y,1/2-z
-x,y,z
1/2+x,-y,1/2+z
loop_
_atom_site_type_symbol
_atom_site_label
_atom_site_fract_x
_atom_site_fract_y
_atom_site_fract_z
Si Si1 0.642797 0.338225 0.401369
Si Si2 0.420555 0.212311 0.441101
Si Si3 0.544734 0.713820 0.059938
Si Si4 0.543532 0.945492 0.754259
Si Si5 0.393097 0.410650 0.896124
Si Si6 0.776819 0.407157 0.001248
O O1 0.623768 0.248309 0.443942
O O2 0.623133 0.404560 0.596409
O O3 0.688430 0.341609 0.474093
O O4 0.636093 0.362518 0.093701
O O5 0.437338 0.217127 0.742695
O O6 0.424053 0.121999 0.320188
O O7 0.447446 0.266562 0.248848
O O8 0.500000 0.705254 0.122903
O O9 0.564099 0.627480 0.115608
O O10 0.500000 0.908799 0.823639
O O11 0.538232 0.000000 0.500000
O O12 0.559003 0.000000 0.000000
O O13 0.397067 0.500000 0.000000
O O14 0.750000 0.393005 0.250000
O O15 0.792939 0.500000 0.000000
O O16 0.750000 0.387604 0.750000
#
# Coordination Sequence:
#
# PCOD8218408 Si02
#       6
#     8   8   8   8   8   8
#     4  10  20  33  48  66  91 123 155 188 231 283
#     4  10  20  33  48  66  91 123 155 188 231 283
#     4  10  19  30  45  63  86 120 158 195 231 266
#     4  10  19  30  47  70  94 120 151 190 232 274
#     4  10  19  30  45  63  86 120 158 195 231 266
#     4  10  19  30  47  70  94 120 151 190 232 274
#
# _framework density 16.908042999999999
#
# number of rings (size 3 to 8) (size 9 to 14) (size 15 to 20)
#    0.000    2.000    0.000    5.000    0.000    3.000 
#    0.000    0.000    0.000    6.000    0.000    0.000 
#    0.000    2.667    0.000    0.000    0.000    0.000 
#
# Total GULP energy -594879.493540 kJ/mol
# GULP energy per Si atom -12393.322782 kJ/mol
# Density = 1.686956 g / cm^3
# Si number density = 16.908043 Si / 1000 Ang^3
#
#
#
# Elastic Constant Matrix: (Units=GPa)
#
#
# Indices 1 2 3 4 5 6 
#
# 1 111.6467 46.2622 23.1784 0.0000 0.0000 0.0000
# 2 46.2622 79.9149 13.5413 0.0000 0.0000 0.0000
# 3 23.1784 13.5413 83.5304 0.0000 0.0000 0.0000
# 4 0.0000 0.0000 0.0000 25.2816 0.0000 0.0000
# 5 0.0000 0.0000 0.0000 0.0000 66.4881 0.0000
# 6 0.0000 0.0000 0.0000 0.0000 0.0000 27.1213
#
#
#
# Elastic Compliance Matrix: (Units=1/GPa)
#
#
# Indices 1 2 3 4 5 6 
#
# 1 0.012200 -0.006672 -0.002304 0.000000 0.000000 0.000000
# 2 -0.006672 0.016516 -0.000826 0.000000 0.000000 0.000000
# 3 -0.002304 -0.000826 0.012745 0.000000 0.000000 0.000000
# 4 0.000000 0.000000 0.000000 0.039555 0.000000 0.000000
# 5 0.000000 0.000000 0.000000 0.000000 0.015040 0.000000
# 6 0.000000 0.000000 0.000000 0.000000 0.000000 0.036871
#
#
# Mechanical properties :
#
#
# Convention : Reuss Voigt Hill
#
# Bulk Modulus (GPa) = 45.75210 49.00619 47.37915
# Shear Modulus (GPa) = 31.28614 36.58552 33.93583
#
# Velocity S-wave (km/s) = 4.30626 4.65671 4.48491
# Velocity P-wave (km/s) = 7.20023 7.61315 7.40957
#
# Compressibility (1/GPa) = 0.02185692
#
# Stress axis : x y z
#
# Youngs Moduli (GPa) = 81.96934 60.54872 78.46332
#
# Poissons Ratio (x) = 0.40398 0.18075
# Poissons Ratio (y) = 0.54690 0.06481
# Poissons Ratio (z) = 0.18883 0.05001
#
# Static dielectric constant tensor:
#      x y z
#    x 3.074100 0.000000 0.000000 
#    y 0.000000 2.914910 0.000000 
#    z 0.000000 0.000000 3.418630 
# 
# 
# High freq. dielectric constant tensor:
#      x y z
#    x 1.625330 0.000000 0.000000 
#    y 0.000000 1.617930 0.000000 
#    z 0.000000 0.000000 1.683270 
# 
# From -- ./inp_files/5284.got.cif
#   From: 2010.03.12/outbox.cif.g09.slc.cpg/sg53_3_cif.got.tgz:5284.got - 2010.04.16 14:36:59.
