data_PCOD8218360
_publ_section_title
;
Structure prediction by ZEFSAII (Michael W. Deem and Ramdas Pophale) SiO2 
 PCOD8218360
Probable space group: P M N A
;
_chemical_formula_sum "Si O2"
_cell_formula_units_Z 56
_cell_length_a 9.592372
_cell_length_b 14.420189
_cell_length_c 20.018712
_cell_angle_alpha 90.000000
_cell_angle_beta 90.000000
_cell_angle_gamma 90.000000
_cell_volume 2769.064659
_symmetry_space_group_name_H-M "P M N A"
_symmetry_group_IT_number 53
_symmetry_cell_setting 'orthorhombic'
loop_
_space_group_symop_operation_xyz
x,y,z
1/2-x,-y,1/2+z
x,-y,-z
1/2-x,y,1/2-z
-x,-y,-z
1/2+x,y,1/2-z
-x,y,z
1/2+x,-y,1/2+z
loop_
_atom_site_type_symbol
_atom_site_label
_atom_site_fract_x
_atom_site_fract_y
_atom_site_fract_z
Si Si1 0.840111 0.021859 0.646814
Si Si2 0.657908 0.807339 0.307087
Si Si3 0.149999 0.875933 0.486256
Si Si4 0.764450 0.699991 0.068542
Si Si5 0.152338 0.505230 0.420781
Si Si6 0.336762 0.862642 0.607331
Si Si7 0.153548 0.341207 0.079411
O O1 0.746806 0.098610 0.682782
O O2 0.842281 0.041189 0.567287
O O3 0.000000 0.017897 0.674394
O O4 0.758850 0.923686 0.657547
O O5 0.750000 0.754310 0.250000
O O6 0.500000 0.829795 0.282843
O O7 0.640771 0.746069 0.373944
O O8 0.146411 0.775848 0.448966
O O9 0.285473 0.883741 0.532199
O O10 0.000000 0.882052 0.524673
O O11 0.702798 0.606697 0.101143
O O12 0.846239 0.674695 0.000688
O O13 0.148307 0.500000 0.500000
O O14 0.247007 0.421914 0.393534
O O15 0.000000 0.488647 0.390131
O O16 0.500000 0.888861 0.613542
O O17 0.310249 0.753302 0.619534
O O18 0.000000 0.374543 0.098482
#
# Coordination Sequence:
#
# PCOD8218360 Si02
#       7
#     8   8   8   8   8   8   8
#     4  10  20  33  49  68  92 124 161 202 247 292
#     4  11  23  38  55  75  99 128 166 209 251 295
#     4   9  17  28  43  65  94 127 162 199 241 293
#     4   9  18  31  50  71  98 134 171 206 247 293
#     4   9  17  28  45  70  99 132 167 202 242 291
#     4  10  19  29  43  66  97 131 164 199 241 291
#     4   9  18  30  45  70 103 135 168 203 240 290
#
# _framework density 20.223434999999998
#
# number of rings (size 3 to 8) (size 9 to 14) (size 15 to 20)
#    0.000    2.429    0.000    2.571    0.000   14.571 
#    0.000    0.000    0.000    0.000    0.000    1.000 
#    0.000    2.286    0.000    0.000    0.000    0.000 
#
# Total GULP energy -693802.585640 kJ/mol
# GULP energy per Si atom -12389.331886 kJ/mol
# Density = 2.017741 g / cm^3
# Si number density = 20.223435 Si / 1000 Ang^3
#
#
#
# Elastic Constant Matrix: (Units=GPa)
#
#
# Indices 1 2 3 4 5 6 
#
# 1 163.6012 72.5217 8.6320 0.0000 0.0000 0.0000
# 2 72.5217 146.3350 3.7373 0.0000 0.0000 0.0000
# 3 8.6320 3.7373 23.7289 0.0000 0.0000 0.0000
# 4 0.0000 0.0000 0.0000 11.3806 0.0000 0.0000
# 5 0.0000 0.0000 0.0000 0.0000 18.1026 0.0000
# 6 0.0000 0.0000 0.0000 0.0000 0.0000 24.6231
#
#
#
# Elastic Compliance Matrix: (Units=1/GPa)
#
#
# Indices 1 2 3 4 5 6 
#
# 1 0.007954 -0.003884 -0.002282 0.000000 0.000000 0.000000
# 2 -0.003884 0.008758 0.000034 0.000000 0.000000 0.000000
# 3 -0.002282 0.000034 0.042968 0.000000 0.000000 0.000000
# 4 0.000000 0.000000 0.000000 0.087869 0.000000 0.000000
# 5 0.000000 0.000000 0.000000 0.000000 0.055241 0.000000
# 6 0.000000 0.000000 0.000000 0.000000 0.000000 0.040612
#
#
# Mechanical properties :
#
#
# Convention : Reuss Voigt Hill
#
# Bulk Modulus (GPa) = 21.09035 55.93856 38.51446
# Shear Modulus (GPa) = 18.41819 27.40621 22.91220
#
# Velocity S-wave (km/s) = 3.02111 3.68526 3.36959
# Velocity P-wave (km/s) = 4.75613 6.76967 5.85018
#
# Compressibility (1/GPa) = 0.04741505
#
# Stress axis : x y z
#
# Youngs Moduli (GPa) = 125.71547 114.18703 23.27339
#
# Poissons Ratio (x) = 0.44349 0.05311
# Poissons Ratio (y) = 0.48826 -0.00078
# Poissons Ratio (z) = 0.28687 -0.00383
#
# Static dielectric constant tensor:
#      x y z
#    x 3.762600 0.000000 0.000000 
#    y 0.000000 3.896830 0.000000 
#    z 0.000000 0.000000 3.187930 
# 
# 
# High freq. dielectric constant tensor:
#      x y z
#    x 1.799760 0.000000 0.000000 
#    y 0.000000 1.797050 0.000000 
#    z 0.000000 0.000000 1.724260 
# 
# From -- ./inp_files/30793.got.cif
#   From: 2010.03.12/outbox.cif.g09.slc.cpg/sg53_16_cif.got.tgz:30793.got - 2010.04.16 14:36:59.
