data_PCOD8218761
_publ_section_title
;
Structure prediction by ZEFSAII (Michael W. Deem and Ramdas Pophale) SiO2 
 PCOD8218761
Probable space group: P M N A
;
_chemical_formula_sum "Si O2"
_cell_formula_units_Z 64
_cell_length_a 9.265442
_cell_length_b 25.438038
_cell_length_c 13.702083
_cell_angle_alpha 90.000000
_cell_angle_beta 90.000000
_cell_angle_gamma 90.000000
_cell_volume 3229.507872
_symmetry_space_group_name_H-M "P M N A"
_symmetry_group_IT_number 53
_symmetry_cell_setting 'orthorhombic'
loop_
_space_group_symop_operation_xyz
x,y,z
1/2-x,-y,1/2+z
x,-y,-z
1/2-x,y,1/2-z
-x,-y,-z
1/2+x,y,1/2-z
-x,y,z
1/2+x,-y,1/2+z
loop_
_atom_site_type_symbol
_atom_site_label
_atom_site_fract_x
_atom_site_fract_y
_atom_site_fract_z
Si Si1 0.831173 0.202760 0.659648
Si Si2 0.331560 0.781138 0.941385
Si Si3 0.168482 0.418217 0.042723
Si Si4 0.340274 0.119826 0.401966
Si Si5 0.329993 0.009330 0.395296
Si Si6 0.159853 0.896725 0.131238
Si Si7 0.170538 0.669998 0.649316
Si Si8 0.332875 0.476604 0.652317
O O1 0.750000 0.232516 0.750000
O O2 0.778045 0.224265 0.554196
O O3 0.786598 0.141350 0.668451
O O4 0.000000 0.210553 0.673483
O O5 0.500000 0.792551 0.942165
O O6 0.259346 0.829495 0.883568
O O7 0.290730 0.728580 0.884346
O O8 0.268971 0.368953 0.067122
O O9 0.211330 0.465669 0.114914
O O10 0.000000 0.403913 0.054932
O O11 0.202619 0.434213 0.931446
O O12 0.500000 0.134619 0.362982
O O13 0.276855 0.066011 0.350386
O O14 0.346449 0.105043 0.515115
O O15 0.500000 0.017379 0.409861
O O16 0.254342 0.000000 0.500000
O O17 0.301072 0.956316 0.332351
O O18 0.000000 0.879729 0.170622
O O19 0.250000 0.657377 0.750000
O O20 0.000000 0.661623 0.661723
O O21 0.250000 0.461048 0.750000
O O22 0.500000 0.475674 0.677892
#
# Coordination Sequence:
#
# PCOD8218761 Si02
#       8
#     8   8   8   8   8   8   8   8
#     4  10  19  32  49  69  95 128 166 208 254 306
#     4   9  20  36  51  71 101 132 166 213 264 309
#     4   9  19  36  56  83 118 154 191 230 269 313
#     4   8  13  23  43  68  91 120 159 199 243 299
#     4   7  10  18  35  61  90 117 148 189 237 292
#     4   8  13  23  40  63  91 121 154 194 241 297
#     4  11  23  39  59  82 107 137 175 222 273 322
#     4   9  18  33  55  84 121 159 193 229 269 313
#
# _framework density 19.817260999999998
#
# number of rings (size 3 to 8) (size 9 to 14) (size 15 to 20)
#    0.000    3.125    0.000    3.375    0.000    3.500 
#    0.000    2.500    0.000    7.500    0.000    1.750 
#    0.000    0.000    0.000    0.000    0.000    0.000 
#
# Total GULP energy -792840.062199 kJ/mol
# GULP energy per Si atom -12388.125972 kJ/mol
# Density = 1.977216 g / cm^3
# Si number density = 19.817261 Si / 1000 Ang^3
#
#
#
# Elastic Constant Matrix: (Units=GPa)
#
#
# Indices 1 2 3 4 5 6 
#
# 1 65.0276 43.5324 31.3252 0.0000 0.0000 0.0000
# 2 43.5324 106.9388 24.5241 0.0000 0.0000 0.0000
# 3 31.3252 24.5241 74.6430 0.0000 0.0000 0.0000
# 4 0.0000 0.0000 0.0000 -7.4941 0.0000 0.0000
# 5 0.0000 0.0000 0.0000 0.0000 23.1425 0.0000
# 6 0.0000 0.0000 0.0000 0.0000 0.0000 24.1081
#
#
#
# Elastic Compliance Matrix: (Units=1/GPa)
#
#
# Indices 1 2 3 4 5 6 
#
# 1 0.024566 -0.008258 -0.007596 0.000000 0.000000 0.000000
# 2 -0.008258 0.012889 -0.000769 0.000000 0.000000 0.000000
# 3 -0.007596 -0.000769 0.016838 0.000000 0.000000 0.000000
# 4 0.000000 0.000000 0.000000 -0.133438 0.000000 0.000000
# 5 0.000000 0.000000 0.000000 0.000000 0.043211 0.000000
# 6 0.000000 0.000000 0.000000 0.000000 0.000000 0.041480
#
#
# Mechanical properties :
#
#
# Convention : Reuss Voigt Hill
#
# Bulk Modulus (GPa) = 47.51560 49.48588 48.50074
# Shear Modulus (GPa) = 109.15290 17.76647 63.45968
#
# Velocity S-wave (km/s) = 7.42962 2.99743 5.66498
# Velocity P-wave (km/s) = 9.88069 6.08316 8.20466
#
# Compressibility (1/GPa) = 0.02104572
#
# Stress axis : x y z
#
# Youngs Moduli (GPa) = 40.70721 77.58415 59.39072
#
# Poissons Ratio (x) = 0.64070 0.45114
# Poissons Ratio (y) = 0.33617 0.04568
# Poissons Ratio (z) = 0.30922 0.05967
#
# Static dielectric constant tensor:
#      x y z
#    x 3.379270 0.000000 0.000000 
#    y 0.000000 3.619910 0.000000 
#    z 0.000000 0.000000 3.596360 
# 
# 
# High freq. dielectric constant tensor:
#      x y z
#    x 1.754570 0.000000 0.000000 
#    y 0.000000 1.759900 0.000000 
#    z 0.000000 0.000000 1.766800 
# 
# From -- ./inp_files/20818.got.cif
#   From: 2010.03.12/outbox.cif.g09.slc.cpg/sg53_11_cif.got.tgz:20818.got - 2010.04.16 14:36:59.
