data_PCOD8218655
_publ_section_title
;
Structure prediction by ZEFSAII (Michael W. Deem and Ramdas Pophale) SiO2 
 PCOD8218655
Probable space group: P M N A
;
_chemical_formula_sum "Si O2"
_cell_formula_units_Z 64
_cell_length_a 8.912479
_cell_length_b 18.784093
_cell_length_c 21.430254
_cell_angle_alpha 90.000000
_cell_angle_beta 90.000000
_cell_angle_gamma 90.000000
_cell_volume 3587.699564
_symmetry_space_group_name_H-M "P M N A"
_symmetry_group_IT_number 53
_symmetry_cell_setting 'orthorhombic'
loop_
_space_group_symop_operation_xyz
x,y,z
1/2-x,-y,1/2+z
x,-y,-z
1/2-x,y,1/2-z
-x,-y,-z
1/2+x,y,1/2-z
-x,y,z
1/2+x,-y,1/2+z
loop_
_atom_site_type_symbol
_atom_site_label
_atom_site_fract_x
_atom_site_fract_y
_atom_site_fract_z
Si Si1 0.831046 0.962042 0.433634
Si Si2 0.176401 0.208187 0.313183
Si Si3 0.326695 0.476355 0.315558
Si Si4 0.826795 0.092171 0.115708
Si Si5 0.671121 0.537387 0.063347
Si Si6 0.174533 0.168750 0.984513
Si Si7 0.172036 0.681392 0.497171
Si Si8 0.673519 0.668143 0.619924
O O1 0.753509 0.884855 0.435991
O O2 0.000000 0.953237 0.408156
O O3 0.832170 0.000000 0.500000
O O4 0.734439 0.011995 0.388175
O O5 0.250000 0.235785 0.250000
O O6 0.234379 0.129460 0.329137
O O7 0.229963 0.262226 0.365901
O O8 0.000000 0.208443 0.306625
O O9 0.250000 0.496927 0.250000
O O10 0.500000 0.496515 0.309616
O O11 0.262340 0.518669 0.374542
O O12 0.304742 0.392341 0.328089
O O13 0.000000 0.089161 0.134137
O O14 0.800224 0.137765 0.053342
O O15 0.500000 0.511442 0.072824
O O16 0.734707 0.500000 0.000000
O O17 0.680026 0.623209 0.057875
O O18 0.000000 0.174186 0.967907
O O19 0.248454 0.245830 0.976559
O O20 0.259814 0.642950 0.554031
O O21 0.000000 0.697771 0.515580
O O22 0.500000 0.689995 0.612550
#
# Coordination Sequence:
#
# PCOD8218655 Si02
#       8
#     8   8   8   8   8   8   8   8
#     4   9  17  29  47  71  99 131 170 208 251 305
#     4  12  24  36  51  71 101 141 185 227 269 318
#     4  11  24  39  59  82 109 145 187 234 281 335
#     4  10  19  32  49  71 101 135 174 216 264 311
#     4  10  21  38  58  82 112 146 184 230 282 336
#     4  10  19  31  49  73 105 137 171 215 262 315
#     4  11  21  33  54  80 109 146 182 223 275 330
#     4  11  22  36  53  77 107 143 184 226 271 325
#
# _framework density 17.838729000000001
#
# number of rings (size 3 to 8) (size 9 to 14) (size 15 to 20)
#    0.000    1.500    2.500    3.750    0.000    6.250 
#    0.000    0.000    0.000    0.000    0.000    0.875 
#    0.000    4.000    0.000    0.000    0.000    0.000 
#
# Total GULP energy -793643.816449 kJ/mol
# GULP energy per Si atom -12400.684632 kJ/mol
# Density = 1.779813 g / cm^3
# Si number density = 17.838729 Si / 1000 Ang^3
#
#
#
# Elastic Constant Matrix: (Units=GPa)
#
#
# Indices 1 2 3 4 5 6 
#
# 1 154.3643 56.0816 49.4350 0.0000 0.0000 0.0000
# 2 56.0816 91.4150 35.1066 0.0000 0.0000 0.0000
# 3 49.4350 35.1066 79.5562 0.0000 0.0000 0.0000
# 4 0.0000 0.0000 0.0000 74.3879 0.0000 0.0000
# 5 0.0000 0.0000 0.0000 0.0000 28.8849 0.0000
# 6 0.0000 0.0000 0.0000 0.0000 0.0000 30.5471
#
#
#
# Elastic Compliance Matrix: (Units=1/GPa)
#
#
# Indices 1 2 3 4 5 6 
#
# 1 0.009244 -0.004172 -0.003903 0.000000 0.000000 0.000000
# 2 -0.004172 0.015054 -0.004051 0.000000 0.000000 0.000000
# 3 -0.003903 -0.004051 0.016782 0.000000 0.000000 0.000000
# 4 0.000000 0.000000 0.000000 0.013443 0.000000 0.000000
# 5 0.000000 0.000000 0.000000 0.000000 0.034620 0.000000
# 6 0.000000 0.000000 0.000000 0.000000 0.000000 0.032736
#
#
# Mechanical properties :
#
#
# Convention : Reuss Voigt Hill
#
# Bulk Modulus (GPa) = 59.42068 67.39796 63.40932
# Shear Modulus (GPa) = 32.95086 39.07813 36.01449
#
# Velocity S-wave (km/s) = 4.30251 4.68550 4.49808
# Velocity P-wave (km/s) = 7.62000 8.19364 7.91202
#
# Compressibility (1/GPa) = 0.01682916
#
# Stress axis : x y z
#
# Youngs Moduli (GPa) = 108.18021 66.42652 59.58614
#
# Poissons Ratio (x) = 0.27714 0.23256
# Poissons Ratio (y) = 0.45134 0.24136
# Poissons Ratio (z) = 0.42222 0.26907
#
# Static dielectric constant tensor:
#      x y z
#    x 3.437510 0.000000 0.000000 
#    y 0.000000 3.303920 0.000000 
#    z 0.000000 0.000000 3.033560 
# 
# 
# High freq. dielectric constant tensor:
#      x y z
#    x 1.708260 0.000000 0.000000 
#    y 0.000000 1.688910 0.000000 
#    z 0.000000 0.000000 1.649800 
# 
# From -- ./inp_files/31143.got.cif
#   From: 2010.03.12/outbox.cif.g09.slc.cpg/sg53_16_cif.got.tgz:31143.got - 2010.04.16 14:36:59.
