data_PCOD8218125
_publ_section_title
;
Structure prediction by ZEFSAII (Michael W. Deem and Ramdas Pophale) SiO2 
 PCOD8218125
Probable space group: P M N A
;
_chemical_formula_sum "Si O2"
_cell_formula_units_Z 56
_cell_length_a 14.806999
_cell_length_b 9.076070
_cell_length_c 21.941799
_cell_angle_alpha 90.000000
_cell_angle_beta 90.000000
_cell_angle_gamma 90.000000
_cell_volume 2948.744312
_symmetry_space_group_name_H-M "P M N A"
_symmetry_group_IT_number 53
_symmetry_cell_setting 'orthorhombic'
loop_
_space_group_symop_operation_xyz
x,y,z
1/2-x,-y,1/2+z
x,-y,-z
1/2-x,y,1/2-z
-x,-y,-z
1/2+x,y,1/2-z
-x,y,z
1/2+x,-y,1/2+z
loop_
_atom_site_type_symbol
_atom_site_label
_atom_site_fract_x
_atom_site_fract_y
_atom_site_fract_z
Si Si1 0.602877 0.817326 0.655192
Si Si2 0.179583 0.695765 0.381844
Si Si3 0.731774 0.634303 0.885506
Si Si4 0.401105 0.657567 0.244005
Si Si5 0.704163 0.907148 0.309680
Si Si6 0.899337 0.661099 0.723281
Si Si7 0.400187 0.672405 0.991880
O O1 0.500000 0.805216 0.629274
O O2 0.668367 0.707743 0.616923
O O3 0.604221 0.788387 0.727224
O O4 0.637240 0.985940 0.653525
O O5 0.238605 0.544180 0.390640
O O6 0.106821 0.664254 0.329284
O O7 0.232210 0.843332 0.362546
O O8 0.130547 0.741937 0.444047
O O9 0.677854 0.688223 0.825958
O O10 0.676120 0.705559 0.941495
O O11 0.500000 0.708169 0.263086
O O12 0.336041 0.758552 0.281874
O O13 0.380825 0.488581 0.261762
O O14 0.750000 0.985958 0.250000
O O15 0.000000 0.653465 0.692865
O O16 0.500000 0.735899 0.973984
O O17 0.409949 0.500000 0.000000
#
# Coordination Sequence:
#
# PCOD8218125 Si02
#       7
#     8   8   8   8   8   8   8
#     4  11  22  34  49  69  97 134 174 212 250 292
#     4   9  18  31  51  76 102 131 162 199 248 297
#     4  10  18  32  53  76 104 132 163 203 247 296
#     4   9  16  28  48  75 105 131 160 198 242 298
#     4  10  19  31  48  70  98 134 169 206 249 291
#     4   9  17  29  49  78 106 132 161 198 248 302
#     4   9  17  31  55  84 107 128 158 198 246 300
#
# _framework density 18.991135
#
# number of rings (size 3 to 8) (size 9 to 14) (size 15 to 20)
#    0.000    2.429    0.000    3.429    0.000    5.714 
#    0.000    1.429    0.000    9.857    0.000    0.000 
#    0.000    0.000    0.000    0.000    0.000    0.000 
#
# Total GULP energy -693886.551040 kJ/mol
# GULP energy per Si atom -12390.831269 kJ/mol
# Density = 1.894791 g / cm^3
# Si number density = 18.991135 Si / 1000 Ang^3
#
#
#
# Elastic Constant Matrix: (Units=GPa)
#
#
# Indices 1 2 3 4 5 6 
#
# 1 123.3999 33.7681 32.5284 0.0000 0.0000 0.0000
# 2 33.7681 58.2822 11.7696 0.0000 0.0000 0.0000
# 3 32.5284 11.7696 57.2355 0.0000 0.0000 0.0000
# 4 0.0000 0.0000 0.0000 14.3007 0.0000 0.0000
# 5 0.0000 0.0000 0.0000 0.0000 23.4836 0.0000
# 6 0.0000 0.0000 0.0000 0.0000 0.0000 16.5606
#
#
#
# Elastic Compliance Matrix: (Units=1/GPa)
#
#
# Indices 1 2 3 4 5 6 
#
# 1 0.010895 -0.005281 -0.005106 0.000000 0.000000 0.000000
# 2 -0.005281 0.020461 -0.001206 0.000000 0.000000 0.000000
# 3 -0.005106 -0.001206 0.020621 0.000000 0.000000 0.000000
# 4 0.000000 0.000000 0.000000 0.069927 0.000000 0.000000
# 5 0.000000 0.000000 0.000000 0.000000 0.042583 0.000000
# 6 0.000000 0.000000 0.000000 0.000000 0.000000 0.060384
#
#
# Mechanical properties :
#
#
# Convention : Reuss Voigt Hill
#
# Bulk Modulus (GPa) = 34.73266 43.89443 39.31354
# Shear Modulus (GPa) = 19.40582 21.59244 20.49913
#
# Velocity S-wave (km/s) = 3.20008 3.37556 3.28899
# Velocity P-wave (km/s) = 5.65532 6.19321 5.93037
#
# Compressibility (1/GPa) = 0.02879135
#
# Stress axis : x y z
#
# Youngs Moduli (GPa) = 91.78654 48.87254 48.49320
#
# Poissons Ratio (x) = 0.25811 0.24760
# Poissons Ratio (y) = 0.48475 0.05849
# Poissons Ratio (z) = 0.46864 0.05894
#
# Static dielectric constant tensor:
#      x y z
#    x 3.661680 0.000000 0.000000 
#    y 0.000000 3.269480 0.000000 
#    z 0.000000 0.000000 3.343180 
# 
# 
# High freq. dielectric constant tensor:
#      x y z
#    x 1.740580 0.000000 0.000000 
#    y 0.000000 1.721870 0.000000 
#    z 0.000000 0.000000 1.708240 
# 
# From -- ./inp_files/32450.got.cif
#   From: 2010.03.12/outbox.cif.g09.slc.cpg/sg53_17_cif.got.tgz:32450.got - 2010.04.16 14:36:59.
