data_PCOD8218179
_publ_section_title
;
Structure prediction by ZEFSAII (Michael W. Deem and Ramdas Pophale) SiO2 
 PCOD8218179
Probable space group: P M N A
;
_chemical_formula_sum "Si O2"
_cell_formula_units_Z 64
_cell_length_a 14.660934
_cell_length_b 11.797691
_cell_length_c 18.570527
_cell_angle_alpha 90.000000
_cell_angle_beta 90.000000
_cell_angle_gamma 90.000000
_cell_volume 3212.054343
_symmetry_space_group_name_H-M "P M N A"
_symmetry_group_IT_number 53
_symmetry_cell_setting 'orthorhombic'
loop_
_space_group_symop_operation_xyz
x,y,z
1/2-x,-y,1/2+z
x,-y,-z
1/2-x,y,1/2-z
-x,-y,-z
1/2+x,y,1/2-z
-x,y,z
1/2+x,-y,1/2+z
loop_
_atom_site_type_symbol
_atom_site_label
_atom_site_fract_x
_atom_site_fract_y
_atom_site_fract_z
Si Si1 0.392299 0.836927 0.704441
Si Si2 0.672539 0.242865 0.802089
Si Si3 0.893406 0.494337 0.894478
Si Si4 0.192760 0.247593 0.916648
Si Si5 0.600784 0.476800 0.766928
Si Si6 0.710318 0.713342 0.575872
Si Si7 0.105226 0.297489 0.347749
Si Si8 0.399174 0.911802 0.302823
O O1 0.500000 0.824869 0.691253
O O2 0.342944 0.773792 0.639403
O O3 0.367361 0.781657 0.781029
O O4 0.353108 0.965047 0.707950
O O5 0.750000 0.189005 0.750000
O O6 0.702550 0.240141 0.885627
O O7 0.666839 0.373616 0.781209
O O8 0.592849 0.160118 0.773443
O O9 0.853372 0.369207 0.903592
O O10 0.884212 0.531016 0.811297
O O11 0.831938 0.586681 0.936868
O O12 0.000000 0.498116 0.919475
O O13 0.138545 0.154419 0.872015
O O14 0.195362 0.219191 0.001070
O O15 0.500000 0.425025 0.773123
O O16 0.616483 0.572312 0.825638
O O17 0.819760 0.716707 0.589448
O O18 0.000000 0.273810 0.373629
O O19 0.500000 0.941531 0.326454
#
# Coordination Sequence:
#
# PCOD8218179 Si02
#       8
#     8   8   8   8   8   8   8   8
#     4  10  22  39  61  88 112 145 194 242 290 341
#     4  10  19  33  56  79 109 147 190 232 273 329
#     4  11  21  35  57  88 122 152 189 235 287 346
#     4  11  24  36  53  86 120 154 191 228 281 348
#     4  10  18  32  57  85 107 140 189 238 281 325
#     4  12  24  37  58  85 120 158 187 227 290 347
#     4  10  22  39  60  85 113 147 196 244 281 331
#     4  10  21  39  61  84 112 145 189 244 292 337
#
# _framework density 19.924942000000001
#
# number of rings (size 3 to 8) (size 9 to 14) (size 15 to 20)
#    0.000    1.500    3.750    2.625    0.000    6.000 
#    0.000    2.500    0.000    3.000    0.000    4.375 
#    0.000    0.000    0.000    0.000    0.000    0.000 
#
# Total GULP energy -792886.702058 kJ/mol
# GULP energy per Si atom -12388.854720 kJ/mol
# Density = 1.987959 g / cm^3
# Si number density = 19.924942 Si / 1000 Ang^3
#
#
#
# Elastic Constant Matrix: (Units=GPa)
#
#
# Indices 1 2 3 4 5 6 
#
# 1 79.3202 24.7964 41.6463 0.0000 0.0000 0.0000
# 2 24.7964 102.2167 17.3726 0.0000 0.0000 0.0000
# 3 41.6463 17.3726 67.3609 0.0000 0.0000 0.0000
# 4 0.0000 0.0000 0.0000 7.6113 0.0000 0.0000
# 5 0.0000 0.0000 0.0000 0.0000 15.2980 0.0000
# 6 0.0000 0.0000 0.0000 0.0000 0.0000 16.2908
#
#
#
# Elastic Compliance Matrix: (Units=1/GPa)
#
#
# Indices 1 2 3 4 5 6 
#
# 1 0.019398 -0.002790 -0.011274 0.000000 0.000000 0.000000
# 2 -0.002790 0.010633 -0.001017 0.000000 0.000000 0.000000
# 3 -0.011274 -0.001017 0.022078 0.000000 0.000000 0.000000
# 4 0.000000 0.000000 0.000000 0.131384 0.000000 0.000000
# 5 0.000000 0.000000 0.000000 0.000000 0.065368 0.000000
# 6 0.000000 0.000000 0.000000 0.000000 0.000000 0.061384
#
#
# Mechanical properties :
#
#
# Convention : Reuss Voigt Hill
#
# Bulk Modulus (GPa) = 45.56378 46.28093 45.92235
# Shear Modulus (GPa) = 14.37929 18.84553 16.61241
#
# Velocity S-wave (km/s) = 2.68931 3.07877 2.89060
# Velocity P-wave (km/s) = 5.70619 5.99303 5.85137
#
# Compressibility (1/GPa) = 0.02194726
#
# Stress axis : x y z
#
# Youngs Moduli (GPa) = 51.55064 94.04850 45.29420
#
# Poissons Ratio (x) = 0.26237 0.51063
# Poissons Ratio (y) = 0.14381 0.04609
# Poissons Ratio (z) = 0.58117 0.09569
#
# Static dielectric constant tensor:
#      x y z
#    x 3.929890 0.000000 0.000000 
#    y 0.000000 3.666340 0.000000 
#    z 0.000000 0.000000 3.554380 
# 
# 
# High freq. dielectric constant tensor:
#      x y z
#    x 1.782020 0.000000 0.000000 
#    y 0.000000 1.778570 0.000000 
#    z 0.000000 0.000000 1.752570 
# 
# From -- ./inp_files/28561.got.cif
#   From: 2010.03.12/outbox.cif.g09.slc.cpg/sg53_15_cif.got.tgz:28561.got - 2010.04.16 14:36:59.
