data_PCOD8218344
_publ_section_title
;
Structure prediction by ZEFSAII (Michael W. Deem and Ramdas Pophale) SiO2 
 PCOD8218344
Probable space group: P M N A
;
_chemical_formula_sum "Si O2"
_cell_formula_units_Z 64
_cell_length_a 9.134320
_cell_length_b 16.937797
_cell_length_c 22.902153
_cell_angle_alpha 90.000000
_cell_angle_beta 90.000000
_cell_angle_gamma 90.000000
_cell_volume 3543.312508
_symmetry_space_group_name_H-M "P M N A"
_symmetry_group_IT_number 53
_symmetry_cell_setting 'orthorhombic'
loop_
_space_group_symop_operation_xyz
x,y,z
1/2-x,-y,1/2+z
x,-y,-z
1/2-x,y,1/2-z
-x,-y,-z
1/2+x,y,1/2-z
-x,y,z
1/2+x,-y,1/2+z
loop_
_atom_site_type_symbol
_atom_site_label
_atom_site_fract_x
_atom_site_fract_y
_atom_site_fract_z
Si Si1 0.328828 0.732727 0.191089
Si Si2 0.830472 0.090173 0.498036
Si Si3 0.835584 0.715740 0.807593
Si Si4 0.668811 0.786436 0.420999
Si Si5 0.333482 0.684071 0.525391
Si Si6 0.169439 0.549156 0.308508
Si Si7 0.833271 0.198794 0.396972
Si Si8 0.162171 0.562387 0.887885
O O1 0.250000 0.761336 0.250000
O O2 0.500000 0.751009 0.196239
O O3 0.261976 0.781457 0.137776
O O4 0.297801 0.640557 0.180554
O O5 0.728572 0.141017 0.540771
O O6 0.809956 0.115783 0.430179
O O7 0.000000 0.100712 0.517148
O O8 0.779313 0.000000 0.500000
O O9 0.750000 0.692415 0.750000
O O10 0.765242 0.792794 0.838945
O O11 0.824624 0.641518 0.850078
O O12 0.000000 0.737547 0.790638
O O13 0.500000 0.803022 0.405291
O O14 0.682749 0.702724 0.456378
O O15 0.500000 0.708349 0.545353
O O16 0.209644 0.734930 0.556381
O O17 0.308519 0.591889 0.544751
O O18 0.250000 0.518796 0.250000
O O19 0.223615 0.502535 0.365857
O O20 0.000000 0.531329 0.299195
O O21 0.000000 0.211653 0.377854
O O22 0.000000 0.525224 0.882264
#
# Coordination Sequence:
#
# PCOD8218344 Si02
#       8
#     8   8   8   8   8   8   8   8
#     4  10  21  37  55  75  99 129 167 209 254 301
#     4   9  18  33  54  80 107 132 157 190 235 286
#     4  10  19  29  42  63  92 127 166 203 240 284
#     4  10  19  33  55  80 104 131 165 204 246 294
#     4   8  16  30  46  67  96 129 163 199 241 289
#     4  10  20  32  47  67  92 125 166 213 260 303
#     4   9  16  27  45  68  94 125 159 193 231 275
#     4   9  17  29  45  65  92 126 164 207 250 291
#
# _framework density 18.062194999999999
#
# number of rings (size 3 to 8) (size 9 to 14) (size 15 to 20)
#    0.000    2.625    0.000    3.000    0.000    6.250 
#    0.000    0.625    0.000    4.500    0.000    3.500 
#    0.000    0.000    0.000    0.000    0.000    0.000 
#
# Total GULP energy -793218.569672 kJ/mol
# GULP energy per Si atom -12394.040151 kJ/mol
# Density = 1.802108 g / cm^3
# Si number density = 18.062195 Si / 1000 Ang^3
#
#
#
# Elastic Constant Matrix: (Units=GPa)
#
#
# Indices 1 2 3 4 5 6 
#
# 1 105.2073 30.0653 39.2929 0.0000 0.0000 0.0000
# 2 30.0653 47.3461 21.6089 0.0000 0.0000 0.0000
# 3 39.2929 21.6089 75.4220 0.0000 0.0000 0.0000
# 4 0.0000 0.0000 0.0000 21.3666 0.0000 0.0000
# 5 0.0000 0.0000 0.0000 0.0000 29.6082 0.0000
# 6 0.0000 0.0000 0.0000 0.0000 0.0000 20.6968
#
#
#
# Elastic Compliance Matrix: (Units=1/GPa)
#
#
# Indices 1 2 3 4 5 6 
#
# 1 0.013133 -0.006002 -0.005123 0.000000 0.000000 0.000000
# 2 -0.006002 0.027041 -0.004621 0.000000 0.000000 0.000000
# 3 -0.005123 -0.004621 0.017251 0.000000 0.000000 0.000000
# 4 0.000000 0.000000 0.000000 0.046802 0.000000 0.000000
# 5 0.000000 0.000000 0.000000 0.000000 0.033774 0.000000
# 6 0.000000 0.000000 0.000000 0.000000 0.000000 0.048317
#
#
# Mechanical properties :
#
#
# Convention : Reuss Voigt Hill
#
# Bulk Modulus (GPa) = 38.55694 45.54551 42.05123
# Shear Modulus (GPa) = 22.07950 23.46821 22.77386
#
# Velocity S-wave (km/s) = 3.50010 3.60849 3.55471
# Velocity P-wave (km/s) = 6.14226 6.52934 6.33876
#
# Compressibility (1/GPa) = 0.02593567
#
# Stress axis : x y z
#
# Youngs Moduli (GPa) = 76.14175 36.98064 57.96661
#
# Poissons Ratio (x) = 0.22195 0.29694
# Poissons Ratio (y) = 0.45699 0.26784
# Poissons Ratio (z) = 0.39004 0.17087
#
# Static dielectric constant tensor:
#      x y z
#    x 3.438400 0.000000 0.000000 
#    y 0.000000 3.057850 0.000000 
#    z 0.000000 0.000000 3.433920 
# 
# 
# High freq. dielectric constant tensor:
#      x y z
#    x 1.711870 0.000000 0.000000 
#    y 0.000000 1.659330 0.000000 
#    z 0.000000 0.000000 1.693660 
# 
# From -- ./inp_files/31233.got.cif
#   From: 2010.03.12/outbox.cif.g09.slc.cpg/sg53_16_cif.got.tgz:31233.got - 2010.04.16 14:36:59.
