data_PCOD8218927
_publ_section_title
;
Structure prediction by ZEFSAII (Michael W. Deem and Ramdas Pophale) SiO2 
 PCOD8218927
Probable space group: P M N A
;
_chemical_formula_sum "Si O2"
_cell_formula_units_Z 56
_cell_length_a 8.979698
_cell_length_b 20.842040
_cell_length_c 15.466802
_cell_angle_alpha 90.000000
_cell_angle_beta 90.000000
_cell_angle_gamma 90.000000
_cell_volume 2894.692807
_symmetry_space_group_name_H-M "P M N A"
_symmetry_group_IT_number 53
_symmetry_cell_setting 'orthorhombic'
loop_
_space_group_symop_operation_xyz
x,y,z
1/2-x,-y,1/2+z
x,-y,-z
1/2-x,y,1/2-z
-x,-y,-z
1/2+x,y,1/2-z
-x,y,z
1/2+x,-y,1/2+z
loop_
_atom_site_type_symbol
_atom_site_label
_atom_site_fract_x
_atom_site_fract_y
_atom_site_fract_z
Si Si1 0.333115 0.035128 0.908782
Si Si2 0.171695 0.372569 0.836729
Si Si3 0.825662 0.079749 0.165876
Si Si4 0.171915 0.487799 0.098663
Si Si5 0.177066 0.361185 0.340150
Si Si6 0.175011 0.293726 0.001318
Si Si7 0.327515 0.146129 0.510356
O O1 0.500000 0.041458 0.872111
O O2 0.235155 0.992754 0.843923
O O3 0.264037 0.106165 0.918365
O O4 0.331233 0.000000 0.000000
O O5 0.250000 0.347589 0.750000
O O6 0.199476 0.448109 0.846984
O O7 0.000000 0.355558 0.826932
O O8 0.233977 0.335924 0.920960
O O9 0.750000 0.111353 0.250000
O O10 0.780774 0.124588 0.085772
O O11 0.000000 0.076470 0.179972
O O12 0.276611 0.433923 0.138836
O O13 0.000000 0.465130 0.103612
O O14 0.217858 0.500000 0.000000
O O15 0.250000 0.339298 0.250000
O O16 0.234459 0.313353 0.413929
O O17 0.000000 0.357066 0.332797
O O18 0.210216 0.220446 0.978390
O O19 0.000000 0.305420 0.018767
O O20 0.500000 0.131074 0.526044
#
# Coordination Sequence:
#
# PCOD8218927 Si02
#       7
#     8   8   8   8   8   8   8
#     4   9  17  31  52  77 105 137 173 215 262 316
#     4  10  21  37  60  84 111 146 186 235 287 344
#     4  10  19  32  52  81 111 140 178 226 277 331
#     4  10  19  37  62  86 113 147 185 234 296 350
#     4  12  25  39  58  85 117 153 193 240 291 349
#     4  10  21  41  61  81 113 156 198 238 289 343
#     4   9  19  35  57  79 106 146 187 227 275 334
#
# _framework density 19.345749000000001
#
# number of rings (size 3 to 8) (size 9 to 14) (size 15 to 20)
#    0.000    2.000    1.429    2.571    0.000    6.000 
#    0.000    2.143    0.000    1.714    0.000    0.000 
#    0.000    0.000    0.000    0.000    0.000    0.000 
#
# Total GULP energy -694545.500256 kJ/mol
# GULP energy per Si atom -12402.598219 kJ/mol
# Density = 1.930172 g / cm^3
# Si number density = 19.345749 Si / 1000 Ang^3
#
#
#
# Elastic Constant Matrix: (Units=GPa)
#
#
# Indices 1 2 3 4 5 6 
#
# 1 80.9554 21.5318 28.7794 0.0000 0.0000 0.0000
# 2 21.5318 72.2505 3.9638 0.0000 0.0000 0.0000
# 3 28.7794 3.9638 79.8249 0.0000 0.0000 0.0000
# 4 0.0000 0.0000 0.0000 15.2949 0.0000 0.0000
# 5 0.0000 0.0000 0.0000 0.0000 34.5030 0.0000
# 6 0.0000 0.0000 0.0000 0.0000 0.0000 23.3947
#
#
#
# Elastic Compliance Matrix: (Units=1/GPa)
#
#
# Indices 1 2 3 4 5 6 
#
# 1 0.015392 -0.004294 -0.005336 0.000000 0.000000 0.000000
# 2 -0.004294 0.015077 0.000800 0.000000 0.000000 0.000000
# 3 -0.005336 0.000800 0.014411 0.000000 0.000000 0.000000
# 4 0.000000 0.000000 0.000000 0.065381 0.000000 0.000000
# 5 0.000000 0.000000 0.000000 0.000000 0.028983 0.000000
# 6 0.000000 0.000000 0.000000 0.000000 0.000000 0.042745
#
#
# Mechanical properties :
#
#
# Convention : Reuss Voigt Hill
#
# Bulk Modulus (GPa) = 36.73967 37.95342 37.34655
# Shear Modulus (GPa) = 23.95524 26.55557 25.25540
#
# Velocity S-wave (km/s) = 3.52272 3.70899 3.61706
# Velocity P-wave (km/s) = 5.96476 6.16468 6.06554
#
# Compressibility (1/GPa) = 0.02721853
#
# Stress axis : x y z
#
# Youngs Moduli (GPa) = 64.97091 66.32788 69.38911
#
# Poissons Ratio (x) = 0.28482 0.37025
# Poissons Ratio (y) = 0.27900 -0.05548
# Poissons Ratio (z) = 0.34668 -0.05303
#
# Static dielectric constant tensor:
#      x y z
#    x 3.494020 0.000000 0.000000 
#    y 0.000000 3.469790 0.000000 
#    z 0.000000 0.000000 3.584010 
# 
# 
# High freq. dielectric constant tensor:
#      x y z
#    x 1.748470 0.000000 0.000000 
#    y 0.000000 1.745220 0.000000 
#    z 0.000000 0.000000 1.751790 
# 
# From -- ./inp_files/20542.got.cif
#   From: 2010.03.12/outbox.cif.g09.slc.cpg/sg53_11_cif.got.tgz:20542.got - 2010.04.16 14:36:59.
