data_PCOD8218038
_publ_section_title
;
Structure prediction by ZEFSAII (Michael W. Deem and Ramdas Pophale) SiO2 
 PCOD8218038
Probable space group: P M N A
;
_chemical_formula_sum "Si O2"
_cell_formula_units_Z 56
_cell_length_a 8.722488
_cell_length_b 21.483015
_cell_length_c 15.260700
_cell_angle_alpha 90.000000
_cell_angle_beta 90.000000
_cell_angle_gamma 90.000000
_cell_volume 2859.631466
_symmetry_space_group_name_H-M "P M N A"
_symmetry_group_IT_number 53
_symmetry_cell_setting 'orthorhombic'
loop_
_space_group_symop_operation_xyz
x,y,z
1/2-x,-y,1/2+z
x,-y,-z
1/2-x,y,1/2-z
-x,-y,-z
1/2+x,y,1/2-z
-x,y,z
1/2+x,-y,1/2+z
loop_
_atom_site_type_symbol
_atom_site_label
_atom_site_fract_x
_atom_site_fract_y
_atom_site_fract_z
Si Si1 0.682942 0.383988 0.153405
Si Si2 0.327827 0.032988 0.406717
Si Si3 0.183069 0.489982 0.846641
Si Si4 0.181290 0.285367 0.489092
Si Si5 0.179572 0.917493 0.336933
Si Si6 0.818117 0.146112 0.485846
Si Si7 0.317934 0.636921 0.154113
O O1 0.750000 0.371442 0.250000
O O2 0.500000 0.389111 0.159097
O O3 0.751329 0.447190 0.109170
O O4 0.739988 0.328772 0.089923
O O5 0.500000 0.039583 0.371297
O O6 0.253470 0.101674 0.411437
O O7 0.322054 0.000000 0.500000
O O8 0.232797 0.989416 0.341268
O O9 0.250000 0.491317 0.750000
O O10 0.248682 0.426553 0.888223
O O11 0.000000 0.489982 0.848803
O O12 0.246226 0.215960 0.473806
O O13 0.231477 0.309760 0.585260
O O14 0.000000 0.283654 0.486684
O O15 0.250000 0.886396 0.250000
O O16 0.237867 0.877441 0.419172
O O17 0.000000 0.915439 0.330062
O O18 0.000000 0.142670 0.477473
O O19 0.250000 0.652601 0.250000
O O20 0.500000 0.630034 0.162996
#
# Coordination Sequence:
#
# PCOD8218038 Si02
#       7
#     8   8   8   8   8   8   8
#     4  10  19  35  56  77 100 131 172 220 269 317
#     4   9  17  31  51  74  99 127 162 204 247 290
#     4  10  18  31  51  76 103 133 169 216 271 319
#     4   9  20  36  55  76 104 144 183 213 255 320
#     4  10  19  31  52  79 106 134 168 210 254 302
#     4   9  18  35  54  73 100 138 176 207 249 307
#     4  10  19  34  53  76 105 139 177 217 262 314
#
# _framework density 19.582941999999999
#
# number of rings (size 3 to 8) (size 9 to 14) (size 15 to 20)
#    0.000    2.429    0.000    4.714    0.000    3.429 
#    0.000    9.286    0.000    1.714    0.000    0.000 
#    0.000    0.000    0.000    0.000    0.000    0.000 
#
# Total GULP energy -694125.661971 kJ/mol
# GULP energy per Si atom -12395.101107 kJ/mol
# Density = 1.953837 g / cm^3
# Si number density = 19.582942 Si / 1000 Ang^3
#
#
#
# Elastic Constant Matrix: (Units=GPa)
#
#
# Indices 1 2 3 4 5 6 
#
# 1 78.0471 22.3624 10.4263 0.0000 0.0000 0.0000
# 2 22.3624 130.4027 14.0915 0.0000 0.0000 0.0000
# 3 10.4263 14.0915 43.9986 0.0000 0.0000 0.0000
# 4 0.0000 0.0000 0.0000 26.1072 0.0000 0.0000
# 5 0.0000 0.0000 0.0000 0.0000 25.4290 0.0000
# 6 0.0000 0.0000 0.0000 0.0000 0.0000 23.2641
#
#
#
# Elastic Compliance Matrix: (Units=1/GPa)
#
#
# Indices 1 2 3 4 5 6 
#
# 1 0.013755 -0.002078 -0.002594 0.000000 0.000000 0.000000
# 2 -0.002078 0.008258 -0.002152 0.000000 0.000000 0.000000
# 3 -0.002594 -0.002152 0.024032 0.000000 0.000000 0.000000
# 4 0.000000 0.000000 0.000000 0.038304 0.000000 0.000000
# 5 0.000000 0.000000 0.000000 0.000000 0.039325 0.000000
# 6 0.000000 0.000000 0.000000 0.000000 0.000000 0.042985
#
#
# Mechanical properties :
#
#
# Convention : Reuss Voigt Hill
#
# Bulk Modulus (GPa) = 30.86848 38.46763 34.66806
# Shear Modulus (GPa) = 26.16363 28.66462 27.41413
#
# Velocity S-wave (km/s) = 3.65916 3.83006 3.74558
# Velocity P-wave (km/s) = 5.80084 6.26460 6.03717
#
# Compressibility (1/GPa) = 0.03239551
#
# Stress axis : x y z
#
# Youngs Moduli (GPa) = 72.70184 121.10132 41.61131
#
# Poissons Ratio (x) = 0.25171 0.10793
# Poissons Ratio (y) = 0.15111 0.08955
# Poissons Ratio (z) = 0.18857 0.26063
#
# Static dielectric constant tensor:
#      x y z
#    x 3.476940 0.000000 0.000000 
#    y 0.000000 4.148890 0.000000 
#    z 0.000000 0.000000 3.513980 
# 
# 
# High freq. dielectric constant tensor:
#      x y z
#    x 1.757410 0.000000 0.000000 
#    y 0.000000 1.764070 0.000000 
#    z 0.000000 0.000000 1.745330 
# 
# From -- ./inp_files/20441.got.cif
#   From: 2010.03.12/outbox.cif.g09.slc.cpg/sg53_11_cif.got.tgz:20441.got - 2010.04.16 14:36:59.
