data_PCOD8218315
_publ_section_title
;
Structure prediction by ZEFSAII (Michael W. Deem and Ramdas Pophale) SiO2 
 PCOD8218315
Probable space group: P M N A
;
_chemical_formula_sum "Si O2"
_cell_formula_units_Z 64
_cell_length_a 35.006680
_cell_length_b 18.584669
_cell_length_c 5.158759
_cell_angle_alpha 90.000000
_cell_angle_beta 90.000000
_cell_angle_gamma 90.000000
_cell_volume 3356.224433
_symmetry_space_group_name_H-M "P M N A"
_symmetry_group_IT_number 53
_symmetry_cell_setting 'orthorhombic'
loop_
_space_group_symop_operation_xyz
x,y,z
1/2-x,-y,1/2+z
x,-y,-z
1/2-x,y,1/2-z
-x,-y,-z
1/2+x,y,1/2-z
-x,y,z
1/2+x,-y,1/2+z
loop_
_atom_site_type_symbol
_atom_site_label
_atom_site_fract_x
_atom_site_fract_y
_atom_site_fract_z
Si Si1 0.155949 0.423974 0.443287
Si Si2 0.859544 0.794069 0.478185
Si Si3 0.768365 0.644430 0.499663
Si Si4 0.730236 0.190258 0.999473
Si Si5 0.419363 0.081682 0.973100
Si Si6 0.108409 0.576903 0.056307
Si Si7 0.102689 0.733647 0.975433
Si Si8 0.455724 0.140825 0.470472
O O1 0.176885 0.500000 0.500000
O O2 0.185701 0.360370 0.499189
O O3 0.120476 0.419122 0.642876
O O4 0.143989 0.421968 0.142738
O O5 0.815479 0.816645 0.497205
O O6 0.882138 0.868964 0.495042
O O7 0.868848 0.752740 0.211567
O O8 0.872528 0.742139 0.713345
O O9 0.750000 0.605925 0.750000
O O10 0.756662 0.727283 0.499129
O O11 0.750000 0.606033 0.250000
O O12 0.750000 0.152660 0.750000
O O13 0.750000 0.153036 0.250000
O O14 0.449209 0.100867 0.199259
O O15 0.440424 0.090553 0.699620
O O16 0.405435 0.000000 0.000000
O O17 0.086213 0.651638 0.997455
O O18 0.086229 0.500000 0.000000
O O19 0.065355 0.782618 0.975912
O O20 0.500000 0.156781 0.510017
#
# Coordination Sequence:
#
# PCOD8218315 Si02
#       8
#     8   8   8   8   8   8   8   8
#     4  10  20  31  43  61  86 118 157 202 252 303
#     4  10  20  34  53  75 101 134 172 212 254 304
#     4  10  19  28  40  58  81 113 152 194 245 303
#     4  10  19  30  46  68  93 123 164 214 258 295
#     4  10  21  36  56  82 110 142 172 200 242 295
#     4  10  19  31  48  68  90 120 163 211 251 290
#     4  10  19  33  53  74 101 136 171 210 254 301
#     4  10  21  35  54  83 113 141 170 200 242 295
#
# _framework density 19.069046
#
# number of rings (size 3 to 8) (size 9 to 14) (size 15 to 20)
#    0.000    2.000    0.000    4.500    0.000    4.000 
#    0.000    0.000    0.000    1.125    0.000    0.000 
#    0.000    9.000    0.000    0.000    0.000    1.500 
#
# Total GULP energy -793277.547559 kJ/mol
# GULP energy per Si atom -12394.961681 kJ/mol
# Density = 1.902564 g / cm^3
# Si number density = 19.069046 Si / 1000 Ang^3
#
#
#
# Elastic Constant Matrix: (Units=GPa)
#
#
# Indices 1 2 3 4 5 6 
#
# 1 73.1235 14.5443 21.0707 0.0000 0.0000 0.0000
# 2 14.5443 96.8908 16.1715 0.0000 0.0000 0.0000
# 3 21.0707 16.1715 124.6411 0.0000 0.0000 0.0000
# 4 0.0000 0.0000 0.0000 16.0333 0.0000 0.0000
# 5 0.0000 0.0000 0.0000 0.0000 18.8113 0.0000
# 6 0.0000 0.0000 0.0000 0.0000 0.0000 11.2928
#
#
#
# Elastic Compliance Matrix: (Units=1/GPa)
#
#
# Indices 1 2 3 4 5 6 
#
# 1 0.014686 -0.001830 -0.002245 0.000000 0.000000 0.000000
# 2 -0.001830 0.010777 -0.001089 0.000000 0.000000 0.000000
# 3 -0.002245 -0.001089 0.008544 0.000000 0.000000 0.000000
# 4 0.000000 0.000000 0.000000 0.062370 0.000000 0.000000
# 5 0.000000 0.000000 0.000000 0.000000 0.053160 0.000000
# 6 0.000000 0.000000 0.000000 0.000000 0.000000 0.088552
#
#
# Mechanical properties :
#
#
# Convention : Reuss Voigt Hill
#
# Bulk Modulus (GPa) = 42.23081 44.24760 43.23920
# Shear Modulus (GPa) = 19.50755 25.41873 22.46314
#
# Velocity S-wave (km/s) = 3.20190 3.65497 3.43591
# Velocity P-wave (km/s) = 5.98865 6.40827 6.20201
#
# Compressibility (1/GPa) = 0.02367940
#
# Stress axis : x y z
#
# Youngs Moduli (GPa) = 68.08993 92.78737 117.04255
#
# Poissons Ratio (x) = 0.16979 0.26280
# Poissons Ratio (y) = 0.12459 0.12745
# Poissons Ratio (z) = 0.15289 0.10104
#
# Static dielectric constant tensor:
#      x y z
#    x 3.027700 0.000000 0.000000 
#    y 0.000000 3.497790 0.000000 
#    z 0.000000 0.000000 4.009110 
# 
# 
# High freq. dielectric constant tensor:
#      x y z
#    x 1.697200 0.000000 0.000000 
#    y 0.000000 1.728190 0.000000 
#    z 0.000000 0.000000 1.772210 
# 
# From -- ./inp_files/5475.got.cif
#   From: 2010.03.12/outbox.cif.g09.slc.cpg/sg53_3_cif.got.tgz:5475.got - 2010.04.16 14:36:59.
