data_PCOD8218211
_publ_section_title
;
Structure prediction by ZEFSAII (Michael W. Deem and Ramdas Pophale) SiO2 
 PCOD8218211
Probable space group: P M N A
;
_chemical_formula_sum "Si O2"
_cell_formula_units_Z 64
_cell_length_a 8.724773
_cell_length_b 12.617634
_cell_length_c 29.003289
_cell_angle_alpha 90.000000
_cell_angle_beta 90.000000
_cell_angle_gamma 90.000000
_cell_volume 3192.855854
_symmetry_space_group_name_H-M "P M N A"
_symmetry_group_IT_number 53
_symmetry_cell_setting 'orthorhombic'
loop_
_space_group_symop_operation_xyz
x,y,z
1/2-x,-y,1/2+z
x,-y,-z
1/2-x,y,1/2-z
-x,-y,-z
1/2+x,y,1/2-z
-x,y,z
1/2+x,-y,1/2+z
loop_
_atom_site_type_symbol
_atom_site_label
_atom_site_fract_x
_atom_site_fract_y
_atom_site_fract_z
Si Si1 0.819662 0.613699 0.604510
Si Si2 0.320011 0.031235 0.612873
Si Si3 0.676483 0.657125 0.317029
Si Si4 0.680791 0.834634 0.936706
Si Si5 0.320293 0.441776 0.204354
Si Si6 0.818306 0.881695 0.296574
Si Si7 0.180217 0.192537 0.967031
Si Si8 0.326376 0.596282 0.420745
O O1 0.760725 0.719208 0.579680
O O2 0.752818 0.608586 0.656912
O O3 0.771728 0.510672 0.574962
O O4 0.000000 0.613051 0.607391
O O5 0.500000 0.035834 0.623171
O O6 0.273855 0.917573 0.593479
O O7 0.228890 0.046962 0.660145
O O8 0.272148 0.121831 0.576646
O O9 0.500000 0.646156 0.301591
O O10 0.775440 0.564894 0.293958
O O11 0.744315 0.766370 0.299832
O O12 0.692409 0.653343 0.371890
O O13 0.500000 0.850355 0.929621
O O14 0.722829 0.849752 0.990055
O O15 0.250000 0.385364 0.250000
O O16 0.500000 0.427371 0.206398
O O17 0.750000 0.934772 0.250000
O O18 0.000000 0.873736 0.293817
O O19 0.224989 0.315480 0.957960
O O20 0.000000 0.180163 0.977330
O O21 0.500000 0.561421 0.429466
#
# Coordination Sequence:
#
# PCOD8218211 Si02
#       8
#     8   8   8   8   8   8   8   8
#     4   9  21  39  56  79 118 157 193 241 294 349
#     4  11  23  43  65  87 119 155 196 247 299 348
#     4  10  18  33  54  82 119 156 190 233 286 345
#     4  11  24  41  60  86 117 155 202 249 297 354
#     4  10  19  33  53  80 110 149 194 240 291 344
#     4  12  24  38  59  88 121 157 195 237 290 352
#     4  10  21  39  62  90 120 152 191 244 303 356
#     4   9  18  34  58  86 118 153 191 236 288 350
#
# _framework density 20.044751000000002
#
# number of rings (size 3 to 8) (size 9 to 14) (size 15 to 20)
#    0.000    1.750    1.250    3.375    0.000    5.500 
#    0.000    3.125    0.000    1.500    0.000    0.000 
#    0.000    0.000    0.000    0.000    0.000    0.000 
#
# Total GULP energy -793699.936253 kJ/mol
# GULP energy per Si atom -12401.561504 kJ/mol
# Density = 1.999913 g / cm^3
# Si number density = 20.044751 Si / 1000 Ang^3
#
#
#
# Elastic Constant Matrix: (Units=GPa)
#
#
# Indices 1 2 3 4 5 6 
#
# 1 46.7467 14.2435 18.1036 0.0000 0.0000 0.0000
# 2 14.2435 89.9487 33.5112 0.0000 0.0000 0.0000
# 3 18.1036 33.5112 94.8308 0.0000 0.0000 0.0000
# 4 0.0000 0.0000 0.0000 37.1995 0.0000 0.0000
# 5 0.0000 0.0000 0.0000 0.0000 31.6732 0.0000
# 6 0.0000 0.0000 0.0000 0.0000 0.0000 29.5374
#
#
#
# Elastic Compliance Matrix: (Units=1/GPa)
#
#
# Indices 1 2 3 4 5 6 
#
# 1 0.023528 -0.002363 -0.003656 0.000000 0.000000 0.000000
# 2 -0.002363 0.013040 -0.004157 0.000000 0.000000 0.000000
# 3 -0.003656 -0.004157 0.012712 0.000000 0.000000 0.000000
# 4 0.000000 0.000000 0.000000 0.026882 0.000000 0.000000
# 5 0.000000 0.000000 0.000000 0.000000 0.031572 0.000000
# 6 0.000000 0.000000 0.000000 0.000000 0.000000 0.033855
#
#
# Mechanical properties :
#
#
# Convention : Reuss Voigt Hill
#
# Bulk Modulus (GPa) = 34.56998 40.36031 37.46514
# Shear Modulus (GPa) = 29.13981 30.72655 29.93318
#
# Velocity S-wave (km/s) = 3.81693 3.91947 3.86854
# Velocity P-wave (km/s) = 6.05880 6.37666 6.21976
#
# Compressibility (1/GPa) = 0.02892684
#
# Stress axis : x y z
#
# Youngs Moduli (GPa) = 42.50244 76.68451 78.66506
#
# Poissons Ratio (x) = 0.18124 0.28763
# Poissons Ratio (y) = 0.10045 0.32701
# Poissons Ratio (z) = 0.15541 0.31878
#
# Static dielectric constant tensor:
#      x y z
#    x 3.591940 0.000000 0.000000 
#    y 0.000000 3.603930 0.000000 
#    z 0.000000 0.000000 3.803560 
# 
# 
# High freq. dielectric constant tensor:
#      x y z
#    x 1.780630 0.000000 0.000000 
#    y 0.000000 1.765910 0.000000 
#    z 0.000000 0.000000 1.793880 
# 
# From -- ./inp_files/38112.got.cif
#   From: 2010.03.12/outbox.cif.g09.slc.cpg/sg53_20_cif.got.tgz:38112.got - 2010.04.16 14:36:59.
