data_PCOD8218458
_publ_section_title
;
Structure prediction by ZEFSAII (Michael W. Deem and Ramdas Pophale) SiO2 
 PCOD8218458
Probable space group: P M N A
;
_chemical_formula_sum "Si O2"
_cell_formula_units_Z 48
_cell_length_a 8.980366
_cell_length_b 12.729881
_cell_length_c 25.274489
_cell_angle_alpha 90.000000
_cell_angle_beta 90.000000
_cell_angle_gamma 90.000000
_cell_volume 2889.354068
_symmetry_space_group_name_H-M "P M N A"
_symmetry_group_IT_number 53
_symmetry_cell_setting 'orthorhombic'
loop_
_space_group_symop_operation_xyz
x,y,z
1/2-x,-y,1/2+z
x,-y,-z
1/2-x,y,1/2-z
-x,-y,-z
1/2+x,y,1/2-z
-x,y,z
1/2+x,-y,1/2+z
loop_
_atom_site_type_symbol
_atom_site_label
_atom_site_fract_x
_atom_site_fract_y
_atom_site_fract_z
Si Si1 0.326530 0.722090 0.806185
Si Si2 0.675341 0.890600 0.388698
Si Si3 0.176440 0.711885 0.192830
Si Si4 0.675860 0.887400 0.892151
Si Si5 0.336175 0.124437 0.496472
Si Si6 0.825685 0.490326 0.693435
O O1 0.250000 0.739560 0.750000
O O2 0.500000 0.737928 0.795788
O O3 0.265351 0.806438 0.847942
O O4 0.297212 0.605718 0.831419
O O5 0.500000 0.914641 0.389282
O O6 0.721390 0.810681 0.342909
O O7 0.721708 0.838953 0.445495
O O8 0.758388 0.999497 0.378013
O O9 0.250000 0.729688 0.250000
O O10 0.243726 0.606966 0.163998
O O11 0.000000 0.700392 0.198460
O O12 0.500000 0.895502 0.892490
O O13 0.726075 0.842685 0.949363
O O14 0.500000 0.171648 0.484404
O O15 0.346351 0.000000 0.500000
O O16 0.750000 0.493295 0.750000
O O17 0.000000 0.465186 0.698090
#
# Coordination Sequence:
#
# PCOD8218458 Si02
#       6
#     8   8   8   8   8   8
#     4   9  19  32  46  67  94 121 149 184 223 265
#     4   9  19  33  47  65  92 123 151 182 221 266
#     4  10  19  31  47  68  93 119 149 185 224 265
#     4  10  19  30  46  70  95 117 147 187 226 264
#     4   8  15  30  48  64  85 117 154 186 219 261
#     4   9  16  29  47  65  87 116 151 186 220 260
#
# _framework density 16.61271
#
# number of rings (size 3 to 8) (size 9 to 14) (size 15 to 20)
#    0.000    2.833    0.000    3.500    0.000    7.000 
#    0.000    3.333    0.000    1.000    0.000    7.000 
#    0.000    0.000    0.000    0.000    0.000    0.000 
#
# Total GULP energy -594758.134900 kJ/mol
# GULP energy per Si atom -12390.794477 kJ/mol
# Density = 1.657490 g / cm^3
# Si number density = 16.612710 Si / 1000 Ang^3
#
#
#
# Elastic Constant Matrix: (Units=GPa)
#
#
# Indices 1 2 3 4 5 6 
#
# 1 72.3761 52.6328 44.1681 0.0000 0.0000 0.0000
# 2 52.6328 113.4575 71.5120 0.0000 0.0000 0.0000
# 3 44.1681 71.5120 107.4318 0.0000 0.0000 0.0000
# 4 0.0000 0.0000 0.0000 3.7137 0.0000 0.0000
# 5 0.0000 0.0000 0.0000 0.0000 20.5936 0.0000
# 6 0.0000 0.0000 0.0000 0.0000 0.0000 1.4465
#
#
#
# Elastic Compliance Matrix: (Units=1/GPa)
#
#
# Indices 1 2 3 4 5 6 
#
# 1 0.021729 -0.007665 -0.003831 0.000000 0.000000 0.000000
# 2 -0.007665 0.017889 -0.008756 0.000000 0.000000 0.000000
# 3 -0.003831 -0.008756 0.016712 0.000000 0.000000 0.000000
# 4 0.000000 0.000000 0.000000 0.269276 0.000000 0.000000
# 5 0.000000 0.000000 0.000000 0.000000 0.048559 0.000000
# 6 0.000000 0.000000 0.000000 0.000000 0.000000 0.691346
#
#
# Mechanical properties :
#
#
# Convention : Reuss Voigt Hill
#
# Bulk Modulus (GPa) = 63.19311 69.98792 66.59052
# Shear Modulus (GPa) = 4.49927 13.48091 8.99009
#
# Velocity S-wave (km/s) = 1.64749 2.85174 2.32880
# Velocity P-wave (km/s) = 6.46069 7.28449 6.88492
#
# Compressibility (1/GPa) = 0.01582451
#
# Stress axis : x y z
#
# Youngs Moduli (GPa) = 46.02152 55.90037 59.83785
#
# Poissons Ratio (x) = 0.42850 0.22923
# Poissons Ratio (y) = 0.35278 0.52396
# Poissons Ratio (z) = 0.17630 0.48948
#
# Static dielectric constant tensor:
#      x y z
#    x 3.180700 0.000000 0.000000 
#    y 0.000000 3.580480 0.000000 
#    z 0.000000 0.000000 3.321070 
# 
# 
# High freq. dielectric constant tensor:
#      x y z
#    x 1.646720 0.000000 0.000000 
#    y 0.000000 1.629750 0.000000 
#    z 0.000000 0.000000 1.622080 
# 
# From -- ./inp_files/36165.got.cif
#   From: 2010.03.12/outbox.cif.g09.slc.cpg/sg53_19_cif.got.tgz:36165.got - 2010.04.16 14:36:59.
