data_PCOD8218128
_publ_section_title
;
Structure prediction by ZEFSAII (Michael W. Deem and Ramdas Pophale) SiO2 
 PCOD8218128
Probable space group: P M N A
;
_chemical_formula_sum "Si O2"
_cell_formula_units_Z 64
_cell_length_a 17.907645
_cell_length_b 11.567356
_cell_length_c 14.552643
_cell_angle_alpha 90.000000
_cell_angle_beta 90.000000
_cell_angle_gamma 90.000000
_cell_volume 3014.494207
_symmetry_space_group_name_H-M "P M N A"
_symmetry_group_IT_number 53
_symmetry_cell_setting 'orthorhombic'
loop_
_space_group_symop_operation_xyz
x,y,z
1/2-x,-y,1/2+z
x,-y,-z
1/2-x,y,1/2-z
-x,-y,-z
1/2+x,y,1/2-z
-x,y,z
1/2+x,-y,1/2+z
loop_
_atom_site_type_symbol
_atom_site_label
_atom_site_fract_x
_atom_site_fract_y
_atom_site_fract_z
Si Si1 0.869324 0.274553 0.378978
Si Si2 0.715457 0.647387 0.350516
Si Si3 0.269861 0.882709 0.143729
Si Si4 0.268904 0.870319 0.643483
Si Si5 0.584168 0.242602 0.319078
Si Si6 0.854499 0.527907 0.400428
Si Si7 0.084931 0.503394 0.892930
Si Si8 0.416410 0.235585 0.916282
O O1 0.786300 0.225506 0.399748
O O2 0.909011 0.217600 0.290609
O O3 0.866422 0.409222 0.345181
O O4 0.913577 0.250896 0.472979
O O5 0.750000 0.658309 0.250000
O O6 0.720272 0.775759 0.396511
O O7 0.766695 0.558467 0.407359
O O8 0.632594 0.597180 0.343718
O O9 0.250000 0.896028 0.250000
O O10 0.357779 0.858394 0.123277
O O11 0.247084 0.004451 0.096791
O O12 0.250000 0.872837 0.750000
O O13 0.355616 0.836819 0.627733
O O14 0.500000 0.209599 0.350035
O O15 0.602757 0.373610 0.347771
O O16 0.885988 0.500000 0.500000
O O17 0.899597 0.641159 0.365479
O O18 0.000000 0.467769 0.876222
O O19 0.105264 0.500000 0.000000
O O20 0.500000 0.194710 0.890237
#
# Coordination Sequence:
#
# PCOD8218128 Si02
#       8
#     8   8   8   8   8   8   8   8
#     4  10  19  33  55  85 117 148 183 230 290 355
#     4  10  18  32  53  77 104 139 187 232 275 331
#     4   9  20  39  55  74 107 150 196 233 275 344
#     4   9  19  37  56  75 107 151 195 235 284 344
#     4  10  20  34  56  84 113 147 191 243 294 343
#     4   9  18  30  49  77 110 145 173 208 269 344
#     4  10  21  36  55  82 116 150 186 235 289 339
#     4  10  21  36  56  84 116 147 181 230 292 347
#
# _framework density 21.230758999999999
#
# number of rings (size 3 to 8) (size 9 to 14) (size 15 to 20)
#    0.000    2.375    0.000    2.250    0.000    6.250 
#    0.000   15.625    0.000    0.000    0.000    5.250 
#    0.000    0.000    0.000    0.000    0.000    0.000 
#
# Total GULP energy -792938.617750 kJ/mol
# GULP energy per Si atom -12389.665902 kJ/mol
# Density = 2.118244 g / cm^3
# Si number density = 21.230759 Si / 1000 Ang^3
#
#
#
# Elastic Constant Matrix: (Units=GPa)
#
#
# Indices 1 2 3 4 5 6 
#
# 1 168.5435 78.2914 20.0580 0.0000 0.0000 0.0000
# 2 78.2914 114.1885 10.7404 0.0000 0.0000 0.0000
# 3 20.0580 10.7404 51.5372 0.0000 0.0000 0.0000
# 4 0.0000 0.0000 0.0000 6.1555 0.0000 0.0000
# 5 0.0000 0.0000 0.0000 0.0000 26.1484 0.0000
# 6 0.0000 0.0000 0.0000 0.0000 0.0000 26.9352
#
#
#
# Elastic Compliance Matrix: (Units=1/GPa)
#
#
# Indices 1 2 3 4 5 6 
#
# 1 0.008955 -0.005928 -0.002250 0.000000 0.000000 0.000000
# 2 -0.005928 0.012857 -0.000372 0.000000 0.000000 0.000000
# 3 -0.002250 -0.000372 0.020357 0.000000 0.000000 0.000000
# 4 0.000000 0.000000 0.000000 0.162457 0.000000 0.000000
# 5 0.000000 0.000000 0.000000 0.000000 0.038243 0.000000
# 6 0.000000 0.000000 0.000000 0.000000 0.000000 0.037126
#
#
# Mechanical properties :
#
#
# Convention : Reuss Voigt Hill
#
# Bulk Modulus (GPa) = 39.89108 61.38320 50.63714
# Shear Modulus (GPa) = 16.36927 26.85977 21.61452
#
# Velocity S-wave (km/s) = 2.77973 3.56073 3.19419
# Velocity P-wave (km/s) = 5.39746 6.77350 6.12425
#
# Compressibility (1/GPa) = 0.02506826
#
# Stress axis : x y z
#
# Youngs Moduli (GPa) = 111.67518 77.77956 49.12414
#
# Poissons Ratio (x) = 0.46107 0.11051
# Poissons Ratio (y) = 0.66200 0.01829
# Poissons Ratio (z) = 0.25123 0.02895
#
# Static dielectric constant tensor:
#      x y z
#    x 3.933780 0.000000 0.000000 
#    y 0.000000 4.364160 0.000000 
#    z 0.000000 0.000000 3.673810 
# 
# 
# High freq. dielectric constant tensor:
#      x y z
#    x 1.820950 0.000000 0.000000 
#    y 0.000000 1.825950 0.000000 
#    z 0.000000 0.000000 1.819320 
# 
# From -- ./inp_files/29121.got.cif
#   From: 2010.03.12/outbox.cif.g09.slc.cpg/sg53_15_cif.got.tgz:29121.got - 2010.04.16 14:36:59.
