data_PCOD8218766
_publ_section_title
;
Structure prediction by ZEFSAII (Michael W. Deem and Ramdas Pophale) SiO2 
 PCOD8218766
Probable space group: P M N A
;
_chemical_formula_sum "Si O2"
_cell_formula_units_Z 64
_cell_length_a 9.019155
_cell_length_b 14.356653
_cell_length_c 29.994788
_cell_angle_alpha 90.000000
_cell_angle_beta 90.000000
_cell_angle_gamma 90.000000
_cell_volume 3883.871485
_symmetry_space_group_name_H-M "P M N A"
_symmetry_group_IT_number 53
_symmetry_cell_setting 'orthorhombic'
loop_
_space_group_symop_operation_xyz
x,y,z
1/2-x,-y,1/2+z
x,-y,-z
1/2-x,y,1/2-z
-x,-y,-z
1/2+x,y,1/2-z
-x,y,z
1/2+x,-y,1/2+z
loop_
_atom_site_type_symbol
_atom_site_label
_atom_site_fract_x
_atom_site_fract_y
_atom_site_fract_z
Si Si1 0.323528 0.928070 0.619564
Si Si2 0.832610 0.761298 0.029364
Si Si3 0.335842 0.742062 0.573257
Si Si4 0.825228 0.864952 0.704235
Si Si5 0.172498 0.431801 0.540174
Si Si6 0.328793 0.422784 0.112326
Si Si7 0.326867 0.648991 0.795225
Si Si8 0.324422 0.051304 0.954149
O O1 0.500000 0.941028 0.622073
O O2 0.274933 0.827390 0.601732
O O3 0.248827 0.933250 0.668011
O O4 0.255318 0.005311 0.587740
O O5 0.768535 0.660789 0.041628
O O6 0.727488 0.841867 0.048147
O O7 0.000000 0.769439 0.048664
O O8 0.835665 0.775800 0.976986
O O9 0.500000 0.713752 0.589129
O O10 0.232624 0.653678 0.578578
O O11 0.750000 0.895565 0.750000
O O12 0.788272 0.756530 0.694472
O O13 0.000000 0.882627 0.706201
O O14 0.224825 0.500000 0.500000
O O15 0.200945 0.478324 0.588830
O O16 0.000000 0.407121 0.533322
O O17 0.500000 0.400110 0.116004
O O18 0.264860 0.412469 0.162797
O O19 0.250000 0.613710 0.750000
O O20 0.500000 0.634273 0.787785
O O21 0.500000 0.046157 0.948085
O O22 0.275614 0.000000 0.000000
#
# Coordination Sequence:
#
# PCOD8218766 Si02
#       8
#     8   8   8   8   8   8   8   8
#     4  11  21  34  51  74 104 138 174 211 256 304
#     4  11  22  36  51  71 102 136 171 213 255 298
#     4  10  20  30  46  71 101 135 169 207 249 295
#     4  10  19  32  50  74 104 136 172 211 255 306
#     4  10  20  33  51  73  99 133 171 208 248 299
#     4  10  19  32  49  71  99 134 172 207 246 294
#     4   9  18  30  46  69  98 131 165 205 248 294
#     4  11  23  36  53  75 100 134 175 214 255 307
#
# _framework density 16.478403
#
# number of rings (size 3 to 8) (size 9 to 14) (size 15 to 20)
#    0.000    1.750    3.750    1.500    0.000    3.250 
#    0.000    0.000    0.000    0.000    0.000    0.875 
#    0.000    2.000    0.000    0.000    0.000    0.000 
#
# Total GULP energy -793514.071504 kJ/mol
# GULP energy per Si atom -12398.657367 kJ/mol
# Density = 1.644090 g / cm^3
# Si number density = 16.478403 Si / 1000 Ang^3
#
#
#
# Elastic Constant Matrix: (Units=GPa)
#
#
# Indices 1 2 3 4 5 6 
#
# 1 69.0541 44.5327 41.0694 0.0000 0.0000 0.0000
# 2 44.5327 75.5714 38.8739 0.0000 0.0000 0.0000
# 3 41.0694 38.8739 100.9936 0.0000 0.0000 0.0000
# 4 0.0000 0.0000 0.0000 23.2842 0.0000 0.0000
# 5 0.0000 0.0000 0.0000 0.0000 28.2483 0.0000
# 6 0.0000 0.0000 0.0000 0.0000 0.0000 25.9465
#
#
#
# Elastic Compliance Matrix: (Units=1/GPa)
#
#
# Indices 1 2 3 4 5 6 
#
# 1 0.025813 -0.012234 -0.005788 0.000000 0.000000 0.000000
# 2 -0.012234 0.022298 -0.003608 0.000000 0.000000 0.000000
# 3 -0.005788 -0.003608 0.013644 0.000000 0.000000 0.000000
# 4 0.000000 0.000000 0.000000 0.042948 0.000000 0.000000
# 5 0.000000 0.000000 0.000000 0.000000 0.035400 0.000000
# 6 0.000000 0.000000 0.000000 0.000000 0.000000 0.038541
#
#
# Mechanical properties :
#
#
# Convention : Reuss Voigt Hill
#
# Bulk Modulus (GPa) = 54.06706 54.95235 54.50971
# Shear Modulus (GPa) = 21.92324 23.57199 22.74761
#
# Velocity S-wave (km/s) = 3.65145 3.78627 3.71947
# Velocity P-wave (km/s) = 7.11755 7.24810 7.18312
#
# Compressibility (1/GPa) = 0.01849555
#
# Stress axis : x y z
#
# Youngs Moduli (GPa) = 38.73951 44.84802 73.29220
#
# Poissons Ratio (x) = 0.54867 0.42422
# Poissons Ratio (y) = 0.47394 0.26441
# Poissons Ratio (z) = 0.22423 0.16180
#
# Static dielectric constant tensor:
#      x y z
#    x 3.168430 0.000000 0.000000 
#    y 0.000000 2.883810 0.000000 
#    z 0.000000 0.000000 3.250360 
# 
# 
# High freq. dielectric constant tensor:
#      x y z
#    x 1.643330 0.000000 0.000000 
#    y 0.000000 1.605130 0.000000 
#    z 0.000000 0.000000 1.630430 
# 
# From -- ./inp_files/38497.got.cif
#   From: 2010.03.12/outbox.cif.g09.slc.cpg/sg53_20_cif.got.tgz:38497.got - 2010.04.16 14:36:59.
