data_PCOD8218912
_publ_section_title
;
Structure prediction by ZEFSAII (Michael W. Deem and Ramdas Pophale) SiO2 
 PCOD8218912
Probable space group: P M N A
;
_chemical_formula_sum "Si O2"
_cell_formula_units_Z 64
_cell_length_a 15.070331
_cell_length_b 11.976007
_cell_length_c 18.663398
_cell_angle_alpha 90.000000
_cell_angle_beta 90.000000
_cell_angle_gamma 90.000000
_cell_volume 3368.414668
_symmetry_space_group_name_H-M "P M N A"
_symmetry_group_IT_number 53
_symmetry_cell_setting 'orthorhombic'
loop_
_space_group_symop_operation_xyz
x,y,z
1/2-x,-y,1/2+z
x,-y,-z
1/2-x,y,1/2-z
-x,-y,-z
1/2+x,y,1/2-z
-x,y,z
1/2+x,-y,1/2+z
loop_
_atom_site_type_symbol
_atom_site_label
_atom_site_fract_x
_atom_site_fract_y
_atom_site_fract_z
Si Si1 0.597925 0.270569 0.647333
Si Si2 0.399026 0.649471 0.816380
Si Si3 0.274038 0.010310 0.914968
Si Si4 0.160258 0.887225 0.713099
Si Si5 0.904050 0.016762 0.838732
Si Si6 0.101579 0.596608 0.290189
Si Si7 0.214474 0.264955 0.597358
Si Si8 0.600394 0.373178 0.016787
O O1 0.500000 0.284175 0.610242
O O2 0.608480 0.147249 0.680520
O O3 0.606211 0.358975 0.710519
O O4 0.679855 0.294257 0.593324
O O5 0.500000 0.665888 0.792852
O O6 0.346662 0.753397 0.782922
O O7 0.363146 0.530985 0.787575
O O8 0.388321 0.652402 0.900882
O O9 0.172395 0.977611 0.894321
O O10 0.297581 0.134155 0.888854
O O11 0.340786 0.929819 0.869854
O O12 0.288838 0.000000 0.000000
O O13 0.250000 0.927466 0.750000
O O14 0.089157 0.948625 0.763725
O O15 0.000000 0.998754 0.876746
O O16 0.165633 0.668362 0.339959
O O17 0.000000 0.599312 0.320536
O O18 0.170650 0.293907 0.521896
O O19 0.500000 0.348227 0.990573
O O20 0.625827 0.500000 0.000000
#
# Coordination Sequence:
#
# PCOD8218912 Si02
#       8
#     8   8   8   8   8   8   8   8
#     4   9  19  33  51  79 107 130 169 220 264 308
#     4  10  20  34  52  74 104 138 171 212 259 313
#     4  10  21  35  52  78 109 138 177 222 265 320
#     4  10  20  34  52  77 109 143 177 216 266 325
#     4   9  18  35  57  77 101 139 179 221 269 315
#     4  10  19  32  52  79 105 133 173 218 259 309
#     4  11  19  32  56  76 102 138 172 213 263 311
#     4  10  19  34  52  75 104 134 173 215 259 316
#
# _framework density 19.000036999999999
#
# number of rings (size 3 to 8) (size 9 to 14) (size 15 to 20)
#    0.000    2.125    1.250    2.625    0.000    3.250 
#    0.000    1.875    0.000    4.875    0.000    0.000 
#    0.000    0.000    0.000    0.000    0.000    0.000 
#
# Total GULP energy -793217.967130 kJ/mol
# GULP energy per Si atom -12394.030736 kJ/mol
# Density = 1.895679 g / cm^3
# Si number density = 19.000037 Si / 1000 Ang^3
#
#
#
# Elastic Constant Matrix: (Units=GPa)
#
#
# Indices 1 2 3 4 5 6 
#
# 1 76.0020 29.6386 10.5981 0.0000 0.0000 0.0000
# 2 29.6386 101.5734 19.6102 0.0000 0.0000 0.0000
# 3 10.5981 19.6102 54.2401 0.0000 0.0000 0.0000
# 4 0.0000 0.0000 0.0000 28.7163 0.0000 0.0000
# 5 0.0000 0.0000 0.0000 0.0000 18.5780 0.0000
# 6 0.0000 0.0000 0.0000 0.0000 0.0000 28.0844
#
#
#
# Elastic Compliance Matrix: (Units=1/GPa)
#
#
# Indices 1 2 3 4 5 6 
#
# 1 0.014952 -0.004084 -0.001445 0.000000 0.000000 0.000000
# 2 -0.004084 0.011699 -0.003432 0.000000 0.000000 0.000000
# 3 -0.001445 -0.003432 0.019960 0.000000 0.000000 0.000000
# 4 0.000000 0.000000 0.000000 0.034823 0.000000 0.000000
# 5 0.000000 0.000000 0.000000 0.000000 0.053827 0.000000
# 6 0.000000 0.000000 0.000000 0.000000 0.000000 0.035607
#
#
# Mechanical properties :
#
#
# Convention : Reuss Voigt Hill
#
# Bulk Modulus (GPa) = 34.85621 39.05658 36.95640
# Shear Modulus (GPa) = 25.20763 26.54030 25.87396
#
# Velocity S-wave (km/s) = 3.64636 3.74151 3.69424
# Velocity P-wave (km/s) = 6.00942 6.26625 6.13918
#
# Compressibility (1/GPa) = 0.02868929
#
# Stress axis : x y z
#
# Youngs Moduli (GPa) = 66.88237 85.47510 50.10105
#
# Poissons Ratio (x) = 0.34907 0.07239
# Poissons Ratio (y) = 0.27314 0.17194
# Poissons Ratio (z) = 0.09664 0.29334
#
# Static dielectric constant tensor:
#      x y z
#    x 3.688580 0.000000 0.000000 
#    y 0.000000 3.526780 0.000000 
#    z 0.000000 0.000000 3.213760 
# 
# 
# High freq. dielectric constant tensor:
#      x y z
#    x 1.740150 0.000000 0.000000 
#    y 0.000000 1.743070 0.000000 
#    z 0.000000 0.000000 1.712360 
# 
# From -- ./inp_files/28593.got.cif
#   From: 2010.03.12/outbox.cif.g09.slc.cpg/sg53_15_cif.got.tgz:28593.got - 2010.04.16 14:36:59.
