data_PCOD8218337
_publ_section_title
;
Structure prediction by ZEFSAII (Michael W. Deem and Ramdas Pophale) SiO2 
 PCOD8218337
Probable space group: P M N A
;
_chemical_formula_sum "Si O2"
_cell_formula_units_Z 64
_cell_length_a 8.871062
_cell_length_b 25.783766
_cell_length_c 18.316663
_cell_angle_alpha 90.000000
_cell_angle_beta 90.000000
_cell_angle_gamma 90.000000
_cell_volume 4189.559096
_symmetry_space_group_name_H-M "P M N A"
_symmetry_group_IT_number 53
_symmetry_cell_setting 'orthorhombic'
loop_
_space_group_symop_operation_xyz
x,y,z
1/2-x,-y,1/2+z
x,-y,-z
1/2-x,y,1/2-z
-x,-y,-z
1/2+x,y,1/2-z
-x,y,z
1/2+x,-y,1/2+z
loop_
_atom_site_type_symbol
_atom_site_label
_atom_site_fract_x
_atom_site_fract_y
_atom_site_fract_z
Si Si1 0.823135 0.505477 0.328865
Si Si2 0.329826 0.551689 0.547219
Si Si3 0.177442 0.897873 0.410754
Si Si4 0.324855 0.690027 0.325869
Si Si5 0.676677 0.393350 0.921667
Si Si6 0.175695 0.810444 0.173931
Si Si7 0.334298 0.054979 0.461238
Si Si8 0.821360 0.992883 0.172974
O O1 0.750000 0.504808 0.250000
O O2 0.755064 0.458448 0.376540
O O3 0.784039 0.560153 0.366374
O O4 0.000000 0.496702 0.321992
O O5 0.327122 0.500000 0.500000
O O6 0.500000 0.569774 0.563523
O O7 0.244329 0.596206 0.501906
O O8 0.243976 0.841846 0.390679
O O9 0.217157 0.908563 0.495826
O O10 0.250519 0.940141 0.357577
O O11 0.000000 0.898552 0.400298
O O12 0.250000 0.672850 0.250000
O O13 0.500000 0.676391 0.320485
O O14 0.250731 0.658969 0.391982
O O15 0.295761 0.750205 0.342094
O O16 0.500000 0.385349 0.930019
O O17 0.250000 0.827354 0.250000
O O18 0.000000 0.824081 0.177231
O O19 0.500000 0.081462 0.462204
O O20 0.345837 0.000000 0.500000
O O21 0.281746 0.042412 0.378583
O O22 0.750000 0.006746 0.250000
O O23 0.000000 0.984550 0.178706
#
# Coordination Sequence:
#
# PCOD8218337 Si02
#       8
#     8   8   8   8   8   8   8   8
#     4  10  19  29  42  62  87 115 146 177 213 254
#     4   9  17  29  44  61  83 111 143 178 213 251
#     4  11  20  29  44  63  84 112 145 178 212 252
#     4  10  20  32  46  63  84 112 145 181 217 252
#     4  10  19  30  45  63  86 115 145 178 214 255
#     4  10  20  33  46  61  84 112 144 181 217 252
#     4   8  16  30  44  59  82 111 140 172 210 249
#     4  10  19  30  44  62  86 114 143 175 210 250
#
# _framework density 15.276070000000001
#
# number of rings (size 3 to 8) (size 9 to 14) (size 15 to 20)
#    0.000    2.250    0.000    4.875    0.000    8.250 
#    0.000    0.000    0.000    0.000    0.000    0.000 
#    0.000    1.000    0.000    5.250    0.000    5.000 
#
# Total GULP energy -793619.561124 kJ/mol
# GULP energy per Si atom -12400.305643 kJ/mol
# Density = 1.524130 g / cm^3
# Si number density = 15.276070 Si / 1000 Ang^3
#
#
#
# Elastic Constant Matrix: (Units=GPa)
#
#
# Indices 1 2 3 4 5 6 
#
# 1 116.4456 45.0751 58.7926 0.0000 0.0000 0.0000
# 2 45.0751 56.2470 38.9533 0.0000 0.0000 0.0000
# 3 58.7926 38.9533 99.6368 0.0000 0.0000 0.0000
# 4 0.0000 0.0000 0.0000 30.8376 0.0000 0.0000
# 5 0.0000 0.0000 0.0000 0.0000 28.8185 0.0000
# 6 0.0000 0.0000 0.0000 0.0000 0.0000 21.6168
#
#
#
# Elastic Compliance Matrix: (Units=1/GPa)
#
#
# Indices 1 2 3 4 5 6 
#
# 1 0.014315 -0.007709 -0.005433 0.000000 0.000000 0.000000
# 2 -0.007709 0.028531 -0.006605 0.000000 0.000000 0.000000
# 3 -0.005433 -0.006605 0.015825 0.000000 0.000000 0.000000
# 4 0.000000 0.000000 0.000000 0.032428 0.000000 0.000000
# 5 0.000000 0.000000 0.000000 0.000000 0.034700 0.000000
# 6 0.000000 0.000000 0.000000 0.000000 0.000000 0.046260
#
#
# Mechanical properties :
#
#
# Convention : Reuss Voigt Hill
#
# Bulk Modulus (GPa) = 52.14899 61.99683 57.07291
# Shear Modulus (GPa) = 22.94150 24.88847 23.91498
#
# Velocity S-wave (km/s) = 3.87950 4.04077 3.96096
# Velocity P-wave (km/s) = 7.36744 7.90208 7.63944
#
# Compressibility (1/GPa) = 0.01917583
#
# Stress axis : x y z
#
# Youngs Moduli (GPa) = 69.85756 35.04934 63.19273
#
# Poissons Ratio (x) = 0.27020 0.34331
# Poissons Ratio (y) = 0.53854 0.41742
# Poissons Ratio (z) = 0.37952 0.23152
#
# Static dielectric constant tensor:
#      x y z
#    x 3.092000 0.000000 0.000000 
#    y 0.000000 2.718590 0.000000 
#    z 0.000000 0.000000 3.078400 
# 
# 
# High freq. dielectric constant tensor:
#      x y z
#    x 1.605690 0.000000 0.000000 
#    y 0.000000 1.547760 0.000000 
#    z 0.000000 0.000000 1.576280 
# 
# From -- ./inp_files/27030.got.cif
#   From: 2010.03.12/outbox.cif.g09.slc.cpg/sg53_14_cif.got.tgz:27030.got - 2010.04.16 14:36:59.
