data_PCOD8218425
_publ_section_title
;
Structure prediction by ZEFSAII (Michael W. Deem and Ramdas Pophale) SiO2 
 PCOD8218425
Probable space group: P M N A
;
_chemical_formula_sum "Si O2"
_cell_formula_units_Z 64
_cell_length_a 8.773995
_cell_length_b 21.678857
_cell_length_c 18.353293
_cell_angle_alpha 90.000000
_cell_angle_beta 90.000000
_cell_angle_gamma 90.000000
_cell_volume 3490.983219
_symmetry_space_group_name_H-M "P M N A"
_symmetry_group_IT_number 53
_symmetry_cell_setting 'orthorhombic'
loop_
_space_group_symop_operation_xyz
x,y,z
1/2-x,-y,1/2+z
x,-y,-z
1/2-x,y,1/2-z
-x,-y,-z
1/2+x,y,1/2-z
-x,y,z
1/2+x,-y,1/2+z
loop_
_atom_site_type_symbol
_atom_site_label
_atom_site_fract_x
_atom_site_fract_y
_atom_site_fract_z
Si Si1 0.829471 0.560771 0.172312
Si Si2 0.320201 0.228613 0.327202
Si Si3 0.676660 0.333350 0.087402
Si Si4 0.321848 0.024810 0.828395
Si Si5 0.668860 0.426366 0.320022
Si Si6 0.172383 0.068374 0.968885
Si Si7 0.677766 0.109827 0.109622
Si Si8 0.180500 0.567641 0.472429
O O1 0.750000 0.571643 0.250000
O O2 0.842883 0.491223 0.138662
O O3 0.731575 0.590693 0.107524
O O4 0.000000 0.588715 0.178142
O O5 0.250000 0.251188 0.250000
O O6 0.500000 0.231764 0.320244
O O7 0.265857 0.269966 0.396297
O O8 0.268735 0.159156 0.342834
O O9 0.500000 0.317391 0.077961
O O10 0.707255 0.376695 0.156157
O O11 0.743676 0.375542 0.022024
O O12 0.250000 0.039189 0.750000
O O13 0.500000 0.038436 0.824737
O O14 0.249579 0.070294 0.889110
O O15 0.287571 0.954813 0.851337
O O16 0.750000 0.453516 0.250000
O O17 0.500000 0.396173 0.311676
O O18 0.000000 0.093206 0.962369
O O19 0.264978 0.110768 0.025839
O O20 0.175538 0.000000 0.000000
O O21 0.500000 0.125943 0.110012
O O22 0.239502 0.500000 0.500000
O O23 0.000000 0.567089 0.477137
#
# Coordination Sequence:
#
# PCOD8218425 Si02
#       8
#     8   8   8   8   8   8   8   8
#     4  10  20  32  50  73 100 129 161 199 243 300
#     4  12  25  40  56  76 105 141 184 225 263 309
#     4  11  22  36  53  72  99 133 169 212 259 308
#     4  10  19  30  48  76 110 146 183 227 275 323
#     4  10  19  30  45  67  95 128 162 198 241 293
#     4   9  17  30  49  74 105 141 181 224 271 321
#     4  10  20  35  54  76 105 143 187 228 270 317
#     4  10  20  35  54  76 102 132 166 207 258 315
#
# _framework density 18.332944000000001
#
# number of rings (size 3 to 8) (size 9 to 14) (size 15 to 20)
#    0.000    1.750    1.250    4.125    0.000    6.250 
#    0.000    0.000    0.000    0.000    0.000    0.875 
#    0.000    4.000    0.000    0.000    0.000    0.000 
#
# Total GULP energy -792884.380324 kJ/mol
# GULP energy per Si atom -12388.818443 kJ/mol
# Density = 1.829122 g / cm^3
# Si number density = 18.332944 Si / 1000 Ang^3
#
#
#
# Elastic Constant Matrix: (Units=GPa)
#
#
# Indices 1 2 3 4 5 6 
#
# 1 87.7052 18.3642 40.6963 0.0000 0.0000 0.0000
# 2 18.3642 38.0958 22.2738 0.0000 0.0000 0.0000
# 3 40.6963 22.2738 118.7292 0.0000 0.0000 0.0000
# 4 0.0000 0.0000 0.0000 10.2642 0.0000 0.0000
# 5 0.0000 0.0000 0.0000 0.0000 34.4491 0.0000
# 6 0.0000 0.0000 0.0000 0.0000 0.0000 21.1231
#
#
#
# Elastic Compliance Matrix: (Units=1/GPa)
#
#
# Indices 1 2 3 4 5 6 
#
# 1 0.014212 -0.004496 -0.004028 0.000000 0.000000 0.000000
# 2 -0.004496 0.030906 -0.004257 0.000000 0.000000 0.000000
# 3 -0.004028 -0.004257 0.010602 0.000000 0.000000 0.000000
# 4 0.000000 0.000000 0.000000 0.097426 0.000000 0.000000
# 5 0.000000 0.000000 0.000000 0.000000 0.029028 0.000000
# 6 0.000000 0.000000 0.000000 0.000000 0.000000 0.047342
#
#
# Mechanical properties :
#
#
# Convention : Reuss Voigt Hill
#
# Bulk Modulus (GPa) = 33.15860 45.24430 39.20145
# Shear Modulus (GPa) = 18.85864 24.04700 21.45282
#
# Velocity S-wave (km/s) = 3.21078 3.62564 3.42450
# Velocity P-wave (km/s) = 5.64549 6.50076 6.08816
#
# Compressibility (1/GPa) = 0.03015809
#
# Stress axis : x y z
#
# Youngs Moduli (GPa) = 70.36167 32.35629 94.32353
#
# Poissons Ratio (x) = 0.14547 0.37994
# Poissons Ratio (y) = 0.31635 0.40153
# Poissons Ratio (z) = 0.28342 0.13774
#
# Static dielectric constant tensor:
#      x y z
#    x 3.420250 0.000000 0.000000 
#    y 0.000000 3.076500 0.000000 
#    z 0.000000 0.000000 3.521470 
# 
# 
# High freq. dielectric constant tensor:
#      x y z
#    x 1.723660 0.000000 0.000000 
#    y 0.000000 1.662640 0.000000 
#    z 0.000000 0.000000 1.712580 
# 
# From -- ./inp_files/26814.got.cif
#   From: 2010.03.12/outbox.cif.g09.slc.cpg/sg53_14_cif.got.tgz:26814.got - 2010.04.16 14:36:59.
