data_PCOD8218446
_publ_section_title
;
Structure prediction by ZEFSAII (Michael W. Deem and Ramdas Pophale) SiO2 
 PCOD8218446
Probable space group: P M N A
;
_chemical_formula_sum "Si O2"
_cell_formula_units_Z 56
_cell_length_a 8.964759
_cell_length_b 20.313888
_cell_length_c 18.213270
_cell_angle_alpha 90.000000
_cell_angle_beta 90.000000
_cell_angle_gamma 90.000000
_cell_volume 3316.802395
_symmetry_space_group_name_H-M "P M N A"
_symmetry_group_IT_number 53
_symmetry_cell_setting 'orthorhombic'
loop_
_space_group_symop_operation_xyz
x,y,z
1/2-x,-y,1/2+z
x,-y,-z
1/2-x,y,1/2-z
-x,-y,-z
1/2+x,y,1/2-z
-x,y,z
1/2+x,-y,1/2+z
loop_
_atom_site_type_symbol
_atom_site_label
_atom_site_fract_x
_atom_site_fract_y
_atom_site_fract_z
Si Si1 0.663989 0.570788 0.536970
Si Si2 0.331256 0.071042 0.036463
Si Si3 0.326922 0.754950 0.174826
Si Si4 0.326011 0.122930 0.599336
Si Si5 0.170994 0.377825 0.592614
Si Si6 0.325778 0.017330 0.328178
Si Si7 0.823812 0.495240 0.826174
O O1 0.653402 0.500000 0.500000
O O2 0.500000 0.604079 0.536288
O O3 0.777374 0.617107 0.492428
O O4 0.718403 0.556221 0.619963
O O5 0.500000 0.096110 0.048816
O O6 0.246341 0.068628 0.114259
O O7 0.246472 0.120530 0.981623
O O8 0.330238 0.000000 0.000000
O O9 0.250000 0.732542 0.250000
O O10 0.500000 0.769868 0.189401
O O11 0.249757 0.820059 0.145443
O O12 0.304552 0.697041 0.116305
O O13 0.500000 0.137147 0.589743
O O14 0.296433 0.056522 0.644523
O O15 0.265172 0.425332 0.644873
O O16 0.000000 0.399545 0.598648
O O17 0.250000 0.028065 0.250000
O O18 0.500000 0.032826 0.321862
O O19 0.750000 0.513918 0.750000
O O20 0.000000 0.487913 0.817607
#
# Coordination Sequence:
#
# PCOD8218446 Si02
#       7
#     8   8   8   8   8   8   8
#     4   8  16  30  46  65  90 119 151 188 230 276
#     4   9  17  30  48  68  92 122 154 190 233 279
#     4  11  23  35  47  67  94 125 161 195 228 269
#     4  10  20  33  49  68  93 126 160 194 231 274
#     4  10  20  32  47  67  92 124 159 193 229 273
#     4  10  19  30  46  70  97 123 155 193 234 278
#     4  10  19  30  46  69  95 122 152 189 233 277
#
# _framework density 16.883731000000001
#
# number of rings (size 3 to 8) (size 9 to 14) (size 15 to 20)
#    0.000    2.286    0.000    4.286    0.000   11.143 
#    0.000    0.000    0.000    0.000    0.000    1.000 
#    0.000    4.571    0.000    0.000    0.000    0.000 
#
# Total GULP energy -694378.173418 kJ/mol
# GULP energy per Si atom -12399.610240 kJ/mol
# Density = 1.684530 g / cm^3
# Si number density = 16.883731 Si / 1000 Ang^3
#
#
#
# Elastic Constant Matrix: (Units=GPa)
#
#
# Indices 1 2 3 4 5 6 
#
# 1 111.5820 26.6153 57.0398 0.0000 0.0000 0.0000
# 2 26.6153 31.1569 19.7949 0.0000 0.0000 0.0000
# 3 57.0398 19.7949 120.7033 0.0000 0.0000 0.0000
# 4 0.0000 0.0000 0.0000 25.7866 0.0000 0.0000
# 5 0.0000 0.0000 0.0000 0.0000 35.0287 0.0000
# 6 0.0000 0.0000 0.0000 0.0000 0.0000 18.2503
#
#
#
# Elastic Compliance Matrix: (Units=1/GPa)
#
#
# Indices 1 2 3 4 5 6 
#
# 1 0.013522 -0.008363 -0.005019 0.000000 0.000000 0.000000
# 2 -0.008363 0.041000 -0.002772 0.000000 0.000000 0.000000
# 3 -0.005019 -0.002772 0.011111 0.000000 0.000000 0.000000
# 4 0.000000 0.000000 0.000000 0.038780 0.000000 0.000000
# 5 0.000000 0.000000 0.000000 0.000000 0.028548 0.000000
# 6 0.000000 0.000000 0.000000 0.000000 0.000000 0.054793
#
#
# Mechanical properties :
#
#
# Convention : Reuss Voigt Hill
#
# Bulk Modulus (GPa) = 30.00571 52.26026 41.13298
# Shear Modulus (GPa) = 21.62904 26.47928 24.05416
#
# Velocity S-wave (km/s) = 3.58307 3.96451 3.77861
# Velocity P-wave (km/s) = 5.91003 7.20949 6.59185
#
# Compressibility (1/GPa) = 0.03332699
#
# Stress axis : x y z
#
# Youngs Moduli (GPa) = 73.95229 24.38997 90.00082
#
# Poissons Ratio (x) = 0.20397 0.45168
# Poissons Ratio (y) = 0.61844 0.24949
# Poissons Ratio (z) = 0.37114 0.06761
#
# Static dielectric constant tensor:
#      x y z
#    x 3.378620 0.000000 0.000000 
#    y 0.000000 2.805250 0.000000 
#    z 0.000000 0.000000 3.545030 
# 
# 
# High freq. dielectric constant tensor:
#      x y z
#    x 1.670610 0.000000 0.000000 
#    y 0.000000 1.603400 0.000000 
#    z 0.000000 0.000000 1.657300 
# 
# From -- ./inp_files/26729.got.cif
#   From: 2010.03.12/outbox.cif.g09.slc.cpg/sg53_14_cif.got.tgz:26729.got - 2010.04.16 14:36:59.
