data_PCOD8218199
_publ_section_title
;
Structure prediction by ZEFSAII (Michael W. Deem and Ramdas Pophale) SiO2 
 PCOD8218199
Probable space group: P M N A
;
_chemical_formula_sum "Si O2"
_cell_formula_units_Z 40
_cell_length_a 7.838074
_cell_length_b 14.102245
_cell_length_c 20.054031
_cell_angle_alpha 90.000000
_cell_angle_beta 90.000000
_cell_angle_gamma 90.000000
_cell_volume 2216.661084
_symmetry_space_group_name_H-M "P M N A"
_symmetry_group_IT_number 53
_symmetry_cell_setting 'orthorhombic'
loop_
_space_group_symop_operation_xyz
x,y,z
1/2-x,-y,1/2+z
x,-y,-z
1/2-x,y,1/2-z
-x,-y,-z
1/2+x,y,1/2-z
-x,y,z
1/2+x,-y,1/2+z
loop_
_atom_site_type_symbol
_atom_site_label
_atom_site_fract_x
_atom_site_fract_y
_atom_site_fract_z
Si Si1 0.000000 0.087770 0.589505
Si Si2 0.189135 0.214061 0.899025
Si Si3 0.693339 0.250201 0.448070
Si Si4 0.000000 0.121635 0.432849
Si Si5 0.302323 0.533959 0.571005
Si Si6 0.192621 0.610322 0.323225
O O1 0.829611 0.135223 0.620140
O O2 0.000000 0.099454 0.510626
O O3 0.000000 0.976554 0.608399
O O4 0.193923 0.302641 0.849125
O O5 0.000000 0.168036 0.894246
O O6 0.223779 0.254526 0.972715
O O7 0.500000 0.216059 0.431964
O O8 0.726566 0.354355 0.419170
O O9 0.828685 0.179426 0.413756
O O10 0.226889 0.500000 0.500000
O O11 0.500000 0.505653 0.574736
O O12 0.205445 0.481854 0.630409
O O13 0.250000 0.579341 0.250000
O O14 0.000000 0.646860 0.322844
#
# Coordination Sequence:
#
# PCOD8218199 Si02
#       6
#     4   8   8   4   8   8
#     4   9  18  32  47  76 103 142 173 221 272 315
#     4  10  18  33  52  74 106 143 179 218 271 328
#     4   9  18  30  50  77 108 145 180 220 270 321
#     4   9  18  30  48  73 112 133 180 225 264 318
#     4  10  19  33  53  78 109 147 186 226 269 331
#     4  12  24  36  52  78 114 146 185 227 277 332
#
# _framework density 18.045157
#
# number of rings (size 3 to 8) (size 9 to 14) (size 15 to 20)
#    0.000    2.000    3.000    1.800    1.400    1.200 
#    0.000    4.000    0.000    0.000    0.000    1.400 
#    0.000    0.000    0.000    0.000    0.000    0.000 
#
# Total GULP energy -496036.518074 kJ/mol
# GULP energy per Si atom -12400.912952 kJ/mol
# Density = 1.800409 g / cm^3
# Si number density = 18.045157 Si / 1000 Ang^3
#
#
#
# Elastic Constant Matrix: (Units=GPa)
#
#
# Indices 1 2 3 4 5 6 
#
# 1 129.0592 63.0497 25.6837 0.0000 0.0000 0.0000
# 2 63.0497 120.7339 37.1242 0.0000 0.0000 0.0000
# 3 25.6837 37.1242 66.6531 0.0000 0.0000 0.0000
# 4 0.0000 0.0000 0.0000 10.3839 0.0000 0.0000
# 5 0.0000 0.0000 0.0000 0.0000 15.6873 0.0000
# 6 0.0000 0.0000 0.0000 0.0000 0.0000 28.0767
#
#
#
# Elastic Compliance Matrix: (Units=1/GPa)
#
#
# Indices 1 2 3 4 5 6 
#
# 1 0.010480 -0.005106 -0.001195 0.000000 0.000000 0.000000
# 2 -0.005106 0.012482 -0.004985 0.000000 0.000000 0.000000
# 3 -0.001195 -0.004985 0.018240 0.000000 0.000000 0.000000
# 4 0.000000 0.000000 0.000000 0.096303 0.000000 0.000000
# 5 0.000000 0.000000 0.000000 0.000000 0.063746 0.000000
# 6 0.000000 0.000000 0.000000 0.000000 0.000000 0.035617
#
#
# Mechanical properties :
#
#
# Convention : Reuss Voigt Hill
#
# Bulk Modulus (GPa) = 53.67169 63.12905 58.40037
# Shear Modulus (GPa) = 18.82186 23.53546 21.17866
#
# Velocity S-wave (km/s) = 3.23312 3.61536 3.42957
# Velocity P-wave (km/s) = 6.61400 7.24484 6.93659
#
# Compressibility (1/GPa) = 0.01863180
#
# Stress axis : x y z
#
# Youngs Moduli (GPa) = 95.41555 80.11720 54.82537
#
# Poissons Ratio (x) = 0.40906 0.06550
# Poissons Ratio (y) = 0.48717 0.27328
# Poissons Ratio (z) = 0.11399 0.39935
#
# Static dielectric constant tensor:
#      x y z
#    x 3.505820 0.000000 0.000000 
#    y 0.000000 3.320600 0.000000 
#    z 0.000000 0.000000 2.917910 
# 
# 
# High freq. dielectric constant tensor:
#      x y z
#    x 1.715370 0.000000 0.000000 
#    y 0.000000 1.689580 0.000000 
#    z 0.000000 0.000000 1.645960 
# 
# From -- ./inp_files/19906.got.cif
#   From: 2010.03.12/outbox.cif.g09.slc.cpg/sg53_10_cif.got.tgz:19906.got - 2010.04.16 14:36:59.
