data_PCOD8218111
_publ_section_title
;
Structure prediction by ZEFSAII (Michael W. Deem and Ramdas Pophale) SiO2 
 PCOD8218111
Probable space group: P M N A
;
_chemical_formula_sum "Si O2"
_cell_formula_units_Z 44
_cell_length_a 10.065373
_cell_length_b 19.516666
_cell_length_c 13.179311
_cell_angle_alpha 90.000000
_cell_angle_beta 90.000000
_cell_angle_gamma 90.000000
_cell_volume 2588.977104
_symmetry_space_group_name_H-M "P M N A"
_symmetry_group_IT_number 53
_symmetry_cell_setting 'orthorhombic'
loop_
_space_group_symop_operation_xyz
x,y,z
1/2-x,-y,1/2+z
x,-y,-z
1/2-x,y,1/2-z
-x,-y,-z
1/2+x,y,1/2-z
-x,y,z
1/2+x,-y,1/2+z
loop_
_atom_site_type_symbol
_atom_site_label
_atom_site_fract_x
_atom_site_fract_y
_atom_site_fract_z
Si Si1 0.358482 0.064561 0.570354
Si Si2 0.842071 0.530552 0.341823
Si Si3 0.154468 0.266872 0.341378
Si Si4 0.750000 0.013872 0.250000
Si Si5 0.654264 0.600510 0.957387
Si Si6 0.651804 0.117169 0.080034
O O1 0.500000 0.105421 0.567594
O O2 0.238183 0.108101 0.522457
O O3 0.373862 0.000000 0.500000
O O4 0.340353 0.038092 0.685398
O O5 0.750000 0.553808 0.250000
O O6 0.792273 0.454632 0.375632
O O7 0.798307 0.584333 0.429159
O O8 0.000000 0.534106 0.315499
O O9 0.250000 0.286322 0.250000
O O10 0.189244 0.321344 0.429298
O O11 0.189978 0.191280 0.378397
O O12 0.000000 0.272021 0.308017
O O13 0.671803 0.061558 0.169576
O O14 0.500000 0.586232 0.956479
O O15 0.500000 0.113025 0.044326
#
# Coordination Sequence:
#
# PCOD8218111 Si02
#       6
#     8   8   8   4   8   8
#     4   9  19  32  49  71  96 123 154 194 236 282
#     4   9  16  29  49  72  97 129 164 201 235 277
#     4  10  19  32  50  72  97 129 159 195 241 291
#     4  10  18  32  52  74  94 122 158 196 246 284
#     4   8  16  30  48  70  99 131 162 193 239 286
#     4  10  20  32  49  73  98 125 159 196 240 292
#
# _framework density 16.995128999999999
#
# number of rings (size 3 to 8) (size 9 to 14) (size 15 to 20)
#    0.000    2.727    0.909    2.182    0.000    5.455 
#    0.000    2.727    2.000    0.000    0.000    0.000 
#    0.000    0.000    0.000    0.000    0.000    0.000 
#
# Total GULP energy -545076.722826 kJ/mol
# GULP energy per Si atom -12388.107337 kJ/mol
# Density = 1.695645 g / cm^3
# Si number density = 16.995129 Si / 1000 Ang^3
#
#
#
# Elastic Constant Matrix: (Units=GPa)
#
#
# Indices 1 2 3 4 5 6 
#
# 1 83.4623 30.5923 52.6869 0.0000 0.0000 0.0000
# 2 30.5923 59.2654 44.6857 0.0000 0.0000 0.0000
# 3 52.6869 44.6857 115.3112 0.0000 0.0000 0.0000
# 4 0.0000 0.0000 0.0000 20.5908 0.0000 0.0000
# 5 0.0000 0.0000 0.0000 0.0000 18.2164 0.0000
# 6 0.0000 0.0000 0.0000 0.0000 0.0000 -3.2797
#
#
#
# Elastic Compliance Matrix: (Units=1/GPa)
#
#
# Indices 1 2 3 4 5 6 
#
# 1 0.017568 -0.004261 -0.006376 0.000000 0.000000 0.000000
# 2 -0.004261 0.024872 -0.007692 0.000000 0.000000 0.000000
# 3 -0.006376 -0.007692 0.014566 0.000000 0.000000 0.000000
# 4 0.000000 0.000000 0.000000 0.048565 0.000000 0.000000
# 5 0.000000 0.000000 0.000000 0.000000 0.054896 0.000000
# 6 0.000000 0.000000 0.000000 0.000000 0.000000 -0.304907
#
#
# Mechanical properties :
#
#
# Convention : Reuss Voigt Hill
#
# Bulk Modulus (GPa) = 49.14176 57.10762 53.12469
# Shear Modulus (GPa) = -49.50555 15.77709 -16.86423
#
# Velocity S-wave (km/s) = -5.40301 3.05016 -3.15349
# Velocity P-wave (km/s) = 3.15363 6.78822 4.25056
#
# Compressibility (1/GPa) = 0.02034929
#
# Stress axis : x y z
#
# Youngs Moduli (GPa) = 56.92111 40.20539 68.65317
#
# Poissons Ratio (x) = 0.17133 0.43771
# Poissons Ratio (y) = 0.24256 0.52805
# Poissons Ratio (z) = 0.36291 0.30924
#
# Static dielectric constant tensor:
#      x y z
#    x 3.397260 0.000000 0.000000 
#    y 0.000000 3.164580 0.000000 
#    z 0.000000 0.000000 5.820360 
# 
# 
# High freq. dielectric constant tensor:
#      x y z
#    x 1.648070 0.000000 0.000000 
#    y 0.000000 1.638700 0.000000 
#    z 0.000000 0.000000 1.651130 
# 
# From -- ./inp_files/14852.got.cif
#   From: 2010.03.12/outbox.cif.g09.slc.cpg/sg53_8_cif.got.tgz:14852.got - 2010.04.16 14:36:59.
