data_PCOD8218754
_publ_section_title
;
Structure prediction by ZEFSAII (Michael W. Deem and Ramdas Pophale) SiO2 
 PCOD8218754
Probable space group: P M N A
;
_chemical_formula_sum "Si O2"
_cell_formula_units_Z 48
_cell_length_a 8.732870
_cell_length_b 16.193406
_cell_length_c 18.695320
_cell_angle_alpha 90.000000
_cell_angle_beta 90.000000
_cell_angle_gamma 90.000000
_cell_volume 2643.796985
_symmetry_space_group_name_H-M "P M N A"
_symmetry_group_IT_number 53
_symmetry_cell_setting 'orthorhombic'
loop_
_space_group_symop_operation_xyz
x,y,z
1/2-x,-y,1/2+z
x,-y,-z
1/2-x,y,1/2-z
-x,-y,-z
1/2+x,y,1/2-z
-x,y,z
1/2+x,-y,1/2+z
loop_
_atom_site_type_symbol
_atom_site_label
_atom_site_fract_x
_atom_site_fract_y
_atom_site_fract_z
Si Si1 0.678166 0.417236 0.032609
Si Si2 0.682353 0.330563 0.174607
Si Si3 0.181440 0.026275 0.325078
Si Si4 0.178386 0.752924 0.466107
Si Si5 0.179172 0.161073 0.676566
Si Si6 0.320107 0.175384 0.397294
O O1 0.500000 0.434297 0.043008
O O2 0.742515 0.391524 0.111096
O O3 0.757072 0.500000 0.000000
O O4 0.708177 0.344414 0.975719
O O5 0.750000 0.361727 0.250000
O O6 0.500000 0.329316 0.178126
O O7 0.739516 0.238363 0.157669
O O8 0.250000 0.055958 0.250000
O O9 0.255724 0.083578 0.385427
O O10 0.000000 0.036588 0.324892
O O11 0.232797 0.932209 0.340833
O O12 0.231718 0.778585 0.387020
O O13 0.281177 0.803335 0.521284
O O14 0.000000 0.774386 0.479956
O O15 0.250000 0.194546 0.750000
O O16 0.000000 0.163248 0.687058
O O17 0.500000 0.178787 0.384089
#
# Coordination Sequence:
#
# PCOD8218754 Si02
#       6
#     8   8   8   8   8   8
#     4   8  15  30  53  76  97 126 163 200 239 288
#     4  10  19  32  51  74 102 133 165 201 243 294
#     4  10  19  32  48  68  96 130 167 203 242 285
#     4   9  18  34  53  73  97 128 165 201 244 295
#     4   9  19  34  52  71  95 129 166 205 243 285
#     4  11  21  32  48  72 100 129 163 203 247 292
#
# _framework density 18.155705999999999
#
# number of rings (size 3 to 8) (size 9 to 14) (size 15 to 20)
#    0.000    2.500    0.000    4.000    0.000    2.000 
#    0.000    4.167    0.000   12.500    0.000    0.000 
#    0.000    0.000    0.000    0.000    0.000    0.000 
#
# Total GULP energy -595152.224247 kJ/mol
# GULP energy per Si atom -12399.004672 kJ/mol
# Density = 1.811438 g / cm^3
# Si number density = 18.155706 Si / 1000 Ang^3
#
#
#
# Elastic Constant Matrix: (Units=GPa)
#
#
# Indices 1 2 3 4 5 6 
#
# 1 63.6607 27.8572 34.7782 0.0000 0.0000 0.0000
# 2 27.8572 101.3322 76.7544 0.0000 0.0000 0.0000
# 3 34.7782 76.7544 136.9071 0.0000 0.0000 0.0000
# 4 0.0000 0.0000 0.0000 27.9860 0.0000 0.0000
# 5 0.0000 0.0000 0.0000 0.0000 29.9354 0.0000
# 6 0.0000 0.0000 0.0000 0.0000 0.0000 13.3499
#
#
#
# Elastic Compliance Matrix: (Units=1/GPa)
#
#
# Indices 1 2 3 4 5 6 
#
# 1 0.018647 -0.002674 -0.003238 0.000000 0.000000 0.000000
# 2 -0.002674 0.017536 -0.009152 0.000000 0.000000 0.000000
# 3 -0.003238 -0.009152 0.013258 0.000000 0.000000 0.000000
# 4 0.000000 0.000000 0.000000 0.035732 0.000000 0.000000
# 5 0.000000 0.000000 0.000000 0.000000 0.033405 0.000000
# 6 0.000000 0.000000 0.000000 0.000000 0.000000 0.074907
#
#
# Mechanical properties :
#
#
# Convention : Reuss Voigt Hill
#
# Bulk Modulus (GPa) = 51.77747 64.51997 58.14872
# Shear Modulus (GPa) = 21.73446 25.08827 23.41136
#
# Velocity S-wave (km/s) = 3.46369 3.72134 3.59482
# Velocity P-wave (km/s) = 6.67658 7.35382 7.02337
#
# Compressibility (1/GPa) = 0.01931342
#
# Stress axis : x y z
#
# Youngs Moduli (GPa) = 53.62743 57.02664 75.42867
#
# Poissons Ratio (x) = 0.15247 0.24423
# Poissons Ratio (y) = 0.14338 0.69031
# Poissons Ratio (z) = 0.17364 0.52190
#
# Static dielectric constant tensor:
#      x y z
#    x 3.189780 0.000000 0.000000 
#    y 0.000000 3.458900 0.000000 
#    z 0.000000 0.000000 3.465490 
# 
# 
# High freq. dielectric constant tensor:
#      x y z
#    x 1.690160 0.000000 0.000000 
#    y 0.000000 1.691040 0.000000 
#    z 0.000000 0.000000 1.703610 
# 
# From -- ./inp_files/20185.got.cif
#   From: 2010.03.12/outbox.cif.g09.slc.cpg/sg53_11_cif.got.tgz:20185.got - 2010.04.16 14:36:59.
