data_PCOD8218858
_publ_section_title
;
Structure prediction by ZEFSAII (Michael W. Deem and Ramdas Pophale) SiO2 
 PCOD8218858
Probable space group: P M N A
;
_chemical_formula_sum "Si O2"
_cell_formula_units_Z 64
_cell_length_a 9.028055
_cell_length_b 22.354646
_cell_length_c 17.528167
_cell_angle_alpha 90.000000
_cell_angle_beta 90.000000
_cell_angle_gamma 90.000000
_cell_volume 3537.516673
_symmetry_space_group_name_H-M "P M N A"
_symmetry_group_IT_number 53
_symmetry_cell_setting 'orthorhombic'
loop_
_space_group_symop_operation_xyz
x,y,z
1/2-x,-y,1/2+z
x,-y,-z
1/2-x,y,1/2-z
-x,-y,-z
1/2+x,y,1/2-z
-x,y,z
1/2+x,-y,1/2+z
loop_
_atom_site_type_symbol
_atom_site_label
_atom_site_fract_x
_atom_site_fract_y
_atom_site_fract_z
Si Si1 0.828779 0.130336 0.473253
Si Si2 0.329927 0.258394 0.973590
Si Si3 0.329114 0.387602 0.025565
Si Si4 0.672741 0.705121 0.327057
Si Si5 0.175541 0.948235 0.669936
Si Si6 0.173078 0.456795 0.323927
Si Si7 0.672877 0.426934 0.619266
Si Si8 0.333026 0.041985 0.572964
O O1 0.796902 0.201296 0.472825
O O2 0.780143 0.103057 0.391559
O O3 0.740710 0.103713 0.545664
O O4 0.000000 0.115019 0.487123
O O5 0.500000 0.259383 0.947097
O O6 0.232109 0.255695 0.897391
O O7 0.291463 0.317145 0.023095
O O8 0.500000 0.400093 0.004438
O O9 0.289613 0.411062 0.108834
O O10 0.227962 0.424808 0.967713
O O11 0.750000 0.727368 0.250000
O O12 0.500000 0.716587 0.319543
O O13 0.710936 0.635624 0.340367
O O14 0.250000 0.930446 0.750000
O O15 0.000000 0.953497 0.680665
O O16 0.239240 0.011918 0.641124
O O17 0.250000 0.428186 0.250000
O O18 0.239324 0.522311 0.336605
O O19 0.000000 0.464166 0.310232
O O20 0.500000 0.441623 0.620459
O O21 0.500000 0.053706 0.602134
O O22 0.331903 0.000000 0.500000
#
# Coordination Sequence:
#
# PCOD8218858 Si02
#       8
#     8   8   8   8   8   8   8   8
#     4   9  18  33  54  77 101 134 173 209 246 293
#     4   9  18  35  56  74  97 133 173 208 245 293
#     4   9  19  35  53  72  97 131 168 206 249 300
#     4  10  20  33  50  74 101 128 160 202 252 302
#     4  10  19  32  51  77 108 137 169 209 251 293
#     4  11  22  34  49  71  99 130 165 206 254 304
#     4  10  20  33  52  76  99 125 160 203 253 310
#     4   9  17  30  50  75 102 131 161 196 242 292
#
# _framework density 18.091788000000001
#
# number of rings (size 3 to 8) (size 9 to 14) (size 15 to 20)
#    0.000    2.375    0.000    2.625    0.000    7.500 
#    0.000    1.250    0.000    3.000    0.000    0.000 
#    0.000    0.000    0.000    0.000    0.000    0.000 
#
# Total GULP energy -793702.085672 kJ/mol
# GULP energy per Si atom -12401.595089 kJ/mol
# Density = 1.805061 g / cm^3
# Si number density = 18.091788 Si / 1000 Ang^3
#
#
#
# Elastic Constant Matrix: (Units=GPa)
#
#
# Indices 1 2 3 4 5 6 
#
# 1 83.7224 26.9664 52.8253 0.0000 0.0000 0.0000
# 2 26.9664 65.7224 40.1761 0.0000 0.0000 0.0000
# 3 52.8253 40.1761 118.7925 0.0000 0.0000 0.0000
# 4 0.0000 0.0000 0.0000 19.3491 0.0000 0.0000
# 5 0.0000 0.0000 0.0000 0.0000 34.6852 0.0000
# 6 0.0000 0.0000 0.0000 0.0000 0.0000 21.6183
#
#
#
# Elastic Compliance Matrix: (Units=1/GPa)
#
#
# Indices 1 2 3 4 5 6 
#
# 1 0.017052 -0.002977 -0.006576 0.000000 0.000000 0.000000
# 2 -0.002977 0.019701 -0.005339 0.000000 0.000000 0.000000
# 3 -0.006576 -0.005339 0.013148 0.000000 0.000000 0.000000
# 4 0.000000 0.000000 0.000000 0.051682 0.000000 0.000000
# 5 0.000000 0.000000 0.000000 0.000000 0.028831 0.000000
# 6 0.000000 0.000000 0.000000 0.000000 0.000000 0.046257
#
#
# Mechanical properties :
#
#
# Convention : Reuss Voigt Hill
#
# Bulk Modulus (GPa) = 49.70912 56.46366 53.08639
# Shear Modulus (GPa) = 23.45649 25.01515 24.23582
#
# Velocity S-wave (km/s) = 3.60464 3.72247 3.66403
# Velocity P-wave (km/s) = 6.69778 7.05358 6.87798
#
# Compressibility (1/GPa) = 0.02011703
#
# Stress axis : x y z
#
# Youngs Moduli (GPa) = 58.64318 50.75963 76.05660
#
# Poissons Ratio (x) = 0.15109 0.50016
# Poissons Ratio (y) = 0.17456 0.40608
# Poissons Ratio (z) = 0.38565 0.27101
#
# Static dielectric constant tensor:
#      x y z
#    x 3.446570 0.000000 0.000000 
#    y 0.000000 3.273880 0.000000 
#    z 0.000000 0.000000 3.321990 
# 
# 
# High freq. dielectric constant tensor:
#      x y z
#    x 1.709800 0.000000 0.000000 
#    y 0.000000 1.684650 0.000000 
#    z 0.000000 0.000000 1.693690 
# 
# From -- ./inp_files/20970.got.cif
#   From: 2010.03.12/outbox.cif.g09.slc.cpg/sg53_11_cif.got.tgz:20970.got - 2010.04.16 14:36:59.
