data_PCOD8218795
_publ_section_title
;
Structure prediction by ZEFSAII (Michael W. Deem and Ramdas Pophale) SiO2 
 PCOD8218795
Probable space group: P M N A
;
_chemical_formula_sum "Si O2"
_cell_formula_units_Z 48
_cell_length_a 8.781846
_cell_length_b 16.317969
_cell_length_c 18.246986
_cell_angle_alpha 90.000000
_cell_angle_beta 90.000000
_cell_angle_gamma 90.000000
_cell_volume 2614.827595
_symmetry_space_group_name_H-M "P M N A"
_symmetry_group_IT_number 53
_symmetry_cell_setting 'orthorhombic'
loop_
_space_group_symop_operation_xyz
x,y,z
1/2-x,-y,1/2+z
x,-y,-z
1/2-x,y,1/2-z
-x,-y,-z
1/2+x,y,1/2-z
-x,y,z
1/2+x,-y,1/2+z
loop_
_atom_site_type_symbol
_atom_site_label
_atom_site_fract_x
_atom_site_fract_y
_atom_site_fract_z
Si Si1 0.320560 0.333702 0.672531
Si Si2 0.179071 0.010513 0.671986
Si Si3 0.821383 0.157142 0.171676
Si Si4 0.174335 0.746075 0.549297
Si Si5 0.178277 0.584516 0.465032
Si Si6 0.675851 0.179717 0.896615
O O1 0.250000 0.360259 0.750000
O O2 0.500000 0.339144 0.678508
O O3 0.264449 0.397063 0.610554
O O4 0.274195 0.240612 0.653300
O O5 0.250000 0.031835 0.750000
O O6 0.218700 0.085773 0.618809
O O7 0.000000 0.996740 0.680270
O O8 0.252741 0.927698 0.639811
O O9 0.750000 0.178117 0.250000
O O10 0.782873 0.230529 0.116396
O O11 0.000000 0.147903 0.180995
O O12 0.213286 0.653929 0.525171
O O13 0.209265 0.806649 0.481931
O O14 0.000000 0.754106 0.574929
O O15 0.237241 0.500000 0.500000
O O16 0.000000 0.581530 0.446391
O O17 0.500000 0.198909 0.878173
#
# Coordination Sequence:
#
# PCOD8218795 Si02
#       6
#     8   8   8   8   8   8
#     4  11  21  33  53  80 112 145 178 216 258 309
#     4  10  19  32  50  73 102 138 178 218 261 305
#     4  11  22  36  53  73 100 136 178 220 261 305
#     4   9  18  35  56  78 104 133 167 208 258 313
#     4   9  19  38  62  84 108 138 171 211 263 319
#     4   9  19  34  53  77 106 140 175 213 261 314
#
# _framework density 18.356849
#
# number of rings (size 3 to 8) (size 9 to 14) (size 15 to 20)
#    0.000    2.167    0.000    6.000    0.000    6.333 
#    0.000    4.167    0.000    0.000    0.000    0.000 
#    0.000    0.000    0.000    0.000    0.000    0.000 
#
# Total GULP energy -595305.124903 kJ/mol
# GULP energy per Si atom -12402.190102 kJ/mol
# Density = 1.831507 g / cm^3
# Si number density = 18.356849 Si / 1000 Ang^3
#
#
#
# Elastic Constant Matrix: (Units=GPa)
#
#
# Indices 1 2 3 4 5 6 
#
# 1 120.2857 51.8681 59.9613 0.0000 0.0000 0.0000
# 2 51.8681 112.1726 74.8631 0.0000 0.0000 0.0000
# 3 59.9613 74.8631 109.8248 0.0000 0.0000 0.0000
# 4 0.0000 0.0000 0.0000 22.3026 0.0000 0.0000
# 5 0.0000 0.0000 0.0000 0.0000 31.6944 0.0000
# 6 0.0000 0.0000 0.0000 0.0000 0.0000 25.2479
#
#
#
# Elastic Compliance Matrix: (Units=1/GPa)
#
#
# Indices 1 2 3 4 5 6 
#
# 1 0.011686 -0.002101 -0.004948 0.000000 0.000000 0.000000
# 2 -0.002101 0.016733 -0.010259 0.000000 0.000000 0.000000
# 3 -0.004948 -0.010259 0.018800 0.000000 0.000000 0.000000
# 4 0.000000 0.000000 0.000000 0.044838 0.000000 0.000000
# 5 0.000000 0.000000 0.000000 0.000000 0.031551 0.000000
# 6 0.000000 0.000000 0.000000 0.000000 0.000000 0.039607
#
#
# Mechanical properties :
#
#
# Convention : Reuss Voigt Hill
#
# Bulk Modulus (GPa) = 79.34805 79.51869 79.43337
# Shear Modulus (GPa) = 24.74836 26.22170 25.48503
#
# Velocity S-wave (km/s) = 3.67574 3.78357 3.73005
# Velocity P-wave (km/s) = 7.83160 7.90567 7.86872
#
# Compressibility (1/GPa) = 0.01260270
#
# Stress axis : x y z
#
# Youngs Moduli (GPa) = 85.57127 59.76076 53.19150
#
# Poissons Ratio (x) = 0.12559 0.26318
# Poissons Ratio (y) = 0.17983 0.54570
# Poissons Ratio (z) = 0.42339 0.61309
#
# Static dielectric constant tensor:
#      x y z
#    x 3.348230 0.000000 0.000000 
#    y 0.000000 3.436270 0.000000 
#    z 0.000000 0.000000 3.296550 
# 
# 
# High freq. dielectric constant tensor:
#      x y z
#    x 1.713710 0.000000 0.000000 
#    y 0.000000 1.703770 0.000000 
#    z 0.000000 0.000000 1.708080 
# 
# From -- ./inp_files/26404.got.cif
#   From: 2010.03.12/outbox.cif.g09.slc.cpg/sg53_14_cif.got.tgz:26404.got - 2010.04.16 14:36:59.
