data_PCOD8218590
_publ_section_title
;
Structure prediction by ZEFSAII (Michael W. Deem and Ramdas Pophale) SiO2 
 PCOD8218590
Probable space group: P M N A
;
_chemical_formula_sum "Si O2"
_cell_formula_units_Z 64
_cell_length_a 9.172235
_cell_length_b 27.304641
_cell_length_c 14.611715
_cell_angle_alpha 90.000000
_cell_angle_beta 90.000000
_cell_angle_gamma 90.000000
_cell_volume 3659.424882
_symmetry_space_group_name_H-M "P M N A"
_symmetry_group_IT_number 53
_symmetry_cell_setting 'orthorhombic'
loop_
_space_group_symop_operation_xyz
x,y,z
1/2-x,-y,1/2+z
x,-y,-z
1/2-x,y,1/2-z
-x,-y,-z
1/2+x,y,1/2-z
-x,y,z
1/2+x,-y,1/2+z
loop_
_atom_site_type_symbol
_atom_site_label
_atom_site_fract_x
_atom_site_fract_y
_atom_site_fract_z
Si Si1 0.670194 0.420895 0.660542
Si Si2 0.672181 0.073746 0.837629
Si Si3 0.828114 0.307879 0.342885
Si Si4 0.330818 0.618662 0.531429
Si Si5 0.168177 0.196416 0.339915
Si Si6 0.162943 0.018500 0.102198
Si Si7 0.669168 0.107808 0.037008
Si Si8 0.668977 0.531508 0.661385
O O1 0.750000 0.399802 0.750000
O O2 0.500000 0.420244 0.680481
O O3 0.709036 0.386116 0.575349
O O4 0.722457 0.476433 0.638881
O O5 0.750000 0.099655 0.750000
O O6 0.500000 0.071403 0.821627
O O7 0.736429 0.018806 0.841620
O O8 0.712124 0.103941 0.929706
O O9 0.750000 0.325629 0.250000
O O10 0.769809 0.339154 0.427554
O O11 0.785648 0.251726 0.364518
O O12 0.000000 0.315631 0.331666
O O13 0.500000 0.632454 0.546127
O O14 0.295056 0.566148 0.576101
O O15 0.250000 0.177062 0.250000
O O16 0.203515 0.162548 0.427759
O O17 0.000000 0.194022 0.314241
O O18 0.238597 0.071535 0.101377
O O19 0.000000 0.022003 0.145298
O O20 0.150975 0.000000 0.000000
O O21 0.500000 0.093660 0.048586
O O22 0.750000 0.552847 0.750000
O O23 0.500000 0.531902 0.684943
#
# Coordination Sequence:
#
# PCOD8218590 Si02
#       8
#     8   8   8   8   8   8   8   8
#     4   9  18  32  48  67  94 128 164 200 236 276
#     4  10  19  31  48  69  96 130 164 198 235 276
#     4  10  20  34  52  74  99 124 153 192 239 290
#     4  10  19  31  49  71  96 127 161 196 237 284
#     4   9  19  35  53  73  96 123 154 191 237 286
#     4   9  17  29  45  67  95 125 158 194 230 272
#     4   9  18  33  51  70  95 127 161 196 237 283
#     4   9  17  29  45  67  96 128 159 193 234 279
#
# _framework density 17.489087000000001
#
# number of rings (size 3 to 8) (size 9 to 14) (size 15 to 20)
#    0.000    2.625    0.000    1.875    0.000    7.000 
#    0.000    1.250    0.000    4.500    0.000    3.500 
#    0.000    0.000    0.000    0.000    0.000    0.000 
#
# Total GULP energy -793531.778364 kJ/mol
# GULP energy per Si atom -12398.934037 kJ/mol
# Density = 1.744928 g / cm^3
# Si number density = 17.489087 Si / 1000 Ang^3
#
#
#
# Elastic Constant Matrix: (Units=GPa)
#
#
# Indices 1 2 3 4 5 6 
#
# 1 72.8871 39.6708 53.0361 0.0000 0.0000 0.0000
# 2 39.6708 76.8949 55.1695 0.0000 0.0000 0.0000
# 3 53.0361 55.1695 121.8494 0.0000 0.0000 0.0000
# 4 0.0000 0.0000 0.0000 24.4762 0.0000 0.0000
# 5 0.0000 0.0000 0.0000 0.0000 30.8577 0.0000
# 6 0.0000 0.0000 0.0000 0.0000 0.0000 20.8567
#
#
#
# Elastic Compliance Matrix: (Units=1/GPa)
#
#
# Indices 1 2 3 4 5 6 
#
# 1 0.022183 -0.006690 -0.006626 0.000000 0.000000 0.000000
# 2 -0.006690 0.021280 -0.006723 0.000000 0.000000 0.000000
# 3 -0.006626 -0.006723 0.014135 0.000000 0.000000 0.000000
# 4 0.000000 0.000000 0.000000 0.040856 0.000000 0.000000
# 5 0.000000 0.000000 0.000000 0.000000 0.032407 0.000000
# 6 0.000000 0.000000 0.000000 0.000000 0.000000 0.047946
#
#
# Mechanical properties :
#
#
# Convention : Reuss Voigt Hill
#
# Bulk Modulus (GPa) = 57.08116 63.04269 60.06192
# Shear Modulus (GPa) = 22.24951 23.48845 22.86898
#
# Velocity S-wave (km/s) = 3.57065 3.66872 3.62002
# Velocity P-wave (km/s) = 7.05042 7.35331 7.20346
#
# Compressibility (1/GPa) = 0.01751892
#
# Stress axis : x y z
#
# Youngs Moduli (GPa) = 45.08023 46.99315 70.74753
#
# Poissons Ratio (x) = 0.31440 0.46878
# Poissons Ratio (y) = 0.30160 0.47562
# Poissons Ratio (z) = 0.29871 0.31592
#
# Static dielectric constant tensor:
#      x y z
#    x 3.332610 0.000000 0.000000 
#    y 0.000000 3.157930 0.000000 
#    z 0.000000 0.000000 3.398600 
# 
# 
# High freq. dielectric constant tensor:
#      x y z
#    x 1.679270 0.000000 0.000000 
#    y 0.000000 1.650560 0.000000 
#    z 0.000000 0.000000 1.672580 
# 
# From -- ./inp_files/21074.got.cif
#   From: 2010.03.12/outbox.cif.g09.slc.cpg/sg53_11_cif.got.tgz:21074.got - 2010.04.16 14:36:59.
