data_PCOD8218554
_publ_section_title
;
Structure prediction by ZEFSAII (Michael W. Deem and Ramdas Pophale) SiO2 
 PCOD8218554
Probable space group: P M N A
;
_chemical_formula_sum "Si O2"
_cell_formula_units_Z 48
_cell_length_a 7.896945
_cell_length_b 15.517392
_cell_length_c 20.880415
_cell_angle_alpha 90.000000
_cell_angle_beta 90.000000
_cell_angle_gamma 90.000000
_cell_volume 2558.685870
_symmetry_space_group_name_H-M "P M N A"
_symmetry_group_IT_number 53
_symmetry_cell_setting 'orthorhombic'
loop_
_space_group_symop_operation_xyz
x,y,z
1/2-x,-y,1/2+z
x,-y,-z
1/2-x,y,1/2-z
-x,-y,-z
1/2+x,y,1/2-z
-x,y,z
1/2+x,-y,1/2+z
loop_
_atom_site_type_symbol
_atom_site_label
_atom_site_fract_x
_atom_site_fract_y
_atom_site_fract_z
Si Si1 0.000000 0.123897 0.439685
Si Si2 0.190554 0.767775 0.959107
Si Si3 0.500000 0.068048 0.912694
Si Si4 0.195615 0.668154 0.183537
Si Si5 0.807368 0.574595 0.954901
Si Si6 0.686574 0.827098 0.399166
Si Si7 0.689651 0.519698 0.820305
O O1 0.168394 0.178139 0.419430
O O2 0.000000 0.101373 0.514696
O O3 0.000000 0.034085 0.401905
O O4 0.264255 0.670601 0.968062
O O5 0.000000 0.767465 0.927145
O O6 0.174859 0.817244 0.025448
O O7 0.670993 0.103702 0.879042
O O8 0.250000 0.713206 0.250000
O O9 0.239093 0.734146 0.127715
O O10 0.307218 0.583231 0.174960
O O11 0.000000 0.640080 0.183210
O O12 0.798063 0.557033 0.878918
O O13 0.000000 0.577582 0.977204
O O14 0.718760 0.500000 0.000000
O O15 0.500000 0.855240 0.372603
O O16 0.750000 0.551631 0.750000
O O17 0.500000 0.552754 0.830338
#
# Coordination Sequence:
#
# PCOD8218554 Si02
#       7
#     4   8   4   8   8   8   8
#     4   9  18  32  47  74 100 126 165 204 250 310
#     4   9  18  32  50  71 102 137 165 208 253 303
#     4   9  18  30  50  70 100 130 156 206 250 303
#     4  10  19  31  47  68  98 133 168 204 245 298
#     4  10  20  35  53  75 106 139 176 218 269 309
#     4   9  18  31  48  72 101 132 167 198 251 308
#     4  11  22  34  50  72 103 141 179 217 255 303
#
# _framework density 18.759630999999999
#
# number of rings (size 3 to 8) (size 9 to 14) (size 15 to 20)
#    0.000    2.333    0.000    4.000    3.500    3.667 
#    3.000    3.333    0.000    0.000    0.000    1.167 
#    0.000    0.000    0.000    0.000    0.000    0.000 
#
# Total GULP energy -594785.558593 kJ/mol
# GULP energy per Si atom -12391.365804 kJ/mol
# Density = 1.871693 g / cm^3
# Si number density = 18.759631 Si / 1000 Ang^3
#
#
#
# Elastic Constant Matrix: (Units=GPa)
#
#
# Indices 1 2 3 4 5 6 
#
# 1 89.3287 50.7707 11.4313 0.0000 0.0000 0.0000
# 2 50.7707 102.9863 7.5947 0.0000 0.0000 0.0000
# 3 11.4313 7.5947 42.6416 0.0000 0.0000 0.0000
# 4 0.0000 0.0000 0.0000 13.9886 0.0000 0.0000
# 5 0.0000 0.0000 0.0000 0.0000 18.0862 0.0000
# 6 0.0000 0.0000 0.0000 0.0000 0.0000 28.3415
#
#
#
# Elastic Compliance Matrix: (Units=1/GPa)
#
#
# Indices 1 2 3 4 5 6 
#
# 1 0.015899 -0.007624 -0.002904 0.000000 0.000000 0.000000
# 2 -0.007624 0.013495 -0.000360 0.000000 0.000000 0.000000
# 3 -0.002904 -0.000360 0.024294 0.000000 0.000000 0.000000
# 4 0.000000 0.000000 0.000000 0.071487 0.000000 0.000000
# 5 0.000000 0.000000 0.000000 0.000000 0.055291 0.000000
# 6 0.000000 0.000000 0.000000 0.000000 0.000000 0.035284
#
#
# Mechanical properties :
#
#
# Convention : Reuss Voigt Hill
#
# Bulk Modulus (GPa) = 31.33599 41.61668 36.47634
# Shear Modulus (GPa) = 20.14799 23.09391 21.62095
#
# Velocity S-wave (km/s) = 3.28076 3.51243 3.39857
# Velocity P-wave (km/s) = 5.57597 6.21947 5.90649
#
# Compressibility (1/GPa) = 0.03191219
#
# Stress axis : x y z
#
# Youngs Moduli (GPa) = 62.89530 74.10117 41.16248
#
# Poissons Ratio (x) = 0.56495 0.11955
# Poissons Ratio (y) = 0.47951 0.01481
# Poissons Ratio (z) = 0.18268 0.02666
#
# Static dielectric constant tensor:
#      x y z
#    x 3.759750 0.000000 0.000000 
#    y 0.000000 3.364840 0.000000 
#    z 0.000000 0.000000 3.204600 
# 
# 
# High freq. dielectric constant tensor:
#      x y z
#    x 1.740590 0.000000 0.000000 
#    y 0.000000 1.706680 0.000000 
#    z 0.000000 0.000000 1.684670 
# 
# From -- ./inp_files/26309.got.cif
#   From: 2010.03.12/outbox.cif.g09.slc.cpg/sg53_14_cif.got.tgz:26309.got - 2010.04.16 14:36:59.
