data_PCOD8218534
_publ_section_title
;
Structure prediction by ZEFSAII (Michael W. Deem and Ramdas Pophale) SiO2 
 PCOD8218534
Probable space group: P M N A
;
_chemical_formula_sum "Si O2"
_cell_formula_units_Z 64
_cell_length_a 8.779301
_cell_length_b 31.885089
_cell_length_c 14.067488
_cell_angle_alpha 90.000000
_cell_angle_beta 90.000000
_cell_angle_gamma 90.000000
_cell_volume 3937.894947
_symmetry_space_group_name_H-M "P M N A"
_symmetry_group_IT_number 53
_symmetry_cell_setting 'orthorhombic'
loop_
_space_group_symop_operation_xyz
x,y,z
1/2-x,-y,1/2+z
x,-y,-z
1/2-x,y,1/2-z
-x,-y,-z
1/2+x,y,1/2-z
-x,y,z
1/2+x,-y,1/2+z
loop_
_atom_site_type_symbol
_atom_site_label
_atom_site_fract_x
_atom_site_fract_y
_atom_site_fract_z
Si Si1 0.180781 0.937715 0.539268
Si Si2 0.680411 0.142720 0.145862
Si Si3 0.822110 0.603705 0.978326
Si Si4 0.180467 0.437351 0.647978
Si Si5 0.176229 0.766910 0.649257
Si Si6 0.320268 0.324157 0.145292
Si Si7 0.819839 0.980828 0.351481
Si Si8 0.678556 0.475843 0.350067
O O1 0.245399 0.892862 0.574769
O O2 0.236401 0.947310 0.431540
O O3 0.000000 0.938211 0.538442
O O4 0.236711 0.973445 0.613062
O O5 0.750000 0.136766 0.250000
O O6 0.500000 0.137763 0.155771
O O7 0.725942 0.188729 0.100640
O O8 0.758600 0.643799 0.924882
O O9 0.786279 0.561961 0.919844
O O10 0.000000 0.609709 0.996791
O O11 0.734391 0.599505 0.077938
O O12 0.250000 0.427040 0.750000
O O13 0.243934 0.481953 0.610146
O O14 0.000000 0.439011 0.654505
O O15 0.250000 0.764525 0.750000
O O16 0.213932 0.722315 0.598953
O O17 0.000000 0.769510 0.669196
O O18 0.250000 0.329012 0.250000
O O19 0.500000 0.333154 0.152167
O O20 0.750000 0.969071 0.250000
O O21 0.000000 0.979733 0.340823
O O22 0.750000 0.462873 0.250000
O O23 0.500000 0.484532 0.338105
#
# Coordination Sequence:
#
# PCOD8218534 Si02
#       8
#     8   8   8   8   8   8   8   8
#     4   8  15  26  40  57  81 112 144 175 215 263
#     4   9  15  25  41  61  84 112 143 176 213 255
#     4  11  22  34  49  70  94 121 153 186 220 260
#     4  11  22  36  53  70  91 119 151 187 224 261
#     4   8  15  26  41  61  86 113 142 174 212 259
#     4  10  19  31  46  67  94 121 147 178 218 266
#     4   9  16  27  40  56  80 112 145 178 215 256
#     4  10  20  33  49  69  95 123 151 183 217 256
#
# _framework density 16.252338000000002
#
# number of rings (size 3 to 8) (size 9 to 14) (size 15 to 20)
#    0.000    2.500    0.000    4.875    0.000    5.000 
#    0.000    1.875    0.000    0.000    0.000    0.875 
#    0.000    2.000    0.000    0.000    0.000    0.000 
#
# Total GULP energy -792986.404971 kJ/mol
# GULP energy per Si atom -12390.412578 kJ/mol
# Density = 1.621535 g / cm^3
# Si number density = 16.252338 Si / 1000 Ang^3
#
#
#
# Elastic Constant Matrix: (Units=GPa)
#
#
# Indices 1 2 3 4 5 6 
#
# 1 55.1214 44.9118 30.6124 0.0000 0.0000 0.0000
# 2 44.9118 128.8657 72.3120 0.0000 0.0000 0.0000
# 3 30.6124 72.3120 91.6912 0.0000 0.0000 0.0000
# 4 0.0000 0.0000 0.0000 24.1578 0.0000 0.0000
# 5 0.0000 0.0000 0.0000 0.0000 24.1768 0.0000
# 6 0.0000 0.0000 0.0000 0.0000 0.0000 16.2596
#
#
#
# Elastic Compliance Matrix: (Units=1/GPa)
#
#
# Indices 1 2 3 4 5 6 
#
# 1 0.025709 -0.007433 -0.002721 0.000000 0.000000 0.000000
# 2 -0.007433 0.016069 -0.010191 0.000000 0.000000 0.000000
# 3 -0.002721 -0.010191 0.019852 0.000000 0.000000 0.000000
# 4 0.000000 0.000000 0.000000 0.041394 0.000000 0.000000
# 5 0.000000 0.000000 0.000000 0.000000 0.041362 0.000000
# 6 0.000000 0.000000 0.000000 0.000000 0.000000 0.061502
#
#
# Mechanical properties :
#
#
# Convention : Reuss Voigt Hill
#
# Bulk Modulus (GPa) = 47.75727 63.48340 55.62033
# Shear Modulus (GPa) = 19.71910 21.44165 20.58038
#
# Velocity S-wave (km/s) = 3.48704 3.63615 3.56238
# Velocity P-wave (km/s) = 6.75731 7.53490 7.15667
#
# Compressibility (1/GPa) = 0.02093922
#
# Stress axis : x y z
#
# Youngs Moduli (GPa) = 38.89621 62.23001 50.37219
#
# Poissons Ratio (x) = 0.46256 0.13708
# Poissons Ratio (y) = 0.28912 0.51337
# Poissons Ratio (z) = 0.10585 0.63421
#
# Static dielectric constant tensor:
#      x y z
#    x 2.949760 0.000000 0.000000 
#    y 0.000000 3.614830 0.000000 
#    z 0.000000 0.000000 2.977300 
# 
# 
# High freq. dielectric constant tensor:
#      x y z
#    x 1.624870 0.000000 0.000000 
#    y 0.000000 1.625260 0.000000 
#    z 0.000000 0.000000 1.599650 
# 
# From -- ./inp_files/21070.got.cif
#   From: 2010.03.12/outbox.cif.g09.slc.cpg/sg53_11_cif.got.tgz:21070.got - 2010.04.16 14:36:59.
