data_PCOD8218503
_publ_section_title
;
Structure prediction by ZEFSAII (Michael W. Deem and Ramdas Pophale) SiO2 
 PCOD8218503
Probable space group: P M N A
;
_chemical_formula_sum "Si O2"
_cell_formula_units_Z 64
_cell_length_a 9.164092
_cell_length_b 20.016970
_cell_length_c 19.109438
_cell_angle_alpha 90.000000
_cell_angle_beta 90.000000
_cell_angle_gamma 90.000000
_cell_volume 3505.384755
_symmetry_space_group_name_H-M "P M N A"
_symmetry_group_IT_number 53
_symmetry_cell_setting 'orthorhombic'
loop_
_space_group_symop_operation_xyz
x,y,z
1/2-x,-y,1/2+z
x,-y,-z
1/2-x,y,1/2-z
-x,-y,-z
1/2+x,y,1/2-z
-x,y,z
1/2+x,-y,1/2+z
loop_
_atom_site_type_symbol
_atom_site_label
_atom_site_fract_x
_atom_site_fract_y
_atom_site_fract_z
Si Si1 0.830074 0.840705 0.680363
Si Si2 0.827141 0.100845 0.552939
Si Si3 0.170121 0.610283 0.574866
Si Si4 0.836994 0.765229 0.070746
Si Si5 0.329270 0.489952 0.823541
Si Si6 0.330276 0.959021 0.908919
Si Si7 0.829547 0.634298 0.415122
Si Si8 0.337397 0.738968 0.591903
O O1 0.750000 0.819520 0.750000
O O2 0.795158 0.918109 0.661635
O O3 0.769449 0.795772 0.618793
O O4 0.000000 0.827564 0.689199
O O5 0.746539 0.165270 0.584406
O O6 0.766447 0.081765 0.475534
O O7 0.000000 0.115565 0.554725
O O8 0.779544 0.035884 0.599461
O O9 0.212902 0.543828 0.617009
O O10 0.208812 0.604484 0.492208
O O11 0.266166 0.668059 0.610382
O O12 0.000000 0.627628 0.584149
O O13 0.753444 0.702619 0.105122
O O14 0.000000 0.770718 0.102610
O O15 0.845635 0.749538 0.989766
O O16 0.250000 0.503305 0.750000
O O17 0.500000 0.492540 0.807913
O O18 0.282620 0.419004 0.856295
O O19 0.500000 0.961209 0.925774
O O20 0.000000 0.650190 0.411787
O O21 0.500000 0.742941 0.625094
#
# Coordination Sequence:
#
# PCOD8218503 Si02
#       8
#     8   8   8   8   8   8   8   8
#     4  11  21  34  50  69  97 136 173 207 247 296
#     4   9  15  29  52  75  97 126 163 207 251 300
#     4   9  18  34  56  78 102 135 175 218 257 302
#     4  10  19  30  48  78 109 131 159 208 262 302
#     4  10  21  36  55  79 105 134 171 215 263 315
#     4   8  16  29  49  73  96 125 167 207 244 292
#     4   9  18  34  56  78 101 136 178 215 254 308
#     4  10  20  33  48  72 104 134 167 205 248 301
#
# _framework density 18.257625999999998
#
# number of rings (size 3 to 8) (size 9 to 14) (size 15 to 20)
#    0.000    2.500    1.250    2.250    0.000    4.000 
#    0.000    3.750    0.000    4.500    0.000    1.750 
#    0.000    0.000    0.000    0.000    0.000    0.000 
#
# Total GULP energy -793213.922639 kJ/mol
# GULP energy per Si atom -12393.967541 kJ/mol
# Density = 1.821607 g / cm^3
# Si number density = 18.257626 Si / 1000 Ang^3
#
#
#
# Elastic Constant Matrix: (Units=GPa)
#
#
# Indices 1 2 3 4 5 6 
#
# 1 80.9981 51.5704 20.4786 0.0000 0.0000 0.0000
# 2 51.5704 127.9557 19.2493 0.0000 0.0000 0.0000
# 3 20.4786 19.2493 34.9776 0.0000 0.0000 0.0000
# 4 0.0000 0.0000 0.0000 12.0449 0.0000 0.0000
# 5 0.0000 0.0000 0.0000 0.0000 20.5598 0.0000
# 6 0.0000 0.0000 0.0000 0.0000 0.0000 20.3532
#
#
#
# Elastic Compliance Matrix: (Units=1/GPa)
#
#
# Indices 1 2 3 4 5 6 
#
# 1 0.018126 -0.006224 -0.007187 0.000000 0.000000 0.000000
# 2 -0.006224 0.010658 -0.002221 0.000000 0.000000 0.000000
# 3 -0.007187 -0.002221 0.034020 0.000000 0.000000 0.000000
# 4 0.000000 0.000000 0.000000 0.083023 0.000000 0.000000
# 5 0.000000 0.000000 0.000000 0.000000 0.048639 0.000000
# 6 0.000000 0.000000 0.000000 0.000000 0.000000 0.049132
#
#
# Mechanical properties :
#
#
# Convention : Reuss Voigt Hill
#
# Bulk Modulus (GPa) = 31.70681 47.39200 39.54940
# Shear Modulus (GPa) = 17.52078 20.76710 19.14394
#
# Velocity S-wave (km/s) = 3.10117 3.37627 3.24164
# Velocity P-wave (km/s) = 5.49791 6.41971 5.97661
#
# Compressibility (1/GPa) = 0.03153897
#
# Stress axis : x y z
#
# Youngs Moduli (GPa) = 55.16981 93.82708 29.39452
#
# Poissons Ratio (x) = 0.58399 0.21126
# Poissons Ratio (y) = 0.34338 0.06529
# Poissons Ratio (z) = 0.39650 0.20842
#
# Static dielectric constant tensor:
#      x y z
#    x 3.386640 0.000000 0.000000 
#    y 0.000000 3.617110 0.000000 
#    z 0.000000 0.000000 3.047640 
# 
# 
# High freq. dielectric constant tensor:
#      x y z
#    x 1.696910 0.000000 0.000000 
#    y 0.000000 1.720390 0.000000 
#    z 0.000000 0.000000 1.670170 
# 
# From -- ./inp_files/31180.got.cif
#   From: 2010.03.12/outbox.cif.g09.slc.cpg/sg53_16_cif.got.tgz:31180.got - 2010.04.16 14:36:59.
