data_PCOD8218586
_publ_section_title
;
Structure prediction by ZEFSAII (Michael W. Deem and Ramdas Pophale) SiO2 
 PCOD8218586
Probable space group: P M N A
;
_chemical_formula_sum "Si O2"
_cell_formula_units_Z 56
_cell_length_a 9.330337
_cell_length_b 19.388111
_cell_length_c 18.643515
_cell_angle_alpha 90.000000
_cell_angle_beta 90.000000
_cell_angle_gamma 90.000000
_cell_volume 3372.567295
_symmetry_space_group_name_H-M "P M N A"
_symmetry_group_IT_number 53
_symmetry_cell_setting 'orthorhombic'
loop_
_space_group_symop_operation_xyz
x,y,z
1/2-x,-y,1/2+z
x,-y,-z
1/2-x,y,1/2-z
-x,-y,-z
1/2+x,y,1/2-z
-x,y,z
1/2+x,-y,1/2+z
loop_
_atom_site_type_symbol
_atom_site_label
_atom_site_fract_x
_atom_site_fract_y
_atom_site_fract_z
Si Si1 0.155905 0.948257 0.065385
Si Si2 0.172059 0.940826 0.826591
Si Si3 0.661888 0.310689 0.441067
Si Si4 0.835445 0.375788 0.318075
Si Si5 0.165696 0.462974 0.680801
Si Si6 0.161820 0.434846 0.952853
Si Si7 0.830692 0.845477 0.956254
O O1 0.000000 0.924056 0.093199
O O2 0.227107 0.988225 0.133512
O O3 0.238397 0.883182 0.027636
O O4 0.135975 0.000000 0.000000
O O5 0.250000 0.932782 0.750000
O O6 0.219046 0.877590 0.879447
O O7 0.000000 0.941388 0.815264
O O8 0.500000 0.310492 0.408914
O O9 0.778434 0.334730 0.385116
O O10 0.668341 0.362260 0.507410
O O11 0.710278 0.234379 0.463511
O O12 0.750000 0.348297 0.250000
O O13 0.808456 0.456202 0.330559
O O14 0.000000 0.358261 0.305878
O O15 0.250000 0.436047 0.750000
O O16 0.230977 0.424484 0.612807
O O17 0.000000 0.443927 0.689302
O O18 0.000000 0.450517 0.925899
O O19 0.214360 0.500000 0.000000
O O20 0.000000 0.857532 0.961195
#
# Coordination Sequence:
#
# PCOD8218586 Si02
#       7
#     8   8   8   8   8   8   8
#     4   7  11  23  44  66  86 113 152 189 214 249
#     4   9  16  27  46  71  96 120 149 186 224 265
#     4  10  19  31  48  69  94 125 158 194 235 280
#     4  10  20  32  46  65  91 122 155 191 234 284
#     4  10  20  33  51  70  90 117 153 198 245 290
#     4  10  19  31  48  70  96 123 157 201 241 281
#     4   8  15  28  46  67  90 121 159 189 219 265
#
# _framework density 16.604561
#
# number of rings (size 3 to 8) (size 9 to 14) (size 15 to 20)
#    0.000    2.857    1.429    2.571    0.000    2.571 
#    0.000    2.143    0.000    5.571    0.000    2.000 
#    0.000    0.000    0.000    0.000    0.000    0.000 
#
# Total GULP energy -693754.535092 kJ/mol
# GULP energy per Si atom -12388.473841 kJ/mol
# Density = 1.656677 g / cm^3
# Si number density = 16.604561 Si / 1000 Ang^3
#
#
#
# Elastic Constant Matrix: (Units=GPa)
#
#
# Indices 1 2 3 4 5 6 
#
# 1 56.5812 38.9117 40.5280 0.0000 0.0000 0.0000
# 2 38.9117 67.0709 56.6913 0.0000 0.0000 0.0000
# 3 40.5280 56.6913 96.7548 0.0000 0.0000 0.0000
# 4 0.0000 0.0000 0.0000 18.0833 0.0000 0.0000
# 5 0.0000 0.0000 0.0000 0.0000 30.0498 0.0000
# 6 0.0000 0.0000 0.0000 0.0000 0.0000 11.0655
#
#
#
# Elastic Compliance Matrix: (Units=1/GPa)
#
#
# Indices 1 2 3 4 5 6 
#
# 1 0.030477 -0.013653 -0.004767 0.000000 0.000000 0.000000
# 2 -0.013653 0.035654 -0.015172 0.000000 0.000000 0.000000
# 3 -0.004767 -0.015172 0.021222 0.000000 0.000000 0.000000
# 4 0.000000 0.000000 0.000000 0.055300 0.000000 0.000000
# 5 0.000000 0.000000 0.000000 0.000000 0.033278 0.000000
# 6 0.000000 0.000000 0.000000 0.000000 0.000000 0.090371
#
#
# Mechanical properties :
#
#
# Convention : Reuss Voigt Hill
#
# Bulk Modulus (GPa) = 49.57724 54.74098 52.15911
# Shear Modulus (GPa) = 14.69688 17.45811 16.07750
#
# Velocity S-wave (km/s) = 2.97831 3.24605 3.11506
# Velocity P-wave (km/s) = 6.46139 6.86208 6.66475
#
# Compressibility (1/GPa) = 0.02017055
#
# Stress axis : x y z
#
# Youngs Moduli (GPa) = 32.81167 28.04698 47.12124
#
# Poissons Ratio (x) = 0.38291 0.22461
# Poissons Ratio (y) = 0.44796 0.71494
# Poissons Ratio (z) = 0.15640 0.42554
#
# Static dielectric constant tensor:
#      x y z
#    x 2.908130 0.000000 0.000000 
#    y 0.000000 3.312970 0.000000 
#    z 0.000000 0.000000 3.270240 
# 
# 
# High freq. dielectric constant tensor:
#      x y z
#    x 1.612500 0.000000 0.000000 
#    y 0.000000 1.623460 0.000000 
#    z 0.000000 0.000000 1.634720 
# 
# From -- ./inp_files/26648.got.cif
#   From: 2010.03.12/outbox.cif.g09.slc.cpg/sg53_14_cif.got.tgz:26648.got - 2010.04.16 14:36:59.
