data_PCOD8218396
_publ_section_title
;
Structure prediction by ZEFSAII (Michael W. Deem and Ramdas Pophale) SiO2 
 PCOD8218396
Probable space group: P M N A
;
_chemical_formula_sum "Si O2"
_cell_formula_units_Z 64
_cell_length_a 8.812406
_cell_length_b 13.790615
_cell_length_c 32.424608
_cell_angle_alpha 90.000000
_cell_angle_beta 90.000000
_cell_angle_gamma 90.000000
_cell_volume 3940.513920
_symmetry_space_group_name_H-M "P M N A"
_symmetry_group_IT_number 53
_symmetry_cell_setting 'orthorhombic'
loop_
_space_group_symop_operation_xyz
x,y,z
1/2-x,-y,1/2+z
x,-y,-z
1/2-x,y,1/2-z
-x,-y,-z
1/2+x,y,1/2-z
-x,y,z
1/2+x,-y,1/2+z
loop_
_atom_site_type_symbol
_atom_site_label
_atom_site_fract_x
_atom_site_fract_y
_atom_site_fract_z
Si Si1 0.670533 0.496621 0.708198
Si Si2 0.677585 0.766874 0.021333
Si Si3 0.828047 0.495639 0.376187
Si Si4 0.671080 0.272561 0.290538
Si Si5 0.679220 0.436460 0.539134
Si Si6 0.174189 0.842961 0.940843
Si Si7 0.170533 0.266243 0.371690
Si Si8 0.667304 0.971474 0.047546
O O1 0.750000 0.456050 0.750000
O O2 0.500000 0.455095 0.707081
O O3 0.753686 0.462352 0.665970
O O4 0.668554 0.611850 0.710091
O O5 0.500000 0.741016 0.023184
O O6 0.775334 0.675076 0.034261
O O7 0.716872 0.858349 0.051359
O O8 0.717591 0.797453 0.975149
O O9 0.743386 0.527958 0.417455
O O10 0.822575 0.380726 0.375921
O O11 0.000000 0.534382 0.377762
O O12 0.750000 0.230493 0.250000
O O13 0.500000 0.232318 0.294715
O O14 0.778175 0.233516 0.326593
O O15 0.740797 0.500000 0.500000
O O16 0.500000 0.445730 0.541018
O O17 0.203390 0.779638 0.900855
O O18 0.000000 0.835514 0.954593
O O19 0.215078 0.955497 0.930611
O O20 0.000000 0.228115 0.380564
O O21 0.500000 0.985016 0.067125
O O22 0.662053 0.000000 0.000000
#
# Coordination Sequence:
#
# PCOD8218396 Si02
#       8
#     8   8   8   8   8   8   8   8
#     4   9  16  27  44  64  87 114 146 186 230 273
#     4  10  20  34  50  65  85 116 151 186 224 266
#     4  10  20  32  46  64  88 121 159 193 227 269
#     4   9  16  26  40  59  84 114 147 180 217 263
#     4  11  23  35  47  65  91 123 158 194 230 269
#     4  11  20  29  45  68  91 114 144 183 225 267
#     4  10  19  30  44  62  87 119 152 186 222 261
#     4   8  16  31  48  65  85 110 141 178 220 263
#
# _framework density 16.241537000000001
#
# number of rings (size 3 to 8) (size 9 to 14) (size 15 to 20)
#    0.000    2.250    0.000    4.875    0.000   10.250 
#    0.000    0.000    0.000    0.000    0.000    0.000 
#    0.000    1.000    0.000    3.750    0.000    5.750 
#
# Total GULP energy -793268.422258 kJ/mol
# GULP energy per Si atom -12394.819098 kJ/mol
# Density = 1.620457 g / cm^3
# Si number density = 16.241537 Si / 1000 Ang^3
#
#
#
# Elastic Constant Matrix: (Units=GPa)
#
#
# Indices 1 2 3 4 5 6 
#
# 1 91.7792 29.7021 39.3769 0.0000 0.0000 0.0000
# 2 29.7021 26.2179 18.6804 0.0000 0.0000 0.0000
# 3 39.3769 18.6804 102.3245 0.0000 0.0000 0.0000
# 4 0.0000 0.0000 0.0000 8.8924 0.0000 0.0000
# 5 0.0000 0.0000 0.0000 0.0000 29.3713 0.0000
# 6 0.0000 0.0000 0.0000 0.0000 0.0000 20.8260
#
#
#
# Elastic Compliance Matrix: (Units=1/GPa)
#
#
# Indices 1 2 3 4 5 6 
#
# 1 0.018381 -0.018144 -0.003761 0.000000 0.000000 0.000000
# 2 -0.018144 0.061755 -0.004292 0.000000 0.000000 0.000000
# 3 -0.003761 -0.004292 0.012004 0.000000 0.000000 0.000000
# 4 0.000000 0.000000 0.000000 0.112456 0.000000 0.000000
# 5 0.000000 0.000000 0.000000 0.000000 0.034047 0.000000
# 6 0.000000 0.000000 0.000000 0.000000 0.000000 0.048017
#
#
# Mechanical properties :
#
#
# Convention : Reuss Voigt Hill
#
# Bulk Modulus (GPa) = 25.15974 43.98228 34.57101
# Shear Modulus (GPa) = 14.19232 20.65542 17.42387
#
# Velocity S-wave (km/s) = 2.95927 3.57005 3.27891
# Velocity P-wave (km/s) = 5.21545 6.64324 5.97217
#
# Compressibility (1/GPa) = 0.03974605
#
# Stress axis : x y z
#
# Youngs Moduli (GPa) = 54.40297 16.19294 83.30764
#
# Poissons Ratio (x) = 0.29381 0.31333
# Poissons Ratio (y) = 0.98710 0.35753
# Poissons Ratio (z) = 0.20462 0.06950
#
# Static dielectric constant tensor:
#      x y z
#    x 3.248270 0.000000 0.000000 
#    y 0.000000 3.020540 0.000000 
#    z 0.000000 0.000000 3.066630 
# 
# 
# High freq. dielectric constant tensor:
#      x y z
#    x 1.642020 0.000000 0.000000 
#    y 0.000000 1.582330 0.000000 
#    z 0.000000 0.000000 1.611510 
# 
# From -- ./inp_files/38459.got.cif
#   From: 2010.03.12/outbox.cif.g09.slc.cpg/sg53_20_cif.got.tgz:38459.got - 2010.04.16 14:36:59.
