data_PCOD8218354
_publ_section_title
;
Structure prediction by ZEFSAII (Michael W. Deem and Ramdas Pophale) SiO2 
 PCOD8218354
Probable space group: P M N A
;
_chemical_formula_sum "Si O2"
_cell_formula_units_Z 64
_cell_length_a 9.345266
_cell_length_b 13.987201
_cell_length_c 27.852348
_cell_angle_alpha 90.000000
_cell_angle_beta 90.000000
_cell_angle_gamma 90.000000
_cell_volume 3640.694990
_symmetry_space_group_name_H-M "P M N A"
_symmetry_group_IT_number 53
_symmetry_cell_setting 'orthorhombic'
loop_
_space_group_symop_operation_xyz
x,y,z
1/2-x,-y,1/2+z
x,-y,-z
1/2-x,y,1/2-z
-x,-y,-z
1/2+x,y,1/2-z
-x,y,z
1/2+x,-y,1/2+z
loop_
_atom_site_type_symbol
_atom_site_label
_atom_site_fract_x
_atom_site_fract_y
_atom_site_fract_z
Si Si1 0.333138 0.107443 0.984909
Si Si2 0.836385 0.524182 0.203685
Si Si3 0.156733 0.236560 0.294866
Si Si4 0.164706 0.792953 0.936867
Si Si5 0.665527 0.866751 0.126190
Si Si6 0.830050 0.256581 0.798373
Si Si7 0.338674 0.355143 0.362757
Si Si8 0.160454 0.080512 0.364321
O O1 0.500000 0.117457 0.995865
O O2 0.297108 0.131379 0.930050
O O3 0.250692 0.190121 0.014187
O O4 0.282404 0.000000 0.000000
O O5 0.750000 0.483008 0.250000
O O6 0.791881 0.632505 0.192903
O O7 0.810993 0.465181 0.153478
O O8 0.000000 0.518025 0.219656
O O9 0.250000 0.257890 0.250000
O O10 0.214203 0.296535 0.338623
O O11 0.159146 0.126482 0.311260
O O12 0.000000 0.272555 0.281633
O O13 0.178018 0.680885 0.918446
O O14 0.225206 0.868022 0.898057
O O15 0.000000 0.818901 0.945799
O O16 0.500000 0.838093 0.134877
O O17 0.768896 0.795776 0.154773
O O18 0.701260 0.971819 0.145617
O O19 0.750000 0.220578 0.750000
O O20 0.000000 0.238480 0.793520
O O21 0.500000 0.326264 0.346204
O O22 0.000000 0.087216 0.387835
#
# Coordination Sequence:
#
# PCOD8218354 Si02
#       8
#     8   8   8   8   8   8   8   8
#     4  10  19  34  55  75 102 140 176 210 254 305
#     4   9  18  33  53  75 100 131 168 210 258 309
#     4  10  19  29  43  64  94 129 164 202 243 297
#     4  10  19  30  48  76 106 131 164 211 254 296
#     4  10  20  35  55  76 100 134 174 213 254 302
#     4  10  21  37  56  78 104 133 169 214 259 305
#     4   9  18  32  49  71 100 131 164 204 253 304
#     4   9  18  33  48  64  93 133 170 201 247 305
#
# _framework density 17.579062
#
# number of rings (size 3 to 8) (size 9 to 14) (size 15 to 20)
#    0.000    2.375    1.250    1.500    0.000    4.750 
#    0.000    1.250    0.000    0.750    0.000    5.250 
#    0.000    0.000    0.000    0.000    0.000    0.000 
#
# Total GULP energy -792893.364379 kJ/mol
# GULP energy per Si atom -12388.958818 kJ/mol
# Density = 1.753905 g / cm^3
# Si number density = 17.579062 Si / 1000 Ang^3
#
#
#
# Elastic Constant Matrix: (Units=GPa)
#
#
# Indices 1 2 3 4 5 6 
#
# 1 88.8041 33.6221 44.4878 0.0000 0.0000 0.0000
# 2 33.6221 76.3935 41.5832 0.0000 0.0000 0.0000
# 3 44.4878 41.5832 82.8770 0.0000 0.0000 0.0000
# 4 0.0000 0.0000 0.0000 28.3962 0.0000 0.0000
# 5 0.0000 0.0000 0.0000 0.0000 31.4527 0.0000
# 6 0.0000 0.0000 0.0000 0.0000 0.0000 24.7286
#
#
#
# Elastic Compliance Matrix: (Units=1/GPa)
#
#
# Indices 1 2 3 4 5 6 
#
# 1 0.015968 -0.003250 -0.006941 0.000000 0.000000 0.000000
# 2 -0.003250 0.018670 -0.007623 0.000000 0.000000 0.000000
# 3 -0.006941 -0.007623 0.019617 0.000000 0.000000 0.000000
# 4 0.000000 0.000000 0.000000 0.035216 0.000000 0.000000
# 5 0.000000 0.000000 0.000000 0.000000 0.031794 0.000000
# 6 0.000000 0.000000 0.000000 0.000000 0.000000 0.040439
#
#
# Mechanical properties :
#
#
# Convention : Reuss Voigt Hill
#
# Bulk Modulus (GPa) = 53.68501 54.16232 53.92366
# Shear Modulus (GPa) = 24.56509 25.47429 25.01969
#
# Velocity S-wave (km/s) = 3.74224 3.81087 3.77671
# Velocity P-wave (km/s) = 7.01983 7.08810 7.05405
#
# Compressibility (1/GPa) = 0.01862717
#
# Stress axis : x y z
#
# Youngs Moduli (GPa) = 62.62367 53.56241 50.97637
#
# Poissons Ratio (x) = 0.17406 0.35384
# Poissons Ratio (y) = 0.20350 0.38860
# Poissons Ratio (z) = 0.43469 0.40831
#
# Static dielectric constant tensor:
#      x y z
#    x 3.383710 0.000000 0.000000 
#    y 0.000000 3.322490 0.000000 
#    z 0.000000 0.000000 3.349680 
# 
# 
# High freq. dielectric constant tensor:
#      x y z
#    x 1.688700 0.000000 0.000000 
#    y 0.000000 1.663060 0.000000 
#    z 0.000000 0.000000 1.663930 
# 
# From -- ./inp_files/34248.got.cif
#   From: 2010.03.12/outbox.cif.g09.slc.cpg/sg53_18_cif.got.tgz:34248.got - 2010.04.16 14:36:59.
