data_PCOD8218053
_publ_section_title
;
Structure prediction by ZEFSAII (Michael W. Deem and Ramdas Pophale) SiO2 
 PCOD8218053
Probable space group: P M N A
;
_chemical_formula_sum "Si O2"
_cell_formula_units_Z 40
_cell_length_a 13.715633
_cell_length_b 12.122559
_cell_length_c 12.194670
_cell_angle_alpha 90.000000
_cell_angle_beta 90.000000
_cell_angle_gamma 90.000000
_cell_volume 2027.590346
_symmetry_space_group_name_H-M "P M N A"
_symmetry_group_IT_number 53
_symmetry_cell_setting 'orthorhombic'
loop_
_space_group_symop_operation_xyz
x,y,z
1/2-x,-y,1/2+z
x,-y,-z
1/2-x,y,1/2-z
-x,-y,-z
1/2+x,y,1/2-z
-x,y,z
1/2+x,-y,1/2+z
loop_
_atom_site_type_symbol
_atom_site_label
_atom_site_fract_x
_atom_site_fract_y
_atom_site_fract_z
Si Si1 0.205073 0.602193 0.926174
Si Si2 0.793653 0.843885 0.002841
Si Si3 0.613552 0.994890 0.337026
Si Si4 0.390150 0.116049 0.123881
Si Si5 0.891195 0.639569 0.700437
O O1 0.197234 0.712326 0.999566
O O2 0.315289 0.583025 0.882818
O O3 0.131033 0.607517 0.825119
O O4 0.173284 0.500000 0.000000
O O5 0.682325 0.883701 0.979458
O O6 0.863147 0.898767 0.911787
O O7 0.825234 0.888070 0.122561
O O8 0.500000 0.968100 0.348079
O O9 0.640081 0.020860 0.210491
O O10 0.500000 0.099493 0.079202
O O11 0.380328 0.229243 0.191314
O O12 0.000000 0.599494 0.669887
#
# Coordination Sequence:
#
# PCOD8218053 Si02
#       5
#     8   8   8   8   8
#     4  10  20  33  54  81 107 136 177 216 259 309
#     4  10  18  31  52  79 105 135 172 214 263 305
#     4  10  19  31  53  80 105 132 172 218 262 310
#     4   9  17  32  55  78 101 134 176 218 254 303
#     4   9  18  34  55  79 104 134 178 219 256 305
#
# _framework density 19.727851999999999
#
# number of rings (size 3 to 8) (size 9 to 14) (size 15 to 20)
#    0.000    2.400    2.000    1.800    0.000    1.600 
#    0.000    2.000   17.600    2.400    0.000    0.000 
#    0.000    0.000    0.000    0.000    0.000    0.000 
#
# Total GULP energy -495933.648612 kJ/mol
# GULP energy per Si atom -12398.341215 kJ/mol
# Density = 1.968295 g / cm^3
# Si number density = 19.727852 Si / 1000 Ang^3
#
#
#
# Elastic Constant Matrix: (Units=GPa)
#
#
# Indices 1 2 3 4 5 6 
#
# 1 95.5192 23.9707 27.6501 0.0000 0.0000 0.0000
# 2 23.9707 99.2655 35.4574 0.0000 0.0000 0.0000
# 3 27.6501 35.4574 51.3631 0.0000 0.0000 0.0000
# 4 0.0000 0.0000 0.0000 32.2655 0.0000 0.0000
# 5 0.0000 0.0000 0.0000 0.0000 14.0636 0.0000
# 6 0.0000 0.0000 0.0000 0.0000 0.0000 21.2177
#
#
#
# Elastic Compliance Matrix: (Units=1/GPa)
#
#
# Indices 1 2 3 4 5 6 
#
# 1 0.012451 -0.000813 -0.006141 0.000000 0.000000 0.000000
# 2 -0.000813 0.013424 -0.008829 0.000000 0.000000 0.000000
# 3 -0.006141 -0.008829 0.028871 0.000000 0.000000 0.000000
# 4 0.000000 0.000000 0.000000 0.030993 0.000000 0.000000
# 5 0.000000 0.000000 0.000000 0.000000 0.071105 0.000000
# 6 0.000000 0.000000 0.000000 0.000000 0.000000 0.047130
#
#
# Mechanical properties :
#
#
# Convention : Reuss Voigt Hill
#
# Bulk Modulus (GPa) = 43.14448 46.70046 44.92247
# Shear Modulus (GPa) = 20.55347 24.11401 22.33374
#
# Velocity S-wave (km/s) = 3.23127 3.49998 3.36831
# Velocity P-wave (km/s) = 5.98655 6.32905 6.16018
#
# Compressibility (1/GPa) = 0.02317794
#
# Stress axis : x y z
#
# Youngs Moduli (GPa) = 80.31558 74.49259 34.63738
#
# Poissons Ratio (x) = 0.06056 0.21272
# Poissons Ratio (y) = 0.06529 0.30583
# Poissons Ratio (z) = 0.49325 0.65773
#
# Static dielectric constant tensor:
#      x y z
#    x 3.885190 0.000000 0.000000 
#    y 0.000000 3.345620 0.000000 
#    z 0.000000 0.000000 3.314400 
# 
# 
# High freq. dielectric constant tensor:
#      x y z
#    x 1.784890 0.000000 0.000000 
#    y 0.000000 1.738700 0.000000 
#    z 0.000000 0.000000 1.746300 
# 
# From -- ./inp_files/15783.got.cif
#   From: 2010.03.12/outbox.cif.g09.slc.cpg/sg53_8_cif.got.tgz:15783.got - 2010.04.16 14:36:59.
