data_PCOD8218007
_publ_section_title
;
Structure prediction by ZEFSAII (Michael W. Deem and Ramdas Pophale) SiO2 
 PCOD8218007
Probable space group: P M N A
;
_chemical_formula_sum "Si O2"
_cell_formula_units_Z 40
_cell_length_a 7.689323
_cell_length_b 14.253368
_cell_length_c 20.571351
_cell_angle_alpha 90.000000
_cell_angle_beta 90.000000
_cell_angle_gamma 90.000000
_cell_volume 2254.594363
_symmetry_space_group_name_H-M "P M N A"
_symmetry_group_IT_number 53
_symmetry_cell_setting 'orthorhombic'
loop_
_space_group_symop_operation_xyz
x,y,z
1/2-x,-y,1/2+z
x,-y,-z
1/2-x,y,1/2-z
-x,-y,-z
1/2+x,y,1/2-z
-x,y,z
1/2+x,-y,1/2+z
loop_
_atom_site_type_symbol
_atom_site_label
_atom_site_fract_x
_atom_site_fract_y
_atom_site_fract_z
Si Si1 0.696826 0.774831 0.540809
Si Si2 0.000000 0.434457 0.596949
Si Si3 0.000000 0.638289 0.548507
Si Si4 0.698044 0.034872 0.068726
Si Si5 0.795976 0.337089 0.824449
Si Si6 0.298082 0.843340 0.399922
O O1 0.500000 0.734863 0.539316
O O2 0.702064 0.868458 0.586872
O O3 0.767942 0.802999 0.469075
O O4 0.825862 0.695451 0.567572
O O5 0.000000 0.546372 0.592741
O O6 0.000000 0.386785 0.527045
O O7 0.176857 0.406727 0.633992
O O8 0.500000 0.065116 0.062216
O O9 0.718192 0.946159 0.117661
O O10 0.775884 0.000000 0.000000
O O11 0.750000 0.351988 0.750000
O O12 0.747318 0.230104 0.843743
O O13 0.000000 0.358035 0.838487
O O14 0.500000 0.859170 0.404691
#
# Coordination Sequence:
#
# PCOD8218007 Si02
#       6
#     8   4   4   8   8   8
#     4  10  18  31  49  73 109 146 178 216 263 327
#     4  11  24  38  55  80 111 141 183 240 284 332
#     4  11  22  36  54  79 112 147 182 226 291 340
#     4   9  16  24  44  72 104 142 174 202 248 311
#     4  11  22  37  58  80 108 141 182 227 276 329
#     4   9  18  29  45  75 108 141 176 211 259 321
#
# _framework density 17.741551000000001
#
# number of rings (size 3 to 8) (size 9 to 14) (size 15 to 20)
#    0.000    2.000    4.000    0.600    2.800    3.200 
#    0.000    2.000    0.000    0.000    0.000    1.400 
#    0.000    0.000    0.000    0.000    0.000    0.000 
#
# Total GULP energy -495751.858500 kJ/mol
# GULP energy per Si atom -12393.796462 kJ/mol
# Density = 1.770117 g / cm^3
# Si number density = 17.741551 Si / 1000 Ang^3
#
#
#
# Elastic Constant Matrix: (Units=GPa)
#
#
# Indices 1 2 3 4 5 6 
#
# 1 109.5140 66.6513 26.0250 0.0000 0.0000 0.0000
# 2 66.6513 143.4195 38.3865 0.0000 0.0000 0.0000
# 3 26.0250 38.3865 50.7937 0.0000 0.0000 0.0000
# 4 0.0000 0.0000 0.0000 18.9399 0.0000 0.0000
# 5 0.0000 0.0000 0.0000 0.0000 14.4356 0.0000
# 6 0.0000 0.0000 0.0000 0.0000 0.0000 26.7847
#
#
#
# Elastic Compliance Matrix: (Units=1/GPa)
#
#
# Indices 1 2 3 4 5 6 
#
# 1 0.013006 -0.005341 -0.002628 0.000000 0.000000 0.000000
# 2 -0.005341 0.010934 -0.005527 0.000000 0.000000 0.000000
# 3 -0.002628 -0.005527 0.025210 0.000000 0.000000 0.000000
# 4 0.000000 0.000000 0.000000 0.052799 0.000000 0.000000
# 5 0.000000 0.000000 0.000000 0.000000 0.069273 0.000000
# 6 0.000000 0.000000 0.000000 0.000000 0.000000 0.037335
#
#
# Mechanical properties :
#
#
# Convention : Reuss Voigt Hill
#
# Bulk Modulus (GPa) = 45.12597 62.87254 53.99926
# Shear Modulus (GPa) = 20.58170 23.54300 22.06235
#
# Velocity S-wave (km/s) = 3.40970 3.64675 3.53021
# Velocity P-wave (km/s) = 6.40248 7.29703 6.86434
#
# Compressibility (1/GPa) = 0.02216019
#
# Stress axis : x y z
#
# Youngs Moduli (GPa) = 76.88556 91.45841 39.66630
#
# Poissons Ratio (x) = 0.48849 0.10422
# Poissons Ratio (y) = 0.41066 0.21922
# Poissons Ratio (z) = 0.20202 0.50545
#
# Static dielectric constant tensor:
#      x y z
#    x 3.354360 0.000000 0.000000 
#    y 0.000000 3.462520 0.000000 
#    z 0.000000 0.000000 2.855610 
# 
# 
# High freq. dielectric constant tensor:
#      x y z
#    x 1.702960 0.000000 0.000000 
#    y 0.000000 1.690200 0.000000 
#    z 0.000000 0.000000 1.616050 
# 
# From -- ./inp_files/30382.got.cif
#   From: 2010.03.12/outbox.cif.g09.slc.cpg/sg53_16_cif.got.tgz:30382.got - 2010.04.16 14:36:59.
