data_PCOD8218606
_publ_section_title
;
Structure prediction by ZEFSAII (Michael W. Deem and Ramdas Pophale) SiO2 
 PCOD8218606
Probable space group: P M N A
;
_chemical_formula_sum "Si O2"
_cell_formula_units_Z 56
_cell_length_a 8.793772
_cell_length_b 19.232425
_cell_length_c 18.438872
_cell_angle_alpha 90.000000
_cell_angle_beta 90.000000
_cell_angle_gamma 90.000000
_cell_volume 3118.484561
_symmetry_space_group_name_H-M "P M N A"
_symmetry_group_IT_number 53
_symmetry_cell_setting 'orthorhombic'
loop_
_space_group_symop_operation_xyz
x,y,z
1/2-x,-y,1/2+z
x,-y,-z
1/2-x,y,1/2-z
-x,-y,-z
1/2+x,y,1/2-z
-x,y,z
1/2+x,-y,1/2+z
loop_
_atom_site_type_symbol
_atom_site_label
_atom_site_fract_x
_atom_site_fract_y
_atom_site_fract_z
Si Si1 0.676812 0.938372 0.672753
Si Si2 0.178527 0.087687 0.828553
Si Si3 0.678745 0.571166 0.030190
Si Si4 0.820008 0.212416 0.170482
Si Si5 0.318962 0.644183 0.173910
Si Si6 0.819815 0.226943 0.902184
Si Si7 0.679122 0.712977 0.958701
O O1 0.750000 0.939427 0.750000
O O2 0.500000 0.937627 0.686619
O O3 0.720230 0.864414 0.635609
O O4 0.722875 0.012039 0.634612
O O5 0.250000 0.097324 0.750000
O O6 0.232748 0.149098 0.881309
O O7 0.000000 0.092783 0.817079
O O8 0.500000 0.560947 0.034536
O O9 0.720878 0.632943 0.975012
O O10 0.755101 0.500000 0.000000
O O11 0.736159 0.590337 0.111308
O O12 0.750000 0.220162 0.250000
O O13 0.741758 0.270162 0.120669
O O14 0.000000 0.225330 0.173945
O O15 0.250000 0.618615 0.250000
O O16 0.500000 0.647730 0.178886
O O17 0.257656 0.720506 0.154434
O O18 0.000000 0.237261 0.898778
O O19 0.761754 0.237961 0.983409
O O20 0.500000 0.725846 0.963724
#
# Coordination Sequence:
#
# PCOD8218606 Si02
#       7
#     8   8   8   8   8   8   8
#     4   8  15  28  45  66  91 122 161 202 244 286
#     4   9  17  28  44  67  94 126 164 204 244 285
#     4   8  16  33  55  75  97 129 164 198 242 293
#     4  10  19  33  54  75  97 126 162 205 247 289
#     4  10  19  31  50  75 102 132 166 203 242 289
#     4  10  19  31  48  70  99 132 165 202 243 289
#     4  10  20  34  53  75  99 126 158 197 242 295
#
# _framework density 17.957439999999998
#
# number of rings (size 3 to 8) (size 9 to 14) (size 15 to 20)
#    0.000    2.714    0.000    3.000    0.000    2.857 
#    0.000    1.429    0.000   21.429    0.000    0.000 
#    0.000    0.000    0.000    0.000    0.000    0.000 
#
# Total GULP energy -693812.093864 kJ/mol
# GULP energy per Si atom -12389.501676 kJ/mol
# Density = 1.791657 g / cm^3
# Si number density = 17.957440 Si / 1000 Ang^3
#
#
#
# Elastic Constant Matrix: (Units=GPa)
#
#
# Indices 1 2 3 4 5 6 
#
# 1 53.6694 37.0306 31.1290 0.0000 0.0000 0.0000
# 2 37.0306 135.6572 72.2352 0.0000 0.0000 0.0000
# 3 31.1290 72.2352 101.5170 0.0000 0.0000 0.0000
# 4 0.0000 0.0000 0.0000 13.8240 0.0000 0.0000
# 5 0.0000 0.0000 0.0000 0.0000 30.2278 0.0000
# 6 0.0000 0.0000 0.0000 0.0000 0.0000 19.0182
#
#
#
# Elastic Compliance Matrix: (Units=1/GPa)
#
#
# Indices 1 2 3 4 5 6 
#
# 1 0.024099 -0.004256 -0.004361 0.000000 0.000000 0.000000
# 2 -0.004256 0.012620 -0.007675 0.000000 0.000000 0.000000
# 3 -0.004361 -0.007675 0.016649 0.000000 0.000000 0.000000
# 4 0.000000 0.000000 0.000000 0.072338 0.000000 0.000000
# 5 0.000000 0.000000 0.000000 0.000000 0.033082 0.000000
# 6 0.000000 0.000000 0.000000 0.000000 0.000000 0.052581
#
#
# Mechanical properties :
#
#
# Convention : Reuss Voigt Hill
#
# Bulk Modulus (GPa) = 48.11477 63.51481 55.81479
# Shear Modulus (GPa) = 19.92977 22.64390 21.28683
#
# Velocity S-wave (km/s) = 3.33503 3.55487 3.44671
# Velocity P-wave (km/s) = 6.45615 7.23159 6.85484
#
# Compressibility (1/GPa) = 0.02078364
#
# Stress axis : x y z
#
# Youngs Moduli (GPa) = 41.49600 79.23927 60.06389
#
# Poissons Ratio (x) = 0.33724 0.26195
# Poissons Ratio (y) = 0.17661 0.46098
# Poissons Ratio (z) = 0.18097 0.60815
#
# Static dielectric constant tensor:
#      x y z
#    x 3.197560 0.000000 0.000000 
#    y 0.000000 3.887010 0.000000 
#    z 0.000000 0.000000 3.225510 
# 
# 
# High freq. dielectric constant tensor:
#      x y z
#    x 1.691800 0.000000 0.000000 
#    y 0.000000 1.700570 0.000000 
#    z 0.000000 0.000000 1.672950 
# 
# From -- ./inp_files/20588.got.cif
#   From: 2010.03.12/outbox.cif.g09.slc.cpg/sg53_11_cif.got.tgz:20588.got - 2010.04.16 14:36:59.
