data_PCOD8218414
_publ_section_title
;
Structure prediction by ZEFSAII (Michael W. Deem and Ramdas Pophale) SiO2 
 PCOD8218414
Probable space group: P M N A
;
_chemical_formula_sum "Si O2"
_cell_formula_units_Z 56
_cell_length_a 8.941740
_cell_length_b 20.959033
_cell_length_c 18.193982
_cell_angle_alpha 90.000000
_cell_angle_beta 90.000000
_cell_angle_gamma 90.000000
_cell_volume 3409.738237
_symmetry_space_group_name_H-M "P M N A"
_symmetry_group_IT_number 53
_symmetry_cell_setting 'orthorhombic'
loop_
_space_group_symop_operation_xyz
x,y,z
1/2-x,-y,1/2+z
x,-y,-z
1/2-x,y,1/2-z
-x,-y,-z
1/2+x,y,1/2-z
-x,y,z
1/2+x,-y,1/2+z
loop_
_atom_site_type_symbol
_atom_site_label
_atom_site_fract_x
_atom_site_fract_y
_atom_site_fract_z
Si Si1 0.665005 0.562537 0.549228
Si Si2 0.335456 0.070762 0.030966
Si Si3 0.175259 0.752237 0.172126
Si Si4 0.324141 0.114770 0.603888
Si Si5 0.323948 0.376408 0.594603
Si Si6 0.322879 0.007097 0.174424
Si Si7 0.676660 0.494690 0.827599
O O1 0.655987 0.500000 0.500000
O O2 0.500000 0.578001 0.581563
O O3 0.718161 0.617868 0.492360
O O4 0.779468 0.551839 0.616157
O O5 0.500000 0.102851 0.027119
O O6 0.281682 0.062626 0.115421
O O7 0.220381 0.111808 0.982436
O O8 0.346606 0.000000 0.000000
O O9 0.250000 0.742047 0.250000
O O10 0.230002 0.817409 0.134613
O O11 0.221968 0.694277 0.119138
O O12 0.000000 0.753866 0.185146
O O13 0.500000 0.104492 0.611207
O O14 0.241811 0.061327 0.651398
O O15 0.500000 0.390272 0.605944
O O16 0.234141 0.426574 0.644051
O O17 0.250000 0.029903 0.250000
O O18 0.500000 0.999344 0.182341
O O19 0.750000 0.511014 0.750000
O O20 0.500000 0.492185 0.819195
#
# Coordination Sequence:
#
# PCOD8218414 Si02
#       7
#     8   8   8   8   8   8   8
#     4   8  15  29  47  64  85 115 146 179 222 265
#     4   8  16  30  45  62  86 115 146 182 223 264
#     4  10  21  33  45  65  91 121 154 184 213 250
#     4  10  19  30  45  65  90 120 153 184 216 258
#     4   9  18  33  48  63  89 121 151 182 218 260
#     4  10  19  30  45  66  91 117 146 182 225 267
#     4  11  20  29  44  67  93 117 146 183 222 264
#
# _framework density 16.423549000000001
#
# number of rings (size 3 to 8) (size 9 to 14) (size 15 to 20)
#    0.000    2.571    0.000    4.714    0.000    9.714 
#    0.000    0.000    0.000    0.000    0.000    1.000 
#    0.000    2.286    0.000    0.000    0.000    0.000 
#
# Total GULP energy -694157.065945 kJ/mol
# GULP energy per Si atom -12395.661892 kJ/mol
# Density = 1.638617 g / cm^3
# Si number density = 16.423549 Si / 1000 Ang^3
#
#
#
# Elastic Constant Matrix: (Units=GPa)
#
#
# Indices 1 2 3 4 5 6 
#
# 1 73.3504 16.5709 41.6083 0.0000 0.0000 0.0000
# 2 16.5709 39.3501 21.1317 0.0000 0.0000 0.0000
# 3 41.6083 21.1317 104.4740 0.0000 0.0000 0.0000
# 4 0.0000 0.0000 0.0000 25.7428 0.0000 0.0000
# 5 0.0000 0.0000 0.0000 0.0000 30.6344 0.0000
# 6 0.0000 0.0000 0.0000 0.0000 0.0000 3.3791
#
#
#
# Elastic Compliance Matrix: (Units=1/GPa)
#
#
# Indices 1 2 3 4 5 6 
#
# 1 0.018220 -0.004236 -0.006400 0.000000 0.000000 0.000000
# 2 -0.004236 0.029495 -0.004279 0.000000 0.000000 0.000000
# 3 -0.006400 -0.004279 0.012986 0.000000 0.000000 0.000000
# 4 0.000000 0.000000 0.000000 0.038846 0.000000 0.000000
# 5 0.000000 0.000000 0.000000 0.000000 0.032643 0.000000
# 6 0.000000 0.000000 0.000000 0.000000 0.000000 0.295937
#
#
# Mechanical properties :
#
#
# Convention : Reuss Voigt Hill
#
# Bulk Modulus (GPa) = 32.39193 41.75515 37.07354
# Shear Modulus (GPa) = 10.67814 21.14216 15.91015
#
# Velocity S-wave (km/s) = 2.55261 3.59180 3.11584
# Velocity P-wave (km/s) = 5.33418 6.53303 5.96381
#
# Compressibility (1/GPa) = 0.03087189
#
# Stress axis : x y z
#
# Youngs Moduli (GPa) = 54.88337 33.90456 77.00601
#
# Poissons Ratio (x) = 0.14362 0.49282
# Poissons Ratio (y) = 0.23249 0.32949
# Poissons Ratio (z) = 0.35124 0.14507
#
# Static dielectric constant tensor:
#      x y z
#    x 3.113170 0.000000 0.000000 
#    y 0.000000 3.010720 0.000000 
#    z 0.000000 0.000000 3.718630 
# 
# 
# High freq. dielectric constant tensor:
#      x y z
#    x 1.635910 0.000000 0.000000 
#    y 0.000000 1.589820 0.000000 
#    z 0.000000 0.000000 1.638990 
# 
# From -- ./inp_files/26728.got.cif
#   From: 2010.03.12/outbox.cif.g09.slc.cpg/sg53_14_cif.got.tgz:26728.got - 2010.04.16 14:36:59.
