data_PCOD8218868
_publ_section_title
;
Structure prediction by ZEFSAII (Michael W. Deem and Ramdas Pophale) SiO2 
 PCOD8218868
Probable space group: P M N A
;
_chemical_formula_sum "Si O2"
_cell_formula_units_Z 56
_cell_length_a 17.299902
_cell_length_b 13.251139
_cell_length_c 13.079156
_cell_angle_alpha 90.000000
_cell_angle_beta 90.000000
_cell_angle_gamma 90.000000
_cell_volume 2998.310270
_symmetry_space_group_name_H-M "P M N A"
_symmetry_group_IT_number 53
_symmetry_cell_setting 'orthorhombic'
loop_
_space_group_symop_operation_xyz
x,y,z
1/2-x,-y,1/2+z
x,-y,-z
1/2-x,y,1/2-z
-x,-y,-z
1/2+x,y,1/2-z
-x,y,z
1/2+x,-y,1/2+z
loop_
_atom_site_type_symbol
_atom_site_label
_atom_site_fract_x
_atom_site_fract_y
_atom_site_fract_z
Si Si1 0.831716 0.908028 0.425085
Si Si2 0.086250 0.462459 0.616321
Si Si3 0.590302 0.720615 0.996761
Si Si4 0.162846 0.354823 0.290917
Si Si5 0.163740 0.110545 0.954448
Si Si6 0.589184 0.198909 0.357591
Si Si7 0.587961 0.980297 0.270826
O O1 0.897092 0.834455 0.469162
O O2 0.748239 0.853247 0.416460
O O3 0.826567 0.000000 0.500000
O O4 0.852946 0.949286 0.315356
O O5 0.088978 0.500000 0.500000
O O6 0.111151 0.345806 0.598982
O O7 0.140346 0.526639 0.693789
O O8 0.000000 0.471597 0.661636
O O9 0.500000 0.703809 0.964694
O O10 0.646450 0.697378 0.900523
O O11 0.250000 0.346852 0.250000
O O12 0.111968 0.298093 0.205963
O O13 0.101852 0.097869 0.863554
O O14 0.134700 0.193961 0.035152
O O15 0.172439 0.000000 0.000000
O O16 0.500000 0.206014 0.385277
O O17 0.607329 0.096634 0.295871
O O18 0.500000 0.969451 0.234209
#
# Coordination Sequence:
#
# PCOD8218868 Si02
#       7
#     8   8   8   8   8   8   8
#     4  11  21  32  50  78 110 140 175 222 268 309
#     4   8  16  33  54  72  95 130 168 206 252 308
#     4  10  20  35  54  77 109 144 174 210 264 325
#     4  11  20  31  51  80 108 130 164 218 272 313
#     4   9  19  34  49  69 102 141 177 216 264 315
#     4  10  19  32  52  75 101 136 176 217 263 319
#     4  10  20  33  49  70 100 140 182 217 256 320
#
# _framework density 18.677185999999999
#
# number of rings (size 3 to 8) (size 9 to 14) (size 15 to 20)
#    0.000    2.143    0.000    5.143    0.000    6.286 
#    0.000    1.429    0.000    0.000    0.000    0.000 
#    0.000   41.714    0.000    0.000    0.000    0.000 
#
# Total GULP energy -693949.165876 kJ/mol
# GULP energy per Si atom -12391.949391 kJ/mol
# Density = 1.863468 g / cm^3
# Si number density = 18.677186 Si / 1000 Ang^3
#
#
#
# Elastic Constant Matrix: (Units=GPa)
#
#
# Indices 1 2 3 4 5 6 
#
# 1 115.5672 41.8882 57.2908 0.0000 0.0000 0.0000
# 2 41.8882 61.6753 34.7078 0.0000 0.0000 0.0000
# 3 57.2908 34.7078 92.9173 0.0000 0.0000 0.0000
# 4 0.0000 0.0000 0.0000 31.7470 0.0000 0.0000
# 5 0.0000 0.0000 0.0000 0.0000 33.5725 0.0000
# 6 0.0000 0.0000 0.0000 0.0000 0.0000 19.9491
#
#
#
# Elastic Compliance Matrix: (Units=1/GPa)
#
#
# Indices 1 2 3 4 5 6 
#
# 1 0.013962 -0.005872 -0.006415 0.000000 0.000000 0.000000
# 2 -0.005872 0.022999 -0.004970 0.000000 0.000000 0.000000
# 3 -0.006415 -0.004970 0.016574 0.000000 0.000000 0.000000
# 4 0.000000 0.000000 0.000000 0.031499 0.000000 0.000000
# 5 0.000000 0.000000 0.000000 0.000000 0.029786 0.000000
# 6 0.000000 0.000000 0.000000 0.000000 0.000000 0.050128
#
#
# Mechanical properties :
#
#
# Convention : Reuss Voigt Hill
#
# Bulk Modulus (GPa) = 52.57625 59.77038 56.17331
# Shear Modulus (GPa) = 24.29509 26.13856 25.21683
#
# Velocity S-wave (km/s) = 3.61056 3.74504 3.67841
# Velocity P-wave (km/s) = 6.75223 7.12542 6.94134
#
# Compressibility (1/GPa) = 0.01902000
#
# Stress axis : x y z
#
# Youngs Moduli (GPa) = 71.62538 43.47954 60.33508
#
# Poissons Ratio (x) = 0.25533 0.38704
# Poissons Ratio (y) = 0.42061 0.29988
# Poissons Ratio (z) = 0.45947 0.21611
#
# Static dielectric constant tensor:
#      x y z
#    x 3.555020 0.000000 0.000000 
#    y 0.000000 3.677290 0.000000 
#    z 0.000000 0.000000 3.227220 
# 
# 
# High freq. dielectric constant tensor:
#      x y z
#    x 1.730940 0.000000 0.000000 
#    y 0.000000 1.706490 0.000000 
#    z 0.000000 0.000000 1.709980 
# 
# From -- ./inp_files/16084.got.cif
#   From: 2010.03.12/outbox.cif.g09.slc.cpg/sg53_9_cif.got.tgz:16084.got - 2010.04.16 14:36:59.
