data_PCOD8218278
_publ_section_title
;
Structure prediction by ZEFSAII (Michael W. Deem and Ramdas Pophale) SiO2 
 PCOD8218278
Probable space group: P M N A
;
_chemical_formula_sum "Si O2"
_cell_formula_units_Z 56
_cell_length_a 15.178269
_cell_length_b 10.077186
_cell_length_c 17.407573
_cell_angle_alpha 90.000000
_cell_angle_beta 90.000000
_cell_angle_gamma 90.000000
_cell_volume 2662.562096
_symmetry_space_group_name_H-M "P M N A"
_symmetry_group_IT_number 53
_symmetry_cell_setting 'orthorhombic'
loop_
_space_group_symop_operation_xyz
x,y,z
1/2-x,-y,1/2+z
x,-y,-z
1/2-x,y,1/2-z
-x,-y,-z
1/2+x,y,1/2-z
-x,y,z
1/2+x,-y,1/2+z
loop_
_atom_site_type_symbol
_atom_site_label
_atom_site_fract_x
_atom_site_fract_y
_atom_site_fract_z
Si Si1 0.901725 0.232937 0.195693
Si Si2 0.602312 0.683001 0.322543
Si Si3 0.179188 0.030599 0.816940
Si Si4 0.264908 0.630204 0.446479
Si Si5 0.098451 0.382979 0.646855
Si Si6 0.234074 0.810504 0.921027
Si Si7 0.403093 0.313993 0.138586
O O1 0.829368 0.278433 0.133745
O O2 0.879283 0.312366 0.271925
O O3 0.000000 0.264455 0.165616
O O4 0.892244 0.075360 0.214166
O O5 0.500000 0.662398 0.342634
O O6 0.628994 0.835356 0.335432
O O7 0.660427 0.597898 0.382800
O O8 0.622539 0.634245 0.236448
O O9 0.250000 0.054576 0.750000
O O10 0.221418 0.965883 0.896421
O O11 0.252089 0.500000 0.500000
O O12 0.175106 0.681235 0.404473
O O13 0.293077 0.763139 0.493813
O O14 0.099042 0.533050 0.616878
O O15 0.000000 0.322341 0.631794
O O16 0.335565 0.770084 0.911311
O O17 0.500000 0.252655 0.123860
#
# Coordination Sequence:
#
# PCOD8218278 Si02
#       7
#     8   8   8   8   8   8   8
#     4   9  18  32  57  88 121 160 206 255 304 360
#     4  11  26  45  64  93 126 168 217 260 312 377
#     4  10  19  38  65  90 122 162 216 263 308 364
#     4  12  25  40  64  91 132 169 207 259 324 384
#     4  10  23  42  68  93 124 167 213 264 321 382
#     4  10  21  36  57  91 125 165 204 255 312 377
#     4  10  18  34  60  92 124 161 207 260 311 372
#
# _framework density 21.032374999999998
#
# number of rings (size 3 to 8) (size 9 to 14) (size 15 to 20)
#    0.857    0.857    2.857    2.143    2.000    3.429 
#    0.000    0.714    0.000    0.000    0.000    4.000 
#    0.000    0.000    0.000    0.000    0.000    0.000 
#
# Total GULP energy -693735.552680 kJ/mol
# GULP energy per Si atom -12388.134869 kJ/mol
# Density = 2.098450 g / cm^3
# Si number density = 21.032375 Si / 1000 Ang^3
#
#
#
# Elastic Constant Matrix: (Units=GPa)
#
#
# Indices 1 2 3 4 5 6 
#
# 1 94.0508 10.6936 53.4064 0.0000 0.0000 0.0000
# 2 10.6936 53.4933 9.3345 0.0000 0.0000 0.0000
# 3 53.4064 9.3345 80.4994 0.0000 0.0000 0.0000
# 4 0.0000 0.0000 0.0000 10.2316 0.0000 0.0000
# 5 0.0000 0.0000 0.0000 0.0000 27.7648 0.0000
# 6 0.0000 0.0000 0.0000 0.0000 0.0000 28.9536
#
#
#
# Elastic Compliance Matrix: (Units=1/GPa)
#
#
# Indices 1 2 3 4 5 6 
#
# 1 0.017173 -0.001475 -0.011222 0.000000 0.000000 0.000000
# 2 -0.001475 0.019207 -0.001249 0.000000 0.000000 0.000000
# 3 -0.011222 -0.001249 0.020012 0.000000 0.000000 0.000000
# 4 0.000000 0.000000 0.000000 0.097737 0.000000 0.000000
# 5 0.000000 0.000000 0.000000 0.000000 0.036017 0.000000
# 6 0.000000 0.000000 0.000000 0.000000 0.000000 0.034538
#
#
# Mechanical properties :
#
#
# Convention : Reuss Voigt Hill
#
# Bulk Modulus (GPa) = 35.08687 41.65696 38.37192
# Shear Modulus (GPa) = 19.07857 23.69726 21.38792
#
# Velocity S-wave (km/s) = 3.01509 3.36028 3.19235
# Velocity P-wave (km/s) = 5.37024 5.90800 5.64553
#
# Compressibility (1/GPa) = 0.02850069
#
# Stress axis : x y z
#
# Youngs Moduli (GPa) = 58.23246 52.06532 49.96923
#
# Poissons Ratio (x) = 0.07678 0.56075
# Poissons Ratio (y) = 0.08587 0.06240
# Poissons Ratio (z) = 0.65348 0.06502
#
# Static dielectric constant tensor:
#      x y z
#    x 3.989970 0.000000 0.000000 
#    y 0.000000 3.531350 0.000000 
#    z 0.000000 0.000000 3.767730 
# 
# 
# High freq. dielectric constant tensor:
#      x y z
#    x 1.831930 0.000000 0.000000 
#    y 0.000000 1.801920 0.000000 
#    z 0.000000 0.000000 1.815050 
# 
# From -- ./inp_files/22856.got.cif
#   From: 2010.03.12/outbox.cif.g09.slc.cpg/sg53_12_cif.got.tgz:22856.got - 2010.04.16 14:36:59.
