data_PCOD8218224
_publ_section_title
;
Structure prediction by ZEFSAII (Michael W. Deem and Ramdas Pophale) SiO2 
 PCOD8218224
Probable space group: P M N A
;
_chemical_formula_sum "Si O2"
_cell_formula_units_Z 64
_cell_length_a 8.956481
_cell_length_b 12.034070
_cell_length_c 31.311407
_cell_angle_alpha 90.000000
_cell_angle_beta 90.000000
_cell_angle_gamma 90.000000
_cell_volume 3374.834854
_symmetry_space_group_name_H-M "P M N A"
_symmetry_group_IT_number 53
_symmetry_cell_setting 'orthorhombic'
loop_
_space_group_symop_operation_xyz
x,y,z
1/2-x,-y,1/2+z
x,-y,-z
1/2-x,y,1/2-z
-x,-y,-z
1/2+x,y,1/2-z
-x,y,z
1/2+x,-y,1/2+z
loop_
_atom_site_type_symbol
_atom_site_label
_atom_site_fract_x
_atom_site_fract_y
_atom_site_fract_z
Si Si1 0.828350 0.755328 0.058996
Si Si2 0.325566 0.241934 0.707247
Si Si3 0.829466 0.112926 0.022938
Si Si4 0.175045 0.617518 0.625578
Si Si5 0.176974 0.087554 0.868603
Si Si6 0.822039 0.489319 0.950407
Si Si7 0.323160 0.496798 0.705356
Si Si8 0.171709 0.131598 0.389769
O O1 0.756677 0.850245 0.089204
O O2 0.764715 0.631603 0.065966
O O3 0.000000 0.751142 0.072406
O O4 0.809587 0.785170 0.009448
O O5 0.250000 0.198816 0.750000
O O6 0.500000 0.230749 0.713302
O O7 0.265935 0.161852 0.670392
O O8 0.281395 0.368568 0.696884
O O9 0.720092 0.136266 0.061309
O O10 0.000000 0.103547 0.039608
O O11 0.782007 0.000000 0.000000
O O12 0.243356 0.578877 0.580145
O O13 0.256698 0.563057 0.665663
O O14 0.203022 0.748907 0.631059
O O15 0.000000 0.588512 0.626145
O O16 0.000000 0.077064 0.870080
O O17 0.240389 0.963641 0.864233
O O18 0.000000 0.503513 0.946205
O O19 0.773767 0.500000 0.000000
O O20 0.250000 0.537178 0.750000
O O21 0.500000 0.516345 0.707851
O O22 0.000000 0.099848 0.387773
#
# Coordination Sequence:
#
# PCOD8218224 Si02
#       8
#     8   8   8   8   8   8   8   8
#     4   9  17  31  53  81 107 133 178 232 275 322
#     4   9  19  35  59  88 116 141 170 217 273 329
#     4  10  18  33  57  79 103 143 187 228 273 330
#     4  11  24  40  56  79 116 157 196 239 287 339
#     4  10  19  35  56  78 106 142 183 222 265 323
#     4  10  20  35  57  83 112 148 191 238 287 343
#     4  10  20  38  65  93 118 145 183 231 284 344
#     4  11  24  38  52  76 112 149 187 235 278 322
#
# _framework density 18.963892000000001
#
# number of rings (size 3 to 8) (size 9 to 14) (size 15 to 20)
#    0.000    2.000    1.250    2.625    0.000    6.500 
#    0.000    3.125    0.000    1.500    0.000    0.000 
#    0.000    0.000    0.000    0.000    0.000    0.000 
#
# Total GULP energy -793531.601233 kJ/mol
# GULP energy per Si atom -12398.931269 kJ/mol
# Density = 1.892073 g / cm^3
# Si number density = 18.963892 Si / 1000 Ang^3
#
#
#
# Elastic Constant Matrix: (Units=GPa)
#
#
# Indices 1 2 3 4 5 6 
#
# 1 60.3918 46.6236 50.6360 0.0000 0.0000 0.0000
# 2 46.6236 107.5569 55.6061 0.0000 0.0000 0.0000
# 3 50.6360 55.6061 130.9767 0.0000 0.0000 0.0000
# 4 0.0000 0.0000 0.0000 20.3778 0.0000 0.0000
# 5 0.0000 0.0000 0.0000 0.0000 29.6934 0.0000
# 6 0.0000 0.0000 0.0000 0.0000 0.0000 56.4347
#
#
#
# Elastic Compliance Matrix: (Units=1/GPa)
#
#
# Indices 1 2 3 4 5 6 
#
# 1 0.030034 -0.008989 -0.007795 0.000000 0.000000 0.000000
# 2 -0.008989 0.014602 -0.002724 0.000000 0.000000 0.000000
# 3 -0.007795 -0.002724 0.011805 0.000000 0.000000 0.000000
# 4 0.000000 0.000000 0.000000 0.049073 0.000000 0.000000
# 5 0.000000 0.000000 0.000000 0.000000 0.033677 0.000000
# 6 0.000000 0.000000 0.000000 0.000000 0.000000 0.017720
#
#
# Mechanical properties :
#
#
# Convention : Reuss Voigt Hill
#
# Bulk Modulus (GPa) = 57.38909 67.18407 62.28658
# Shear Modulus (GPa) = 24.78480 31.03850 27.91165
#
# Velocity S-wave (km/s) = 3.61909 4.05002 3.84061
# Velocity P-wave (km/s) = 6.91316 7.57460 7.25142
#
# Compressibility (1/GPa) = 0.01742491
#
# Stress axis : x y z
#
# Youngs Moduli (GPa) = 33.29555 68.48182 84.70967
#
# Poissons Ratio (x) = 0.61560 0.66030
# Poissons Ratio (y) = 0.29930 0.23077
# Poissons Ratio (z) = 0.25954 0.18656
#
# Static dielectric constant tensor:
#      x y z
#    x 3.294400 0.000000 0.000000 
#    y 0.000000 3.665470 0.000000 
#    z 0.000000 0.000000 3.564180 
# 
# 
# High freq. dielectric constant tensor:
#      x y z
#    x 1.717420 0.000000 0.000000 
#    y 0.000000 1.746460 0.000000 
#    z 0.000000 0.000000 1.735020 
# 
# From -- ./inp_files/38279.got.cif
#   From: 2010.03.12/outbox.cif.g09.slc.cpg/sg53_20_cif.got.tgz:38279.got - 2010.04.16 14:36:59.
