data_PCOD8218255
_publ_section_title
;
Structure prediction by ZEFSAII (Michael W. Deem and Ramdas Pophale) SiO2 
 PCOD8218255
Probable space group: P M N A
;
_chemical_formula_sum "Si O2"
_cell_formula_units_Z 64
_cell_length_a 15.091644
_cell_length_b 8.654225
_cell_length_c 24.993305
_cell_angle_alpha 90.000000
_cell_angle_beta 90.000000
_cell_angle_gamma 90.000000
_cell_volume 3264.287659
_symmetry_space_group_name_H-M "P M N A"
_symmetry_group_IT_number 53
_symmetry_cell_setting 'orthorhombic'
loop_
_space_group_symop_operation_xyz
x,y,z
1/2-x,-y,1/2+z
x,-y,-z
1/2-x,y,1/2-z
-x,-y,-z
1/2+x,y,1/2-z
-x,y,z
1/2+x,-y,1/2+z
loop_
_atom_site_type_symbol
_atom_site_label
_atom_site_fract_x
_atom_site_fract_y
_atom_site_fract_z
Si Si1 0.401445 0.087467 0.831272
Si Si2 0.097985 0.357323 0.879658
Si Si3 0.726277 0.084576 0.349630
Si Si4 0.220489 0.334184 0.499852
Si Si5 0.599938 0.621197 0.096042
Si Si6 0.845470 0.091539 0.950003
Si Si7 0.247340 0.402409 0.385719
Si Si8 0.601296 0.129909 0.711169
O O1 0.500000 0.012175 0.832846
O O2 0.392417 0.212700 0.877344
O O3 0.386119 0.168185 0.773560
O O4 0.328732 0.958231 0.841906
O O5 0.090544 0.217440 0.922815
O O6 0.168571 0.486082 0.896784
O O7 0.127813 0.282348 0.822883
O O8 0.000000 0.432514 0.875732
O O9 0.723416 0.271458 0.343502
O O10 0.688196 0.031586 0.406824
O O11 0.665061 0.013220 0.303291
O O12 0.274031 0.500000 0.500000
O O13 0.130876 0.367247 0.534017
O O14 0.263333 0.187210 0.527213
O O15 0.211133 0.302276 0.436801
O O16 0.500000 0.557474 0.097780
O O17 0.663879 0.508310 0.130819
O O18 0.891149 0.000000 0.000000
O O19 0.500000 0.083447 0.697458
#
# Coordination Sequence:
#
# PCOD8218255 Si02
#       8
#     8   8   8   8   8   8   8   8
#     4  10  20  38  61  85 108 142 189 242 288 335
#     4  10  21  39  59  84 113 151 197 238 280 342
#     4  11  21  34  58  82 114 150 184 226 285 341
#     4  10  18  34  55  78 115 150 183 219 282 319
#     4  10  20  36  61  84 111 152 196 229 275 340
#     4  11  19  34  58  80 113 151 188 235 276 327
#     4  11  22  35  55  82 120 155 183 228 282 337
#     4   9  20  39  62  82 108 143 190 242 291 335
#
# _framework density 19.606116
#
# number of rings (size 3 to 8) (size 9 to 14) (size 15 to 20)
#    0.000    1.750    5.000    1.125    0.000    3.500 
#    0.000    3.750    0.000    5.250    0.000    0.000 
#    0.000    0.000    0.000    0.000    0.000    0.000 
#
# Total GULP energy -792870.264737 kJ/mol
# GULP energy per Si atom -12388.597887 kJ/mol
# Density = 1.956149 g / cm^3
# Si number density = 19.606116 Si / 1000 Ang^3
#
#
#
# Elastic Constant Matrix: (Units=GPa)
#
#
# Indices 1 2 3 4 5 6 
#
# 1 112.4541 44.4919 22.7283 0.0000 0.0000 0.0000
# 2 44.4919 84.9023 16.7617 0.0000 0.0000 0.0000
# 3 22.7283 16.7617 78.7384 0.0000 0.0000 0.0000
# 4 0.0000 0.0000 0.0000 17.4586 0.0000 0.0000
# 5 0.0000 0.0000 0.0000 0.0000 22.7453 0.0000
# 6 0.0000 0.0000 0.0000 0.0000 0.0000 11.6242
#
#
#
# Elastic Compliance Matrix: (Units=1/GPa)
#
#
# Indices 1 2 3 4 5 6 
#
# 1 0.011553 -0.005632 -0.002136 0.000000 0.000000 0.000000
# 2 -0.005632 0.015041 -0.001576 0.000000 0.000000 0.000000
# 3 -0.002136 -0.001576 0.013652 0.000000 0.000000 0.000000
# 4 0.000000 0.000000 0.000000 0.057278 0.000000 0.000000
# 5 0.000000 0.000000 0.000000 0.000000 0.043965 0.000000
# 6 0.000000 0.000000 0.000000 0.000000 0.000000 0.086028
#
#
# Mechanical properties :
#
#
# Convention : Reuss Voigt Hill
#
# Bulk Modulus (GPa) = 46.38748 49.33983 47.86365
# Shear Modulus (GPa) = 19.73233 23.17314 21.45273
#
# Velocity S-wave (km/s) = 3.17588 3.44166 3.31144
# Velocity P-wave (km/s) = 6.09585 6.40418 6.25191
#
# Compressibility (1/GPa) = 0.02155754
#
# Stress axis : x y z
#
# Youngs Moduli (GPa) = 86.56081 66.48525 73.24784
#
# Poissons Ratio (x) = 0.37447 0.15644
# Poissons Ratio (y) = 0.48754 0.11544
# Poissons Ratio (z) = 0.18487 0.10479
#
# Static dielectric constant tensor:
#      x y z
#    x 3.547810 0.000000 0.000000 
#    y 0.000000 3.475510 0.000000 
#    z 0.000000 0.000000 3.772200 
# 
# 
# High freq. dielectric constant tensor:
#      x y z
#    x 1.755510 0.000000 0.000000 
#    y 0.000000 1.748260 0.000000 
#    z 0.000000 0.000000 1.762860 
# 
# From -- ./inp_files/35392.got.cif
#   From: 2010.03.12/outbox.cif.g09.slc.cpg/sg53_18_cif.got.tgz:35392.got - 2010.04.16 14:36:59.
