data_PCOD8218770
_publ_section_title
;
Structure prediction by ZEFSAII (Michael W. Deem and Ramdas Pophale) SiO2 
 PCOD8218770
Probable space group: P M N A
;
_chemical_formula_sum "Si O2"
_cell_formula_units_Z 64
_cell_length_a 8.953261
_cell_length_b 16.206937
_cell_length_c 23.834068
_cell_angle_alpha 90.000000
_cell_angle_beta 90.000000
_cell_angle_gamma 90.000000
_cell_volume 3458.440935
_symmetry_space_group_name_H-M "P M N A"
_symmetry_group_IT_number 53
_symmetry_cell_setting 'orthorhombic'
loop_
_space_group_symop_operation_xyz
x,y,z
1/2-x,-y,1/2+z
x,-y,-z
1/2-x,y,1/2-z
-x,-y,-z
1/2+x,y,1/2-z
-x,y,z
1/2+x,-y,1/2+z
loop_
_atom_site_type_symbol
_atom_site_label
_atom_site_fract_x
_atom_site_fract_y
_atom_site_fract_z
Si Si1 0.832207 0.261548 0.195091
Si Si2 0.166313 0.886497 0.891401
Si Si3 0.672444 0.694198 0.084216
Si Si4 0.324073 0.799927 0.192933
Si Si5 0.173076 0.772858 0.530019
Si Si6 0.679469 0.974005 0.308902
Si Si7 0.675586 0.523575 0.437581
Si Si8 0.823611 0.629145 0.612388
O O1 0.750000 0.228793 0.250000
O O2 0.831404 0.187517 0.151982
O O3 0.741171 0.339189 0.171176
O O4 0.000000 0.289721 0.209101
O O5 0.254475 0.857755 0.947046
O O6 0.000000 0.907293 0.911577
O O7 0.233812 0.966215 0.859485
O O8 0.500000 0.666876 0.078181
O O9 0.705053 0.734231 0.144220
O O10 0.776920 0.615593 0.077739
O O11 0.711542 0.760671 0.035548
O O12 0.250000 0.764820 0.250000
O O13 0.500000 0.816420 0.202061
O O14 0.241870 0.884182 0.175958
O O15 0.229960 0.691114 0.562832
O O16 0.000000 0.783958 0.541261
O O17 0.750000 0.004383 0.250000
O O18 0.500000 0.974034 0.303473
O O19 0.726819 0.500000 0.500000
O O20 0.500000 0.514488 0.429759
O O21 0.757553 0.461311 0.396038
O O22 0.000000 0.622934 0.615849
#
# Coordination Sequence:
#
# PCOD8218770 Si02
#       8
#     8   8   8   8   8   8   8   8
#     4  10  19  32  49  72 106 142 180 219 262 317
#     4   9  19  32  49  76 109 142 177 221 266 314
#     4  10  21  38  58  81 107 140 180 221 268 324
#     4  10  21  38  60  82 107 138 177 224 272 319
#     4   9  18  32  52  77 105 139 177 216 261 317
#     4  10  19  33  54  79 107 140 182 226 269 317
#     4  11  22  34  54  84 111 136 172 218 266 317
#     4  10  19  33  53  75 104 140 177 218 263 310
#
# _framework density 18.505447
#
# number of rings (size 3 to 8) (size 9 to 14) (size 15 to 20)
#    0.000    2.125    1.250    3.000    0.000    4.000 
#    0.000    1.250    0.000    5.250    0.000    0.000 
#    0.000    0.000    0.000    0.000    0.000    0.000 
#
# Total GULP energy -793568.787783 kJ/mol
# GULP energy per Si atom -12399.512309 kJ/mol
# Density = 1.846333 g / cm^3
# Si number density = 18.505447 Si / 1000 Ang^3
#
#
#
# Elastic Constant Matrix: (Units=GPa)
#
#
# Indices 1 2 3 4 5 6 
#
# 1 82.3554 38.4960 36.8451 0.0000 0.0000 0.0000
# 2 38.4960 77.5354 37.0137 0.0000 0.0000 0.0000
# 3 36.8451 37.0137 82.0142 0.0000 0.0000 0.0000
# 4 0.0000 0.0000 0.0000 21.7801 0.0000 0.0000
# 5 0.0000 0.0000 0.0000 0.0000 29.5296 0.0000
# 6 0.0000 0.0000 0.0000 0.0000 0.0000 27.0016
#
#
#
# Elastic Compliance Matrix: (Units=1/GPa)
#
#
# Indices 1 2 3 4 5 6 
#
# 1 0.017259 -0.006204 -0.004954 0.000000 0.000000 0.000000
# 2 -0.006204 0.018669 -0.005638 0.000000 0.000000 0.000000
# 3 -0.004954 -0.005638 0.016963 0.000000 0.000000 0.000000
# 4 0.000000 0.000000 0.000000 0.045914 0.000000 0.000000
# 5 0.000000 0.000000 0.000000 0.000000 0.033864 0.000000
# 6 0.000000 0.000000 0.000000 0.000000 0.000000 0.037035
#
#
# Mechanical properties :
#
#
# Convention : Reuss Voigt Hill
#
# Bulk Modulus (GPa) = 51.81639 51.84608 51.83123
# Shear Modulus (GPa) = 23.84029 24.29893 24.06961
#
# Velocity S-wave (km/s) = 3.59316 3.62756 3.61040
# Velocity P-wave (km/s) = 6.72873 6.75449 6.74162
#
# Compressibility (1/GPa) = 0.01929891
#
# Stress axis : x y z
#
# Youngs Moduli (GPa) = 57.94168 53.56381 58.95175
#
# Poissons Ratio (x) = 0.33232 0.29202
# Poissons Ratio (y) = 0.35948 0.33239
# Poissons Ratio (z) = 0.28702 0.30201
#
# Static dielectric constant tensor:
#      x y z
#    x 3.524880 0.000000 0.000000 
#    y 0.000000 3.279280 0.000000 
#    z 0.000000 0.000000 3.455420 
# 
# 
# High freq. dielectric constant tensor:
#      x y z
#    x 1.725440 0.000000 0.000000 
#    y 0.000000 1.704920 0.000000 
#    z 0.000000 0.000000 1.710340 
# 
# From -- ./inp_files/34347.got.cif
#   From: 2010.03.12/outbox.cif.g09.slc.cpg/sg53_18_cif.got.tgz:34347.got - 2010.04.16 14:36:59.
