data_PCOD8218581
_publ_section_title
;
Structure prediction by ZEFSAII (Michael W. Deem and Ramdas Pophale) SiO2 
 PCOD8218581
Probable space group: P M N A
;
_chemical_formula_sum "Si O2"
_cell_formula_units_Z 48
_cell_length_a 9.015958
_cell_length_b 18.562677
_cell_length_c 16.540818
_cell_angle_alpha 90.000000
_cell_angle_beta 90.000000
_cell_angle_gamma 90.000000
_cell_volume 2768.276531
_symmetry_space_group_name_H-M "P M N A"
_symmetry_group_IT_number 53
_symmetry_cell_setting 'orthorhombic'
loop_
_space_group_symop_operation_xyz
x,y,z
1/2-x,-y,1/2+z
x,-y,-z
1/2-x,y,1/2-z
-x,-y,-z
1/2+x,y,1/2-z
-x,y,z
1/2+x,-y,1/2+z
loop_
_atom_site_type_symbol
_atom_site_label
_atom_site_fract_x
_atom_site_fract_y
_atom_site_fract_z
Si Si1 0.325799 0.073720 0.168673
Si Si2 0.822794 0.594066 0.332816
Si Si3 0.166899 0.046949 0.919796
Si Si4 0.677022 0.326250 0.992057
Si Si5 0.674072 0.835334 0.988214
Si Si6 0.661696 0.542422 0.917111
O O1 0.250000 0.103325 0.250000
O O2 0.500000 0.065526 0.181670
O O3 0.287469 0.130760 0.098617
O O4 0.259329 0.995104 0.148380
O O5 0.750000 0.620693 0.250000
O O6 0.772191 0.650175 0.402266
O O7 0.759946 0.513111 0.354494
O O8 0.000000 0.592596 0.325248
O O9 0.000000 0.060369 0.888389
O O10 0.244335 0.122896 0.939223
O O11 0.166841 0.000000 0.000000
O O12 0.500000 0.330647 0.997364
O O13 0.734410 0.246284 0.011224
O O14 0.743849 0.381797 0.060479
O O15 0.500000 0.839587 0.006082
O O16 0.500000 0.560991 0.880937
O O17 0.640269 0.500000 0.000000
#
# Coordination Sequence:
#
# PCOD8218581 Si02
#       6
#     8   8   8   8   8   8
#     4  10  19  31  48  69  92 118 151 191 232 273
#     4   9  16  27  45  67  90 116 149 190 230 267
#     4   9  17  30  48  68  90 117 149 184 223 269
#     4   8  14  27  47  67  87 118 158 190 218 262
#     4   9  17  30  49  70  91 119 155 191 226 271
#     4   7  11  22  42  64  82 108 150 188 212 247
#
# _framework density 17.339309
#
# number of rings (size 3 to 8) (size 9 to 14) (size 15 to 20)
#    0.000    3.333    0.000    3.000    0.000    2.667 
#    0.000    2.500    0.000    7.500    0.000    0.000 
#    0.000    0.000    0.000    0.000    0.000    0.000 
#
# Total GULP energy -594664.793790 kJ/mol
# GULP energy per Si atom -12388.849871 kJ/mol
# Density = 1.729984 g / cm^3
# Si number density = 17.339309 Si / 1000 Ang^3
#
#
#
# Elastic Constant Matrix: (Units=GPa)
#
#
# Indices 1 2 3 4 5 6 
#
# 1 51.6902 34.7694 31.4591 0.0000 0.0000 0.0000
# 2 34.7694 142.7864 45.0338 0.0000 0.0000 0.0000
# 3 31.4591 45.0338 80.4628 0.0000 0.0000 0.0000
# 4 0.0000 0.0000 0.0000 18.7440 0.0000 0.0000
# 5 0.0000 0.0000 0.0000 0.0000 25.7835 0.0000
# 6 0.0000 0.0000 0.0000 0.0000 0.0000 11.5514
#
#
#
# Elastic Compliance Matrix: (Units=1/GPa)
#
#
# Indices 1 2 3 4 5 6 
#
# 1 0.027111 -0.003957 -0.008385 0.000000 0.000000 0.000000
# 2 -0.003957 0.009082 -0.003536 0.000000 0.000000 0.000000
# 3 -0.008385 -0.003536 0.017686 0.000000 0.000000 0.000000
# 4 0.000000 0.000000 0.000000 0.053350 0.000000 0.000000
# 5 0.000000 0.000000 0.000000 0.000000 0.038785 0.000000
# 6 0.000000 0.000000 0.000000 0.000000 0.000000 0.086569
#
#
# Mechanical properties :
#
#
# Convention : Reuss Voigt Hill
#
# Bulk Modulus (GPa) = 45.20311 55.27378 50.23845
# Shear Modulus (GPa) = 18.40171 22.12758 20.26465
#
# Velocity S-wave (km/s) = 3.26125 3.57620 3.42235
# Velocity P-wave (km/s) = 6.34881 6.99994 6.68231
#
# Compressibility (1/GPa) = 0.02212237
#
# Stress axis : x y z
#
# Youngs Moduli (GPa) = 36.88536 110.10416 56.54325
#
# Poissons Ratio (x) = 0.43570 0.47412
# Poissons Ratio (y) = 0.14596 0.19994
# Poissons Ratio (z) = 0.30929 0.38934
#
# Static dielectric constant tensor:
#      x y z
#    x 2.936610 0.000000 0.000000 
#    y 0.000000 3.500000 0.000000 
#    z 0.000000 0.000000 3.141390 
# 
# 
# High freq. dielectric constant tensor:
#      x y z
#    x 1.636240 0.000000 0.000000 
#    y 0.000000 1.667150 0.000000 
#    z 0.000000 0.000000 1.651170 
# 
# From -- ./inp_files/26395.got.cif
#   From: 2010.03.12/outbox.cif.g09.slc.cpg/sg53_14_cif.got.tgz:26395.got - 2010.04.16 14:36:59.
