data_PCOD8218776
_publ_section_title
;
Structure prediction by ZEFSAII (Michael W. Deem and Ramdas Pophale) SiO2 
 PCOD8218776
Probable space group: P M N A
;
_chemical_formula_sum "Si O2"
_cell_formula_units_Z 56
_cell_length_a 8.653846
_cell_length_b 13.931918
_cell_length_c 23.885088
_cell_angle_alpha 90.000000
_cell_angle_beta 90.000000
_cell_angle_gamma 90.000000
_cell_volume 2879.697821
_symmetry_space_group_name_H-M "P M N A"
_symmetry_group_IT_number 53
_symmetry_cell_setting 'orthorhombic'
loop_
_space_group_symop_operation_xyz
x,y,z
1/2-x,-y,1/2+z
x,-y,-z
1/2-x,y,1/2-z
-x,-y,-z
1/2+x,y,1/2-z
-x,y,z
1/2+x,-y,1/2+z
loop_
_atom_site_type_symbol
_atom_site_label
_atom_site_fract_x
_atom_site_fract_y
_atom_site_fract_z
Si Si1 0.680621 0.321788 0.090804
Si Si2 0.818725 0.170285 0.870472
Si Si3 0.322297 0.341380 0.806810
Si Si4 0.182291 0.207538 0.190750
Si Si5 0.323374 0.458472 0.915185
Si Si6 0.682423 0.001786 0.190419
Si Si7 0.819720 0.711757 0.022220
O O1 0.500000 0.309630 0.102963
O O2 0.775231 0.284138 0.143629
O O3 0.729169 0.431880 0.081069
O O4 0.727808 0.264307 0.034676
O O5 0.772307 0.247195 0.823775
O O6 0.768654 0.209754 0.931509
O O7 0.000000 0.151617 0.867339
O O8 0.730313 0.071397 0.858564
O O9 0.250000 0.382493 0.750000
O O10 0.500000 0.311883 0.799032
O O11 0.302434 0.425993 0.851340
O O12 0.250000 0.242918 0.250000
O O13 0.252584 0.105254 0.173503
O O14 0.000000 0.197464 0.196405
O O15 0.500000 0.445458 0.935174
O O16 0.218622 0.395074 0.956071
O O17 0.750000 0.967213 0.250000
O O18 0.500000 0.007794 0.195439
O O19 0.000000 0.718286 0.009622
#
# Coordination Sequence:
#
# PCOD8218776 Si02
#       7
#     8   8   8   8   8   8   8
#     4  11  22  38  59  82 110 146 186 227 275 326
#     4  10  20  35  54  79 111 145 181 222 271 324
#     4  10  19  32  49  74 108 143 181 223 272 325
#     4  11  23  41  62  85 113 143 181 227 273 322
#     4   9  20  36  54  77 108 147 187 229 275 326
#     4  11  21  36  59  85 112 144 182 222 270 325
#     4  10  21  36  56  83 113 145 184 229 274 324
#
# _framework density 19.446484999999999
#
# number of rings (size 3 to 8) (size 9 to 14) (size 15 to 20)
#    0.000    1.714    0.000    6.000    0.000    5.714 
#    0.000    2.143    0.000    4.286    0.000    0.000 
#    0.000    0.000    0.000    0.000    0.000    0.000 
#
# Total GULP energy -694660.627988 kJ/mol
# GULP energy per Si atom -12404.654071 kJ/mol
# Density = 1.940222 g / cm^3
# Si number density = 19.446485 Si / 1000 Ang^3
#
#
#
# Elastic Constant Matrix: (Units=GPa)
#
#
# Indices 1 2 3 4 5 6 
#
# 1 114.4389 33.2116 41.1466 0.0000 0.0000 0.0000
# 2 33.2116 58.7852 33.4297 0.0000 0.0000 0.0000
# 3 41.1466 33.4297 114.6128 0.0000 0.0000 0.0000
# 4 0.0000 0.0000 0.0000 20.7159 0.0000 0.0000
# 5 0.0000 0.0000 0.0000 0.0000 34.0052 0.0000
# 6 0.0000 0.0000 0.0000 0.0000 0.0000 30.2109
#
#
#
# Elastic Compliance Matrix: (Units=1/GPa)
#
#
# Indices 1 2 3 4 5 6 
#
# 1 0.011051 -0.004780 -0.002573 0.000000 0.000000 0.000000
# 2 -0.004780 0.022461 -0.004835 0.000000 0.000000 0.000000
# 3 -0.002573 -0.004835 0.011059 0.000000 0.000000 0.000000
# 4 0.000000 0.000000 0.000000 0.048272 0.000000 0.000000
# 5 0.000000 0.000000 0.000000 0.000000 0.029407 0.000000
# 6 0.000000 0.000000 0.000000 0.000000 0.000000 0.033101
#
#
# Mechanical properties :
#
#
# Convention : Reuss Voigt Hill
#
# Bulk Modulus (GPa) = 49.51889 55.93473 52.72681
# Shear Modulus (GPa) = 26.81550 28.98969 27.90259
#
# Velocity S-wave (km/s) = 3.71743 3.86520 3.79204
# Velocity P-wave (km/s) = 6.62912 6.98180 6.80775
#
# Compressibility (1/GPa) = 0.02019431
#
# Stress axis : x y z
#
# Youngs Moduli (GPa) = 90.49255 44.52090 90.42321
#
# Poissons Ratio (x) = 0.21281 0.23266
# Poissons Ratio (y) = 0.43255 0.43723
# Poissons Ratio (z) = 0.23284 0.21527
#
# Static dielectric constant tensor:
#      x y z
#    x 3.605000 0.000000 0.000000 
#    y 0.000000 3.425540 0.000000 
#    z 0.000000 0.000000 3.618340 
# 
# 
# High freq. dielectric constant tensor:
#      x y z
#    x 1.769660 0.000000 0.000000 
#    y 0.000000 1.742910 0.000000 
#    z 0.000000 0.000000 1.761460 
# 
# From -- ./inp_files/30750.got.cif
#   From: 2010.03.12/outbox.cif.g09.slc.cpg/sg53_16_cif.got.tgz:30750.got - 2010.04.16 14:36:59.
