data_PCOD8218405
_publ_section_title
;
Structure prediction by ZEFSAII (Michael W. Deem and Ramdas Pophale) SiO2 
 PCOD8218405
Probable space group: P M N A
;
_chemical_formula_sum "Si O2"
_cell_formula_units_Z 64
_cell_length_a 8.804476
_cell_length_b 23.325255
_cell_length_c 17.205069
_cell_angle_alpha 90.000000
_cell_angle_beta 90.000000
_cell_angle_gamma 90.000000
_cell_volume 3533.347346
_symmetry_space_group_name_H-M "P M N A"
_symmetry_group_IT_number 53
_symmetry_cell_setting 'orthorhombic'
loop_
_space_group_symop_operation_xyz
x,y,z
1/2-x,-y,1/2+z
x,-y,-z
1/2-x,y,1/2-z
-x,-y,-z
1/2+x,y,1/2-z
-x,y,z
1/2+x,-y,1/2+z
loop_
_atom_site_type_symbol
_atom_site_label
_atom_site_fract_x
_atom_site_fract_y
_atom_site_fract_z
Si Si1 0.320511 0.541778 0.833619
Si Si2 0.818237 0.137148 0.519720
Si Si3 0.323487 0.629635 0.561494
Si Si4 0.177824 0.733938 0.485584
Si Si5 0.681521 0.067397 0.832428
Si Si6 0.165717 0.962943 0.577005
Si Si7 0.677652 0.327423 0.827196
Si Si8 0.677483 0.433108 0.598555
O O1 0.250000 0.529917 0.750000
O O2 0.500000 0.540329 0.827456
O O3 0.266517 0.603415 0.865620
O O4 0.262413 0.493313 0.892928
O O5 0.759939 0.201475 0.505326
O O6 0.764362 0.114596 0.604360
O O7 0.751005 0.096292 0.449905
O O8 0.000000 0.134516 0.517460
O O9 0.500000 0.631451 0.581993
O O10 0.265959 0.694146 0.546655
O O11 0.288779 0.590382 0.487077
O O12 0.214004 0.715060 0.397783
O O13 0.000000 0.729184 0.503511
O O14 0.750000 0.085050 0.750000
O O15 0.500000 0.065690 0.827616
O O16 0.745866 0.003980 0.858593
O O17 0.000000 0.946494 0.610070
O O18 0.144798 0.000000 0.500000
O O19 0.750000 0.299286 0.750000
O O20 0.500000 0.337422 0.816490
O O21 0.757512 0.388651 0.838943
O O22 0.500000 0.442384 0.613420
#
# Coordination Sequence:
#
# PCOD8218405 Si02
#       8
#     8   8   8   8   8   8   8   8
#     4  12  24  37  55  78 103 128 158 199 247 297
#     4   8  14  27  47  68  89 120 165 204 231 273
#     4  10  21  37  55  75 101 131 163 201 245 292
#     4   9  18  32  50  70  91 122 166 208 242 282
#     4   9  16  26  43  69  99 127 154 191 238 285
#     4   7  11  22  42  65  87 116 156 195 227 265
#     4  10  19  30  44  65  95 128 161 197 239 289
#     4  10  20  35  54  75 100 129 161 198 242 292
#
# _framework density 18.113135
#
# number of rings (size 3 to 8) (size 9 to 14) (size 15 to 20)
#    0.000    2.625    0.000    4.500    0.000    4.000 
#    0.000    0.625    0.000    4.875    0.000    1.750 
#    0.000    0.000    0.000    0.000    0.000    0.000 
#
# Total GULP energy -793237.883194 kJ/mol
# GULP energy per Si atom -12394.341925 kJ/mol
# Density = 1.807191 g / cm^3
# Si number density = 18.113135 Si / 1000 Ang^3
#
#
#
# Elastic Constant Matrix: (Units=GPa)
#
#
# Indices 1 2 3 4 5 6 
#
# 1 65.3638 34.0432 19.7508 0.0000 0.0000 0.0000
# 2 34.0432 135.9406 32.2227 0.0000 0.0000 0.0000
# 3 19.7508 32.2227 35.2714 0.0000 0.0000 0.0000
# 4 0.0000 0.0000 0.0000 18.9963 0.0000 0.0000
# 5 0.0000 0.0000 0.0000 0.0000 25.2293 0.0000
# 6 0.0000 0.0000 0.0000 0.0000 0.0000 14.1967
#
#
#
# Elastic Compliance Matrix: (Units=1/GPa)
#
#
# Indices 1 2 3 4 5 6 
#
# 1 0.019268 -0.002895 -0.008145 0.000000 0.000000 0.000000
# 2 -0.002895 0.009824 -0.007354 0.000000 0.000000 0.000000
# 3 -0.008145 -0.007354 0.039631 0.000000 0.000000 0.000000
# 4 0.000000 0.000000 0.000000 0.052642 0.000000 0.000000
# 5 0.000000 0.000000 0.000000 0.000000 0.039636 0.000000
# 6 0.000000 0.000000 0.000000 0.000000 0.000000 0.070439
#
#
# Mechanical properties :
#
#
# Convention : Reuss Voigt Hill
#
# Bulk Modulus (GPa) = 31.31308 45.40105 38.35707
# Shear Modulus (GPa) = 17.92932 21.72172 19.82552
#
# Velocity S-wave (km/s) = 3.14960 3.46674 3.31197
# Velocity P-wave (km/s) = 5.52736 6.41436 5.98731
#
# Compressibility (1/GPa) = 0.03193553
#
# Stress axis : x y z
#
# Youngs Moduli (GPa) = 51.90047 101.78909 25.23276
#
# Poissons Ratio (x) = 0.29463 0.20552
# Poissons Ratio (y) = 0.15023 0.18557
# Poissons Ratio (z) = 0.42273 0.74858
#
# Static dielectric constant tensor:
#      x y z
#    x 3.098730 0.000000 0.000000 
#    y 0.000000 3.567670 0.000000 
#    z 0.000000 0.000000 3.296340 
# 
# 
# High freq. dielectric constant tensor:
#      x y z
#    x 1.679310 0.000000 0.000000 
#    y 0.000000 1.698440 0.000000 
#    z 0.000000 0.000000 1.684310 
# 
# From -- ./inp_files/27033.got.cif
#   From: 2010.03.12/outbox.cif.g09.slc.cpg/sg53_14_cif.got.tgz:27033.got - 2010.04.16 14:36:59.
