data_PCOD8218874
_publ_section_title
;
Structure prediction by ZEFSAII (Michael W. Deem and Ramdas Pophale) SiO2 
 PCOD8218874
Probable space group: P M N A
;
_chemical_formula_sum "Si O2"
_cell_formula_units_Z 64
_cell_length_a 8.729864
_cell_length_b 20.456539
_cell_length_c 18.682711
_cell_angle_alpha 90.000000
_cell_angle_beta 90.000000
_cell_angle_gamma 90.000000
_cell_volume 3336.410905
_symmetry_space_group_name_H-M "P M N A"
_symmetry_group_IT_number 53
_symmetry_cell_setting 'orthorhombic'
loop_
_space_group_symop_operation_xyz
x,y,z
1/2-x,-y,1/2+z
x,-y,-z
1/2-x,y,1/2-z
-x,-y,-z
1/2+x,y,1/2-z
-x,y,z
1/2+x,-y,1/2+z
loop_
_atom_site_type_symbol
_atom_site_label
_atom_site_fract_x
_atom_site_fract_y
_atom_site_fract_z
Si Si1 0.317955 0.999947 0.828544
Si Si2 0.820441 0.617322 0.676002
Si Si3 0.182162 0.120924 0.423516
Si Si4 0.680481 0.614737 0.326276
Si Si5 0.181373 0.236553 0.325152
Si Si6 0.178059 0.503178 0.417087
Si Si7 0.681717 0.875762 0.083977
Si Si8 0.181859 0.248078 0.673388
O O1 0.250000 0.993481 0.750000
O O2 0.500000 0.999731 0.822461
O O3 0.256158 0.065983 0.865935
O O4 0.258185 0.940045 0.877070
O O5 0.750000 0.592226 0.750000
O O6 0.760942 0.690063 0.655942
O O7 0.772178 0.566917 0.614494
O O8 0.000000 0.619089 0.686752
O O9 0.240217 0.188056 0.387034
O O10 0.250097 0.117382 0.503888
O O11 0.000000 0.119506 0.427031
O O12 0.750000 0.594173 0.250000
O O13 0.500000 0.622693 0.317982
O O14 0.719267 0.559725 0.383684
O O15 0.751730 0.682935 0.353330
O O16 0.250000 0.212923 0.250000
O O17 0.000000 0.233435 0.318542
O O18 0.215325 0.500000 0.500000
O O19 0.000000 0.518340 0.401792
O O20 0.500000 0.880108 0.080555
O O21 0.733962 0.806634 0.116776
O O22 0.250000 0.228609 0.750000
O O23 0.000000 0.253173 0.679781
#
# Coordination Sequence:
#
# PCOD8218874 Si02
#       8
#     8   8   8   8   8   8   8   8
#     4  10  19  32  52  76 102 133 170 212 253 297
#     4   9  18  32  51  74  99 130 168 208 250 298
#     4   9  17  30  50  75 102 132 168 208 249 296
#     4  11  22  37  57  79 105 137 176 219 263 314
#     4   9  17  30  49  72  97 127 163 203 245 293
#     4  10  21  36  54  78 107 138 173 215 263 314
#     4   9  18  31  50  76 102 132 171 212 253 300
#     4  10  19  33  54  77 102 133 171 214 259 308
#
# _framework density 19.182289999999998
#
# number of rings (size 3 to 8) (size 9 to 14) (size 15 to 20)
#    0.000    2.375    0.000    3.750    0.000    4.250 
#    0.000    4.375    0.000    8.250    0.000    0.000 
#    0.000    0.000    0.000    0.000    0.000    0.000 
#
# Total GULP energy -793632.190766 kJ/mol
# GULP energy per Si atom -12400.502981 kJ/mol
# Density = 1.913863 g / cm^3
# Si number density = 19.182290 Si / 1000 Ang^3
#
#
#
# Elastic Constant Matrix: (Units=GPa)
#
#
# Indices 1 2 3 4 5 6 
#
# 1 46.5759 34.7735 29.4937 0.0000 0.0000 0.0000
# 2 34.7735 143.8327 89.5956 0.0000 0.0000 0.0000
# 3 29.4937 89.5956 146.4839 0.0000 0.0000 0.0000
# 4 0.0000 0.0000 0.0000 32.1752 0.0000 0.0000
# 5 0.0000 0.0000 0.0000 0.0000 26.3268 0.0000
# 6 0.0000 0.0000 0.0000 0.0000 0.0000 9.1145
#
#
#
# Elastic Compliance Matrix: (Units=1/GPa)
#
#
# Indices 1 2 3 4 5 6 
#
# 1 0.026672 -0.005013 -0.002304 0.000000 0.000000 0.000000
# 2 -0.005013 0.012174 -0.006437 0.000000 0.000000 0.000000
# 3 -0.002304 -0.006437 0.011228 0.000000 0.000000 0.000000
# 4 0.000000 0.000000 0.000000 0.031080 0.000000 0.000000
# 5 0.000000 0.000000 0.000000 0.000000 0.037984 0.000000
# 6 0.000000 0.000000 0.000000 0.000000 0.000000 0.109716
#
#
# Mechanical properties :
#
#
# Convention : Reuss Voigt Hill
#
# Bulk Modulus (GPa) = 44.31472 71.62424 57.96948
# Shear Modulus (GPa) = 18.94776 25.72526 22.33651
#
# Velocity S-wave (km/s) = 3.14630 3.66607 3.41608
# Velocity P-wave (km/s) = 6.02918 7.43908 6.77092
#
# Compressibility (1/GPa) = 0.02256586
#
# Stress axis : x y z
#
# Youngs Moduli (GPa) = 37.49234 82.14151 89.06596
#
# Poissons Ratio (x) = 0.41178 0.20521
# Poissons Ratio (y) = 0.18795 0.57330
# Poissons Ratio (z) = 0.08638 0.52873
#
# Static dielectric constant tensor:
#      x y z
#    x 3.204380 0.000000 0.000000 
#    y 0.000000 3.844110 0.000000 
#    z 0.000000 0.000000 3.596420 
# 
# 
# High freq. dielectric constant tensor:
#      x y z
#    x 1.714790 0.000000 0.000000 
#    y 0.000000 1.763220 0.000000 
#    z 0.000000 0.000000 1.746930 
# 
# From -- ./inp_files/26844.got.cif
#   From: 2010.03.12/outbox.cif.g09.slc.cpg/sg53_14_cif.got.tgz:26844.got - 2010.04.16 14:36:59.
