data_PCOD8218367
_publ_section_title
;
Structure prediction by ZEFSAII (Michael W. Deem and Ramdas Pophale) SiO2 
 PCOD8218367
Probable space group: P M N A
;
_chemical_formula_sum "Si O2"
_cell_formula_units_Z 48
_cell_length_a 9.212543
_cell_length_b 11.847913
_cell_length_c 25.307252
_cell_angle_alpha 90.000000
_cell_angle_beta 90.000000
_cell_angle_gamma 90.000000
_cell_volume 2762.271573
_symmetry_space_group_name_H-M "P M N A"
_symmetry_group_IT_number 53
_symmetry_cell_setting 'orthorhombic'
loop_
_space_group_symop_operation_xyz
x,y,z
1/2-x,-y,1/2+z
x,-y,-z
1/2-x,y,1/2-z
-x,-y,-z
1/2+x,y,1/2-z
-x,y,z
1/2+x,-y,1/2+z
loop_
_atom_site_type_symbol
_atom_site_label
_atom_site_fract_x
_atom_site_fract_y
_atom_site_fract_z
Si Si1 0.172424 0.162598 0.195519
Si Si2 0.163964 0.764255 0.062022
Si Si3 0.836431 0.325593 0.375292
Si Si4 0.167930 0.488692 0.938662
Si Si5 0.665334 0.994118 0.395536
Si Si6 0.339379 0.144377 0.033614
O O1 0.250000 0.133439 0.250000
O O2 0.238227 0.279755 0.173038
O O3 0.213533 0.056046 0.158073
O O4 0.000000 0.176276 0.202931
O O5 0.195788 0.638410 0.082604
O O6 0.000000 0.769748 0.040274
O O7 0.186424 0.857902 0.108523
O O8 0.266025 0.789046 0.013304
O O9 0.764953 0.435762 0.400596
O O10 0.842729 0.227700 0.417535
O O11 0.000000 0.354810 0.355700
O O12 0.000000 0.525046 0.933098
O O13 0.216210 0.500000 0.000000
O O14 0.500000 0.027355 0.407477
O O15 0.755538 0.032118 0.447380
O O16 0.500000 0.108246 0.016231
#
# Coordination Sequence:
#
# PCOD8218367 Si02
#       6
#     8   8   8   8   8   8
#     4  10  20  36  58  79  99 124 161 209 262 309
#     4  10  19  31  47  68  99 138 175 204 242 297
#     4  10  20  33  50  74 104 135 171 211 254 300
#     4  10  19  31  49  72 101 140 181 215 248 294
#     4   9  19  33  49  70  97 130 165 203 249 306
#     4  10  19  29  44  69 101 134 167 207 248 291
#
# _framework density 17.377002999999998
#
# number of rings (size 3 to 8) (size 9 to 14) (size 15 to 20)
#    0.000    2.167    1.667    2.000    0.000    5.667 
#    0.000    0.000    0.000    1.000    0.000    2.333 
#    0.000    0.000    0.000    0.000    0.000    0.000 
#
# Total GULP energy -595047.007693 kJ/mol
# GULP energy per Si atom -12396.812660 kJ/mol
# Density = 1.733745 g / cm^3
# Si number density = 17.377003 Si / 1000 Ang^3
#
#
#
# Elastic Constant Matrix: (Units=GPa)
#
#
# Indices 1 2 3 4 5 6 
#
# 1 99.2479 42.5395 39.6551 0.0000 0.0000 0.0000
# 2 42.5395 105.2603 26.2939 0.0000 0.0000 0.0000
# 3 39.6551 26.2939 61.7145 0.0000 0.0000 0.0000
# 4 0.0000 0.0000 0.0000 14.0145 0.0000 0.0000
# 5 0.0000 0.0000 0.0000 0.0000 26.6120 0.0000
# 6 0.0000 0.0000 0.0000 0.0000 0.0000 231.8227
#
#
#
# Elastic Compliance Matrix: (Units=1/GPa)
#
#
# Indices 1 2 3 4 5 6 
#
# 1 0.014976 -0.004083 -0.007883 0.000000 0.000000 0.000000
# 2 -0.004083 0.011745 -0.002380 0.000000 0.000000 0.000000
# 3 -0.007883 -0.002380 0.022283 0.000000 0.000000 0.000000
# 4 0.000000 0.000000 0.000000 0.071355 0.000000 0.000000
# 5 0.000000 0.000000 0.000000 0.000000 0.037577 0.000000
# 6 0.000000 0.000000 0.000000 0.000000 0.000000 0.004314
#
#
# Mechanical properties :
#
#
# Convention : Reuss Voigt Hill
#
# Bulk Modulus (GPa) = 49.23520 53.68883 51.46201
# Shear Modulus (GPa) = 25.28925 65.00545 45.14735
#
# Velocity S-wave (km/s) = 3.81902 6.12292 5.10269
# Velocity P-wave (km/s) = 6.91676 8.99724 8.02471
#
# Compressibility (1/GPa) = 0.02031067
#
# Stress axis : x y z
#
# Youngs Moduli (GPa) = 66.77553 85.14279 44.87686
#
# Poissons Ratio (x) = 0.34764 0.35377
# Poissons Ratio (y) = 0.27264 0.10683
# Poissons Ratio (z) = 0.52640 0.20268
#
# Static dielectric constant tensor:
#      x y z
#    x 3.492130 0.000000 0.000000 
#    y 0.000000 3.402400 0.000000 
#    z 0.000000 0.000000 2.973410 
# 
# 
# High freq. dielectric constant tensor:
#      x y z
#    x 1.681770 0.000000 0.000000 
#    y 0.000000 1.675550 0.000000 
#    z 0.000000 0.000000 1.633310 
# 
# From -- ./inp_files/33839.got.cif
#   From: 2010.03.12/outbox.cif.g09.slc.cpg/sg53_17_cif.got.tgz:33839.got - 2010.04.16 14:36:59.
