data_PCOD8218474
_publ_section_title
;
Structure prediction by ZEFSAII (Michael W. Deem and Ramdas Pophale) SiO2 
 PCOD8218474
Probable space group: P M N A
;
_chemical_formula_sum "Si O2"
_cell_formula_units_Z 56
_cell_length_a 9.348102
_cell_length_b 18.091410
_cell_length_c 19.228891
_cell_angle_alpha 90.000000
_cell_angle_beta 90.000000
_cell_angle_gamma 90.000000
_cell_volume 3251.996699
_symmetry_space_group_name_H-M "P M N A"
_symmetry_group_IT_number 53
_symmetry_cell_setting 'orthorhombic'
loop_
_space_group_symop_operation_xyz
x,y,z
1/2-x,-y,1/2+z
x,-y,-z
1/2-x,y,1/2-z
-x,-y,-z
1/2+x,y,1/2-z
-x,y,z
1/2+x,-y,1/2+z
loop_
_atom_site_type_symbol
_atom_site_label
_atom_site_fract_x
_atom_site_fract_y
_atom_site_fract_z
Si Si1 0.662417 0.525855 0.818868
Si Si2 0.669584 0.966456 0.928765
Si Si3 0.167737 0.686275 0.677529
Si Si4 0.830404 0.770338 0.411177
Si Si5 0.829443 0.801012 0.564247
Si Si6 0.669218 0.089564 0.822099
Si Si7 0.667599 0.633931 0.177537
O O1 0.750000 0.525316 0.750000
O O2 0.500000 0.525410 0.794419
O O3 0.694171 0.604133 0.857244
O O4 0.694579 0.447738 0.857995
O O5 0.500000 0.965726 0.935666
O O6 0.726683 0.883211 0.917677
O O7 0.716669 0.016285 0.863733
O O8 0.734326 0.000000 0.000000
O O9 0.250000 0.695717 0.750000
O O10 0.229658 0.745256 0.622763
O O11 0.000000 0.699464 0.691759
O O12 0.767705 0.776862 0.489067
O O13 0.778444 0.839567 0.365599
O O14 0.773654 0.694637 0.376484
O O15 0.000000 0.770748 0.415467
O O16 0.000000 0.798530 0.562824
O O17 0.750000 0.089144 0.750000
O O18 0.500000 0.091648 0.808959
O O19 0.750000 0.642441 0.250000
O O20 0.500000 0.647045 0.192557
#
# Coordination Sequence:
#
# PCOD8218474 Si02
#       7
#     8   8   8   8   8   8   8
#     4   8  14  25  40  60  85 113 143 174 214 259
#     4   9  15  27  46  66  86 113 150 183 209 251
#     4   9  17  29  46  66  88 113 144 183 221 257
#     4   9  16  27  43  65  90 115 145 180 215 255
#     4   9  16  27  45  67  88 113 147 182 216 256
#     4  10  19  30  47  70  92 114 144 183 221 256
#     4   9  16  26  42  63  87 115 146 179 214 255
#
# _framework density 17.220189999999999
#
# number of rings (size 3 to 8) (size 9 to 14) (size 15 to 20)
#    0.000    3.000    1.429    0.429    0.000    0.571 
#    0.000    0.714    0.000    6.429    0.000    0.000 
#    0.000   11.429    0.000    0.000    0.000    0.000 
#
# Total GULP energy -693763.067579 kJ/mol
# GULP energy per Si atom -12388.626207 kJ/mol
# Density = 1.718100 g / cm^3
# Si number density = 17.220190 Si / 1000 Ang^3
#
#
#
# Elastic Constant Matrix: (Units=GPa)
#
#
# Indices 1 2 3 4 5 6 
#
# 1 17.8401 22.4203 22.4503 0.0000 0.0000 0.0000
# 2 22.4203 200.1525 93.3747 0.0000 0.0000 0.0000
# 3 22.4503 93.3747 129.0718 0.0000 0.0000 0.0000
# 4 0.0000 0.0000 0.0000 30.2015 0.0000 0.0000
# 5 0.0000 0.0000 0.0000 0.0000 19.0041 0.0000
# 6 0.0000 0.0000 0.0000 0.0000 0.0000 12.5634
#
#
#
# Elastic Compliance Matrix: (Units=1/GPa)
#
#
# Indices 1 2 3 4 5 6 
#
# 1 0.073275 -0.003414 -0.010275 0.000000 0.000000 0.000000
# 2 -0.003414 0.007700 -0.004977 0.000000 0.000000 0.000000
# 3 -0.010275 -0.004977 0.013135 0.000000 0.000000 0.000000
# 4 0.000000 0.000000 0.000000 0.033111 0.000000 0.000000
# 5 0.000000 0.000000 0.000000 0.000000 0.052620 0.000000
# 6 0.000000 0.000000 0.000000 0.000000 0.000000 0.079597
#
#
# Mechanical properties :
#
#
# Convention : Reuss Voigt Hill
#
# Bulk Modulus (GPa) = 17.61251 69.28389 43.44820
# Shear Modulus (GPa) = 15.83799 26.27507 21.05653
#
# Velocity S-wave (km/s) = 3.03600 3.91042 3.50062
# Velocity P-wave (km/s) = 4.74761 7.79166 6.45174
#
# Compressibility (1/GPa) = 0.05677781
#
# Stress axis : x y z
#
# Youngs Moduli (GPa) = 13.64726 129.86237 76.13110
#
# Poissons Ratio (x) = 0.44341 0.78225
# Poissons Ratio (y) = 0.04660 0.37889
# Poissons Ratio (z) = 0.14023 0.64631
#
# Static dielectric constant tensor:
#      x y z
#    x 2.699670 0.000000 0.000000 
#    y 0.000000 4.022360 0.000000 
#    z 0.000000 0.000000 3.021870 
# 
# 
# High freq. dielectric constant tensor:
#      x y z
#    x 1.614510 0.000000 0.000000 
#    y 0.000000 1.692980 0.000000 
#    z 0.000000 0.000000 1.643460 
# 
# From -- ./inp_files/26666.got.cif
#   From: 2010.03.12/outbox.cif.g09.slc.cpg/sg53_14_cif.got.tgz:26666.got - 2010.04.16 14:36:59.
