data_PCOD8218545
_publ_section_title
;
Structure prediction by ZEFSAII (Michael W. Deem and Ramdas Pophale) SiO2 
 PCOD8218545
Probable space group: P M N A
;
_chemical_formula_sum "Si O2"
_cell_formula_units_Z 56
_cell_length_a 9.258206
_cell_length_b 18.906794
_cell_length_c 18.996662
_cell_angle_alpha 90.000000
_cell_angle_beta 90.000000
_cell_angle_gamma 90.000000
_cell_volume 3325.232586
_symmetry_space_group_name_H-M "P M N A"
_symmetry_group_IT_number 53
_symmetry_cell_setting 'orthorhombic'
loop_
_space_group_symop_operation_xyz
x,y,z
1/2-x,-y,1/2+z
x,-y,-z
1/2-x,y,1/2-z
-x,-y,-z
1/2+x,y,1/2-z
-x,y,z
1/2+x,-y,1/2+z
loop_
_atom_site_type_symbol
_atom_site_label
_atom_site_fract_x
_atom_site_fract_y
_atom_site_fract_z
Si Si1 0.662503 0.249019 0.131845
Si Si2 0.167322 0.069557 0.041737
Si Si3 0.663374 0.345692 0.954080
Si Si4 0.837377 0.524257 0.080490
Si Si5 0.335424 0.898979 0.816842
Si Si6 0.840730 0.398230 0.385904
Si Si7 0.333858 0.219834 0.502912
O O1 0.500000 0.247514 0.096778
O O2 0.670288 0.186893 0.189378
O O3 0.686737 0.328708 0.163473
O O4 0.789657 0.235129 0.077006
O O5 0.265388 0.074375 0.110869
O O6 0.192089 0.135561 0.987794
O O7 0.000000 0.067026 0.065496
O O8 0.214280 0.000000 0.000000
O O9 0.500000 0.340990 0.926317
O O10 0.747207 0.404072 0.907613
O O11 0.672099 0.368486 0.034978
O O12 0.738602 0.268539 0.944596
O O13 0.772130 0.461036 0.128445
O O14 0.000000 0.537999 0.105433
O O15 0.830065 0.500000 0.000000
O O16 0.250000 0.930524 0.750000
O O17 0.500000 0.926192 0.814189
O O18 0.000000 0.430341 0.373524
O O19 0.500000 0.241074 0.514147
#
# Coordination Sequence:
#
# PCOD8218545 Si02
#       7
#     8   8   8   8   8   8   8
#     4   8  15  26  38  52  73 102 134 167 204 248
#     4   9  18  32  48  66  89 117 148 183 227 279
#     4   9  15  22  31  43  64  95 128 161 198 241
#     4   9  15  20  27  42  63  88 122 162 199 235
#     4  10  19  31  47  67  90 117 150 186 224 266
#     4   8  13  21  31  43  62  91 125 159 196 236
#     4   9  15  23  37  55  74  98 131 170 208 249
#
# _framework density 16.840927000000001
#
# number of rings (size 3 to 8) (size 9 to 14) (size 15 to 20)
#    0.000    3.143    0.000    2.571    0.000    6.571 
#    0.000    0.000    0.000    0.000    0.000    0.000 
#    0.000    0.000    0.000    1.286    0.000   23.714 
#
# Total GULP energy -693755.770922 kJ/mol
# GULP energy per Si atom -12388.495909 kJ/mol
# Density = 1.680260 g / cm^3
# Si number density = 16.840927 Si / 1000 Ang^3
#
#
#
# Elastic Constant Matrix: (Units=GPa)
#
#
# Indices 1 2 3 4 5 6 
#
# 1 130.4512 68.2630 26.4344 0.0000 0.0000 0.0000
# 2 68.2630 116.4298 25.2656 0.0000 0.0000 0.0000
# 3 26.4344 25.2656 27.5877 0.0000 0.0000 0.0000
# 4 0.0000 0.0000 0.0000 8.9543 0.0000 0.0000
# 5 0.0000 0.0000 0.0000 0.0000 10.9360 0.0000
# 6 0.0000 0.0000 0.0000 0.0000 0.0000 26.2044
#
#
#
# Elastic Compliance Matrix: (Units=1/GPa)
#
#
# Indices 1 2 3 4 5 6 
#
# 1 0.011860 -0.005600 -0.006235 0.000000 0.000000 0.000000
# 2 -0.005600 0.013364 -0.006873 0.000000 0.000000 0.000000
# 3 -0.006235 -0.006873 0.048516 0.000000 0.000000 0.000000
# 4 0.000000 0.000000 0.000000 0.111678 0.000000 0.000000
# 5 0.000000 0.000000 0.000000 0.000000 0.091441 0.000000
# 6 0.000000 0.000000 0.000000 0.000000 0.000000 0.038161
#
#
# Mechanical properties :
#
#
# Convention : Reuss Voigt Hill
#
# Bulk Modulus (GPa) = 27.53000 57.15499 42.34249
# Shear Modulus (GPa) = 13.71575 19.51933 16.61754
#
# Velocity S-wave (km/s) = 2.85692 3.40816 3.14464
# Velocity P-wave (km/s) = 5.22161 7.03557 6.19534
#
# Compressibility (1/GPa) = 0.03632401
#
# Stress axis : x y z
#
# Youngs Moduli (GPa) = 84.31888 74.82924 20.61155
#
# Poissons Ratio (x) = 0.41907 0.12851
# Poissons Ratio (y) = 0.47222 0.14166
# Poissons Ratio (z) = 0.52573 0.51427
#
# Static dielectric constant tensor:
#      x y z
#    x 3.321100 0.000000 0.000000 
#    y 0.000000 3.447360 0.000000 
#    z 0.000000 0.000000 2.435260 
# 
# 
# High freq. dielectric constant tensor:
#      x y z
#    x 1.666260 0.000000 0.000000 
#    y 0.000000 1.651990 0.000000 
#    z 0.000000 0.000000 1.556780 
# 
# From -- ./inp_files/34372.got.cif
#   From: 2010.03.12/outbox.cif.g09.slc.cpg/sg53_18_cif.got.tgz:34372.got - 2010.04.16 14:36:59.
