data_PCOD8218457
_publ_section_title
;
Structure prediction by ZEFSAII (Michael W. Deem and Ramdas Pophale) SiO2 
 PCOD8218457
Probable space group: P M N A
;
_chemical_formula_sum "Si O2"
_cell_formula_units_Z 48
_cell_length_a 9.025365
_cell_length_b 11.701566
_cell_length_c 26.069676
_cell_angle_alpha 90.000000
_cell_angle_beta 90.000000
_cell_angle_gamma 90.000000
_cell_volume 2753.242055
_symmetry_space_group_name_H-M "P M N A"
_symmetry_group_IT_number 53
_symmetry_cell_setting 'orthorhombic'
loop_
_space_group_symop_operation_xyz
x,y,z
1/2-x,-y,1/2+z
x,-y,-z
1/2-x,y,1/2-z
-x,-y,-z
1/2+x,y,1/2-z
-x,y,z
1/2+x,-y,1/2+z
loop_
_atom_site_type_symbol
_atom_site_label
_atom_site_fract_x
_atom_site_fract_y
_atom_site_fract_z
Si Si1 0.670198 0.993377 0.623879
Si Si2 0.673986 0.538421 0.444280
Si Si3 0.831398 0.855516 0.538827
Si Si4 0.324213 0.830913 0.804067
Si Si5 0.329464 0.202034 0.560982
Si Si6 0.833482 0.348293 0.389140
O O1 0.500000 0.960921 0.634445
O O2 0.687991 0.130087 0.614022
O O3 0.723665 0.933337 0.572103
O O4 0.766247 0.951026 0.672400
O O5 0.737338 0.500000 0.500000
O O6 0.500000 0.522038 0.443962
O O7 0.721398 0.667648 0.430737
O O8 0.736589 0.460743 0.398237
O O9 0.774670 0.857963 0.480897
O O10 0.824692 0.726353 0.559299
O O11 0.000000 0.902132 0.541699
O O12 0.250000 0.806876 0.750000
O O13 0.500000 0.839509 0.798883
O O14 0.275249 0.726993 0.841213
O O15 0.500000 0.198707 0.541816
O O16 0.000000 0.388249 0.377773
#
# Coordination Sequence:
#
# PCOD8218457 Si02
#       6
#     8   8   8   8   8   8
#     4  10  20  33  50  72 102 135 169 211 257 305
#     4  10  19  31  49  72 102 141 181 214 245 295
#     4  10  19  30  46  70 102 137 174 213 251 298
#     4  10  21  38  59  82 103 126 164 212 265 315
#     4  10  20  32  46  70 103 140 177 209 249 300
#     4   9  19  33  49  74 104 133 169 212 254 301
#
# _framework density 17.433992
#
# number of rings (size 3 to 8) (size 9 to 14) (size 15 to 20)
#    0.000    2.167    1.667    3.000    0.000    7.667 
#    0.000    0.000    0.000    1.000    0.000    2.333 
#    0.000    0.000    0.000    0.000    0.000    0.000 
#
# Total GULP energy -595099.982106 kJ/mol
# GULP energy per Si atom -12397.916294 kJ/mol
# Density = 1.739431 g / cm^3
# Si number density = 17.433992 Si / 1000 Ang^3
#
#
#
# Elastic Constant Matrix: (Units=GPa)
#
#
# Indices 1 2 3 4 5 6 
#
# 1 65.8320 30.9058 33.7624 0.0000 0.0000 0.0000
# 2 30.9058 90.0525 38.3290 0.0000 0.0000 0.0000
# 3 33.7624 38.3290 91.5081 0.0000 0.0000 0.0000
# 4 0.0000 0.0000 0.0000 15.6655 0.0000 0.0000
# 5 0.0000 0.0000 0.0000 0.0000 28.5656 0.0000
# 6 0.0000 0.0000 0.0000 0.0000 0.0000 24.4722
#
#
#
# Elastic Compliance Matrix: (Units=1/GPa)
#
#
# Indices 1 2 3 4 5 6 
#
# 1 0.020171 -0.004570 -0.005528 0.000000 0.000000 0.000000
# 2 -0.004570 0.014549 -0.004408 0.000000 0.000000 0.000000
# 3 -0.005528 -0.004408 0.014814 0.000000 0.000000 0.000000
# 4 0.000000 0.000000 0.000000 0.063835 0.000000 0.000000
# 5 0.000000 0.000000 0.000000 0.000000 0.035007 0.000000
# 6 0.000000 0.000000 0.000000 0.000000 0.000000 0.040863
#
#
# Mechanical properties :
#
#
# Convention : Reuss Voigt Hill
#
# Bulk Modulus (GPa) = 48.72757 50.37634 49.55195
# Shear Modulus (GPa) = 22.21332 23.36700 22.79016
#
# Velocity S-wave (km/s) = 3.57338 3.66500 3.61948
# Velocity P-wave (km/s) = 6.71087 6.84601 6.77878
#
# Compressibility (1/GPa) = 0.02052226
#
# Stress axis : x y z
#
# Youngs Moduli (GPa) = 49.57723 68.73273 67.50400
#
# Poissons Ratio (x) = 0.31408 0.37316
# Poissons Ratio (y) = 0.22655 0.29756
# Poissons Ratio (z) = 0.27406 0.30298
#
# Static dielectric constant tensor:
#      x y z
#    x 3.253690 0.000000 0.000000 
#    y 0.000000 3.330110 0.000000 
#    z 0.000000 0.000000 3.009800 
# 
# 
# High freq. dielectric constant tensor:
#      x y z
#    x 1.680580 0.000000 0.000000 
#    y 0.000000 1.671550 0.000000 
#    z 0.000000 0.000000 1.638820 
# 
# From -- ./inp_files/33876.got.cif
#   From: 2010.03.12/outbox.cif.g09.slc.cpg/sg53_17_cif.got.tgz:33876.got - 2010.04.16 14:36:59.
