data_PCOD8218553
_publ_section_title
;
Structure prediction by ZEFSAII (Michael W. Deem and Ramdas Pophale) SiO2 
 PCOD8218553
Probable space group: P M N A
;
_chemical_formula_sum "Si O2"
_cell_formula_units_Z 64
_cell_length_a 9.029269
_cell_length_b 16.701380
_cell_length_c 23.727612
_cell_angle_alpha 90.000000
_cell_angle_beta 90.000000
_cell_angle_gamma 90.000000
_cell_volume 3578.153613
_symmetry_space_group_name_H-M "P M N A"
_symmetry_group_IT_number 53
_symmetry_cell_setting 'orthorhombic'
loop_
_space_group_symop_operation_xyz
x,y,z
1/2-x,-y,1/2+z
x,-y,-z
1/2-x,y,1/2-z
-x,-y,-z
1/2+x,y,1/2-z
-x,y,z
1/2+x,-y,1/2+z
loop_
_atom_site_type_symbol
_atom_site_label
_atom_site_fract_x
_atom_site_fract_y
_atom_site_fract_z
Si Si1 0.671594 0.689416 0.022473
Si Si2 0.829166 0.901312 0.808138
Si Si3 0.675803 0.371039 0.417253
Si Si4 0.826203 0.272762 0.190099
Si Si5 0.327678 0.534770 0.097831
Si Si6 0.330315 0.780227 0.384534
Si Si7 0.326107 0.074184 0.689481
Si Si8 0.169951 0.374275 0.808677
O O1 0.500000 0.704238 0.009384
O O2 0.698076 0.605260 0.053442
O O3 0.731245 0.762067 0.060797
O O4 0.763936 0.689354 0.964735
O O5 0.750000 0.908404 0.750000
O O6 0.783199 0.815907 0.835735
O O7 0.000000 0.897903 0.794102
O O8 0.793008 0.986050 0.839137
O O9 0.500000 0.378639 0.422899
O O10 0.724261 0.337242 0.356166
O O11 0.751954 0.456222 0.427439
O O12 0.750000 0.290360 0.250000
O O13 0.000000 0.279111 0.200806
O O14 0.500000 0.518486 0.108461
O O15 0.249979 0.555580 0.156748
O O16 0.500000 0.790357 0.404113
O O17 0.267562 0.860483 0.355121
O O18 0.314731 0.709647 0.339757
O O19 0.250000 0.085698 0.750000
O O20 0.500000 0.087591 0.699579
O O21 0.250000 0.364471 0.750000
O O22 0.000000 0.399270 0.799890
#
# Coordination Sequence:
#
# PCOD8218553 Si02
#       8
#     8   8   8   8   8   8   8   8
#     4  10  21  36  53  72  94 124 162 202 243 285
#     4   8  14  27  46  69  98 128 158 192 231 277
#     4  11  22  35  53  75  97 123 158 199 243 291
#     4   9  19  34  52  75 101 128 157 192 236 285
#     4  10  21  36  52  71  95 123 160 204 245 287
#     4   9  18  31  47  70  99 130 163 199 238 280
#     4   9  16  26  45  73 102 131 162 196 235 280
#     4  10  19  31  47  68  98 133 164 195 237 286
#
# _framework density 17.886319
#
# number of rings (size 3 to 8) (size 9 to 14) (size 15 to 20)
#    0.000    2.500    0.000    2.250    0.000    5.500 
#    0.000    1.250    0.000    0.750    0.000    5.250 
#    0.000    0.000    0.000    0.000    0.000    0.000 
#
# Total GULP energy -793201.081369 kJ/mol
# GULP energy per Si atom -12393.766896 kJ/mol
# Density = 1.784561 g / cm^3
# Si number density = 17.886319 Si / 1000 Ang^3
#
#
#
# Elastic Constant Matrix: (Units=GPa)
#
#
# Indices 1 2 3 4 5 6 
#
# 1 78.1689 25.7860 41.5029 0.0000 0.0000 0.0000
# 2 25.7860 67.7549 21.3952 0.0000 0.0000 0.0000
# 3 41.5029 21.3952 74.7413 0.0000 0.0000 0.0000
# 4 0.0000 0.0000 0.0000 17.0291 0.0000 0.0000
# 5 0.0000 0.0000 0.0000 0.0000 30.3695 0.0000
# 6 0.0000 0.0000 0.0000 0.0000 0.0000 20.7907
#
#
#
# Elastic Compliance Matrix: (Units=1/GPa)
#
#
# Indices 1 2 3 4 5 6 
#
# 1 0.019236 -0.004340 -0.009439 0.000000 0.000000 0.000000
# 2 -0.004340 0.017205 -0.002515 0.000000 0.000000 0.000000
# 3 -0.009439 -0.002515 0.019341 0.000000 0.000000 0.000000
# 4 0.000000 0.000000 0.000000 0.058723 0.000000 0.000000
# 5 0.000000 0.000000 0.000000 0.000000 0.032928 0.000000
# 6 0.000000 0.000000 0.000000 0.000000 0.000000 0.048098
#
#
# Mechanical properties :
#
#
# Convention : Reuss Voigt Hill
#
# Bulk Modulus (GPa) = 43.11589 44.22593 43.67091
# Shear Modulus (GPa) = 21.19979 22.43658 21.81818
#
# Velocity S-wave (km/s) = 3.44648 3.54559 3.49639
# Velocity P-wave (km/s) = 6.32420 6.44526 6.38502
#
# Compressibility (1/GPa) = 0.02319330
#
# Stress axis : x y z
#
# Youngs Moduli (GPa) = 51.98535 58.12247 51.70395
#
# Poissons Ratio (x) = 0.25227 0.48804
# Poissons Ratio (y) = 0.22563 0.13003
# Poissons Ratio (z) = 0.49070 0.14618
#
# Static dielectric constant tensor:
#      x y z
#    x 3.259630 0.000000 0.000000 
#    y 0.000000 3.828050 0.000000 
#    z 0.000000 0.000000 2.538370 
# 
# 
# High freq. dielectric constant tensor:
#      x y z
#    x 1.698130 0.000000 0.000000 
#    y 0.000000 1.694060 0.000000 
#    z 0.000000 0.000000 1.668360 
# 
# From -- ./inp_files/31131.got.cif
#   From: 2010.03.12/outbox.cif.g09.slc.cpg/sg53_16_cif.got.tgz:31131.got - 2010.04.16 14:36:59.
