data_PCOD8218070
_publ_section_title
;
Structure prediction by ZEFSAII (Michael W. Deem and Ramdas Pophale) SiO2 
 PCOD8218070
Probable space group: P M N A
;
_chemical_formula_sum "Si O2"
_cell_formula_units_Z 48
_cell_length_a 14.386832
_cell_length_b 9.622639
_cell_length_c 17.376723
_cell_angle_alpha 90.000000
_cell_angle_beta 90.000000
_cell_angle_gamma 90.000000
_cell_volume 2405.621207
_symmetry_space_group_name_H-M "P M N A"
_symmetry_group_IT_number 53
_symmetry_cell_setting 'orthorhombic'
loop_
_space_group_symop_operation_xyz
x,y,z
1/2-x,-y,1/2+z
x,-y,-z
1/2-x,y,1/2-z
-x,-y,-z
1/2+x,y,1/2-z
-x,y,z
1/2+x,-y,1/2+z
loop_
_atom_site_type_symbol
_atom_site_label
_atom_site_fract_x
_atom_site_fract_y
_atom_site_fract_z
Si Si1 0.896651 0.317972 0.151281
Si Si2 0.398680 0.101998 0.219635
Si Si3 0.608897 0.847012 0.033401
Si Si4 0.159498 0.802821 0.298587
Si Si5 0.602506 0.500394 0.208248
Si Si6 0.299264 0.294347 0.104358
O O1 0.898491 0.175199 0.198350
O O2 0.867387 0.444045 0.208017
O O3 0.812605 0.304343 0.089689
O O4 0.000000 0.342315 0.113723
O O5 0.500000 0.118439 0.179007
O O6 0.321598 0.168188 0.163558
O O7 0.383570 0.940496 0.238808
O O8 0.500000 0.818426 0.050435
O O9 0.670479 0.834347 0.110548
O O10 0.648678 0.731149 0.975613
O O11 0.624191 0.000000 0.000000
O O12 0.250000 0.765484 0.250000
O O13 0.096530 0.666385 0.290644
O O14 0.500000 0.439540 0.191961
O O15 0.667693 0.440541 0.140783
#
# Coordination Sequence:
#
# PCOD8218070 Si02
#       6
#     8   8   8   8   8   8
#     4   9  19  34  56  83 112 152 198 241 280 340
#     4  10  18  31  53  82 113 149 193 237 284 337
#     4  11  23  38  59  88 120 150 191 245 299 348
#     4  12  23  36  55  83 119 157 190 232 288 352
#     4  10  20  35  57  87 121 154 196 243 289 340
#     4  11  19  35  58  83 114 153 192 237 294 351
#
# _framework density 19.953265999999999
#
# number of rings (size 3 to 8) (size 9 to 14) (size 15 to 20)
#    0.000    1.500    1.667    8.000    0.000    0.667 
#    0.000    1.667    0.000    3.500    0.000    3.500 
#    0.000    0.000    0.000    0.000    0.000    0.000 
#
# Total GULP energy -594877.934750 kJ/mol
# GULP energy per Si atom -12393.290307 kJ/mol
# Density = 1.990785 g / cm^3
# Si number density = 19.953266 Si / 1000 Ang^3
#
#
#
# Elastic Constant Matrix: (Units=GPa)
#
#
# Indices 1 2 3 4 5 6 
#
# 1 116.7716 4.7756 38.3034 0.0000 0.0000 0.0000
# 2 4.7756 126.2510 9.2298 0.0000 0.0000 0.0000
# 3 38.3034 9.2298 65.4315 0.0000 0.0000 0.0000
# 4 0.0000 0.0000 0.0000 13.5246 0.0000 0.0000
# 5 0.0000 0.0000 0.0000 0.0000 23.3111 0.0000
# 6 0.0000 0.0000 0.0000 0.0000 0.0000 22.1349
#
#
#
# Elastic Compliance Matrix: (Units=1/GPa)
#
#
# Indices 1 2 3 4 5 6 
#
# 1 0.010599 0.000053 -0.006212 0.000000 0.000000 0.000000
# 2 0.000053 0.008004 -0.001160 0.000000 0.000000 0.000000
# 3 -0.006212 -0.001160 0.019083 0.000000 0.000000 0.000000
# 4 0.000000 0.000000 0.000000 0.073939 0.000000 0.000000
# 5 0.000000 0.000000 0.000000 0.000000 0.042898 0.000000
# 6 0.000000 0.000000 0.000000 0.000000 0.000000 0.045178
#
#
# Mechanical properties :
#
#
# Convention : Reuss Voigt Hill
#
# Bulk Modulus (GPa) = 43.38796 45.89685 44.64240
# Shear Modulus (GPa) = 22.52027 28.87047 25.69537
#
# Velocity S-wave (km/s) = 3.36318 3.80795 3.59246
# Velocity P-wave (km/s) = 6.07234 6.51046 6.29521
#
# Compressibility (1/GPa) = 0.02304787
#
# Stress axis : x y z
#
# Youngs Moduli (GPa) = 94.34574 124.94489 52.40138
#
# Poissons Ratio (x) = -0.00665 0.32553
# Poissons Ratio (y) = -0.00502 0.06079
# Poissons Ratio (z) = 0.58610 0.14495
#
# Static dielectric constant tensor:
#      x y z
#    x 3.856480 0.000000 0.000000 
#    y 0.000000 3.706530 0.000000 
#    z 0.000000 0.000000 3.264440 
# 
# 
# High freq. dielectric constant tensor:
#      x y z
#    x 1.782520 0.000000 0.000000 
#    y 0.000000 1.788120 0.000000 
#    z 0.000000 0.000000 1.728880 
# 
# From -- ./inp_files/28287.got.cif
#   From: 2010.03.12/outbox.cif.g09.slc.cpg/sg53_15_cif.got.tgz:28287.got - 2010.04.16 14:36:59.
