data_PCOD8218144
_publ_section_title
;
Structure prediction by ZEFSAII (Michael W. Deem and Ramdas Pophale) SiO2 
 PCOD8218144
Probable space group: P M N A
;
_chemical_formula_sum "Si O2"
_cell_formula_units_Z 64
_cell_length_a 8.911752
_cell_length_b 20.138538
_cell_length_c 19.454382
_cell_angle_alpha 90.000000
_cell_angle_beta 90.000000
_cell_angle_gamma 90.000000
_cell_volume 3491.471251
_symmetry_space_group_name_H-M "P M N A"
_symmetry_group_IT_number 53
_symmetry_cell_setting 'orthorhombic'
loop_
_space_group_symop_operation_xyz
x,y,z
1/2-x,-y,1/2+z
x,-y,-z
1/2-x,y,1/2-z
-x,-y,-z
1/2+x,y,1/2-z
-x,y,z
1/2+x,-y,1/2+z
loop_
_atom_site_type_symbol
_atom_site_label
_atom_site_fract_x
_atom_site_fract_y
_atom_site_fract_z
Si Si1 0.174882 0.835082 0.076226
Si Si2 0.678455 0.901356 0.675757
Si Si3 0.331358 0.485328 0.080295
Si Si4 0.325209 0.644315 0.552026
Si Si5 0.822722 0.735071 0.321372
Si Si6 0.677376 0.790700 0.572765
Si Si7 0.675049 0.013838 0.574857
Si Si8 0.674364 0.615736 0.393554
O O1 0.277001 0.789124 0.122742
O O2 0.204256 0.910882 0.098222
O O3 0.000000 0.815289 0.085176
O O4 0.228730 0.825501 0.997846
O O5 0.750000 0.902877 0.750000
O O6 0.500000 0.903137 0.682947
O O7 0.733740 0.834487 0.636869
O O8 0.740753 0.964465 0.632651
O O9 0.500000 0.487094 0.109435
O O10 0.262144 0.412685 0.093670
O O11 0.232555 0.540878 0.118418
O O12 0.328317 0.500000 0.000000
O O13 0.500000 0.634842 0.567718
O O14 0.261636 0.715253 0.578107
O O15 0.294775 0.640294 0.470775
O O16 0.750000 0.757233 0.250000
O O17 0.764203 0.662570 0.341992
O O18 0.000000 0.732932 0.313910
O O19 0.500000 0.787456 0.572290
O O20 0.500000 0.997738 0.568211
O O21 0.749026 0.000000 0.500000
O O22 0.500000 0.618621 0.374975
#
# Coordination Sequence:
#
# PCOD8218144 Si02
#       8
#     8   8   8   8   8   8   8   8
#     4  10  18  34  58  83 106 137 185 235 277 328
#     4  10  20  35  55  82 112 145 182 224 273 329
#     4   9  17  28  44  73 110 141 171 216 269 322
#     4   9  16  28  49  77 103 135 179 227 272 321
#     4  12  25  39  54  76 109 148 187 228 279 337
#     4   9  16  30  55  80 106 141 184 227 273 329
#     4   9  16  30  58  86 107 140 188 230 268 323
#     4  10  18  32  54  77 104 138 179 227 276 326
#
# _framework density 18.330382
#
# number of rings (size 3 to 8) (size 9 to 14) (size 15 to 20)
#    0.000    2.250    2.500    1.875    0.000    2.500 
#    0.000    3.125    0.000    1.500    0.000    3.500 
#    0.000    0.000    0.000    0.000    0.000    0.000 
#
# Total GULP energy -793561.030082 kJ/mol
# GULP energy per Si atom -12399.391095 kJ/mol
# Density = 1.828866 g / cm^3
# Si number density = 18.330382 Si / 1000 Ang^3
#
#
#
# Elastic Constant Matrix: (Units=GPa)
#
#
# Indices 1 2 3 4 5 6 
#
# 1 78.2832 41.2965 35.5136 0.0000 0.0000 0.0000
# 2 41.2965 151.5219 59.7097 0.0000 0.0000 0.0000
# 3 35.5136 59.7097 102.5698 0.0000 0.0000 0.0000
# 4 0.0000 0.0000 0.0000 20.7193 0.0000 0.0000
# 5 0.0000 0.0000 0.0000 0.0000 23.8320 0.0000
# 6 0.0000 0.0000 0.0000 0.0000 0.0000 18.2800
#
#
#
# Elastic Compliance Matrix: (Units=1/GPa)
#
#
# Indices 1 2 3 4 5 6 
#
# 1 0.016040 -0.002833 -0.003904 0.000000 0.000000 0.000000
# 2 -0.002833 0.009065 -0.004296 0.000000 0.000000 0.000000
# 3 -0.003904 -0.004296 0.013602 0.000000 0.000000 0.000000
# 4 0.000000 0.000000 0.000000 0.048264 0.000000 0.000000
# 5 0.000000 0.000000 0.000000 0.000000 0.041960 0.000000
# 6 0.000000 0.000000 0.000000 0.000000 0.000000 0.054705
#
#
# Mechanical properties :
#
#
# Convention : Reuss Voigt Hill
#
# Bulk Modulus (GPa) = 60.09644 67.26829 63.68237
# Shear Modulus (GPa) = 23.66867 25.62325 24.64596
#
# Velocity S-wave (km/s) = 3.59726 3.74285 3.67078
# Velocity P-wave (km/s) = 7.07885 7.44687 7.26519
#
# Compressibility (1/GPa) = 0.01663992
#
# Stress axis : x y z
#
# Youngs Moduli (GPa) = 62.34461 110.31749 73.51747
#
# Poissons Ratio (x) = 0.31253 0.28704
# Poissons Ratio (y) = 0.17662 0.31583
# Poissons Ratio (z) = 0.24342 0.47393
#
# Static dielectric constant tensor:
#      x y z
#    x 3.135330 0.000000 0.000000 
#    y 0.000000 3.699360 0.000000 
#    z 0.000000 0.000000 3.212590 
# 
# 
# High freq. dielectric constant tensor:
#      x y z
#    x 1.684030 0.000000 0.000000 
#    y 0.000000 1.729170 0.000000 
#    z 0.000000 0.000000 1.680860 
# 
# From -- ./inp_files/27023.got.cif
#   From: 2010.03.12/outbox.cif.g09.slc.cpg/sg53_14_cif.got.tgz:27023.got - 2010.04.16 14:36:59.
