data_PCOD8218984
_publ_section_title
;
Structure prediction by ZEFSAII (Michael W. Deem and Ramdas Pophale) SiO2 
 PCOD8218984
Probable space group: P M N A
;
_chemical_formula_sum "Si O2"
_cell_formula_units_Z 48
_cell_length_a 8.995941
_cell_length_b 16.419848
_cell_length_c 18.017525
_cell_angle_alpha 90.000000
_cell_angle_beta 90.000000
_cell_angle_gamma 90.000000
_cell_volume 2661.404362
_symmetry_space_group_name_H-M "P M N A"
_symmetry_group_IT_number 53
_symmetry_cell_setting 'orthorhombic'
loop_
_space_group_symop_operation_xyz
x,y,z
1/2-x,-y,1/2+z
x,-y,-z
1/2-x,y,1/2-z
-x,-y,-z
1/2+x,y,1/2-z
-x,y,z
1/2+x,-y,1/2+z
loop_
_atom_site_type_symbol
_atom_site_label
_atom_site_fract_x
_atom_site_fract_y
_atom_site_fract_z
Si Si1 0.325856 0.415316 0.473234
Si Si2 0.329390 0.185057 0.100170
Si Si3 0.323624 0.670944 0.674618
Si Si4 0.829189 0.999116 0.584363
Si Si5 0.328216 0.861088 0.326826
Si Si6 0.671177 0.751256 0.461505
O O1 0.249589 0.500000 0.500000
O O2 0.500000 0.429315 0.466915
O O3 0.268396 0.388102 0.391898
O O4 0.287974 0.344569 0.532845
O O5 0.500000 0.213222 0.106032
O O6 0.231692 0.237491 0.157444
O O7 0.312239 0.090278 0.120011
O O8 0.274691 0.196875 0.015896
O O9 0.250000 0.638255 0.750000
O O10 0.500000 0.672212 0.682873
O O11 0.000000 0.028408 0.585003
O O12 0.768606 0.000000 0.500000
O O13 0.733411 0.058354 0.634792
O O14 0.250000 0.841654 0.250000
O O15 0.500000 0.876488 0.311152
O O16 0.301545 0.781971 0.378277
O O17 0.500000 0.764343 0.486410
#
# Coordination Sequence:
#
# PCOD8218984 Si02
#       6
#     8   8   8   8   8   8
#     4   8  15  31  56  81 103 132 171 212 255 310
#     4  10  19  32  54  78 102 135 172 213 259 312
#     4  10  20  34  53  78 109 140 174 215 262 315
#     4  10  20  35  54  77 104 137 177 219 265 314
#     4  11  23  36  52  74 105 141 179 222 262 306
#     4   9  18  33  53  77 102 134 175 213 255 311
#
# _framework density 18.035591
#
# number of rings (size 3 to 8) (size 9 to 14) (size 15 to 20)
#    0.000    2.333    1.667    2.500    0.000    3.000 
#    0.000    0.833    0.000   12.500    0.000    0.000 
#    0.000    0.000    0.000    0.000    0.000    0.000 
#
# Total GULP energy -595172.448342 kJ/mol
# GULP energy per Si atom -12399.426007 kJ/mol
# Density = 1.799454 g / cm^3
# Si number density = 18.035591 Si / 1000 Ang^3
#
#
#
# Elastic Constant Matrix: (Units=GPa)
#
#
# Indices 1 2 3 4 5 6 
#
# 1 78.6228 43.1837 48.5435 0.0000 0.0000 0.0000
# 2 43.1837 122.7916 64.8077 0.0000 0.0000 0.0000
# 3 48.5435 64.8077 129.0040 0.0000 0.0000 0.0000
# 4 0.0000 0.0000 0.0000 20.1273 0.0000 0.0000
# 5 0.0000 0.0000 0.0000 0.0000 30.4179 0.0000
# 6 0.0000 0.0000 0.0000 0.0000 0.0000 13.3717
#
#
#
# Elastic Compliance Matrix: (Units=1/GPa)
#
#
# Indices 1 2 3 4 5 6 
#
# 1 0.017718 -0.003691 -0.004813 0.000000 0.000000 0.000000
# 2 -0.003691 0.011851 -0.004565 0.000000 0.000000 0.000000
# 3 -0.004813 -0.004565 0.011856 0.000000 0.000000 0.000000
# 4 0.000000 0.000000 0.000000 0.049684 0.000000 0.000000
# 5 0.000000 0.000000 0.000000 0.000000 0.032875 0.000000
# 6 0.000000 0.000000 0.000000 0.000000 0.000000 0.074785
#
#
# Mechanical properties :
#
#
# Convention : Reuss Voigt Hill
#
# Bulk Modulus (GPa) = 65.41187 71.49869 68.45528
# Shear Modulus (GPa) = 21.73897 24.37563 23.05730
#
# Velocity S-wave (km/s) = 3.47556 3.68030 3.57940
# Velocity P-wave (km/s) = 7.24244 7.60189 7.42434
#
# Compressibility (1/GPa) = 0.01528774
#
# Stress axis : x y z
#
# Youngs Moduli (GPa) = 56.44050 84.38019 84.34553
#
# Poissons Ratio (x) = 0.31143 0.40595
# Poissons Ratio (y) = 0.20831 0.38502
# Poissons Ratio (z) = 0.27164 0.38518
#
# Static dielectric constant tensor:
#      x y z
#    x 3.268530 0.000000 0.000000 
#    y 0.000000 3.468220 0.000000 
#    z 0.000000 0.000000 3.354810 
# 
# 
# High freq. dielectric constant tensor:
#      x y z
#    x 1.690820 0.000000 0.000000 
#    y 0.000000 1.691760 0.000000 
#    z 0.000000 0.000000 1.691400 
# 
# From -- ./inp_files/26410.got.cif
#   From: 2010.03.12/outbox.cif.g09.slc.cpg/sg53_14_cif.got.tgz:26410.got - 2010.04.16 14:36:59.
