data_PCOD8218637
_publ_section_title
;
Structure prediction by ZEFSAII (Michael W. Deem and Ramdas Pophale) SiO2 
 PCOD8218637
Probable space group: P M N A
;
_chemical_formula_sum "Si O2"
_cell_formula_units_Z 48
_cell_length_a 8.966854
_cell_length_b 18.386719
_cell_length_c 16.258081
_cell_angle_alpha 90.000000
_cell_angle_beta 90.000000
_cell_angle_gamma 90.000000
_cell_volume 2680.486476
_symmetry_space_group_name_H-M "P M N A"
_symmetry_group_IT_number 53
_symmetry_cell_setting 'orthorhombic'
loop_
_space_group_symop_operation_xyz
x,y,z
1/2-x,-y,1/2+z
x,-y,-z
1/2-x,y,1/2-z
-x,-y,-z
1/2+x,y,1/2-z
-x,y,z
1/2+x,-y,1/2+z
loop_
_atom_site_type_symbol
_atom_site_label
_atom_site_fract_x
_atom_site_fract_y
_atom_site_fract_z
Si Si1 0.835745 0.788859 0.585717
Si Si2 0.177547 0.166479 0.834669
Si Si3 0.675225 0.416787 0.495770
Si Si4 0.675085 0.082008 0.980457
Si Si5 0.667111 0.295534 0.915365
Si Si6 0.673621 0.333017 0.332610
O O1 0.787682 0.871286 0.563112
O O2 0.838283 0.746642 0.500371
O O3 0.722263 0.750246 0.648232
O O4 0.000000 0.787185 0.626539
O O5 0.250000 0.138920 0.750000
O O6 0.227669 0.109842 0.904413
O O7 0.235517 0.248368 0.851983
O O8 0.000000 0.167263 0.828552
O O9 0.726448 0.500000 0.500000
O O10 0.500000 0.407475 0.509881
O O11 0.757395 0.373920 0.569282
O O12 0.722532 0.385795 0.406735
O O13 0.500000 0.090240 0.958332
O O14 0.720873 0.000000 0.000000
O O15 0.500000 0.306395 0.879994
O O16 0.750000 0.362269 0.250000
O O17 0.500000 0.334048 0.317784
#
# Coordination Sequence:
#
# PCOD8218637 Si02
#       6
#     8   8   8   8   8   8
#     4   8  15  29  49  71  95 124 159 197 237 287
#     4  11  21  34  53  76 103 134 172 215 258 304
#     4   9  18  33  52  74 101 134 169 206 252 305
#     4   9  18  34  55  78 105 135 166 204 252 304
#     4   9  17  31  51  74  98 127 165 205 248 298
#     4  10  19  31  49  71  96 127 164 206 249 293
#
# _framework density 17.907197
#
# number of rings (size 3 to 8) (size 9 to 14) (size 15 to 20)
#    0.000    2.667    0.000    3.500    0.000    5.333 
#    0.000    1.667    0.000    2.000    0.000    0.000 
#    0.000    0.000    0.000    0.000    0.000    0.000 
#
# Total GULP energy -595087.539194 kJ/mol
# GULP energy per Si atom -12397.657067 kJ/mol
# Density = 1.786644 g / cm^3
# Si number density = 17.907197 Si / 1000 Ang^3
#
#
#
# Elastic Constant Matrix: (Units=GPa)
#
#
# Indices 1 2 3 4 5 6 
#
# 1 104.1859 44.7286 46.3147 0.0000 0.0000 0.0000
# 2 44.7286 132.4362 35.9005 0.0000 0.0000 0.0000
# 3 46.3147 35.9005 73.5204 0.0000 0.0000 0.0000
# 4 0.0000 0.0000 0.0000 16.2023 0.0000 0.0000
# 5 0.0000 0.0000 0.0000 0.0000 29.3540 0.0000
# 6 0.0000 0.0000 0.0000 0.0000 0.0000 25.4740
#
#
#
# Elastic Compliance Matrix: (Units=1/GPa)
#
#
# Indices 1 2 3 4 5 6 
#
# 1 0.014133 -0.002720 -0.007575 0.000000 0.000000 0.000000
# 2 -0.002720 0.009226 -0.002792 0.000000 0.000000 0.000000
# 3 -0.007575 -0.002792 0.019737 0.000000 0.000000 0.000000
# 4 0.000000 0.000000 0.000000 0.061720 0.000000 0.000000
# 5 0.000000 0.000000 0.000000 0.000000 0.034067 0.000000
# 6 0.000000 0.000000 0.000000 0.000000 0.000000 0.039256
#
#
# Mechanical properties :
#
#
# Convention : Reuss Voigt Hill
#
# Bulk Modulus (GPa) = 59.09231 62.67000 60.88115
# Shear Modulus (GPa) = 23.81477 26.41932 25.11705
#
# Velocity S-wave (km/s) = 3.65073 3.84519 3.74922
# Velocity P-wave (km/s) = 7.13031 7.40183 7.26734
#
# Compressibility (1/GPa) = 0.01692268
#
# Stress axis : x y z
#
# Youngs Moduli (GPa) = 70.75423 108.38693 50.66610
#
# Poissons Ratio (x) = 0.29480 0.38381
# Poissons Ratio (y) = 0.19244 0.14145
# Poissons Ratio (z) = 0.53599 0.30260
#
# Static dielectric constant tensor:
#      x y z
#    x 3.379910 0.000000 0.000000 
#    y 0.000000 3.458260 0.000000 
#    z 0.000000 0.000000 3.182950 
# 
# 
# High freq. dielectric constant tensor:
#      x y z
#    x 1.697630 0.000000 0.000000 
#    y 0.000000 1.683910 0.000000 
#    z 0.000000 0.000000 1.672020 
# 
# From -- ./inp_files/20123.got.cif
#   From: 2010.03.12/outbox.cif.g09.slc.cpg/sg53_11_cif.got.tgz:20123.got - 2010.04.16 14:36:59.
