data_PCOD8218448
_publ_section_title
;
Structure prediction by ZEFSAII (Michael W. Deem and Ramdas Pophale) SiO2 
 PCOD8218448
Probable space group: P M N A
;
_chemical_formula_sum "Si O2"
_cell_formula_units_Z 64
_cell_length_a 9.358987
_cell_length_b 17.480362
_cell_length_c 20.150746
_cell_angle_alpha 90.000000
_cell_angle_beta 90.000000
_cell_angle_gamma 90.000000
_cell_volume 3296.631431
_symmetry_space_group_name_H-M "P M N A"
_symmetry_group_IT_number 53
_symmetry_cell_setting 'orthorhombic'
loop_
_space_group_symop_operation_xyz
x,y,z
1/2-x,-y,1/2+z
x,-y,-z
1/2-x,y,1/2-z
-x,-y,-z
1/2+x,y,1/2-z
-x,y,z
1/2+x,-y,1/2+z
loop_
_atom_site_type_symbol
_atom_site_label
_atom_site_fract_x
_atom_site_fract_y
_atom_site_fract_z
Si Si1 0.664265 0.709409 0.186096
Si Si2 0.829910 0.075120 0.537256
Si Si3 0.669058 0.727927 0.812188
Si Si4 0.834106 0.886218 0.316822
Si Si5 0.342635 0.634594 0.509893
Si Si6 0.339811 0.583888 0.372067
Si Si7 0.831630 0.224132 0.459196
Si Si8 0.164563 0.582336 0.846583
O O1 0.750000 0.684217 0.250000
O O2 0.500000 0.692169 0.197634
O O3 0.691628 0.797194 0.167844
O O4 0.727269 0.652795 0.131985
O O5 0.778712 0.073764 0.614916
O O6 0.772940 0.146999 0.494182
O O7 0.000000 0.076881 0.538014
O O8 0.771121 0.000000 0.500000
O O9 0.750000 0.769204 0.750000
O O10 0.500000 0.727870 0.800135
O O11 0.709683 0.771903 0.880496
O O12 0.726447 0.640231 0.811366
O O13 0.750000 0.912674 0.250000
O O14 0.000000 0.904331 0.303231
O O15 0.500000 0.672561 0.513440
O O16 0.335926 0.572012 0.451359
O O17 0.233049 0.704771 0.501374
O O18 0.309888 0.587989 0.575572
O O19 0.500000 0.608247 0.349507
O O20 0.296644 0.506687 0.331892
O O21 0.000000 0.229414 0.467394
O O22 0.000000 0.600981 0.826482
#
# Coordination Sequence:
#
# PCOD8218448 Si02
#       8
#     8   8   8   8   8   8   8   8
#     4  10  20  33  48  67  93 125 163 204 244 289
#     4   9  17  32  56  83 109 137 169 204 246 298
#     4  10  20  34  52  72  96 129 171 218 264 310
#     4   9  18  33  54  78 104 137 173 207 244 292
#     4   9  17  30  49  71  95 126 162 200 248 304
#     4  10  19  30  46  69  96 126 161 204 254 305
#     4   9  18  33  53  77 101 128 169 216 254 296
#     4   9  18  32  48  67  94 127 164 207 254 304
#
# _framework density 19.413754999999998
#
# number of rings (size 3 to 8) (size 9 to 14) (size 15 to 20)
#    0.000    2.625    0.000    1.875    0.000    5.000 
#    0.000    1.250    0.000    5.250    0.000    0.000 
#    0.000    0.000    0.000    0.000    0.000    0.000 
#
# Total GULP energy -792919.700753 kJ/mol
# GULP energy per Si atom -12389.370324 kJ/mol
# Density = 1.936957 g / cm^3
# Si number density = 19.413755 Si / 1000 Ang^3
#
#
#
# Elastic Constant Matrix: (Units=GPa)
#
#
# Indices 1 2 3 4 5 6 
#
# 1 61.3333 27.3142 36.8048 0.0000 0.0000 0.0000
# 2 27.3142 71.1489 41.8172 0.0000 0.0000 0.0000
# 3 36.8048 41.8172 118.4050 0.0000 0.0000 0.0000
# 4 0.0000 0.0000 0.0000 19.7607 0.0000 0.0000
# 5 0.0000 0.0000 0.0000 0.0000 27.3868 0.0000
# 6 0.0000 0.0000 0.0000 0.0000 0.0000 14.8708
#
#
#
# Elastic Compliance Matrix: (Units=1/GPa)
#
#
# Indices 1 2 3 4 5 6 
#
# 1 0.021618 -0.005489 -0.004781 0.000000 0.000000 0.000000
# 2 -0.005489 0.019130 -0.005050 0.000000 0.000000 0.000000
# 3 -0.004781 -0.005050 0.011715 0.000000 0.000000 0.000000
# 4 0.000000 0.000000 0.000000 0.050606 0.000000 0.000000
# 5 0.000000 0.000000 0.000000 0.000000 0.036514 0.000000
# 6 0.000000 0.000000 0.000000 0.000000 0.000000 0.067246
#
#
# Mechanical properties :
#
#
# Convention : Reuss Voigt Hill
#
# Bulk Modulus (GPa) = 45.82305 51.41771 48.62038
# Shear Modulus (GPa) = 20.42951 22.06706 21.24828
#
# Velocity S-wave (km/s) = 3.24747 3.37511 3.31191
# Velocity P-wave (km/s) = 6.14134 6.45997 6.30267
#
# Compressibility (1/GPa) = 0.02182308
#
# Stress axis : x y z
#
# Youngs Moduli (GPa) = 46.25793 52.27262 85.35863
#
# Poissons Ratio (x) = 0.28693 0.40811
# Poissons Ratio (y) = 0.25392 0.43107
# Poissons Ratio (z) = 0.22116 0.26398
#
# Static dielectric constant tensor:
#      x y z
#    x 3.420700 0.000000 0.000000 
#    y 0.000000 3.436210 0.000000 
#    z 0.000000 0.000000 3.857970 
# 
# 
# High freq. dielectric constant tensor:
#      x y z
#    x 1.735880 0.000000 0.000000 
#    y 0.000000 1.727230 0.000000 
#    z 0.000000 0.000000 1.771610 
# 
# From -- ./inp_files/31232.got.cif
#   From: 2010.03.12/outbox.cif.g09.slc.cpg/sg53_16_cif.got.tgz:31232.got - 2010.04.16 14:36:59.
