data_PCOD8218648
_publ_section_title
;
Structure prediction by ZEFSAII (Michael W. Deem and Ramdas Pophale) SiO2 
 PCOD8218648
Probable space group: P M N A
;
_chemical_formula_sum "Si O2"
_cell_formula_units_Z 48
_cell_length_a 9.260735
_cell_length_b 16.365429
_cell_length_c 18.321969
_cell_angle_alpha 90.000000
_cell_angle_beta 90.000000
_cell_angle_gamma 90.000000
_cell_volume 2776.802522
_symmetry_space_group_name_H-M "P M N A"
_symmetry_group_IT_number 53
_symmetry_cell_setting 'orthorhombic'
loop_
_space_group_symop_operation_xyz
x,y,z
1/2-x,-y,1/2+z
x,-y,-z
1/2-x,y,1/2-z
-x,-y,-z
1/2+x,y,1/2-z
-x,y,z
1/2+x,-y,1/2+z
loop_
_atom_site_type_symbol
_atom_site_label
_atom_site_fract_x
_atom_site_fract_y
_atom_site_fract_z
Si Si1 0.328996 0.167519 0.177039
Si Si2 0.333719 0.523217 0.678705
Si Si3 0.667008 0.233422 0.542200
Si Si4 0.165459 0.312188 0.108690
Si Si5 0.168905 0.910715 0.524576
Si Si6 0.170238 0.340432 0.823766
O O1 0.250000 0.133936 0.250000
O O2 0.500000 0.171667 0.190470
O O3 0.269800 0.258007 0.159396
O O4 0.289999 0.107448 0.109182
O O5 0.250000 0.550951 0.750000
O O6 0.500000 0.521666 0.700436
O O7 0.300984 0.591525 0.617703
O O8 0.286410 0.432849 0.652151
O O9 0.500000 0.210176 0.549437
O O10 0.694792 0.294898 0.475665
O O11 0.754041 0.150509 0.530930
O O12 0.724590 0.278797 0.614101
O O13 0.000000 0.291503 0.130440
O O14 0.000000 0.899316 0.512954
O O15 0.221035 0.000000 0.500000
O O16 0.250000 0.314939 0.750000
O O17 0.000000 0.332704 0.811594
#
# Coordination Sequence:
#
# PCOD8218648 Si02
#       6
#     8   8   8   8   8   8
#     4  10  19  31  49  72  98 126 155 189 231 280
#     4   9  17  28  43  64  92 127 162 195 230 269
#     4   9  18  32  50  72  95 120 154 195 238 282
#     4   9  17  29  46  69  96 125 157 194 235 277
#     4   9  19  36  55  73  95 124 155 189 234 286
#     4   9  18  32  48  67  93 126 163 199 234 273
#
# _framework density 17.286068
#
# number of rings (size 3 to 8) (size 9 to 14) (size 15 to 20)
#    0.000    2.833    0.000    1.000    0.000    4.333 
#    0.000    4.167    0.000    4.000    0.000    9.333 
#    0.000    0.000    0.000    0.000    0.000    0.000 
#
# Total GULP energy -595113.103901 kJ/mol
# GULP energy per Si atom -12398.189665 kJ/mol
# Density = 1.724672 g / cm^3
# Si number density = 17.286068 Si / 1000 Ang^3
#
#
#
# Elastic Constant Matrix: (Units=GPa)
#
#
# Indices 1 2 3 4 5 6 
#
# 1 50.7310 47.5337 46.6890 0.0000 0.0000 0.0000
# 2 47.5337 135.2408 86.0076 0.0000 0.0000 0.0000
# 3 46.6890 86.0076 117.9979 0.0000 0.0000 0.0000
# 4 0.0000 0.0000 0.0000 24.2843 0.0000 0.0000
# 5 0.0000 0.0000 0.0000 0.0000 27.6196 0.0000
# 6 0.0000 0.0000 0.0000 0.0000 0.0000 23.4720
#
#
#
# Elastic Compliance Matrix: (Units=1/GPa)
#
#
# Indices 1 2 3 4 5 6 
#
# 1 0.033620 -0.006257 -0.008742 0.000000 0.000000 0.000000
# 2 -0.006257 0.014948 -0.008420 0.000000 0.000000 0.000000
# 3 -0.008742 -0.008420 0.018071 0.000000 0.000000 0.000000
# 4 0.000000 0.000000 0.000000 0.041179 0.000000 0.000000
# 5 0.000000 0.000000 0.000000 0.000000 0.036206 0.000000
# 6 0.000000 0.000000 0.000000 0.000000 0.000000 0.042604
#
#
# Mechanical properties :
#
#
# Convention : Reuss Voigt Hill
#
# Bulk Modulus (GPa) = 50.50161 73.82558 62.16360
# Shear Modulus (GPa) = 20.82766 23.32447 22.07607
#
# Velocity S-wave (km/s) = 3.47491 3.67730 3.57753
# Velocity P-wave (km/s) = 6.73636 7.79941 7.28730
#
# Compressibility (1/GPa) = 0.01980135
#
# Stress axis : x y z
#
# Youngs Moduli (GPa) = 29.74427 66.89868 55.33815
#
# Poissons Ratio (x) = 0.41859 0.48376
# Poissons Ratio (y) = 0.18611 0.46593
# Poissons Ratio (z) = 0.26002 0.56327
#
# Static dielectric constant tensor:
#      x y z
#    x 3.198450 0.000000 0.000000 
#    y 0.000000 3.244070 0.000000 
#    z 0.000000 0.000000 3.272920 
# 
# 
# High freq. dielectric constant tensor:
#      x y z
#    x 1.665160 0.000000 0.000000 
#    y 0.000000 1.658780 0.000000 
#    z 0.000000 0.000000 1.661940 
# 
# From -- ./inp_files/20175.got.cif
#   From: 2010.03.12/outbox.cif.g09.slc.cpg/sg53_11_cif.got.tgz:20175.got - 2010.04.16 14:36:59.
