data_PCOD8218467
_publ_section_title
;
Structure prediction by ZEFSAII (Michael W. Deem and Ramdas Pophale) SiO2 
 PCOD8218467
Probable space group: P M N A
;
_chemical_formula_sum "Si O2"
_cell_formula_units_Z 48
_cell_length_a 9.196604
_cell_length_b 11.771547
_cell_length_c 25.661352
_cell_angle_alpha 90.000000
_cell_angle_beta 90.000000
_cell_angle_gamma 90.000000
_cell_volume 2778.053220
_symmetry_space_group_name_H-M "P M N A"
_symmetry_group_IT_number 53
_symmetry_cell_setting 'orthorhombic'
loop_
_space_group_symop_operation_xyz
x,y,z
1/2-x,-y,1/2+z
x,-y,-z
1/2-x,y,1/2-z
-x,-y,-z
1/2+x,y,1/2-z
-x,y,z
1/2+x,-y,1/2+z
loop_
_atom_site_type_symbol
_atom_site_label
_atom_site_fract_x
_atom_site_fract_y
_atom_site_fract_z
Si Si1 0.166004 0.055153 0.945377
Si Si2 0.829128 0.484005 0.887517
Si Si3 0.332757 0.668776 0.696408
Si Si4 0.665643 0.652699 0.958082
Si Si5 0.165247 0.717412 0.425157
Si Si6 0.665984 0.825717 0.604548
O O1 0.267144 0.158147 0.928827
O O2 0.000000 0.098158 0.950925
O O3 0.180119 0.961562 0.899325
O O4 0.217016 0.000000 0.000000
O O5 0.793698 0.553857 0.834989
O O6 0.763877 0.551279 0.936591
O O7 0.754286 0.359994 0.883990
O O8 0.000000 0.468906 0.896095
O O9 0.250000 0.673111 0.750000
O O10 0.500000 0.671327 0.711106
O O11 0.290021 0.779111 0.661641
O O12 0.500000 0.637509 0.938449
O O13 0.728659 0.772790 0.938778
O O14 0.671855 0.651944 0.020152
O O15 0.000000 0.730390 0.405718
O O16 0.500000 0.786554 0.592482
#
# Coordination Sequence:
#
# PCOD8218467 Si02
#       6
#     8   8   8   8   8   8
#     4  10  19  32  52  73 100 142 182 210 243 296
#     4  10  21  35  51  72  99 132 172 211 251 305
#     4   9  19  35  56  79 100 124 160 212 264 309
#     4  10  19  30  46  71 104 137 168 207 252 295
#     4  11  22  32  46  72 107 140 172 209 251 299
#     4   9  18  33  51  75 103 133 174 212 246 297
#
# _framework density 17.278286000000001
#
# number of rings (size 3 to 8) (size 9 to 14) (size 15 to 20)
#    0.000    2.167    1.667    3.000    0.000    8.333 
#    0.000    0.000    0.000    1.000    0.000    2.333 
#    0.000    0.000    0.000    0.000    0.000    0.000 
#
# Total GULP energy -595152.999789 kJ/mol
# GULP energy per Si atom -12399.020829 kJ/mol
# Density = 1.723896 g / cm^3
# Si number density = 17.278286 Si / 1000 Ang^3
#
#
#
# Elastic Constant Matrix: (Units=GPa)
#
#
# Indices 1 2 3 4 5 6 
#
# 1 102.7252 59.0201 43.9441 0.0000 0.0000 0.0000
# 2 59.0201 112.0390 42.1938 0.0000 0.0000 0.0000
# 3 43.9441 42.1938 80.9767 0.0000 0.0000 0.0000
# 4 0.0000 0.0000 0.0000 14.7786 0.0000 0.0000
# 5 0.0000 0.0000 0.0000 0.0000 26.7946 0.0000
# 6 0.0000 0.0000 0.0000 0.0000 0.0000 25.7643
#
#
#
# Elastic Compliance Matrix: (Units=1/GPa)
#
#
# Indices 1 2 3 4 5 6 
#
# 1 0.015531 -0.006230 -0.005182 0.000000 0.000000 0.000000
# 2 -0.006230 0.013603 -0.003707 0.000000 0.000000 0.000000
# 3 -0.005182 -0.003707 0.017093 0.000000 0.000000 0.000000
# 4 0.000000 0.000000 0.000000 0.067666 0.000000 0.000000
# 5 0.000000 0.000000 0.000000 0.000000 0.037321 0.000000
# 6 0.000000 0.000000 0.000000 0.000000 0.000000 0.038813
#
#
# Mechanical properties :
#
#
# Convention : Reuss Voigt Hill
#
# Bulk Modulus (GPa) = 62.54378 65.11743 63.83060
# Shear Modulus (GPa) = 22.16354 23.50634 22.83494
#
# Velocity S-wave (km/s) = 3.58542 3.69244 3.63932
# Velocity P-wave (km/s) = 7.30868 7.47984 7.39476
#
# Compressibility (1/GPa) = 0.01598880
#
# Stress axis : x y z
#
# Youngs Moduli (GPa) = 64.38821 73.51093 58.50262
#
# Poissons Ratio (x) = 0.45796 0.30317
# Poissons Ratio (y) = 0.40112 0.21690
# Poissons Ratio (z) = 0.33367 0.27254
#
# Static dielectric constant tensor:
#      x y z
#    x 3.345980 0.000000 0.000000 
#    y 0.000000 3.295630 0.000000 
#    z 0.000000 0.000000 2.921620 
# 
# 
# High freq. dielectric constant tensor:
#      x y z
#    x 1.676800 0.000000 0.000000 
#    y 0.000000 1.669550 0.000000 
#    z 0.000000 0.000000 1.627810 
# 
# From -- ./inp_files/33833.got.cif
#   From: 2010.03.12/outbox.cif.g09.slc.cpg/sg53_17_cif.got.tgz:33833.got - 2010.04.16 14:36:59.
