data_PCOD8218772
_publ_section_title
;
Structure prediction by ZEFSAII (Michael W. Deem and Ramdas Pophale) SiO2 
 PCOD8218772
Probable space group: P M N A
;
_chemical_formula_sum "Si O2"
_cell_formula_units_Z 64
_cell_length_a 8.746470
_cell_length_b 14.219605
_cell_length_c 30.324183
_cell_angle_alpha 90.000000
_cell_angle_beta 90.000000
_cell_angle_gamma 90.000000
_cell_volume 3771.459533
_symmetry_space_group_name_H-M "P M N A"
_symmetry_group_IT_number 53
_symmetry_cell_setting 'orthorhombic'
loop_
_space_group_symop_operation_xyz
x,y,z
1/2-x,-y,1/2+z
x,-y,-z
1/2-x,y,1/2-z
-x,-y,-z
1/2+x,y,1/2-z
-x,y,z
1/2+x,-y,1/2+z
loop_
_atom_site_type_symbol
_atom_site_label
_atom_site_fract_x
_atom_site_fract_y
_atom_site_fract_z
Si Si1 0.679996 0.259673 0.518667
Si Si2 0.181534 0.554705 0.455854
Si Si3 0.821113 0.352604 0.205156
Si Si4 0.819459 0.860719 0.795419
Si Si5 0.178401 0.061853 0.112275
Si Si6 0.329538 0.425259 0.123377
Si Si7 0.671172 0.236150 0.072062
Si Si8 0.178806 0.065346 0.541820
O O1 0.500000 0.261452 0.510147
O O2 0.730957 0.346343 0.549455
O O3 0.773728 0.276877 0.474139
O O4 0.726111 0.161060 0.540250
O O5 0.232891 0.500000 0.500000
O O6 0.236611 0.494574 0.413698
O O7 0.000000 0.570421 0.455935
O O8 0.750000 0.392451 0.250000
O O9 0.760175 0.246014 0.196467
O O10 0.775451 0.424888 0.166591
O O11 0.000000 0.351832 0.210173
O O12 0.750000 0.901805 0.750000
O O13 0.768693 0.926225 0.836677
O O14 0.000000 0.861535 0.791163
O O15 0.207398 0.159288 0.087282
O O16 0.000000 0.037102 0.108757
O O17 0.277102 0.982037 0.088297
O O18 0.500000 0.457039 0.136643
O O19 0.332791 0.319477 0.106335
O O20 0.500000 0.192103 0.066915
O O21 0.000000 0.088218 0.541152
O O22 0.224135 0.000000 0.500000
#
# Coordination Sequence:
#
# PCOD8218772 Si02
#       8
#     8   8   8   8   8   8   8   8
#     4  12  24  36  52  75 104 137 174 222 264 297
#     4  10  20  37  55  74 103 140 178 213 254 307
#     4  10  19  32  49  73 105 138 173 213 259 308
#     4   9  19  32  48  73 104 137 170 208 255 305
#     4  11  21  34  51  77 106 136 175 218 261 302
#     4  10  20  33  52  75 102 140 179 213 254 304
#     4  11  20  32  50  73 103 141 178 211 252 308
#     4  11  23  37  54  75 100 138 180 213 256 313
#
# _framework density 16.969557999999999
#
# number of rings (size 3 to 8) (size 9 to 14) (size 15 to 20)
#    0.000    1.500    3.750    2.625    0.000    3.250 
#    0.000    0.000    0.000    0.000    0.000    0.875 
#    0.000    2.000    0.000    0.000    0.000    0.000 
#
# Total GULP energy -793635.070230 kJ/mol
# GULP energy per Si atom -12400.547972 kJ/mol
# Density = 1.693093 g / cm^3
# Si number density = 16.969558 Si / 1000 Ang^3
#
#
#
# Elastic Constant Matrix: (Units=GPa)
#
#
# Indices 1 2 3 4 5 6 
#
# 1 51.5458 22.4584 37.4007 0.0000 0.0000 0.0000
# 2 22.4584 74.5884 39.2259 0.0000 0.0000 0.0000
# 3 37.4007 39.2259 128.5097 0.0000 0.0000 0.0000
# 4 0.0000 0.0000 0.0000 21.8277 0.0000 0.0000
# 5 0.0000 0.0000 0.0000 0.0000 27.5948 0.0000
# 6 0.0000 0.0000 0.0000 0.0000 0.0000 23.3304
#
#
#
# Elastic Compliance Matrix: (Units=1/GPa)
#
#
# Indices 1 2 3 4 5 6 
#
# 1 0.025831 -0.004555 -0.006127 0.000000 0.000000 0.000000
# 2 -0.004555 0.016774 -0.003794 0.000000 0.000000 0.000000
# 3 -0.006127 -0.003794 0.010723 0.000000 0.000000 0.000000
# 4 0.000000 0.000000 0.000000 0.045813 0.000000 0.000000
# 5 0.000000 0.000000 0.000000 0.000000 0.036239 0.000000
# 6 0.000000 0.000000 0.000000 0.000000 0.000000 0.042863
#
#
# Mechanical properties :
#
#
# Convention : Reuss Voigt Hill
#
# Bulk Modulus (GPa) = 41.02729 50.31265 45.66997
# Shear Modulus (GPa) = 23.22121 24.92116 24.07118
#
# Velocity S-wave (km/s) = 3.70321 3.83636 3.77037
# Velocity P-wave (km/s) = 6.52031 7.02401 6.77684
#
# Compressibility (1/GPa) = 0.02437402
#
# Stress axis : x y z
#
# Youngs Moduli (GPa) = 38.71356 59.61643 93.25849
#
# Poissons Ratio (x) = 0.27157 0.57141
# Poissons Ratio (y) = 0.17635 0.35385
# Poissons Ratio (z) = 0.23720 0.22620
#
# Static dielectric constant tensor:
#      x y z
#    x 3.181910 0.000000 0.000000 
#    y 0.000000 3.003470 0.000000 
#    z 0.000000 0.000000 3.251290 
# 
# 
# High freq. dielectric constant tensor:
#      x y z
#    x 1.660410 0.000000 0.000000 
#    y 0.000000 1.623820 0.000000 
#    z 0.000000 0.000000 1.648850 
# 
# From -- ./inp_files/38125.got.cif
#   From: 2010.03.12/outbox.cif.g09.slc.cpg/sg53_20_cif.got.tgz:38125.got - 2010.04.16 14:36:59.
