data_PCOD8218836
_publ_section_title
;
Structure prediction by ZEFSAII (Michael W. Deem and Ramdas Pophale) SiO2 
 PCOD8218836
Probable space group: P M N A
;
_chemical_formula_sum "Si O2"
_cell_formula_units_Z 48
_cell_length_a 9.094694
_cell_length_b 31.089386
_cell_length_c 9.508820
_cell_angle_alpha 90.000000
_cell_angle_beta 90.000000
_cell_angle_gamma 90.000000
_cell_volume 2688.604138
_symmetry_space_group_name_H-M "P M N A"
_symmetry_group_IT_number 53
_symmetry_cell_setting 'orthorhombic'
loop_
_space_group_symop_operation_xyz
x,y,z
1/2-x,-y,1/2+z
x,-y,-z
1/2-x,y,1/2-z
-x,-y,-z
1/2+x,y,1/2-z
-x,y,z
1/2+x,-y,1/2+z
loop_
_atom_site_type_symbol
_atom_site_label
_atom_site_fract_x
_atom_site_fract_y
_atom_site_fract_z
Si Si1 0.173190 0.539562 0.400578
Si Si2 0.330622 0.964911 0.393957
Si Si3 0.327134 0.384510 0.099480
Si Si4 0.173050 0.801775 0.599551
Si Si5 0.332159 0.291073 0.106764
Si Si6 0.828669 0.867740 0.102544
O O1 0.218094 0.500000 0.500000
O O2 0.250000 0.535623 0.250000
O O3 0.229281 0.582157 0.482195
O O4 0.000000 0.540737 0.372945
O O5 0.250000 0.971948 0.250000
O O6 0.500000 0.974621 0.365925
O O7 0.307436 0.916585 0.451862
O O8 0.263687 0.000000 0.500000
O O9 0.250000 0.392072 0.250000
O O10 0.500000 0.391233 0.125242
O O11 0.289667 0.336725 0.034211
O O12 0.250000 0.803001 0.750000
O O13 0.197206 0.754228 0.525494
O O14 0.250753 0.837212 0.507126
O O15 0.000000 0.812100 0.614867
O O16 0.250000 0.287535 0.250000
O O17 0.500000 0.293616 0.150110
O O18 0.750000 0.860954 0.250000
O O19 0.000000 0.855919 0.117864
#
# Coordination Sequence:
#
# PCOD8218836 Si02
#       6
#     8   8   8   8   8   8
#     4  10  21  35  51  73 100 129 162 201 243 289
#     4   9  19  35  53  74  99 127 161 200 242 291
#     4   9  17  31  51  74  99 127 162 201 242 289
#     4  10  19  32  51  75 102 132 168 208 248 290
#     4   8  15  28  47  70  97 128 161 200 242 285
#     4  10  20  35  53  73 100 133 167 203 247 297
#
# _framework density 17.853131000000001
#
# number of rings (size 3 to 8) (size 9 to 14) (size 15 to 20)
#    0.000    2.667    0.000    1.500    0.000    3.333 
#    0.000    2.500    0.000    2.000    0.000    0.000 
#    0.000    0.000    0.000    0.000    0.000    0.000 
#
# Total GULP energy -594667.843685 kJ/mol
# GULP energy per Si atom -12388.913410 kJ/mol
# Density = 1.781250 g / cm^3
# Si number density = 17.853131 Si / 1000 Ang^3
#
#
#
# Elastic Constant Matrix: (Units=GPa)
#
#
# Indices 1 2 3 4 5 6 
#
# 1 72.6876 62.1978 47.6765 0.0000 0.0000 0.0000
# 2 62.1978 168.6511 85.1227 0.0000 0.0000 0.0000
# 3 47.6765 85.1227 96.1597 0.0000 0.0000 0.0000
# 4 0.0000 0.0000 0.0000 29.9557 0.0000 0.0000
# 5 0.0000 0.0000 0.0000 0.0000 30.0213 0.0000
# 6 0.0000 0.0000 0.0000 0.0000 0.0000 30.8647
#
#
#
# Elastic Compliance Matrix: (Units=1/GPa)
#
#
# Indices 1 2 3 4 5 6 
#
# 1 0.022339 -0.004787 -0.006838 0.000000 0.000000 0.000000
# 2 -0.004787 0.011744 -0.008023 0.000000 0.000000 0.000000
# 3 -0.006838 -0.008023 0.020892 0.000000 0.000000 0.000000
# 4 0.000000 0.000000 0.000000 0.033383 0.000000 0.000000
# 5 0.000000 0.000000 0.000000 0.000000 0.033310 0.000000
# 6 0.000000 0.000000 0.000000 0.000000 0.000000 0.032399
#
#
# Mechanical properties :
#
#
# Convention : Reuss Voigt Hill
#
# Bulk Modulus (GPa) = 63.78017 80.83248 72.30633
# Shear Modulus (GPa) = 25.17768 27.66843 26.42305
#
# Velocity S-wave (km/s) = 3.75943 3.94100 3.85128
# Velocity P-wave (km/s) = 7.39235 8.12916 7.76949
#
# Compressibility (1/GPa) = 0.01567885
#
# Stress axis : x y z
#
# Youngs Moduli (GPa) = 44.76486 85.14889 47.86619
#
# Poissons Ratio (x) = 0.40762 0.32731
# Poissons Ratio (y) = 0.21430 0.38401
# Poissons Ratio (z) = 0.30611 0.68312
#
# Static dielectric constant tensor:
#      x y z
#    x 3.350320 0.000000 0.000000 
#    y 0.000000 4.068390 0.000000 
#    z 0.000000 0.000000 3.154190 
# 
# 
# High freq. dielectric constant tensor:
#      x y z
#    x 1.695410 0.000000 0.000000 
#    y 0.000000 1.717770 0.000000 
#    z 0.000000 0.000000 1.658340 
# 
# From -- ./inp_files/6587.got.cif
#   From: 2010.03.12/outbox.cif.g09.slc.cpg/sg53_4_cif.got.tgz:6587.got - 2010.04.16 14:36:59.
