data_PCOD8218162
_publ_section_title
;
Structure prediction by ZEFSAII (Michael W. Deem and Ramdas Pophale) SiO2 
 PCOD8218162
Probable space group: P M N A
;
_chemical_formula_sum "Si O2"
_cell_formula_units_Z 64
_cell_length_a 19.692429
_cell_length_b 20.406595
_cell_length_c 8.830399
_cell_angle_alpha 90.000000
_cell_angle_beta 90.000000
_cell_angle_gamma 90.000000
_cell_volume 3548.543727
_symmetry_space_group_name_H-M "P M N A"
_symmetry_group_IT_number 53
_symmetry_cell_setting 'orthorhombic'
loop_
_space_group_symop_operation_xyz
x,y,z
1/2-x,-y,1/2+z
x,-y,-z
1/2-x,y,1/2-z
-x,-y,-z
1/2+x,y,1/2-z
-x,y,z
1/2+x,-y,1/2+z
loop_
_atom_site_type_symbol
_atom_site_label
_atom_site_fract_x
_atom_site_fract_y
_atom_site_fract_z
Si Si1 0.672339 0.842168 0.259161
Si Si2 0.926286 0.817540 0.808056
Si Si3 0.800298 0.442446 0.616587
Si Si4 0.116223 0.727630 0.055874
Si Si5 0.238521 0.331580 0.080887
Si Si6 0.854516 0.762317 0.522796
Si Si7 0.920260 0.925658 0.033366
Si Si8 0.576551 0.650004 0.161172
O O1 0.750000 0.866922 0.250000
O O2 0.668519 0.776204 0.358581
O O3 0.624565 0.899424 0.326104
O O4 0.645062 0.823197 0.092584
O O5 0.875174 0.791133 0.684219
O O6 0.000000 0.825398 0.731575
O O7 0.934556 0.767997 0.950041
O O8 0.901769 0.886511 0.879150
O O9 0.817201 0.500000 0.500000
O O10 0.750000 0.467948 0.750000
O O11 0.758627 0.385988 0.537460
O O12 0.872505 0.412187 0.670672
O O13 0.074621 0.685340 0.176249
O O14 0.159287 0.681015 0.945314
O O15 0.250000 0.357765 0.250000
O O16 0.279096 0.264796 0.047863
O O17 0.902285 0.702200 0.468540
O O18 0.000000 0.917427 0.074291
O O19 0.900441 0.000000 0.000000
O O20 0.500000 0.625358 0.125433
#
# Coordination Sequence:
#
# PCOD8218162 Si02
#       8
#     8   8   8   8   8   8   8   8
#     4  10  19  32  55  81 108 139 179 227 277 326
#     4  10  19  32  52  80 110 139 176 226 274 322
#     4  11  23  39  59  82 109 147 192 229 265 322
#     4  10  18  32  55  80 110 142 177 214 271 337
#     4  11  19  33  56  84 109 143 178 221 270 328
#     4  10  20  30  53  84 116 137 171 227 287 333
#     4   9  20  39  57  72 102 152 196 224 265 333
#     4  10  21  36  57  82 113 149 181 224 277 329
#
# _framework density 18.035568000000001
#
# number of rings (size 3 to 8) (size 9 to 14) (size 15 to 20)
#    0.000    1.875    3.750    1.125    0.000    3.750 
#    0.000    1.875    0.000    2.625    0.000    0.000 
#    0.000    0.000    0.000    0.000    0.000    0.000 
#
# Total GULP energy -793429.846305 kJ/mol
# GULP energy per Si atom -12397.341349 kJ/mol
# Density = 1.799452 g / cm^3
# Si number density = 18.035568 Si / 1000 Ang^3
#
#
#
# Elastic Constant Matrix: (Units=GPa)
#
#
# Indices 1 2 3 4 5 6 
#
# 1 93.1639 33.2388 23.8537 0.0000 0.0000 0.0000
# 2 33.2388 87.9644 33.0346 0.0000 0.0000 0.0000
# 3 23.8537 33.0346 92.7871 0.0000 0.0000 0.0000
# 4 0.0000 0.0000 0.0000 27.1313 0.0000 0.0000
# 5 0.0000 0.0000 0.0000 0.0000 22.7042 0.0000
# 6 0.0000 0.0000 0.0000 0.0000 0.0000 -7.4087
#
#
#
# Elastic Compliance Matrix: (Units=1/GPa)
#
#
# Indices 1 2 3 4 5 6 
#
# 1 0.012659 -0.004111 -0.001791 0.000000 0.000000 0.000000
# 2 -0.004111 0.014458 -0.004091 0.000000 0.000000 0.000000
# 3 -0.001791 -0.004091 0.012694 0.000000 0.000000 0.000000
# 4 0.000000 0.000000 0.000000 0.036858 0.000000 0.000000
# 5 0.000000 0.000000 0.000000 0.000000 0.044045 0.000000
# 6 0.000000 0.000000 0.000000 0.000000 0.000000 -0.134977
#
#
# Mechanical properties :
#
#
# Convention : Reuss Voigt Hill
#
# Bulk Modulus (GPa) = 50.43769 50.46327 50.45048
# Shear Modulus (GPa) = 405.53393 20.73792 213.13593
#
# Velocity S-wave (km/s) = 15.01134 3.39460 10.88264
# Velocity P-wave (km/s) = 18.12403 6.58825 13.63608
#
# Compressibility (1/GPa) = 0.01982644
#
# Stress axis : x y z
#
# Youngs Moduli (GPa) = 78.99545 69.16697 78.77704
#
# Poissons Ratio (x) = 0.28434 0.14107
# Poissons Ratio (y) = 0.32474 0.32224
# Poissons Ratio (z) = 0.14146 0.28293
#
# Static dielectric constant tensor:
#      x y z
#    x 3.202840 0.000000 0.000000 
#    y 0.000000 3.197340 0.000000 
#    z 0.000000 0.000000 3.403620 
# 
# 
# High freq. dielectric constant tensor:
#      x y z
#    x 1.696930 0.000000 0.000000 
#    y 0.000000 1.674530 0.000000 
#    z 0.000000 0.000000 1.701770 
# 
# From -- ./inp_files/11245.got.cif
#   From: 2010.03.12/outbox.cif.g09.slc.cpg/sg53_6_cif.got.tgz:11245.got - 2010.04.16 14:36:59.
