data_PCOD8218666
_publ_section_title
;
Structure prediction by ZEFSAII (Michael W. Deem and Ramdas Pophale) SiO2 
 PCOD8218666
Probable space group: P M N A
;
_chemical_formula_sum "Si O2"
_cell_formula_units_Z 64
_cell_length_a 9.135017
_cell_length_b 12.418621
_cell_length_c 29.610523
_cell_angle_alpha 90.000000
_cell_angle_beta 90.000000
_cell_angle_gamma 90.000000
_cell_volume 3359.145467
_symmetry_space_group_name_H-M "P M N A"
_symmetry_group_IT_number 53
_symmetry_cell_setting 'orthorhombic'
loop_
_space_group_symop_operation_xyz
x,y,z
1/2-x,-y,1/2+z
x,-y,-z
1/2-x,y,1/2-z
-x,-y,-z
1/2+x,y,1/2-z
-x,y,z
1/2+x,-y,1/2+z
loop_
_atom_site_type_symbol
_atom_site_label
_atom_site_fract_x
_atom_site_fract_y
_atom_site_fract_z
Si Si1 0.171817 0.056664 0.296966
Si Si2 0.825755 0.901514 0.030439
Si Si3 0.669174 0.696191 0.795163
Si Si4 0.830172 0.499253 0.935364
Si Si5 0.172486 0.098642 0.864668
Si Si6 0.671080 0.282715 0.704819
Si Si7 0.669356 0.492963 0.334201
Si Si8 0.826505 0.676581 0.997623
O O1 0.250000 0.024527 0.250000
O O2 0.201065 0.181377 0.308825
O O3 0.000000 0.031407 0.291845
O O4 0.240365 0.994444 0.338867
O O5 0.773946 0.901843 0.083095
O O6 0.760361 0.795314 0.005678
O O7 0.000000 0.904184 0.030415
O O8 0.764262 0.000000 0.000000
O O9 0.750000 0.662925 0.750000
O O10 0.500000 0.674153 0.787958
O O11 0.732777 0.613478 0.831239
O O12 0.800002 0.468370 0.884506
O O13 0.760232 0.403009 0.964304
O O14 0.000000 0.499017 0.947364
O O15 0.776666 0.620188 0.950207
O O16 0.210778 0.210869 0.839141
O O17 0.000000 0.074452 0.861694
O O18 0.750000 0.239041 0.750000
O O19 0.500000 0.275990 0.714219
O O20 0.719241 0.406765 0.696724
O O21 0.500000 0.463230 0.325959
O O22 0.000000 0.690716 0.001584
#
# Coordination Sequence:
#
# PCOD8218666 Si02
#       8
#     8   8   8   8   8   8   8   8
#     4  10  21  37  56  77 102 133 172 217 263 313
#     4   9  17  28  44  69 101 134 167 209 259 307
#     4  10  21  36  52  71  97 129 163 202 249 298
#     4   8  14  24  42  67  94 127 163 202 244 287
#     4  10  20  34  53  77 106 139 175 216 262 311
#     4  10  21  34  49  73 105 139 172 210 256 306
#     4  10  19  31  49  75 105 134 167 206 250 300
#     4   8  13  24  41  64  96 129 163 201 243 290
#
# _framework density 19.052464000000001
#
# number of rings (size 3 to 8) (size 9 to 14) (size 15 to 20)
#    0.000    2.625    0.000    3.000    0.000    8.500 
#    0.000    2.500    0.000    0.375    0.000    2.625 
#    0.000    0.000    0.000    0.000    0.000    0.000 
#
# Total GULP energy -793031.510604 kJ/mol
# GULP energy per Si atom -12391.117353 kJ/mol
# Density = 1.900910 g / cm^3
# Si number density = 19.052464 Si / 1000 Ang^3
#
#
#
# Elastic Constant Matrix: (Units=GPa)
#
#
# Indices 1 2 3 4 5 6 
#
# 1 41.3447 32.0241 22.5365 0.0000 0.0000 0.0000
# 2 32.0241 132.5154 55.2417 0.0000 0.0000 0.0000
# 3 22.5365 55.2417 96.8370 0.0000 0.0000 0.0000
# 4 0.0000 0.0000 0.0000 28.0952 0.0000 0.0000
# 5 0.0000 0.0000 0.0000 0.0000 18.0577 0.0000
# 6 0.0000 0.0000 0.0000 0.0000 0.0000 21.1756
#
#
#
# Elastic Compliance Matrix: (Units=1/GPa)
#
#
# Indices 1 2 3 4 5 6 
#
# 1 0.030805 -0.005846 -0.003834 0.000000 0.000000 0.000000
# 2 -0.005846 0.011010 -0.004920 0.000000 0.000000 0.000000
# 3 -0.003834 -0.004920 0.014026 0.000000 0.000000 0.000000
# 4 0.000000 0.000000 0.000000 0.035593 0.000000 0.000000
# 5 0.000000 0.000000 0.000000 0.000000 0.055378 0.000000
# 6 0.000000 0.000000 0.000000 0.000000 0.000000 0.047224
#
#
# Mechanical properties :
#
#
# Convention : Reuss Voigt Hill
#
# Bulk Modulus (GPa) = 37.53778 54.47797 46.00787
# Shear Modulus (GPa) = 21.54077 24.19201 22.86639
#
# Velocity S-wave (km/s) = 3.36609 3.56723 3.46812
# Velocity P-wave (km/s) = 5.90360 6.75445 6.34331
#
# Compressibility (1/GPa) = 0.02663983
#
# Stress axis : x y z
#
# Youngs Moduli (GPa) = 32.46218 90.82462 71.29708
#
# Poissons Ratio (x) = 0.53097 0.27337
# Poissons Ratio (y) = 0.18978 0.35081
# Poissons Ratio (z) = 0.12447 0.44689
#
# Static dielectric constant tensor:
#      x y z
#    x 3.139570 0.000000 0.000000 
#    y 0.000000 3.829030 0.000000 
#    z 0.000000 0.000000 3.308190 
# 
# 
# High freq. dielectric constant tensor:
#      x y z
#    x 1.688810 0.000000 0.000000 
#    y 0.000000 1.755200 0.000000 
#    z 0.000000 0.000000 1.741970 
# 
# From -- ./inp_files/38282.got.cif
#   From: 2010.03.12/outbox.cif.g09.slc.cpg/sg53_20_cif.got.tgz:38282.got - 2010.04.16 14:36:59.
