data_PCOD8218482
_publ_section_title
;
Structure prediction by ZEFSAII (Michael W. Deem and Ramdas Pophale) SiO2 
 PCOD8218482
Probable space group: P M N A
;
_chemical_formula_sum "Si O2"
_cell_formula_units_Z 56
_cell_length_a 8.763570
_cell_length_b 20.132679
_cell_length_c 18.211223
_cell_angle_alpha 90.000000
_cell_angle_beta 90.000000
_cell_angle_gamma 90.000000
_cell_volume 3213.081499
_symmetry_space_group_name_H-M "P M N A"
_symmetry_group_IT_number 53
_symmetry_cell_setting 'orthorhombic'
loop_
_space_group_symop_operation_xyz
x,y,z
1/2-x,-y,1/2+z
x,-y,-z
1/2-x,y,1/2-z
-x,-y,-z
1/2+x,y,1/2-z
-x,y,z
1/2+x,-y,1/2+z
loop_
_atom_site_type_symbol
_atom_site_label
_atom_site_fract_x
_atom_site_fract_y
_atom_site_fract_z
Si Si1 0.667702 0.570873 0.462069
Si Si2 0.680675 0.491682 0.327518
Si Si3 0.178330 0.975719 0.328565
Si Si4 0.819650 0.249084 0.172503
Si Si5 0.677879 0.879605 0.891102
Si Si6 0.678824 0.632625 0.908620
Si Si7 0.327871 0.926440 0.468470
O O1 0.655144 0.500000 0.500000
O O2 0.500000 0.604810 0.462969
O O3 0.722208 0.555008 0.379154
O O4 0.785847 0.617364 0.505652
O O5 0.750000 0.510845 0.250000
O O6 0.500000 0.480342 0.323628
O O7 0.754745 0.423840 0.355942
O O8 0.250000 0.959911 0.250000
O O9 0.250974 0.925664 0.388244
O O10 0.000000 0.961659 0.325520
O O11 0.213765 0.051166 0.351199
O O12 0.750000 0.271306 0.250000
O O13 0.772031 0.174317 0.154017
O O14 0.756050 0.297517 0.109944
O O15 0.000000 0.254287 0.177017
O O16 0.500000 0.861899 0.889108
O O17 0.732493 0.880298 0.975798
O O18 0.500000 0.637672 0.896488
O O19 0.500000 0.899033 0.462321
O O20 0.326268 0.000000 0.500000
#
# Coordination Sequence:
#
# PCOD8218482 Si02
#       7
#     8   8   8   8   8   8   8
#     4   8  16  31  48  67  93 124 156 193 237 282
#     4  10  19  31  48  71  99 127 157 195 239 284
#     4  10  19  30  47  71  99 128 158 198 243 286
#     4  12  24  37  51  69  96 129 165 200 236 278
#     4  10  20  34  50  70  97 128 163 199 238 283
#     4  11  21  33  49  69  95 127 163 199 236 281
#     4   9  17  30  48  69  94 125 160 196 237 285
#
# _framework density 17.428751999999999
#
# number of rings (size 3 to 8) (size 9 to 14) (size 15 to 20)
#    0.000    2.000    0.000    6.000    0.000    7.714 
#    0.000    0.000    0.000    0.000    0.000    1.000 
#    0.000    2.286    0.000    0.000    0.000    0.000 
#
# Total GULP energy -694421.391404 kJ/mol
# GULP energy per Si atom -12400.381989 kJ/mol
# Density = 1.738908 g / cm^3
# Si number density = 17.428752 Si / 1000 Ang^3
#
#
#
# Elastic Constant Matrix: (Units=GPa)
#
#
# Indices 1 2 3 4 5 6 
#
# 1 121.6489 22.2952 40.9316 0.0000 0.0000 0.0000
# 2 22.2952 30.5156 14.0489 0.0000 0.0000 0.0000
# 3 40.9316 14.0489 111.6629 0.0000 0.0000 0.0000
# 4 0.0000 0.0000 0.0000 21.6433 0.0000 0.0000
# 5 0.0000 0.0000 0.0000 0.0000 33.9032 0.0000
# 6 0.0000 0.0000 0.0000 0.0000 0.0000 20.9957
#
#
#
# Elastic Compliance Matrix: (Units=1/GPa)
#
#
# Indices 1 2 3 4 5 6 
#
# 1 0.010371 -0.006186 -0.003024 0.000000 0.000000 0.000000
# 2 -0.006186 0.038474 -0.002573 0.000000 0.000000 0.000000
# 3 -0.003024 -0.002573 0.010388 0.000000 0.000000 0.000000
# 4 0.000000 0.000000 0.000000 0.046204 0.000000 0.000000
# 5 0.000000 0.000000 0.000000 0.000000 0.029496 0.000000
# 6 0.000000 0.000000 0.000000 0.000000 0.000000 0.047629
#
#
# Mechanical properties :
#
#
# Convention : Reuss Voigt Hill
#
# Bulk Modulus (GPa) = 28.03597 46.48654 37.26126
# Shear Modulus (GPa) = 22.93414 27.74519 25.33966
#
# Velocity S-wave (km/s) = 3.63144 3.99422 3.81714
# Velocity P-wave (km/s) = 5.80552 6.92834 6.39164
#
# Compressibility (1/GPa) = 0.03566846
#
# Stress axis : x y z
#
# Youngs Moduli (GPa) = 96.41929 25.99151 96.26858
#
# Poissons Ratio (x) = 0.16077 0.29107
# Poissons Ratio (y) = 0.59640 0.24772
# Poissons Ratio (z) = 0.29153 0.06688
#
# Static dielectric constant tensor:
#      x y z
#    x 3.372710 0.000000 0.000000 
#    y 0.000000 2.918210 0.000000 
#    z 0.000000 0.000000 3.610500 
# 
# 
# High freq. dielectric constant tensor:
#      x y z
#    x 1.690670 0.000000 0.000000 
#    y 0.000000 1.625700 0.000000 
#    z 0.000000 0.000000 1.679390 
# 
# From -- ./inp_files/26656.got.cif
#   From: 2010.03.12/outbox.cif.g09.slc.cpg/sg53_14_cif.got.tgz:26656.got - 2010.04.16 14:36:59.
