data_PCOD8218815
_publ_section_title
;
Structure prediction by ZEFSAII (Michael W. Deem and Ramdas Pophale) SiO2 
 PCOD8218815
Probable space group: P M N A
;
_chemical_formula_sum "Si O2"
_cell_formula_units_Z 64
_cell_length_a 9.121727
_cell_length_b 20.692928
_cell_length_c 19.730177
_cell_angle_alpha 90.000000
_cell_angle_beta 90.000000
_cell_angle_gamma 90.000000
_cell_volume 3724.174296
_symmetry_space_group_name_H-M "P M N A"
_symmetry_group_IT_number 53
_symmetry_cell_setting 'orthorhombic'
loop_
_space_group_symop_operation_xyz
x,y,z
1/2-x,-y,1/2+z
x,-y,-z
1/2-x,y,1/2-z
-x,-y,-z
1/2+x,y,1/2-z
-x,y,z
1/2+x,-y,1/2+z
loop_
_atom_site_type_symbol
_atom_site_label
_atom_site_fract_x
_atom_site_fract_y
_atom_site_fract_z
Si Si1 0.329437 0.370508 0.315993
Si Si2 0.172232 0.680578 0.956182
Si Si3 0.828523 0.975755 0.318547
Si Si4 0.670679 0.175049 0.449236
Si Si5 0.325059 0.562016 0.459388
Si Si6 0.328963 0.126760 0.181883
Si Si7 0.829796 0.479330 0.815806
Si Si8 0.171654 0.940529 0.047203
O O1 0.250000 0.342278 0.250000
O O2 0.500000 0.358120 0.305754
O O3 0.265757 0.332592 0.380900
O O4 0.293022 0.445608 0.326674
O O5 0.208774 0.753747 0.978165
O O6 0.000000 0.668025 0.953427
O O7 0.238860 0.628622 0.009046
O O8 0.750000 0.951045 0.250000
O O9 0.760906 0.939028 0.382948
O O10 0.000000 0.959973 0.313179
O O11 0.797676 0.051258 0.328879
O O12 0.500000 0.168572 0.429413
O O13 0.764292 0.164004 0.382092
O O14 0.712047 0.125080 0.508097
O O15 0.263234 0.500000 0.500000
O O16 0.500000 0.560029 0.461938
O O17 0.271541 0.558711 0.381708
O O18 0.250000 0.151504 0.250000
O O19 0.500000 0.141842 0.188418
O O20 0.750000 0.450814 0.750000
O O21 0.000000 0.468045 0.804470
O O22 0.000000 0.945944 0.064360
O O23 0.221828 0.000000 0.000000
#
# Coordination Sequence:
#
# PCOD8218815 Si02
#       8
#     8   8   8   8   8   8   8   8
#     4   9  16  27  43  65  93 123 154 189 228 276
#     4   9  17  29  46  69  95 124 162 202 237 278
#     4  10  20  33  53  78 102 127 162 207 252 297
#     4  10  20  33  49  71 100 133 166 205 248 291
#     4   9  14  25  47  72  93 119 160 202 236 275
#     4  10  20  33  50  72 100 133 167 202 241 292
#     4   9  16  26  45  70  94 119 149 191 236 278
#     4  10  19  32  51  73 100 133 168 206 246 289
#
# _framework density 17.185016000000001
#
# number of rings (size 3 to 8) (size 9 to 14) (size 15 to 20)
#    0.000    2.500    2.500    0.750    0.000    2.250 
#    0.000    1.875    0.000    2.625    0.000    1.750 
#    0.000    0.000    0.000    0.000    0.000    0.000 
#
# Total GULP energy -793539.392578 kJ/mol
# GULP energy per Si atom -12399.053009 kJ/mol
# Density = 1.714590 g / cm^3
# Si number density = 17.185016 Si / 1000 Ang^3
#
#
#
# Elastic Constant Matrix: (Units=GPa)
#
#
# Indices 1 2 3 4 5 6 
#
# 1 48.2195 31.5351 45.4263 0.0000 0.0000 0.0000
# 2 31.5351 99.7867 72.5126 0.0000 0.0000 0.0000
# 3 45.4263 72.5126 152.8894 0.0000 0.0000 0.0000
# 4 0.0000 0.0000 0.0000 24.2716 0.0000 0.0000
# 5 0.0000 0.0000 0.0000 0.0000 31.7758 0.0000
# 6 0.0000 0.0000 0.0000 0.0000 0.0000 10.7592
#
#
#
# Elastic Compliance Matrix: (Units=1/GPa)
#
#
# Indices 1 2 3 4 5 6 
#
# 1 0.030124 -0.004602 -0.006768 0.000000 0.000000 0.000000
# 2 -0.004602 0.015995 -0.006219 0.000000 0.000000 0.000000
# 3 -0.006768 -0.006219 0.011501 0.000000 0.000000 0.000000
# 4 0.000000 0.000000 0.000000 0.041200 0.000000 0.000000
# 5 0.000000 0.000000 0.000000 0.000000 0.031471 0.000000
# 6 0.000000 0.000000 0.000000 0.000000 0.000000 0.092944
#
#
# Mechanical properties :
#
#
# Convention : Reuss Voigt Hill
#
# Bulk Modulus (GPa) = 44.55786 66.64929 55.60358
# Shear Modulus (GPa) = 18.80467 23.45609 21.13038
#
# Velocity S-wave (km/s) = 3.31153 3.69848 3.51034
# Velocity P-wave (km/s) = 6.37230 7.55685 6.98971
#
# Compressibility (1/GPa) = 0.02244273
#
# Stress axis : x y z
#
# Youngs Moduli (GPa) = 33.19634 62.52100 86.94981
#
# Poissons Ratio (x) = 0.28772 0.58845
# Poissons Ratio (y) = 0.15277 0.54071
# Poissons Ratio (z) = 0.22466 0.38880
#
# Static dielectric constant tensor:
#      x y z
#    x 2.956190 0.000000 0.000000 
#    y 0.000000 3.114210 0.000000 
#    z 0.000000 0.000000 3.378480 
# 
# 
# High freq. dielectric constant tensor:
#      x y z
#    x 1.636590 0.000000 0.000000 
#    y 0.000000 1.640870 0.000000 
#    z 0.000000 0.000000 1.670410 
# 
# From -- ./inp_files/31155.got.cif
#   From: 2010.03.12/outbox.cif.g09.slc.cpg/sg53_16_cif.got.tgz:31155.got - 2010.04.16 14:36:59.
