data_PCOD8218168
_publ_section_title
;
Structure prediction by ZEFSAII (Michael W. Deem and Ramdas Pophale) SiO2 
 PCOD8218168
Probable space group: P M N A
;
_chemical_formula_sum "Si O2"
_cell_formula_units_Z 64
_cell_length_a 8.875787
_cell_length_b 19.385019
_cell_length_c 20.819063
_cell_angle_alpha 90.000000
_cell_angle_beta 90.000000
_cell_angle_gamma 90.000000
_cell_volume 3582.071761
_symmetry_space_group_name_H-M "P M N A"
_symmetry_group_IT_number 53
_symmetry_cell_setting 'orthorhombic'
loop_
_space_group_symop_operation_xyz
x,y,z
1/2-x,-y,1/2+z
x,-y,-z
1/2-x,y,1/2-z
-x,-y,-z
1/2+x,y,1/2-z
-x,y,z
1/2+x,-y,1/2+z
loop_
_atom_site_type_symbol
_atom_site_label
_atom_site_fract_x
_atom_site_fract_y
_atom_site_fract_z
Si Si1 0.824489 0.537210 0.437713
Si Si2 0.322773 0.178233 0.520402
Si Si3 0.324078 0.317846 0.988510
Si Si4 0.823291 0.954961 0.684464
Si Si5 0.821082 0.543974 0.684502
Si Si6 0.327381 0.172242 0.372480
Si Si7 0.677713 0.043079 0.937868
Si Si8 0.324473 0.328678 0.375084
O O1 0.750496 0.500000 0.500000
O O2 0.795972 0.619311 0.439114
O O3 0.757664 0.505169 0.372338
O O4 0.000000 0.519311 0.438133
O O5 0.500000 0.186972 0.529358
O O6 0.243680 0.248902 0.543332
O O7 0.278859 0.163881 0.446621
O O8 0.261689 0.116191 0.563782
O O9 0.500000 0.307609 0.003287
O O10 0.240649 0.337284 0.053884
O O11 0.750000 0.982799 0.750000
O O12 0.775169 0.876337 0.671263
O O13 0.000000 0.957411 0.692860
O O14 0.769856 0.002856 0.625692
O O15 0.750000 0.515250 0.750000
O O16 0.764501 0.621889 0.673100
O O17 0.000000 0.543532 0.690032
O O18 0.500000 0.149738 0.363384
O O19 0.301091 0.250663 0.350222
O O20 0.500000 0.055956 0.939560
O O21 0.730394 0.000000 0.000000
O O22 0.500000 0.348064 0.376667
#
# Coordination Sequence:
#
# PCOD8218168 Si02
#       8
#     8   8   8   8   8   8   8   8
#     4   9  17  33  56  81 105 138 182 222 267 320
#     4  10  20  33  53  83 114 141 174 223 274 322
#     4  10  18  32  56  81 108 142 179 224 271 321
#     4  11  23  37  55  78 108 142 179 223 266 319
#     4  11  22  37  55  77 108 144 183 224 270 325
#     4   9  19  34  51  74 108 144 179 215 258 315
#     4  10  20  36  57  82 107 138 183 226 266 319
#     4  10  20  34  51  78 111 144 182 222 266 320
#
# _framework density 17.866755999999999
#
# number of rings (size 3 to 8) (size 9 to 14) (size 15 to 20)
#    0.000    2.000    2.500    2.625    0.000    4.250 
#    0.000    3.125    0.000    0.750    0.000    1.750 
#    0.000    0.000    0.000    0.000    0.000    0.000 
#
# Total GULP energy -793732.942111 kJ/mol
# GULP energy per Si atom -12402.077220 kJ/mol
# Density = 1.782609 g / cm^3
# Si number density = 17.866756 Si / 1000 Ang^3
#
#
#
# Elastic Constant Matrix: (Units=GPa)
#
#
# Indices 1 2 3 4 5 6 
#
# 1 67.1261 39.2890 40.1521 0.0000 0.0000 0.0000
# 2 39.2890 109.7714 62.8500 0.0000 0.0000 0.0000
# 3 40.1521 62.8500 121.3328 0.0000 0.0000 0.0000
# 4 0.0000 0.0000 0.0000 22.6966 0.0000 0.0000
# 5 0.0000 0.0000 0.0000 0.0000 26.9655 0.0000
# 6 0.0000 0.0000 0.0000 0.0000 0.0000 22.8830
#
#
#
# Elastic Compliance Matrix: (Units=1/GPa)
#
#
# Indices 1 2 3 4 5 6 
#
# 1 0.020238 -0.004846 -0.004187 0.000000 0.000000 0.000000
# 2 -0.004846 0.014111 -0.005706 0.000000 0.000000 0.000000
# 3 -0.004187 -0.005706 0.012583 0.000000 0.000000 0.000000
# 4 0.000000 0.000000 0.000000 0.044059 0.000000 0.000000
# 5 0.000000 0.000000 0.000000 0.000000 0.037084 0.000000
# 6 0.000000 0.000000 0.000000 0.000000 0.000000 0.043701
#
#
# Mechanical properties :
#
#
# Convention : Reuss Voigt Hill
#
# Bulk Modulus (GPa) = 57.29246 64.75696 61.02471
# Shear Modulus (GPa) = 24.14599 24.90497 24.52548
#
# Velocity S-wave (km/s) = 3.68019 3.73758 3.70900
# Velocity P-wave (km/s) = 7.08481 7.41277 7.25064
#
# Compressibility (1/GPa) = 0.01745430
#
# Stress axis : x y z
#
# Youngs Moduli (GPa) = 49.41098 70.86500 79.47235
#
# Poissons Ratio (x) = 0.34344 0.33275
# Poissons Ratio (y) = 0.23946 0.45346
# Poissons Ratio (z) = 0.20688 0.40434
#
# Static dielectric constant tensor:
#      x y z
#    x 3.243810 0.000000 0.000000 
#    y 0.000000 3.388790 0.000000 
#    z 0.000000 0.000000 3.235250 
# 
# 
# High freq. dielectric constant tensor:
#      x y z
#    x 1.690840 0.000000 0.000000 
#    y 0.000000 1.692790 0.000000 
#    z 0.000000 0.000000 1.667790 
# 
# From -- ./inp_files/31201.got.cif
#   From: 2010.03.12/outbox.cif.g09.slc.cpg/sg53_16_cif.got.tgz:31201.got - 2010.04.16 14:36:59.
