data_PCOD8218584
_publ_section_title
;
Structure prediction by ZEFSAII (Michael W. Deem and Ramdas Pophale) SiO2 
 PCOD8218584
Probable space group: P M N A
;
_chemical_formula_sum "Si O2"
_cell_formula_units_Z 56
_cell_length_a 9.066591
_cell_length_b 20.663284
_cell_length_c 16.343402
_cell_angle_alpha 90.000000
_cell_angle_beta 90.000000
_cell_angle_gamma 90.000000
_cell_volume 3061.863551
_symmetry_space_group_name_H-M "P M N A"
_symmetry_group_IT_number 53
_symmetry_cell_setting 'orthorhombic'
loop_
_space_group_symop_operation_xyz
x,y,z
1/2-x,-y,1/2+z
x,-y,-z
1/2-x,y,1/2-z
-x,-y,-z
1/2+x,y,1/2-z
-x,y,z
1/2+x,-y,1/2+z
loop_
_atom_site_type_symbol
_atom_site_label
_atom_site_fract_x
_atom_site_fract_y
_atom_site_fract_z
Si Si1 0.170336 0.856734 0.501532
Si Si2 0.167392 0.665539 0.171608
Si Si3 0.328659 0.580393 0.941059
Si Si4 0.665792 0.964492 0.585991
Si Si5 0.169306 0.289912 0.512696
Si Si6 0.174157 0.077201 0.667334
Si Si7 0.169447 0.466951 0.897328
O O1 0.262447 0.894410 0.570567
O O2 0.203184 0.781676 0.519424
O O3 0.215341 0.875303 0.408226
O O4 0.000000 0.874797 0.514181
O O5 0.250000 0.694091 0.250000
O O6 0.229271 0.696786 0.089966
O O7 0.182219 0.586946 0.173155
O O8 0.000000 0.687726 0.178339
O O9 0.500000 0.564445 0.929435
O O10 0.235928 0.538373 0.873314
O O11 0.299684 0.658190 0.939167
O O12 0.271805 0.557943 0.029393
O O13 0.500000 0.956366 0.620427
O O14 0.665074 0.000000 0.500000
O O15 0.762265 0.005405 0.650098
O O16 0.000000 0.296378 0.541751
O O17 0.250000 0.104622 0.750000
O O18 0.000000 0.072762 0.680938
O O19 0.000000 0.474512 0.925071
#
# Coordination Sequence:
#
# PCOD8218584 Si02
#       7
#     8   8   8   8   8   8   8
#     4   9  18  32  48  67  94 127 157 187 228 275
#     4  10  20  31  43  60  85 118 152 185 222 265
#     4   9  15  24  41  62  82 106 137 175 215 252
#     4   9  17  30  48  69  92 118 152 193 232 272
#     4   9  18  31  45  64  91 120 150 181 216 263
#     4  10  19  31  48  69  94 123 155 191 230 272
#     4   9  16  26  40  58  80 106 138 178 220 257
#
# _framework density 18.289515999999999
#
# number of rings (size 3 to 8) (size 9 to 14) (size 15 to 20)
#    0.000    2.714    0.000    3.000    0.000    5.714 
#    0.000    1.429    0.000    0.000    0.000    1.000 
#    0.000    2.286    0.000    0.000    0.000    0.000 
#
# Total GULP energy -693877.118157 kJ/mol
# GULP energy per Si atom -12390.662824 kJ/mol
# Density = 1.824789 g / cm^3
# Si number density = 18.289516 Si / 1000 Ang^3
#
#
#
# Elastic Constant Matrix: (Units=GPa)
#
#
# Indices 1 2 3 4 5 6 
#
# 1 81.8763 27.5554 3.9108 0.0000 0.0000 0.0000
# 2 27.5554 98.5009 -2.3565 0.0000 0.0000 0.0000
# 3 3.9108 -2.3565 7.6204 0.0000 0.0000 0.0000
# 4 0.0000 0.0000 0.0000 13.3032 0.0000 0.0000
# 5 0.0000 0.0000 0.0000 0.0000 22.6397 0.0000
# 6 0.0000 0.0000 0.0000 0.0000 0.0000 25.3093
#
#
#
# Elastic Compliance Matrix: (Units=1/GPa)
#
#
# Indices 1 2 3 4 5 6 
#
# 1 0.014004 -0.004120 -0.008461 0.000000 0.000000 0.000000
# 2 -0.004120 0.011440 0.005652 0.000000 0.000000 0.000000
# 3 -0.008461 0.005652 0.137317 0.000000 0.000000 0.000000
# 4 0.000000 0.000000 0.000000 0.075170 0.000000 0.000000
# 5 0.000000 0.000000 0.000000 0.000000 0.044170 0.000000
# 6 0.000000 0.000000 0.000000 0.000000 0.000000 0.039511
#
#
# Mechanical properties :
#
#
# Convention : Reuss Voigt Hill
#
# Bulk Modulus (GPa) = 6.71579 27.35745 17.03662
# Shear Modulus (GPa) = 12.98346 22.84295 17.91320
#
# Velocity S-wave (km/s) = 2.66726 3.53790 3.13297
# Velocity P-wave (km/s) = 3.62844 5.62845 4.73524
#
# Compressibility (1/GPa) = 0.14890286
#
# Stress axis : x y z
#
# Youngs Moduli (GPa) = 71.40655 87.41262 7.28242
#
# Poissons Ratio (x) = 0.36015 0.06162
# Poissons Ratio (y) = 0.29420 -0.04116
# Poissons Ratio (z) = 0.60418 -0.49406
#
# Static dielectric constant tensor:
#      x y z
#    x 3.517560 0.000000 0.000000 
#    y 0.000000 3.804490 0.000000 
#    z 0.000000 0.000000 2.974450 
# 
# 
# High freq. dielectric constant tensor:
#      x y z
#    x 1.722790 0.000000 0.000000 
#    y 0.000000 1.708680 0.000000 
#    z 0.000000 0.000000 1.650910 
# 
# From -- ./inp_files/26706.got.cif
#   From: 2010.03.12/outbox.cif.g09.slc.cpg/sg53_14_cif.got.tgz:26706.got - 2010.04.16 14:36:59.
