data_PCOD8218345
_publ_section_title
;
Structure prediction by ZEFSAII (Michael W. Deem and Ramdas Pophale) SiO2 
 PCOD8218345
Probable space group: P M N A
;
_chemical_formula_sum "Si O2"
_cell_formula_units_Z 64
_cell_length_a 14.485375
_cell_length_b 9.604104
_cell_length_c 27.948611
_cell_angle_alpha 90.000000
_cell_angle_beta 90.000000
_cell_angle_gamma 90.000000
_cell_volume 3888.184155
_symmetry_space_group_name_H-M "P M N A"
_symmetry_group_IT_number 53
_symmetry_cell_setting 'orthorhombic'
loop_
_space_group_symop_operation_xyz
x,y,z
1/2-x,-y,1/2+z
x,-y,-z
1/2-x,y,1/2-z
-x,-y,-z
1/2+x,y,1/2-z
-x,y,z
1/2+x,-y,1/2+z
loop_
_atom_site_type_symbol
_atom_site_label
_atom_site_fract_x
_atom_site_fract_y
_atom_site_fract_z
Si Si1 0.203758 0.597305 0.142120
Si Si2 0.335119 0.887867 0.214333
Si Si3 0.894065 0.909195 0.045085
Si Si4 0.391721 0.581616 0.722646
Si Si5 0.393804 0.412355 0.545769
Si Si6 0.692486 0.913176 0.357491
Si Si7 0.396424 0.399785 0.813567
Si Si8 0.603279 0.110959 0.281915
O O1 0.162131 0.499904 0.182091
O O2 0.172578 0.544921 0.089774
O O3 0.161825 0.752221 0.150302
O O4 0.316259 0.596007 0.145902
O O5 0.250000 0.855605 0.250000
O O6 0.298326 0.924988 0.160729
O O7 0.398442 0.751436 0.212286
O O8 0.388430 0.023306 0.232939
O O9 0.881973 0.748439 0.031662
O O10 0.823729 0.952864 0.087366
O O11 0.000000 0.940585 0.060443
O O12 0.864181 0.000000 0.000000
O O13 0.500000 0.573846 0.711029
O O14 0.371786 0.515951 0.774403
O O15 0.348434 0.738229 0.722971
O O16 0.361669 0.500000 0.500000
O O17 0.500000 0.446107 0.559562
O O18 0.634074 0.019667 0.326406
O O19 0.500000 0.424926 0.835015
O O20 0.500000 0.151667 0.291652
#
# Coordination Sequence:
#
# PCOD8218345 Si02
#       8
#     8   8   8   8   8   8   8   8
#     4  10  19  32  49  67  91 121 156 191 227 269
#     4   9  17  29  45  64  87 119 155 189 225 263
#     4   9  17  29  45  64  88 115 141 175 218 264
#     4  10  20  30  43  67  96 127 157 187 227 271
#     4   9  18  32  49  69  92 116 144 181 225 274
#     4   9  18  30  44  64  87 117 153 184 218 261
#     4  10  19  31  47  66  90 121 158 194 227 265
#     4  10  19  29  42  64  94 122 150 183 221 268
#
# _framework density 16.460125999999999
#
# number of rings (size 3 to 8) (size 9 to 14) (size 15 to 20)
#    0.000    2.500    0.000    3.750    0.000    6.500 
#    0.000    2.500    0.000    0.375    0.000    0.000 
#    0.000   50.000    0.000    0.000    0.000    0.500 
#
# Total GULP energy -793108.634131 kJ/mol
# GULP energy per Si atom -12392.322408 kJ/mol
# Density = 1.642266 g / cm^3
# Si number density = 16.460126 Si / 1000 Ang^3
#
#
#
# Elastic Constant Matrix: (Units=GPa)
#
#
# Indices 1 2 3 4 5 6 
#
# 1 67.7303 31.9157 48.8108 0.0000 0.0000 0.0000
# 2 31.9157 91.9747 47.3348 0.0000 0.0000 0.0000
# 3 48.8108 47.3348 94.0277 0.0000 0.0000 0.0000
# 4 0.0000 0.0000 0.0000 24.9133 0.0000 0.0000
# 5 0.0000 0.0000 0.0000 0.0000 24.2866 0.0000
# 6 0.0000 0.0000 0.0000 0.0000 0.0000 16.6417
#
#
#
# Elastic Compliance Matrix: (Units=1/GPa)
#
#
# Indices 1 2 3 4 5 6 
#
# 1 0.024038 -0.002590 -0.011174 0.000000 0.000000 0.000000
# 2 -0.002590 0.014954 -0.006183 0.000000 0.000000 0.000000
# 3 -0.011174 -0.006183 0.019549 0.000000 0.000000 0.000000
# 4 0.000000 0.000000 0.000000 0.040139 0.000000 0.000000
# 5 0.000000 0.000000 0.000000 0.000000 0.041175 0.000000
# 6 0.000000 0.000000 0.000000 0.000000 0.000000 0.060090
#
#
# Mechanical properties :
#
#
# Convention : Reuss Voigt Hill
#
# Bulk Modulus (GPa) = 53.63544 56.65057 55.14301
# Shear Modulus (GPa) = 20.32068 21.54643 20.93355
#
# Velocity S-wave (km/s) = 3.51741 3.62195 3.57006
# Velocity P-wave (km/s) = 7.01085 7.20992 7.11108
#
# Compressibility (1/GPa) = 0.01864439
#
# Stress axis : x y z
#
# Youngs Moduli (GPa) = 41.60068 66.87358 51.15470
#
# Poissons Ratio (x) = 0.17323 0.57162
# Poissons Ratio (y) = 0.10776 0.31629
# Poissons Ratio (z) = 0.46486 0.41349
#
# Static dielectric constant tensor:
#      x y z
#    x 3.094770 0.000000 0.000000 
#    y 0.000000 3.318850 0.000000 
#    z 0.000000 0.000000 2.970900 
# 
# 
# High freq. dielectric constant tensor:
#      x y z
#    x 1.616620 0.000000 0.000000 
#    y 0.000000 1.644490 0.000000 
#    z 0.000000 0.000000 1.608400 
# 
# From -- ./inp_files/38953.got.cif
#   From: 2010.03.12/outbox.cif.g09.slc.cpg/sg53_20_cif.got.tgz:38953.got - 2010.04.16 14:36:59.
