data_PCOD8218187
_publ_section_title
;
Structure prediction by ZEFSAII (Michael W. Deem and Ramdas Pophale) SiO2 
 PCOD8218187
Probable space group: P M N A
;
_chemical_formula_sum "Si O2"
_cell_formula_units_Z 40
_cell_length_a 14.740153
_cell_length_b 14.935043
_cell_length_c 9.365999
_cell_angle_alpha 90.000000
_cell_angle_beta 90.000000
_cell_angle_gamma 90.000000
_cell_volume 2061.876154
_symmetry_space_group_name_H-M "P M N A"
_symmetry_group_IT_number 53
_symmetry_cell_setting 'orthorhombic'
loop_
_space_group_symop_operation_xyz
x,y,z
1/2-x,-y,1/2+z
x,-y,-z
1/2-x,y,1/2-z
-x,-y,-z
1/2+x,y,1/2-z
-x,y,z
1/2+x,-y,1/2+z
loop_
_atom_site_type_symbol
_atom_site_label
_atom_site_fract_x
_atom_site_fract_y
_atom_site_fract_z
Si Si1 0.500000 0.142905 0.483641
Si Si2 0.500000 0.002258 0.735433
Si Si3 0.178132 0.064232 0.620728
Si Si4 0.500000 0.401054 0.929646
Si Si5 0.144241 0.721962 0.077377
Si Si6 0.500000 0.584487 0.405280
Si Si7 0.154454 0.262905 0.587269
O O1 0.500000 0.097144 0.329777
O O2 0.406621 0.198518 0.494698
O O3 0.500000 0.074180 0.611628
O O4 0.410400 0.011908 0.828790
O O5 0.250000 0.081825 0.750000
O O6 0.145293 0.157766 0.546435
O O7 0.224017 0.000000 0.500000
O O8 0.500000 0.427334 0.764190
O O9 0.415310 0.336954 0.975454
O O10 0.500000 0.500000 0.000000
O O11 0.247358 0.707281 0.028908
O O12 0.140782 0.740840 0.244372
O O13 0.091067 0.632289 0.043260
O O14 0.500000 0.500000 0.500000
#
# Coordination Sequence:
#
# PCOD8218187 Si02
#       7
#     4   4   8   4   8   4   8
#     4  10  18  32  60  85 112 157 213 247 290 352
#     4  11  22  35  55  84 126 159 206 258 300 340
#     4  12  25  39  62  92 127 168 216 257 300 361
#     4  10  22  38  63  88 113 159 201 244 313 378
#     4   9  17  33  57  85 109 157 199 244 297 363
#     4   9  19  35  58  84 108 138 193 253 305 363
#     4  10  18  36  59  82 120 157 205 247 295 368
#
# _framework density 19.399806999999999
#
# number of rings (size 3 to 8) (size 9 to 14) (size 15 to 20)
#    0.000    1.800    4.000    1.500    5.600    0.800 
#    0.000    4.000    0.000    0.000    0.000    0.000 
#    0.000    0.000    0.000    0.000    0.000    0.000 
#
# Total GULP energy -495553.222909 kJ/mol
# GULP energy per Si atom -12388.830573 kJ/mol
# Density = 1.935565 g / cm^3
# Si number density = 19.399807 Si / 1000 Ang^3
#
#
#
# Elastic Constant Matrix: (Units=GPa)
#
#
# Indices 1 2 3 4 5 6 
#
# 1 159.6555 73.5911 29.8683 0.0000 0.0000 0.0000
# 2 73.5911 173.8906 50.1795 0.0000 0.0000 0.0000
# 3 29.8683 50.1795 41.0530 0.0000 0.0000 0.0000
# 4 0.0000 0.0000 0.0000 37.6225 0.0000 0.0000
# 5 0.0000 0.0000 0.0000 0.0000 25.3026 0.0000
# 6 0.0000 0.0000 0.0000 0.0000 0.0000 28.2291
#
#
#
# Elastic Compliance Matrix: (Units=1/GPa)
#
#
# Indices 1 2 3 4 5 6 
#
# 1 0.007955 -0.002621 -0.002584 0.000000 0.000000 0.000000
# 2 -0.002621 0.009748 -0.010008 0.000000 0.000000 0.000000
# 3 -0.002584 -0.010008 0.038472 0.000000 0.000000 0.000000
# 4 0.000000 0.000000 0.000000 0.026580 0.000000 0.000000
# 5 0.000000 0.000000 0.000000 0.000000 0.039522 0.000000
# 6 0.000000 0.000000 0.000000 0.000000 0.000000 0.035424
#
#
# Mechanical properties :
#
#
# Convention : Reuss Voigt Hill
#
# Bulk Modulus (GPa) = 38.83732 75.76410 57.30071
# Shear Modulus (GPa) = 25.41812 32.96152 29.18982
#
# Velocity S-wave (km/s) = 3.62363 4.12644 3.88318
# Velocity P-wave (km/s) = 6.12948 7.86398 7.05027
#
# Compressibility (1/GPa) = 0.02574843
#
# Stress axis : x y z
#
# Youngs Moduli (GPa) = 125.70726 102.58564 25.99296
#
# Poissons Ratio (x) = 0.26886 0.06717
# Poissons Ratio (y) = 0.32946 0.26014
# Poissons Ratio (z) = 0.32485 1.02670
#
# Static dielectric constant tensor:
#      x y z
#    x 4.187950 0.000000 0.000000 
#    y 0.000000 3.750050 0.000000 
#    z 0.000000 0.000000 3.320660 
# 
# 
# High freq. dielectric constant tensor:
#      x y z
#    x 1.769210 0.000000 0.000000 
#    y 0.000000 1.761500 0.000000 
#    z 0.000000 0.000000 1.711850 
# 
# From -- ./inp_files/8506.got.cif
#   From: 2010.03.12/outbox.cif.g09.slc.cpg/sg53_5_cif.got.tgz:8506.got - 2010.04.16 14:36:59.
