data_PCOD8218228
_publ_section_title
;
Structure prediction by ZEFSAII (Michael W. Deem and Ramdas Pophale) SiO2 
 PCOD8218228
Probable space group: P M N A
;
_chemical_formula_sum "Si O2"
_cell_formula_units_Z 64
_cell_length_a 8.904869
_cell_length_b 14.551404
_cell_length_c 25.056773
_cell_angle_alpha 90.000000
_cell_angle_beta 90.000000
_cell_angle_gamma 90.000000
_cell_volume 3246.815211
_symmetry_space_group_name_H-M "P M N A"
_symmetry_group_IT_number 53
_symmetry_cell_setting 'orthorhombic'
loop_
_space_group_symop_operation_xyz
x,y,z
1/2-x,-y,1/2+z
x,-y,-z
1/2-x,y,1/2-z
-x,-y,-z
1/2+x,y,1/2-z
-x,y,z
1/2+x,-y,1/2+z
loop_
_atom_site_type_symbol
_atom_site_label
_atom_site_fract_x
_atom_site_fract_y
_atom_site_fract_z
Si Si1 0.675478 0.850390 0.897424
Si Si2 0.178050 0.712775 0.694663
Si Si3 0.174595 0.221608 0.906820
Si Si4 0.322012 0.021443 0.560448
Si Si5 0.830013 0.532967 0.943529
Si Si6 0.323645 0.508501 0.837328
Si Si7 0.178936 0.326553 0.803339
Si Si8 0.167810 0.266478 0.021417
O O1 0.500000 0.866232 0.892546
O O2 0.735266 0.785062 0.849787
O O3 0.713539 0.803778 0.954068
O O4 0.756708 0.948749 0.896875
O O5 0.250000 0.744670 0.750000
O O6 0.231661 0.609286 0.681112
O O7 0.000000 0.715470 0.698763
O O8 0.239848 0.120376 0.919702
O O9 0.244816 0.270019 0.854330
O O10 0.000000 0.213117 0.894889
O O11 0.206770 0.284990 0.959069
O O12 0.500000 0.018038 0.562750
O O13 0.266103 0.000000 0.500000
O O14 0.717942 0.495203 0.899245
O O15 0.828348 0.642571 0.943502
O O16 0.000000 0.495577 0.933552
O O17 0.767260 0.500000 0.000000
O O18 0.500000 0.494592 0.829033
O O19 0.233564 0.432204 0.804603
O O20 0.250000 0.281409 0.750000
O O21 0.000000 0.324605 0.800388
O O22 0.000000 0.221849 0.023974
#
# Coordination Sequence:
#
# PCOD8218228 Si02
#       8
#     8   8   8   8   8   8   8   8
#     4  11  22  37  55  84 122 151 181 237 296 341
#     4  10  23  40  58  81 114 153 195 239 285 339
#     4   9  19  37  61  87 115 147 190 241 286 338
#     4  10  19  36  63  89 113 149 195 235 278 347
#     4  10  20  33  53  82 116 156 200 242 287 343
#     4  11  22  38  58  84 117 154 197 244 294 346
#     4  11  23  41  62  85 116 153 196 245 291 341
#     4  10  18  33  57  83 112 151 192 231 281 345
#
# _framework density 19.711622999999999
#
# number of rings (size 3 to 8) (size 9 to 14) (size 15 to 20)
#    0.000    1.750    2.500    2.250    0.000    5.500 
#    0.000    4.375    0.000    3.000    0.000    0.000 
#    0.000    0.000    0.000    0.000    0.000    0.000 
#
# Total GULP energy -793530.063033 kJ/mol
# GULP energy per Si atom -12398.907235 kJ/mol
# Density = 1.966676 g / cm^3
# Si number density = 19.711623 Si / 1000 Ang^3
#
#
#
# Elastic Constant Matrix: (Units=GPa)
#
#
# Indices 1 2 3 4 5 6 
#
# 1 39.8271 23.8098 27.9956 0.0000 0.0000 0.0000
# 2 23.8098 86.0050 41.6172 0.0000 0.0000 0.0000
# 3 27.9956 41.6172 130.3137 0.0000 0.0000 0.0000
# 4 0.0000 0.0000 0.0000 24.6788 0.0000 0.0000
# 5 0.0000 0.0000 0.0000 0.0000 33.2035 0.0000
# 6 0.0000 0.0000 0.0000 0.0000 0.0000 22.8567
#
#
#
# Elastic Compliance Matrix: (Units=1/GPa)
#
#
# Indices 1 2 3 4 5 6 
#
# 1 0.032497 -0.006645 -0.004859 0.000000 0.000000 0.000000
# 2 -0.006645 0.015111 -0.003398 0.000000 0.000000 0.000000
# 3 -0.004859 -0.003398 0.009803 0.000000 0.000000 0.000000
# 4 0.000000 0.000000 0.000000 0.040521 0.000000 0.000000
# 5 0.000000 0.000000 0.000000 0.000000 0.030117 0.000000
# 6 0.000000 0.000000 0.000000 0.000000 0.000000 0.043751
#
#
# Mechanical properties :
#
#
# Convention : Reuss Voigt Hill
#
# Bulk Modulus (GPa) = 36.22435 49.22122 42.72278
# Shear Modulus (GPa) = 23.71834 26.99603 25.35719
#
# Velocity S-wave (km/s) = 3.47258 3.70476 3.59054
# Velocity P-wave (km/s) = 5.87328 6.58218 6.23781
#
# Compressibility (1/GPa) = 0.02760574
#
# Stress axis : x y z
#
# Youngs Moduli (GPa) = 30.77221 66.17534 102.00952
#
# Poissons Ratio (x) = 0.43975 0.49568
# Poissons Ratio (y) = 0.20449 0.34667
# Poissons Ratio (z) = 0.14953 0.22489
#
# Static dielectric constant tensor:
#      x y z
#    x 3.304990 0.000000 0.000000 
#    y 0.000000 3.747100 0.000000 
#    z 0.000000 0.000000 3.729590 
# 
# 
# High freq. dielectric constant tensor:
#      x y z
#    x 1.742590 0.000000 0.000000 
#    y 0.000000 1.767100 0.000000 
#    z 0.000000 0.000000 1.769970 
# 
# From -- ./inp_files/34259.got.cif
#   From: 2010.03.12/outbox.cif.g09.slc.cpg/sg53_18_cif.got.tgz:34259.got - 2010.04.16 14:36:59.
