data_PCOD8218830
_publ_section_title
;
Structure prediction by ZEFSAII (Michael W. Deem and Ramdas Pophale) SiO2 
 PCOD8218830
Probable space group: P M N A
;
_chemical_formula_sum "Si O2"
_cell_formula_units_Z 40
_cell_length_a 9.020485
_cell_length_b 25.473835
_cell_length_c 10.004361
_cell_angle_alpha 90.000000
_cell_angle_beta 90.000000
_cell_angle_gamma 90.000000
_cell_volume 2298.865563
_symmetry_space_group_name_H-M "P M N A"
_symmetry_group_IT_number 53
_symmetry_cell_setting 'orthorhombic'
loop_
_space_group_symop_operation_xyz
x,y,z
1/2-x,-y,1/2+z
x,-y,-z
1/2-x,y,1/2-z
-x,-y,-z
1/2+x,y,1/2-z
-x,y,z
1/2+x,-y,1/2+z
loop_
_atom_site_type_symbol
_atom_site_label
_atom_site_fract_x
_atom_site_fract_y
_atom_site_fract_z
Si Si1 0.669506 0.844391 0.887220
Si Si2 0.325696 0.658332 0.388404
Si Si3 0.827570 0.537267 0.115496
Si Si4 0.175080 0.730544 0.604842
Si Si5 0.674721 0.958284 0.893718
O O1 0.750000 0.840833 0.750000
O O2 0.500000 0.847144 0.848131
O O3 0.702030 0.788990 0.961949
O O4 0.712397 0.900049 0.956653
O O5 0.250000 0.675752 0.250000
O O6 0.500000 0.670320 0.379627
O O7 0.292571 0.597543 0.418731
O O8 0.252599 0.689448 0.508910
O O9 0.750000 0.518988 0.250000
O O10 0.000000 0.527637 0.135657
O O11 0.763278 0.500000 0.000000
O O12 0.250000 0.726001 0.750000
O O13 0.000000 0.718452 0.617464
O O14 0.750000 0.966621 0.750000
O O15 0.500000 0.966553 0.873793
O O16 0.738749 0.000000 0.000000
#
# Coordination Sequence:
#
# PCOD8218830 Si02
#       5
#     8   8   8   8   8
#     4   8  15  28  46  67  92 123 157 194 236 280
#     4  10  20  35  53  73 100 132 164 198 241 290
#     4   9  19  35  53  74  99 127 160 197 237 283
#     4  10  19  32  51  74  99 127 163 204 243 286
#     4   9  17  30  48  69  94 123 156 195 237 282
#
# _framework density 17.399885999999999
#
# number of rings (size 3 to 8) (size 9 to 14) (size 15 to 20)
#    0.000    2.800    0.000    1.200    0.000    3.200 
#    0.000    3.000    0.000    2.400    0.000    0.000 
#    0.000    0.000    0.000    0.000    0.000    0.000 
#
# Total GULP energy -495527.937955 kJ/mol
# GULP energy per Si atom -12388.198449 kJ/mol
# Density = 1.736028 g / cm^3
# Si number density = 17.399886 Si / 1000 Ang^3
#
#
#
# Elastic Constant Matrix: (Units=GPa)
#
#
# Indices 1 2 3 4 5 6 
#
# 1 62.8610 49.6124 48.5849 0.0000 0.0000 0.0000
# 2 49.6124 121.6091 86.3850 0.0000 0.0000 0.0000
# 3 48.5849 86.3850 115.2371 0.0000 0.0000 0.0000
# 4 0.0000 0.0000 0.0000 30.8773 0.0000 0.0000
# 5 0.0000 0.0000 0.0000 0.0000 30.4107 0.0000
# 6 0.0000 0.0000 0.0000 0.0000 0.0000 12.7276
#
#
#
# Elastic Compliance Matrix: (Units=1/GPa)
#
#
# Indices 1 2 3 4 5 6 
#
# 1 0.025435 -0.005902 -0.006299 0.000000 0.000000 0.000000
# 2 -0.005902 0.018959 -0.011724 0.000000 0.000000 0.000000
# 3 -0.006299 -0.011724 0.020122 0.000000 0.000000 0.000000
# 4 0.000000 0.000000 0.000000 0.032386 0.000000 0.000000
# 5 0.000000 0.000000 0.000000 0.000000 0.032883 0.000000
# 6 0.000000 0.000000 0.000000 0.000000 0.000000 0.078569
#
#
# Mechanical properties :
#
#
# Convention : Reuss Voigt Hill
#
# Bulk Modulus (GPa) = 60.00315 74.31910 67.16112
# Shear Modulus (GPa) = 19.10149 22.47811 20.78980
#
# Velocity S-wave (km/s) = 3.31689 3.59814 3.46037
# Velocity P-wave (km/s) = 7.01632 7.75031 7.39243
#
# Compressibility (1/GPa) = 0.01666579
#
# Stress axis : x y z
#
# Youngs Moduli (GPa) = 39.31621 52.74589 49.69645
#
# Poissons Ratio (x) = 0.31129 0.31306
# Poissons Ratio (y) = 0.23204 0.58263
# Poissons Ratio (z) = 0.24767 0.61838
#
# Static dielectric constant tensor:
#      x y z
#    x 3.892560 0.000000 0.000000 
#    y 0.000000 3.961600 0.000000 
#    z 0.000000 0.000000 3.031410 
# 
# 
# High freq. dielectric constant tensor:
#      x y z
#    x 1.678900 0.000000 0.000000 
#    y 0.000000 1.690940 0.000000 
#    z 0.000000 0.000000 1.642480 
# 
# From -- ./inp_files/6274.got.cif
#   From: 2010.03.12/outbox.cif.g09.slc.cpg/sg53_4_cif.got.tgz:6274.got - 2010.04.16 14:36:59.
