data_PCOD8218263
_publ_section_title
;
Structure prediction by ZEFSAII (Michael W. Deem and Ramdas Pophale) SiO2 
 PCOD8218263
Probable space group: P M N A
;
_chemical_formula_sum "Si O2"
_cell_formula_units_Z 56
_cell_length_a 14.617664
_cell_length_b 13.873934
_cell_length_c 13.898890
_cell_angle_alpha 90.000000
_cell_angle_beta 90.000000
_cell_angle_gamma 90.000000
_cell_volume 2818.757514
_symmetry_space_group_name_H-M "P M N A"
_symmetry_group_IT_number 53
_symmetry_cell_setting 'orthorhombic'
loop_
_space_group_symop_operation_xyz
x,y,z
1/2-x,-y,1/2+z
x,-y,-z
1/2-x,y,1/2-z
-x,-y,-z
1/2+x,y,1/2-z
-x,y,z
1/2+x,-y,1/2+z
loop_
_atom_site_type_symbol
_atom_site_label
_atom_site_fract_x
_atom_site_fract_y
_atom_site_fract_z
Si Si1 0.348501 0.193644 0.779197
Si Si2 0.396666 0.897721 0.538381
Si Si3 0.272775 0.785437 0.023395
Si Si4 0.246045 0.427080 0.589092
Si Si5 0.100188 0.085093 0.434574
Si Si6 0.103643 0.401337 0.752184
Si Si7 0.143122 0.016392 0.235156
O O1 0.250000 0.236406 0.750000
O O2 0.331887 0.164359 0.890431
O O3 0.412460 0.285664 0.760470
O O4 0.379523 0.098698 0.718682
O O5 0.500000 0.870392 0.509187
O O6 0.332076 0.818269 0.489725
O O7 0.389464 0.910661 0.652892
O O8 0.364131 0.000000 0.500000
O O9 0.271477 0.672366 0.034434
O O10 0.331363 0.822803 0.932260
O O11 0.250958 0.500000 0.500000
O O12 0.160045 0.445570 0.661205
O O13 0.341108 0.426846 0.649614
O O14 0.087134 0.048987 0.326922
O O15 0.000000 0.114309 0.474435
O O16 0.143264 0.000000 0.500000
O O17 0.000000 0.445312 0.756527
O O18 0.250000 0.027079 0.250000
#
# Coordination Sequence:
#
# PCOD8218263 Si02
#       7
#     8   8   8   8   8   8   8
#     4  10  18  34  57  87 116 155 193 243 304 344
#     4  11  23  35  52  83 119 157 196 236 288 353
#     4  11  20  39  58  81 117 155 197 244 294 349
#     4  10  23  44  66  92 124 158 200 255 316 368
#     4  11  22  35  54  83 118 156 198 238 287 352
#     4  10  21  39  66  98 123 149 197 255 312 368
#     4  11  20  34  56  77 120 165 201 242 288 341
#
# _framework density 19.866907999999999
#
# number of rings (size 3 to 8) (size 9 to 14) (size 15 to 20)
#    0.000    1.429    5.714    2.571    0.000    4.571 
#    0.000    2.857    0.000    0.000    0.000    0.000 
#    0.000    0.000    0.000    0.000    0.000    0.000 
#
# Total GULP energy -693854.872279 kJ/mol
# GULP energy per Si atom -12390.265576 kJ/mol
# Density = 1.982169 g / cm^3
# Si number density = 19.866908 Si / 1000 Ang^3
#
#
#
# Elastic Constant Matrix: (Units=GPa)
#
#
# Indices 1 2 3 4 5 6 
#
# 1 127.4131 38.1621 29.9799 0.0000 0.0000 0.0000
# 2 38.1621 74.3929 41.3679 0.0000 0.0000 0.0000
# 3 29.9799 41.3679 84.7492 0.0000 0.0000 0.0000
# 4 0.0000 0.0000 0.0000 30.6900 0.0000 0.0000
# 5 0.0000 0.0000 0.0000 0.0000 14.2955 0.0000
# 6 0.0000 0.0000 0.0000 0.0000 0.0000 9.9636
#
#
#
# Elastic Compliance Matrix: (Units=1/GPa)
#
#
# Indices 1 2 3 4 5 6 
#
# 1 0.009381 -0.004072 -0.001331 0.000000 0.000000 0.000000
# 2 -0.004072 0.020218 -0.008428 0.000000 0.000000 0.000000
# 3 -0.001331 -0.008428 0.016384 0.000000 0.000000 0.000000
# 4 0.000000 0.000000 0.000000 0.032584 0.000000 0.000000
# 5 0.000000 0.000000 0.000000 0.000000 0.069952 0.000000
# 6 0.000000 0.000000 0.000000 0.000000 0.000000 0.100366
#
#
# Mechanical properties :
#
#
# Convention : Reuss Voigt Hill
#
# Bulk Modulus (GPa) = 54.58302 56.17500 55.37901
# Shear Modulus (GPa) = 17.68943 22.79283 20.24113
#
# Velocity S-wave (km/s) = 2.98719 3.39082 3.19538
# Velocity P-wave (km/s) = 6.27947 6.60812 6.44589
#
# Compressibility (1/GPa) = 0.01832072
#
# Stress axis : x y z
#
# Youngs Moduli (GPa) = 106.59411 49.46107 61.03415
#
# Poissons Ratio (x) = 0.20143 0.08122
# Poissons Ratio (y) = 0.43410 0.51441
# Poissons Ratio (z) = 0.14186 0.41687
#
# Static dielectric constant tensor:
#      x y z
#    x 3.612160 0.000000 0.000000 
#    y 0.000000 3.283430 0.000000 
#    z 0.000000 0.000000 5.054700 
# 
# 
# High freq. dielectric constant tensor:
#      x y z
#    x 1.783800 0.000000 0.000000 
#    y 0.000000 1.728680 0.000000 
#    z 0.000000 0.000000 1.779040 
# 
# From -- ./inp_files/22798.got.cif
#   From: 2010.03.12/outbox.cif.g09.slc.cpg/sg53_12_cif.got.tgz:22798.got - 2010.04.16 14:36:59.
