data_PCOD8218556
_publ_section_title
;
Structure prediction by ZEFSAII (Michael W. Deem and Ramdas Pophale) SiO2 
 PCOD8218556
Probable space group: P M N A
;
_chemical_formula_sum "Si O2"
_cell_formula_units_Z 64
_cell_length_a 8.832820
_cell_length_b 23.162857
_cell_length_c 16.892639
_cell_angle_alpha 90.000000
_cell_angle_beta 90.000000
_cell_angle_gamma 90.000000
_cell_volume 3456.121545
_symmetry_space_group_name_H-M "P M N A"
_symmetry_group_IT_number 53
_symmetry_cell_setting 'orthorhombic'
loop_
_space_group_symop_operation_xyz
x,y,z
1/2-x,-y,1/2+z
x,-y,-z
1/2-x,y,1/2-z
-x,-y,-z
1/2+x,y,1/2-z
-x,y,z
1/2+x,-y,1/2+z
loop_
_atom_site_type_symbol
_atom_site_label
_atom_site_fract_x
_atom_site_fract_y
_atom_site_fract_z
Si Si1 0.321612 0.065377 0.165819
Si Si2 0.323588 0.432545 0.096870
Si Si3 0.821052 0.540483 0.165856
Si Si4 0.175177 0.368080 0.565888
Si Si5 0.679231 0.133533 0.477510
Si Si6 0.323841 0.264389 0.488595
Si Si7 0.166975 0.033300 0.918000
Si Si8 0.823062 0.326874 0.172086
O O1 0.250000 0.081669 0.250000
O O2 0.500000 0.070524 0.172282
O O3 0.262463 0.110352 0.100575
O O4 0.278875 0.999339 0.142044
O O5 0.500000 0.442303 0.113292
O O6 0.238303 0.493403 0.103007
O O7 0.256456 0.388644 0.161035
O O8 0.292849 0.407071 0.010539
O O9 0.750000 0.525316 0.250000
O O10 0.767434 0.603899 0.138166
O O11 0.000000 0.538610 0.171534
O O12 0.232072 0.302919 0.551324
O O13 0.000000 0.366186 0.588736
O O14 0.500000 0.128919 0.461186
O O15 0.730577 0.198564 0.495656
O O16 0.724194 0.097276 0.556820
O O17 0.500000 0.271544 0.508061
O O18 0.286691 0.284211 0.399752
O O19 0.000000 0.035701 0.878297
O O20 0.155990 0.000000 0.000000
O O21 0.750000 0.297917 0.250000
O O22 0.000000 0.336849 0.183419
#
# Coordination Sequence:
#
# PCOD8218556 Si02
#       8
#     8   8   8   8   8   8   8   8
#     4  11  21  32  49  75 108 140 171 208 253 302
#     4  10  20  35  54  76 103 133 167 207 254 309
#     4  12  24  37  55  78 104 132 166 210 262 315
#     4  10  21  37  56  78 105 136 171 212 256 304
#     4   9  18  34  54  76 103 135 172 212 253 299
#     4   9  19  35  54  75 100 135 175 211 250 299
#     4   8  15  30  51  73 100 133 166 202 246 293
#     4  10  19  31  47  69 100 135 171 208 249 299
#
# _framework density 18.517866999999999
#
# number of rings (size 3 to 8) (size 9 to 14) (size 15 to 20)
#    0.000    2.125    0.000    4.875    0.000    6.750 
#    0.000    1.250    0.000    0.750    0.000    3.500 
#    0.000    0.000    0.000    0.000    0.000    0.000 
#
# Total GULP energy -793638.655483 kJ/mol
# GULP energy per Si atom -12400.603992 kJ/mol
# Density = 1.847572 g / cm^3
# Si number density = 18.517867 Si / 1000 Ang^3
#
#
#
# Elastic Constant Matrix: (Units=GPa)
#
#
# Indices 1 2 3 4 5 6 
#
# 1 107.1090 45.4941 27.4307 0.0000 0.0000 0.0000
# 2 45.4941 131.2698 26.5238 0.0000 0.0000 0.0000
# 3 27.4307 26.5238 31.1233 0.0000 0.0000 0.0000
# 4 0.0000 0.0000 0.0000 17.3406 0.0000 0.0000
# 5 0.0000 0.0000 0.0000 0.0000 28.5698 0.0000
# 6 0.0000 0.0000 0.0000 0.0000 0.0000 24.2051
#
#
#
# Elastic Compliance Matrix: (Units=1/GPa)
#
#
# Indices 1 2 3 4 5 6 
#
# 1 0.012750 -0.002595 -0.009026 0.000000 0.000000 0.000000
# 2 -0.002595 0.009731 -0.006006 0.000000 0.000000 0.000000
# 3 -0.009026 -0.006006 0.045203 0.000000 0.000000 0.000000
# 4 0.000000 0.000000 0.000000 0.057668 0.000000 0.000000
# 5 0.000000 0.000000 0.000000 0.000000 0.035002 0.000000
# 6 0.000000 0.000000 0.000000 0.000000 0.000000 0.041314
#
#
# Mechanical properties :
#
#
# Convention : Reuss Voigt Hill
#
# Bulk Modulus (GPa) = 30.83443 52.04437 41.43940
# Shear Modulus (GPa) = 20.18320 25.36000 22.77160
#
# Velocity S-wave (km/s) = 3.30499 3.70467 3.51053
# Velocity P-wave (km/s) = 5.59029 6.81656 6.23365
#
# Compressibility (1/GPa) = 0.03243128
#
# Stress axis : x y z
#
# Youngs Moduli (GPa) = 78.43115 102.76733 22.12230
#
# Poissons Ratio (x) = 0.26669 0.19967
# Poissons Ratio (y) = 0.20353 0.13286
# Poissons Ratio (z) = 0.70790 0.61717
#
# Static dielectric constant tensor:
#      x y z
#    x 3.397180 0.000000 0.000000 
#    y 0.000000 3.640150 0.000000 
#    z 0.000000 0.000000 3.291770 
# 
# 
# High freq. dielectric constant tensor:
#      x y z
#    x 1.723070 0.000000 0.000000 
#    y 0.000000 1.712090 0.000000 
#    z 0.000000 0.000000 1.698160 
# 
# From -- ./inp_files/20821.got.cif
#   From: 2010.03.12/outbox.cif.g09.slc.cpg/sg53_11_cif.got.tgz:20821.got - 2010.04.16 14:36:59.
