data_PCOD8218859
_publ_section_title
;
Structure prediction by ZEFSAII (Michael W. Deem and Ramdas Pophale) SiO2 
 PCOD8218859
Probable space group: P M N A
;
_chemical_formula_sum "Si O2"
_cell_formula_units_Z 64
_cell_length_a 9.081956
_cell_length_b 21.723307
_cell_length_c 16.534716
_cell_angle_alpha 90.000000
_cell_angle_beta 90.000000
_cell_angle_gamma 90.000000
_cell_volume 3262.136076
_symmetry_space_group_name_H-M "P M N A"
_symmetry_group_IT_number 53
_symmetry_cell_setting 'orthorhombic'
loop_
_space_group_symop_operation_xyz
x,y,z
1/2-x,-y,1/2+z
x,-y,-z
1/2-x,y,1/2-z
-x,-y,-z
1/2+x,y,1/2-z
-x,y,z
1/2+x,-y,1/2+z
loop_
_atom_site_type_symbol
_atom_site_label
_atom_site_fract_x
_atom_site_fract_y
_atom_site_fract_z
Si Si1 0.163148 0.388982 0.672334
Si Si2 0.670038 0.182650 0.539189
Si Si3 0.667278 0.106825 0.324656
Si Si4 0.173803 0.930167 0.515071
Si Si5 0.173925 0.429339 0.498165
Si Si6 0.337420 0.240249 0.365472
Si Si7 0.324923 0.637597 0.832981
Si Si8 0.337092 0.755331 0.175298
O O1 0.250000 0.417641 0.750000
O O2 0.236232 0.401232 0.583287
O O3 0.150096 0.317043 0.686275
O O4 0.000000 0.419275 0.673478
O O5 0.500000 0.172638 0.559801
O O6 0.749745 0.116299 0.548598
O O7 0.695431 0.213571 0.453390
O O8 0.743133 0.231943 0.596817
O O9 0.750000 0.074655 0.250000
O O10 0.500000 0.082505 0.335226
O O11 0.766559 0.088295 0.398759
O O12 0.666720 0.180363 0.308532
O O13 0.000000 0.921220 0.510307
O O14 0.221609 0.000000 0.500000
O O15 0.223170 0.500000 0.500000
O O16 0.233366 0.397086 0.415033
O O17 0.000000 0.420618 0.497362
O O18 0.500000 0.271308 0.361417
O O19 0.216189 0.290295 0.340231
O O20 0.250000 0.611065 0.750000
O O21 0.500000 0.631020 0.824157
O O22 0.250000 0.785463 0.250000
O O23 0.500000 0.784657 0.169881
#
# Coordination Sequence:
#
# PCOD8218859 Si02
#       8
#     8   8   8   8   8   8   8   8
#     4   9  18  33  55  81 105 135 175 219 270 323
#     4  10  20  34  54  79 106 138 175 217 267 317
#     4  10  20  34  54  80 108 138 172 213 261 309
#     4  10  21  37  56  77 103 138 179 218 257 305
#     4   9  19  36  55  75 103 141 183 222 263 318
#     4   9  19  34  53  79 109 139 171 210 259 317
#     4  11  22  35  54  79 108 143 179 219 268 320
#     4  10  19  32  51  77 108 137 171 216 268 325
#
# _framework density 19.619046999999998
#
# number of rings (size 3 to 8) (size 9 to 14) (size 15 to 20)
#    0.000    2.250    0.000    3.750    0.000    7.000 
#    0.000    1.875    0.000    5.625    0.000    0.000 
#    0.000    0.000    0.000    0.000    0.000    0.000 
#
# Total GULP energy -793079.256630 kJ/mol
# GULP energy per Si atom -12391.863385 kJ/mol
# Density = 1.957439 g / cm^3
# Si number density = 19.619047 Si / 1000 Ang^3
#
#
#
# Elastic Constant Matrix: (Units=GPa)
#
#
# Indices 1 2 3 4 5 6 
#
# 1 83.2023 20.7651 46.9042 0.0000 0.0000 0.0000
# 2 20.7651 50.5249 19.4524 0.0000 0.0000 0.0000
# 3 46.9042 19.4524 109.8888 0.0000 0.0000 0.0000
# 4 0.0000 0.0000 0.0000 2.0882 0.0000 0.0000
# 5 0.0000 0.0000 0.0000 0.0000 33.0816 0.0000
# 6 0.0000 0.0000 0.0000 0.0000 0.0000 19.0575
#
#
#
# Elastic Compliance Matrix: (Units=1/GPa)
#
#
# Indices 1 2 3 4 5 6 
#
# 1 0.016699 -0.004420 -0.006345 0.000000 0.000000 0.000000
# 2 -0.004420 0.022410 -0.002080 0.000000 0.000000 0.000000
# 3 -0.006345 -0.002080 0.012177 0.000000 0.000000 0.000000
# 4 0.000000 0.000000 0.000000 0.478870 0.000000 0.000000
# 5 0.000000 0.000000 0.000000 0.000000 0.030228 0.000000
# 6 0.000000 0.000000 0.000000 0.000000 0.000000 0.052473
#
#
# Mechanical properties :
#
#
# Convention : Reuss Voigt Hill
#
# Bulk Modulus (GPa) = 39.07138 46.42882 42.75010
# Shear Modulus (GPa) = 7.72702 21.27842 14.50272
#
# Velocity S-wave (km/s) = 1.98673 3.29687 2.72180
# Velocity P-wave (km/s) = 5.02205 6.18134 5.63161
#
# Compressibility (1/GPa) = 0.02559418
#
# Stress axis : x y z
#
# Youngs Moduli (GPa) = 59.88333 44.62337 82.12372
#
# Poissons Ratio (x) = 0.19724 0.52110
# Poissons Ratio (y) = 0.26469 0.17084
# Poissons Ratio (z) = 0.37998 0.09283
#
# Static dielectric constant tensor:
#      x y z
#    x 3.738250 0.000000 0.000000 
#    y 0.000000 3.476640 0.000000 
#    z 0.000000 0.000000 3.811910 
# 
# 
# High freq. dielectric constant tensor:
#      x y z
#    x 1.760230 0.000000 0.000000 
#    y 0.000000 1.737700 0.000000 
#    z 0.000000 0.000000 1.776050 
# 
# From -- ./inp_files/20960.got.cif
#   From: 2010.03.12/outbox.cif.g09.slc.cpg/sg53_11_cif.got.tgz:20960.got - 2010.04.16 14:36:59.
