data_PCOD8218118
_publ_section_title
;
Structure prediction by ZEFSAII (Michael W. Deem and Ramdas Pophale) SiO2 
 PCOD8218118
Probable space group: P M N A
;
_chemical_formula_sum "Si O2"
_cell_formula_units_Z 36
_cell_length_a 9.643663
_cell_length_b 8.996979
_cell_length_c 22.932596
_cell_angle_alpha 90.000000
_cell_angle_beta 90.000000
_cell_angle_gamma 90.000000
_cell_volume 1989.719941
_symmetry_space_group_name_H-M "P M N A"
_symmetry_group_IT_number 53
_symmetry_cell_setting 'orthorhombic'
loop_
_space_group_symop_operation_xyz
x,y,z
1/2-x,-y,1/2+z
x,-y,-z
1/2-x,y,1/2-z
-x,-y,-z
1/2+x,y,1/2-z
-x,y,z
1/2+x,-y,1/2+z
loop_
_atom_site_type_symbol
_atom_site_label
_atom_site_fract_x
_atom_site_fract_y
_atom_site_fract_z
Si Si1 0.845955 0.256866 0.849215
Si Si2 0.250000 0.048592 0.750000
Si Si3 0.163895 0.502099 0.692514
Si Si4 0.154700 0.167793 0.345958
Si Si5 0.340518 0.996772 0.565846
O O1 0.841917 0.152447 0.791721
O O2 0.726734 0.382667 0.852918
O O3 0.820187 0.159173 0.906732
O O4 0.000000 0.328465 0.850849
O O5 0.343481 0.942390 0.790551
O O6 0.250000 0.465337 0.750000
O O7 0.198382 0.667729 0.673065
O O8 0.000000 0.475179 0.701639
O O9 0.000000 0.167837 0.371409
O O10 0.256762 0.124397 0.397637
O O11 0.500000 0.946034 0.567544
O O12 0.283807 0.000000 0.500000
#
# Coordination Sequence:
#
# PCOD8218118 Si02
#       5
#     8   4   8   8   8
#     4  10  20  33  54  80 108 141 178 220 268 319
#     4  10  18  32  52  80 108 140 176 220 266 324
#     4  11  22  35  52  78 114 148 178 215 266 326
#     4  10  21  35  54  81 110 143 182 223 268 319
#     4   9  20  39  60  81 106 140 184 230 273 319
#
# _framework density 18.092998000000001
#
# number of rings (size 3 to 8) (size 9 to 14) (size 15 to 20)
#    0.000    2.000    2.222    1.333    0.000    6.667 
#    0.000    1.111    0.000    6.667    0.000    0.000 
#    0.000    0.000    0.000    0.000    0.000    0.000 
#
# Total GULP energy -446344.996867 kJ/mol
# GULP energy per Si atom -12398.472135 kJ/mol
# Density = 1.805182 g / cm^3
# Si number density = 18.092998 Si / 1000 Ang^3
#
#
#
# Elastic Constant Matrix: (Units=GPa)
#
#
# Indices 1 2 3 4 5 6 
#
# 1 94.3523 46.3119 28.1596 0.0000 0.0000 0.0000
# 2 46.3119 101.6331 24.9239 0.0000 0.0000 0.0000
# 3 28.1596 24.9239 90.1269 0.0000 0.0000 0.0000
# 4 0.0000 0.0000 0.0000 16.0062 0.0000 0.0000
# 5 0.0000 0.0000 0.0000 0.0000 21.9279 0.0000
# 6 0.0000 0.0000 0.0000 0.0000 0.0000 29.7402
#
#
#
# Elastic Compliance Matrix: (Units=1/GPa)
#
#
# Indices 1 2 3 4 5 6 
#
# 1 0.014308 -0.005818 -0.002862 0.000000 0.000000 0.000000
# 2 -0.005818 0.012921 -0.001755 0.000000 0.000000 0.000000
# 3 -0.002862 -0.001755 0.012475 0.000000 0.000000 0.000000
# 4 0.000000 0.000000 0.000000 0.062476 0.000000 0.000000
# 5 0.000000 0.000000 0.000000 0.000000 0.045604 0.000000
# 6 0.000000 0.000000 0.000000 0.000000 0.000000 0.033625
#
#
# Mechanical properties :
#
#
# Convention : Reuss Voigt Hill
#
# Bulk Modulus (GPa) = 53.09524 53.87812 53.48668
# Shear Modulus (GPa) = 23.97422 25.98264 24.97843
#
# Velocity S-wave (km/s) = 3.64408 3.79365 3.71962
# Velocity P-wave (km/s) = 6.86405 7.00229 6.93352
#
# Compressibility (1/GPa) = 0.01883408
#
# Stress axis : x y z
#
# Youngs Moduli (GPa) = 69.88861 77.39315 80.16043
#
# Poissons Ratio (x) = 0.45030 0.22939
# Poissons Ratio (y) = 0.40663 0.14071
# Poissons Ratio (z) = 0.19999 0.13585
#
# Static dielectric constant tensor:
#      x y z
#    x 3.330460 0.000000 0.000000 
#    y 0.000000 3.391720 0.000000 
#    z 0.000000 0.000000 3.264260 
# 
# 
# High freq. dielectric constant tensor:
#      x y z
#    x 1.705870 0.000000 0.000000 
#    y 0.000000 1.704510 0.000000 
#    z 0.000000 0.000000 1.680210 
# 
# From -- ./inp_files/30136.got.cif
#   From: 2010.03.12/outbox.cif.g09.slc.cpg/sg53_16_cif.got.tgz:30136.got - 2010.04.16 14:36:59.
