data_PCOD8218999
_publ_section_title
;
Structure prediction by ZEFSAII (Michael W. Deem and Ramdas Pophale) SiO2 
 PCOD8218999
Probable space group: P M N A
;
_chemical_formula_sum "Si O2"
_cell_formula_units_Z 40
_cell_length_a 7.786399
_cell_length_b 10.149075
_cell_length_c 27.665770
_cell_angle_alpha 90.000000
_cell_angle_beta 90.000000
_cell_angle_gamma 90.000000
_cell_volume 2186.280487
_symmetry_space_group_name_H-M "P M N A"
_symmetry_group_IT_number 53
_symmetry_cell_setting 'orthorhombic'
loop_
_space_group_symop_operation_xyz
x,y,z
1/2-x,-y,1/2+z
x,-y,-z
1/2-x,y,1/2-z
-x,-y,-z
1/2+x,y,1/2-z
-x,y,z
1/2+x,-y,1/2+z
loop_
_atom_site_type_symbol
_atom_site_label
_atom_site_fract_x
_atom_site_fract_y
_atom_site_fract_z
Si Si1 0.500000 0.382382 0.036869
Si Si2 0.192276 0.524530 0.901961
Si Si3 0.000000 0.132873 0.529817
Si Si4 0.805563 0.784605 0.096182
Si Si5 0.198723 0.516681 0.699449
Si Si6 0.301390 0.213961 0.800969
O O1 0.326477 0.389385 0.068096
O O2 0.500000 0.500000 0.000000
O O3 0.500000 0.246090 0.009620
O O4 0.243794 0.370371 0.904892
O O5 0.198969 0.574872 0.846326
O O6 0.000000 0.548133 0.922175
O O7 0.171522 0.138951 0.562438
O O8 0.000000 0.000000 0.500000
O O9 0.794257 0.841025 0.151265
O O10 0.000000 0.807399 0.077372
O O11 0.250000 0.588118 0.750000
O O12 0.253638 0.365216 0.704194
O O13 0.000000 0.535211 0.688442
O O14 0.250000 0.142891 0.750000
O O15 0.500000 0.194436 0.810880
#
# Coordination Sequence:
#
# PCOD8218999 Si02
#       6
#     4   8   4   8   8   8
#     4  12  22  38  60  80 108 146 190 232 276 323
#     4  10  19  32  54  83 113 144 185 232 278 331
#     4  12  26  42  58  80 110 152 190 238 288 328
#     4  10  19  34  55  80 114 148 182 229 281 331
#     4   9  15  24  41  71 115 151 174 213 274 334
#     4   9  15  24  43  74 113 147 176 215 272 333
#
# _framework density 18.295912999999999
#
# number of rings (size 3 to 8) (size 9 to 14) (size 15 to 20)
#    0.000    2.000    4.000    1.200    0.000    6.400 
#    0.000    0.000    0.000    0.000    0.000    1.400 
#    0.000    0.000    0.000    0.000    0.000    0.000 
#
# Total GULP energy -495757.190276 kJ/mol
# GULP energy per Si atom -12393.929757 kJ/mol
# Density = 1.825427 g / cm^3
# Si number density = 18.295913 Si / 1000 Ang^3
#
#
#
# Elastic Constant Matrix: (Units=GPa)
#
#
# Indices 1 2 3 4 5 6 
#
# 1 98.2090 27.0648 84.8485 0.0000 0.0000 0.0000
# 2 27.0648 47.9070 40.4102 0.0000 0.0000 0.0000
# 3 84.8485 40.4102 123.6736 0.0000 0.0000 0.0000
# 4 0.0000 0.0000 0.0000 13.4123 0.0000 0.0000
# 5 0.0000 0.0000 0.0000 0.0000 36.6463 0.0000
# 6 0.0000 0.0000 0.0000 0.0000 0.0000 7.3931
#
#
#
# Elastic Compliance Matrix: (Units=1/GPa)
#
#
# Indices 1 2 3 4 5 6 
#
# 1 0.025010 0.000475 -0.017314 0.000000 0.000000 0.000000
# 2 0.000475 0.028825 -0.009745 0.000000 0.000000 0.000000
# 3 -0.017314 -0.009745 0.023148 0.000000 0.000000 0.000000
# 4 0.000000 0.000000 0.000000 0.074558 0.000000 0.000000
# 5 0.000000 0.000000 0.000000 0.000000 0.027288 0.000000
# 6 0.000000 0.000000 0.000000 0.000000 0.000000 0.135262
#
#
# Mechanical properties :
#
#
# Convention : Reuss Voigt Hill
#
# Bulk Modulus (GPa) = 41.98704 63.82627 52.90666
# Shear Modulus (GPa) = 13.32638 19.32140 16.32389
#
# Velocity S-wave (km/s) = 2.70178 3.25322 2.99024
# Velocity P-wave (km/s) = 5.72115 7.00518 6.39547
#
# Compressibility (1/GPa) = 0.02381687
#
# Stress axis : x y z
#
# Youngs Moduli (GPa) = 39.98471 34.69213 43.20016
#
# Poissons Ratio (x) = -0.01649 0.74795
# Poissons Ratio (y) = -0.01900 0.42097
# Poissons Ratio (z) = 0.69228 0.33806
#
# Static dielectric constant tensor:
#      x y z
#    x 3.273380 0.000000 0.000000 
#    y 0.000000 2.547780 0.000000 
#    z 0.000000 0.000000 3.808350 
# 
# 
# High freq. dielectric constant tensor:
#      x y z
#    x 1.726700 0.000000 0.000000 
#    y 0.000000 1.605450 0.000000 
#    z 0.000000 0.000000 1.735040 
# 
# From -- ./inp_files/36072.got.cif
#   From: 2010.03.12/outbox.cif.g09.slc.cpg/sg53_19_cif.got.tgz:36072.got - 2010.04.16 14:36:59.
