data_PCOD8218009
_publ_section_title
;
Structure prediction by ZEFSAII (Michael W. Deem and Ramdas Pophale) SiO2 
 PCOD8218009
Probable space group: P M N A
;
_chemical_formula_sum "Si O2"
_cell_formula_units_Z 48
_cell_length_a 19.610586
_cell_length_b 12.377288
_cell_length_c 10.397595
_cell_angle_alpha 90.000000
_cell_angle_beta 90.000000
_cell_angle_gamma 90.000000
_cell_volume 2523.765300
_symmetry_space_group_name_H-M "P M N A"
_symmetry_group_IT_number 53
_symmetry_cell_setting 'orthorhombic'
loop_
_space_group_symop_operation_xyz
x,y,z
1/2-x,-y,1/2+z
x,-y,-z
1/2-x,y,1/2-z
-x,-y,-z
1/2+x,y,1/2-z
-x,y,z
1/2+x,-y,1/2+z
loop_
_atom_site_type_symbol
_atom_site_label
_atom_site_fract_x
_atom_site_fract_y
_atom_site_fract_z
Si Si1 0.922096 0.950392 0.363053
Si Si2 0.308944 0.485294 0.849902
Si Si3 0.363365 0.858740 0.728937
Si Si4 0.920753 0.661507 0.648514
Si Si5 0.251785 0.119267 0.052359
Si Si6 0.654456 0.744710 0.097883
O O1 0.880542 0.842549 0.324027
O O2 0.000000 0.916836 0.374368
O O3 0.896555 0.000000 0.500000
O O4 0.911838 0.037765 0.250328
O O5 0.250000 0.521669 0.750000
O O6 0.375897 0.556009 0.822621
O O7 0.329793 0.361628 0.818696
O O8 0.285541 0.500000 0.000000
O O9 0.408018 0.749979 0.740037
O O10 0.327433 0.862621 0.589619
O O11 0.302332 0.862423 0.829940
O O12 0.898478 0.715070 0.514881
O O13 0.000000 0.628121 0.644159
O O14 0.272077 0.210768 0.949205
O O15 0.262354 0.000000 0.000000
#
# Coordination Sequence:
#
# PCOD8218009 Si02
#       6
#     8   8   8   8   8   8
#     4  11  18  30  51  79 113 141 173 223 283 337
#     4  10  24  39  60  87 115 147 190 241 289 341
#     4  10  19  29  52  79 106 145 185 220 275 335
#     4  10  20  35  56  80 109 145 189 237 285 338
#     4  10  18  31  49  78 112 143 181 224 275 335
#     4  10  19  33  51  84 111 142 179 231 295 333
#
# _framework density 19.019202
#
# number of rings (size 3 to 8) (size 9 to 14) (size 15 to 20)
#    0.000    1.833    5.000    1.000    7.000    5.000 
#    0.000    0.000    0.000    2.500    0.000    0.000 
#    0.000    0.000    0.000    0.000    0.000    0.000 
#
# Total GULP energy -594958.541244 kJ/mol
# GULP energy per Si atom -12394.969609 kJ/mol
# Density = 1.897591 g / cm^3
# Si number density = 19.019202 Si / 1000 Ang^3
#
#
#
# Elastic Constant Matrix: (Units=GPa)
#
#
# Indices 1 2 3 4 5 6 
#
# 1 112.1140 49.1313 40.6077 0.0000 0.0000 0.0000
# 2 49.1313 149.0766 28.2845 0.0000 0.0000 0.0000
# 3 40.6077 28.2845 33.8278 0.0000 0.0000 0.0000
# 4 0.0000 0.0000 0.0000 10.7667 0.0000 0.0000
# 5 0.0000 0.0000 0.0000 0.0000 11.2849 0.0000
# 6 0.0000 0.0000 0.0000 0.0000 0.0000 29.5936
#
#
#
# Elastic Compliance Matrix: (Units=1/GPa)
#
#
# Indices 1 2 3 4 5 6 
#
# 1 0.016252 -0.001967 -0.017865 0.000000 0.000000 0.000000
# 2 -0.001967 0.008211 -0.004504 0.000000 0.000000 0.000000
# 3 -0.017865 -0.004504 0.054773 0.000000 0.000000 0.000000
# 4 0.000000 0.000000 0.000000 0.092879 0.000000 0.000000
# 5 0.000000 0.000000 0.000000 0.000000 0.088614 0.000000
# 6 0.000000 0.000000 0.000000 0.000000 0.000000 0.033791
#
#
# Mechanical properties :
#
#
# Convention : Reuss Voigt Hill
#
# Bulk Modulus (GPa) = 32.71824 59.00727 45.86276
# Shear Modulus (GPa) = 14.14908 22.12871 18.13889
#
# Velocity S-wave (km/s) = 2.73048 3.41470 3.09158
# Velocity P-wave (km/s) = 5.21352 6.82930 6.07537
#
# Compressibility (1/GPa) = 0.03056399
#
# Stress axis : x y z
#
# Youngs Moduli (GPa) = 61.53086 121.79157 18.25708
#
# Poissons Ratio (x) = 0.23952 0.32616
# Poissons Ratio (y) = 0.12101 0.08224
# Poissons Ratio (z) = 1.09924 0.54860
#
# Static dielectric constant tensor:
#      x y z
#    x 3.498460 0.000000 0.000000 
#    y 0.000000 3.690970 0.000000 
#    z 0.000000 0.000000 3.209670 
# 
# 
# High freq. dielectric constant tensor:
#      x y z
#    x 1.735710 0.000000 0.000000 
#    y 0.000000 1.755550 0.000000 
#    z 0.000000 0.000000 1.676640 
# 
# From -- ./inp_files/16901.got.cif
#   From: 2010.03.12/outbox.cif.g09.slc.cpg/sg53_9_cif.got.tgz:16901.got - 2010.04.16 14:36:59.
