data_PCOD8218845
_publ_section_title
;
Structure prediction by ZEFSAII (Michael W. Deem and Ramdas Pophale) SiO2 
 PCOD8218845
Probable space group: P M N A
;
_chemical_formula_sum "Si O2"
_cell_formula_units_Z 40
_cell_length_a 8.754033
_cell_length_b 13.779419
_cell_length_c 18.148889
_cell_angle_alpha 90.000000
_cell_angle_beta 90.000000
_cell_angle_gamma 90.000000
_cell_volume 2189.218604
_symmetry_space_group_name_H-M "P M N A"
_symmetry_group_IT_number 53
_symmetry_cell_setting 'orthorhombic'
loop_
_space_group_symop_operation_xyz
x,y,z
1/2-x,-y,1/2+z
x,-y,-z
1/2-x,y,1/2-z
-x,-y,-z
1/2+x,y,1/2-z
-x,y,z
1/2+x,-y,1/2+z
loop_
_atom_site_type_symbol
_atom_site_label
_atom_site_fract_x
_atom_site_fract_y
_atom_site_fract_z
Si Si1 0.680647 0.383878 0.891662
Si Si2 0.678341 0.194811 0.675553
Si Si3 0.678335 0.696930 0.531962
Si Si4 0.821876 0.898798 0.025173
Si Si5 0.678444 0.577272 0.672948
O O1 0.500000 0.384168 0.889984
O O2 0.741852 0.296018 0.842676
O O3 0.740735 0.481584 0.855808
O O4 0.737046 0.375815 0.975955
O O5 0.750000 0.151339 0.750000
O O6 0.500000 0.214357 0.685436
O O7 0.710627 0.116525 0.611642
O O8 0.500000 0.692992 0.510666
O O9 0.742793 0.806530 0.520844
O O10 0.708450 0.664347 0.615360
O O11 0.000000 0.905539 0.008036
O O12 0.742543 0.000000 0.000000
O O13 0.750000 0.611213 0.750000
O O14 0.500000 0.556153 0.682559
#
# Coordination Sequence:
#
# PCOD8218845 Si02
#       5
#     8   8   8   8   8
#     4  11  21  33  52  76 102 132 168 208 251 299
#     4  10  19  32  51  76 105 133 165 207 255 302
#     4   9  19  35  54  75 100 133 170 208 250 298
#     4   8  15  31  55  77  96 126 168 207 246 297
#     4  11  22  35  50  71 103 138 172 206 244 293
#
# _framework density 18.271360000000001
#
# number of rings (size 3 to 8) (size 9 to 14) (size 15 to 20)
#    0.000    2.200    0.000    5.400    0.000    4.000 
#    0.000    1.000    0.000   15.000    0.000    0.000 
#    0.000    0.000    0.000    0.000    0.000    0.000 
#
# Total GULP energy -495992.916709 kJ/mol
# GULP energy per Si atom -12399.822918 kJ/mol
# Density = 1.822977 g / cm^3
# Si number density = 18.271360 Si / 1000 Ang^3
#
#
#
# Elastic Constant Matrix: (Units=GPa)
#
#
# Indices 1 2 3 4 5 6 
#
# 1 100.9526 35.5671 60.1532 0.0000 0.0000 0.0000
# 2 35.5671 80.6456 63.9065 0.0000 0.0000 0.0000
# 3 60.1532 63.9065 145.7356 0.0000 0.0000 0.0000
# 4 0.0000 0.0000 0.0000 21.5167 0.0000 0.0000
# 5 0.0000 0.0000 0.0000 0.0000 32.9752 0.0000
# 6 0.0000 0.0000 0.0000 0.0000 0.0000 10.5338
#
#
#
# Elastic Compliance Matrix: (Units=1/GPa)
#
#
# Indices 1 2 3 4 5 6 
#
# 1 0.013419 -0.002343 -0.004511 0.000000 0.000000 0.000000
# 2 -0.002343 0.019413 -0.007545 0.000000 0.000000 0.000000
# 3 -0.004511 -0.007545 0.012033 0.000000 0.000000 0.000000
# 4 0.000000 0.000000 0.000000 0.046476 0.000000 0.000000
# 5 0.000000 0.000000 0.000000 0.000000 0.030326 0.000000
# 6 0.000000 0.000000 0.000000 0.000000 0.000000 0.094932
#
#
# Mechanical properties :
#
#
# Convention : Reuss Voigt Hill
#
# Bulk Modulus (GPa) = 62.24967 71.84306 67.04637
# Shear Modulus (GPa) = 19.93993 24.18560 22.06277
#
# Velocity S-wave (km/s) = 3.30710 3.64220 3.47869
# Velocity P-wave (km/s) = 6.98040 7.55598 7.27389
#
# Compressibility (1/GPa) = 0.01606434
#
# Stress axis : x y z
#
# Youngs Moduli (GPa) = 74.51932 51.51268 83.10794
#
# Poissons Ratio (x) = 0.12072 0.37492
# Poissons Ratio (y) = 0.17463 0.62708
# Poissons Ratio (z) = 0.33618 0.38868
#
# Static dielectric constant tensor:
#      x y z
#    x 3.297640 0.000000 0.000000 
#    y 0.000000 3.512880 0.000000 
#    z 0.000000 0.000000 3.549920 
# 
# 
# High freq. dielectric constant tensor:
#      x y z
#    x 1.698160 0.000000 0.000000 
#    y 0.000000 1.694580 0.000000 
#    z 0.000000 0.000000 1.714610 
# 
# From -- ./inp_files/19847.got.cif
#   From: 2010.03.12/outbox.cif.g09.slc.cpg/sg53_10_cif.got.tgz:19847.got - 2010.04.16 14:36:59.
