data_PCOD8218573
_publ_section_title
;
Structure prediction by ZEFSAII (Michael W. Deem and Ramdas Pophale) SiO2 
 PCOD8218573
Probable space group: P M N A
;
_chemical_formula_sum "Si O2"
_cell_formula_units_Z 56
_cell_length_a 8.986204
_cell_length_b 13.945115
_cell_length_c 24.022454
_cell_angle_alpha 90.000000
_cell_angle_beta 90.000000
_cell_angle_gamma 90.000000
_cell_volume 3010.341349
_symmetry_space_group_name_H-M "P M N A"
_symmetry_group_IT_number 53
_symmetry_cell_setting 'orthorhombic'
loop_
_space_group_symop_operation_xyz
x,y,z
1/2-x,-y,1/2+z
x,-y,-z
1/2-x,y,1/2-z
-x,-y,-z
1/2+x,y,1/2-z
-x,y,z
1/2+x,-y,1/2+z
loop_
_atom_site_type_symbol
_atom_site_label
_atom_site_fract_x
_atom_site_fract_y
_atom_site_fract_z
Si Si1 0.171929 0.154337 0.695112
Si Si2 0.826373 0.705495 0.693280
Si Si3 0.674939 0.484257 0.807564
Si Si4 0.324457 0.321810 0.632591
Si Si5 0.674285 0.203168 0.525395
Si Si6 0.329393 0.963469 0.086597
Si Si7 0.675942 0.817267 0.914612
O O1 0.250000 0.112702 0.750000
O O2 0.256406 0.250833 0.678176
O O3 0.191188 0.072522 0.649252
O O4 0.000000 0.178836 0.705987
O O5 0.750000 0.740990 0.750000
O O6 0.788819 0.594997 0.680706
O O7 0.764671 0.767340 0.641615
O O8 0.000000 0.722223 0.701458
O O9 0.750000 0.450824 0.750000
O O10 0.500000 0.464133 0.804358
O O11 0.747965 0.424999 0.858382
O O12 0.500000 0.329247 0.641540
O O13 0.284556 0.283896 0.570938
O O14 0.500000 0.194648 0.516776
O O15 0.733607 0.099133 0.543993
O O16 0.749953 0.234675 0.467631
O O17 0.500000 0.954949 0.067075
O O18 0.273341 0.072294 0.085494
O O19 0.500000 0.805376 0.919135
#
# Coordination Sequence:
#
# PCOD8218573 Si02
#       7
#     8   8   8   8   8   8   8
#     4  10  19  31  47  71 103 135 168 206 251 301
#     4   9  20  37  56  79 105 133 168 210 251 297
#     4  10  19  33  54  78 103 133 169 207 251 300
#     4  10  20  34  51  73 102 134 168 207 252 302
#     4  10  21  35  52  77 105 132 168 212 254 298
#     4   9  19  34  52  73 100 137 174 208 249 299
#     4  10  20  36  56  76 101 135 172 207 249 300
#
# _framework density 18.602542
#
# number of rings (size 3 to 8) (size 9 to 14) (size 15 to 20)
#    0.000    2.286    0.000    2.571    0.000    6.286 
#    0.000    0.714    0.000    4.286    0.000    0.000 
#    0.000    0.000    0.000    0.000    0.000    0.000 
#
# Total GULP energy -694583.687534 kJ/mol
# GULP energy per Si atom -12403.280135 kJ/mol
# Density = 1.856020 g / cm^3
# Si number density = 18.602542 Si / 1000 Ang^3
#
#
#
# Elastic Constant Matrix: (Units=GPa)
#
#
# Indices 1 2 3 4 5 6 
#
# 1 76.8453 40.0625 59.6343 0.0000 0.0000 0.0000
# 2 40.0625 80.3152 63.4566 0.0000 0.0000 0.0000
# 3 59.6343 63.4566 152.1479 0.0000 0.0000 0.0000
# 4 0.0000 0.0000 0.0000 22.8529 0.0000 0.0000
# 5 0.0000 0.0000 0.0000 0.0000 35.7364 0.0000
# 6 0.0000 0.0000 0.0000 0.0000 0.0000 16.6609
#
#
#
# Elastic Compliance Matrix: (Units=1/GPa)
#
#
# Indices 1 2 3 4 5 6 
#
# 1 0.020331 -0.005735 -0.005577 0.000000 0.000000 0.000000
# 2 -0.005735 0.020188 -0.006172 0.000000 0.000000 0.000000
# 3 -0.005577 -0.006172 0.011332 0.000000 0.000000 0.000000
# 4 0.000000 0.000000 0.000000 0.043758 0.000000 0.000000
# 5 0.000000 0.000000 0.000000 0.000000 0.027983 0.000000
# 6 0.000000 0.000000 0.000000 0.000000 0.000000 0.060021
#
#
# Mechanical properties :
#
#
# Convention : Reuss Voigt Hill
#
# Bulk Modulus (GPa) = 59.22866 70.62392 64.92629
# Shear Modulus (GPa) = 22.30064 24.79372 23.54718
#
# Velocity S-wave (km/s) = 3.46612 3.65473 3.56167
# Velocity P-wave (km/s) = 6.92292 7.47372 7.20358
#
# Compressibility (1/GPa) = 0.01688372
#
# Stress axis : x y z
#
# Youngs Moduli (GPa) = 49.18636 49.53375 88.24192
#
# Poissons Ratio (x) = 0.28409 0.49209
# Poissons Ratio (y) = 0.28210 0.54463
# Poissons Ratio (z) = 0.27429 0.30572
#
# Static dielectric constant tensor:
#      x y z
#    x 3.411300 0.000000 0.000000 
#    y 0.000000 3.360800 0.000000 
#    z 0.000000 0.000000 3.508480 
# 
# 
# High freq. dielectric constant tensor:
#      x y z
#    x 1.725400 0.000000 0.000000 
#    y 0.000000 1.709250 0.000000 
#    z 0.000000 0.000000 1.725860 
# 
# From -- ./inp_files/30846.got.cif
#   From: 2010.03.12/outbox.cif.g09.slc.cpg/sg53_16_cif.got.tgz:30846.got - 2010.04.16 14:36:59.
