data_PCOD8218542
_publ_section_title
;
Structure prediction by ZEFSAII (Michael W. Deem and Ramdas Pophale) SiO2 
 PCOD8218542
Probable space group: P M N A
;
_chemical_formula_sum "Si O2"
_cell_formula_units_Z 48
_cell_length_a 32.654991
_cell_length_b 17.108698
_cell_length_c 5.226542
_cell_angle_alpha 90.000000
_cell_angle_beta 90.000000
_cell_angle_gamma 90.000000
_cell_volume 2919.987373
_symmetry_space_group_name_H-M "P M N A"
_symmetry_group_IT_number 53
_symmetry_cell_setting 'orthorhombic'
loop_
_space_group_symop_operation_xyz
x,y,z
1/2-x,-y,1/2+z
x,-y,-z
1/2-x,y,1/2-z
-x,-y,-z
1/2+x,y,1/2-z
-x,y,z
1/2+x,-y,1/2+z
loop_
_atom_site_type_symbol
_atom_site_label
_atom_site_fract_x
_atom_site_fract_y
_atom_site_fract_z
Si Si1 0.546889 0.917999 0.398136
Si Si2 0.047671 0.413753 0.979816
Si Si3 0.048122 0.318667 0.490907
Si Si4 0.168925 0.904893 0.741883
Si Si5 0.079724 0.152464 0.383430
Si Si6 0.702948 0.075821 0.745423
O O1 0.500000 0.924947 0.313723
O O2 0.549791 0.858581 0.638532
O O3 0.564763 0.000000 0.500000
O O4 0.570843 0.897320 0.138744
O O5 0.065028 0.364864 0.739203
O O6 0.000000 0.424239 0.924368
O O7 0.067971 0.500000 0.000000
O O8 0.056374 0.370549 0.243569
O O9 0.076019 0.242035 0.467479
O O10 0.000000 0.295896 0.518714
O O11 0.123166 0.873420 0.729042
O O12 0.193175 0.872108 0.494592
O O13 0.173786 0.999272 0.748728
O O14 0.190842 0.872431 0.998455
O O15 0.750000 0.048761 0.750000
#
# Coordination Sequence:
#
# PCOD8218542 Si02
#       6
#     8   8   8   8   8   8
#     4  11  24  37  48  60  83 126 176 219 249 276
#     4   9  17  30  49  70  88 112 154 201 240 284
#     4  10  19  31  47  66  93 125 155 196 246 292
#     4  10  20  30  48  71  89 115 147 196 247 281
#     4  12  23  34  50  68  95 123 163 206 256 298
#     4  10  19  34  52  70  89 114 155 199 245 292
#
# _framework density 16.438427999999998
#
# number of rings (size 3 to 8) (size 9 to 14) (size 15 to 20)
#    0.000    1.667    0.000    7.000    7.000    4.667 
#    0.000    0.000    0.000    0.000    0.000    0.000 
#    0.000    0.000    0.000    0.000    0.000   75.000 
#
# Total GULP energy -594828.998489 kJ/mol
# GULP energy per Si atom -12392.270802 kJ/mol
# Density = 1.640101 g / cm^3
# Si number density = 16.438428 Si / 1000 Ang^3
#
#
#
# Elastic Constant Matrix: (Units=GPa)
#
#
# Indices 1 2 3 4 5 6 
#
# 1 66.5254 36.9362 30.7398 0.0000 0.0000 0.0000
# 2 36.9362 74.4846 24.2672 0.0000 0.0000 0.0000
# 3 30.7398 24.2672 150.1656 0.0000 0.0000 0.0000
# 4 0.0000 0.0000 0.0000 23.2474 0.0000 0.0000
# 5 0.0000 0.0000 0.0000 0.0000 18.3871 0.0000
# 6 0.0000 0.0000 0.0000 0.0000 0.0000 6.7480
#
#
#
# Elastic Compliance Matrix: (Units=1/GPa)
#
#
# Indices 1 2 3 4 5 6 
#
# 1 0.021858 -0.009903 -0.002874 0.000000 0.000000 0.000000
# 2 -0.009903 0.018658 -0.000988 0.000000 0.000000 0.000000
# 3 -0.002874 -0.000988 0.007407 0.000000 0.000000 0.000000
# 4 0.000000 0.000000 0.000000 0.043016 0.000000 0.000000
# 5 0.000000 0.000000 0.000000 0.000000 0.054386 0.000000
# 6 0.000000 0.000000 0.000000 0.000000 0.000000 0.148192
#
#
# Mechanical properties :
#
#
# Convention : Reuss Voigt Hill
#
# Bulk Modulus (GPa) = 49.03498 52.78467 50.90983
# Shear Modulus (GPa) = 15.25109 22.95866 19.10487
#
# Velocity S-wave (km/s) = 3.04924 3.74123 3.41282
# Velocity P-wave (km/s) = 6.50318 7.13040 6.82400
#
# Compressibility (1/GPa) = 0.02039361
#
# Stress axis : x y z
#
# Youngs Moduli (GPa) = 45.74940 53.59564 135.00115
#
# Poissons Ratio (x) = 0.53075 0.38802
# Poissons Ratio (y) = 0.45305 0.13339
# Poissons Ratio (z) = 0.13149 0.05295
#
# Static dielectric constant tensor:
#      x y z
#    x 2.773140 0.000000 0.000000 
#    y 0.000000 2.891400 0.000000 
#    z 0.000000 0.000000 4.354420 
# 
# 
# High freq. dielectric constant tensor:
#      x y z
#    x 1.590670 0.000000 0.000000 
#    y 0.000000 1.586820 0.000000 
#    z 0.000000 0.000000 1.677400 
# 
# From -- ./inp_files/5281.got.cif
#   From: 2010.03.12/outbox.cif.g09.slc.cpg/sg53_3_cif.got.tgz:5281.got - 2010.04.16 14:36:59.
