data_PCOD8218662
_publ_section_title
;
Structure prediction by ZEFSAII (Michael W. Deem and Ramdas Pophale) SiO2 
 PCOD8218662
Probable space group: P M N A
;
_chemical_formula_sum "Si O2"
_cell_formula_units_Z 64
_cell_length_a 18.492374
_cell_length_b 20.569923
_cell_length_c 8.924298
_cell_angle_alpha 90.000000
_cell_angle_beta 90.000000
_cell_angle_gamma 90.000000
_cell_volume 3394.684349
_symmetry_space_group_name_H-M "P M N A"
_symmetry_group_IT_number 53
_symmetry_cell_setting 'orthorhombic'
loop_
_space_group_symop_operation_xyz
x,y,z
1/2-x,-y,1/2+z
x,-y,-z
1/2-x,y,1/2-z
-x,-y,-z
1/2+x,y,1/2-z
-x,y,z
1/2+x,-y,1/2+z
loop_
_atom_site_type_symbol
_atom_site_label
_atom_site_fract_x
_atom_site_fract_y
_atom_site_fract_z
Si Si1 0.419988 0.742733 0.677524
Si Si2 0.581058 0.500000 0.322183
Si Si3 0.584846 0.111476 0.672454
Si Si4 0.672439 0.623053 0.678112
Si Si5 0.915154 0.111476 0.172454
Si Si6 0.919988 0.742733 0.177524
Si Si7 0.327638 0.000000 0.824144
Si Si8 0.672439 0.376947 0.678112
O O1 0.500000 0.728694 0.744332
O O2 0.363410 0.689803 0.738868
O O3 0.394473 0.815177 0.721829
O O4 0.425369 0.737540 0.500000
O O5 0.577053 0.500000 0.500000
O O6 0.500000 0.500000 0.254912
O O7 0.622726 0.436148 0.265491
O O8 0.622726 0.563852 0.265491
O O9 0.500000 0.099154 0.695004
O O10 0.606255 0.098644 0.500000
O O11 0.605527 0.184823 0.721829
O O12 0.628976 0.063981 0.777955
O O13 0.750000 0.614673 0.750000
O O14 0.680345 0.623197 0.500000
O O15 0.871024 0.063981 0.277955
O O16 0.000000 0.099154 0.195004
O O17 0.863410 0.689803 0.238868
O O18 0.000000 0.728694 0.244332
O O19 0.250000 0.000000 0.750000
O O20 0.317215 0.000000 0.000000
O O21 0.750000 0.385327 0.750000
#
# Coordination Sequence:
#
# PCOD8218662 Si02
#       8
#     8   8   8   8   8   8   8   8
#     4   8  15  30  53  77  99 129 170 209 243 288
#     4   9  17  30  51  75  96 127 174 218 248 285
#     4   9  18  35  58  80 103 133 169 209 255 307
#     4  10  19  31  49  74 104 134 166 206 251 298
#     4   9  18  35  58  80 103 133 169 209 255 307
#     4   8  15  30  53  77  99 129 170 209 243 288
#     4  12  25  38  53  75 105 137 171 212 257 306
#     4  10  19  31  49  74 104 134 166 206 251 298
#
# _framework density 18.853003999999999
#
# number of rings (size 3 to 8) (size 9 to 14) (size 15 to 20)
#    0.000    2.625    0.000    4.125    0.000    6.000 
#    0.000    3.750    0.000    5.250    0.000    0.000 
#    0.000    0.000    0.000    0.000    0.000    0.000 
#
# Total GULP energy -793511.928683 kJ/mol
# GULP energy per Si atom -12398.623886 kJ/mol
# Density = 1.881009 g / cm^3
# Si number density = 18.853004 Si / 1000 Ang^3
#
#
#
# Elastic Constant Matrix: (Units=GPa)
#
#
# Indices 1 2 3 4 5 6 
#
# 1 144.8885 98.3712 42.7848 0.0000 0.0000 0.0000
# 2 98.3712 172.6647 44.2051 0.0000 0.0000 0.0000
# 3 42.7848 44.2051 57.4593 0.0000 0.0000 0.0000
# 4 0.0000 0.0000 0.0000 11.8341 0.0000 0.0000
# 5 0.0000 0.0000 0.0000 0.0000 28.4816 0.0000
# 6 0.0000 0.0000 0.0000 0.0000 0.0000 15.6400
#
#
#
# Elastic Compliance Matrix: (Units=1/GPa)
#
#
# Indices 1 2 3 4 5 6 
#
# 1 0.012176 -0.005748 -0.004644 0.000000 0.000000 0.000000
# 2 -0.005748 0.009925 -0.003356 0.000000 0.000000 0.000000
# 3 -0.004644 -0.003356 0.023444 0.000000 0.000000 0.000000
# 4 0.000000 0.000000 0.000000 0.084502 0.000000 0.000000
# 5 0.000000 0.000000 0.000000 0.000000 0.035110 0.000000
# 6 0.000000 0.000000 0.000000 0.000000 0.000000 0.063939
#
#
# Mechanical properties :
#
#
# Convention : Reuss Voigt Hill
#
# Bulk Modulus (GPa) = 55.40575 82.85942 69.13258
# Shear Modulus (GPa) = 19.03980 23.83455 21.43718
#
# Velocity S-wave (km/s) = 3.18135 3.55946 3.37570
# Velocity P-wave (km/s) = 6.55338 7.80632 7.20713
#
# Compressibility (1/GPa) = 0.01804867
#
# Stress axis : x y z
#
# Youngs Moduli (GPa) = 82.13078 100.75133 42.65544
#
# Poissons Ratio (x) = 0.57910 0.19810
# Poissons Ratio (y) = 0.47207 0.14315
# Poissons Ratio (z) = 0.38143 0.33813
#
# Static dielectric constant tensor:
#      x y z
#    x 3.551780 0.000000 0.000000 
#    y 0.000000 3.830490 0.000000 
#    z 0.000000 0.000000 2.982450 
# 
# 
# High freq. dielectric constant tensor:
#      x y z
#    x 1.737050 0.000000 0.000000 
#    y 0.000000 1.752600 0.000000 
#    z 0.000000 0.000000 1.683140 
# 
# From -- ./inp_files/10196.got.cif
#   From: 2010.03.12/outbox.cif.g09.slc.cpg/sg53_6_cif.got.tgz:10196.got - 2010.04.16 14:36:59.
