data_PCOD8218491
_publ_section_title
;
Structure prediction by ZEFSAII (Michael W. Deem and Ramdas Pophale) SiO2 
 PCOD8218491
Probable space group: P M N A
;
_chemical_formula_sum "Si O2"
_cell_formula_units_Z 64
_cell_length_a 14.521750
_cell_length_b 7.853651
_cell_length_c 31.830891
_cell_angle_alpha 90.000000
_cell_angle_beta 90.000000
_cell_angle_gamma 90.000000
_cell_volume 3630.273534
_symmetry_space_group_name_H-M "P M N A"
_symmetry_group_IT_number 53
_symmetry_cell_setting 'orthorhombic'
loop_
_space_group_symop_operation_xyz
x,y,z
1/2-x,-y,1/2+z
x,-y,-z
1/2-x,y,1/2-z
-x,-y,-z
1/2+x,y,1/2-z
-x,y,z
1/2+x,-y,1/2+z
loop_
_atom_site_type_symbol
_atom_site_label
_atom_site_fract_x
_atom_site_fract_y
_atom_site_fract_z
Si Si1 0.397683 0.374223 0.330281
Si Si2 0.106107 0.192016 0.088665
Si Si3 0.104253 0.299885 0.000987
Si Si4 0.787960 0.310603 0.832411
Si Si5 0.603754 0.866173 0.265732
Si Si6 0.855905 0.230481 0.253694
Si Si7 0.398077 0.427806 0.800143
Si Si8 0.393010 0.197807 0.588673
O O1 0.500000 0.437404 0.341308
O O2 0.350261 0.295225 0.372295
O O3 0.338030 0.527494 0.312111
O O4 0.403042 0.240757 0.292185
O O5 0.154502 0.233867 0.043663
O O6 0.000000 0.246688 0.084781
O O7 0.116124 0.997234 0.100609
O O8 0.000000 0.231001 0.001717
O O9 0.109970 0.500000 0.000000
O O10 0.148045 0.226528 0.958190
O O11 0.820335 0.149169 0.803648
O O12 0.679279 0.358079 0.832768
O O13 0.826029 0.297582 0.879833
O O14 0.500000 0.877827 0.284328
O O15 0.613682 0.692255 0.239992
O O16 0.624168 0.030747 0.235443
O O17 0.750000 0.268685 0.250000
O O18 0.892738 0.371172 0.286964
O O19 0.500000 0.402130 0.820272
O O20 0.500000 0.260726 0.592002
#
# Coordination Sequence:
#
# PCOD8218491 Si02
#       8
#     8   8   8   8   8   8   8   8
#     4  11  20  31  49  72 101 133 166 211 256 308
#     4   9  18  30  45  72 106 140 174 204 246 306
#     4   9  16  28  45  68 101 142 176 202 241 300
#     4  12  21  35  50  75 101 134 175 218 264 311
#     4  11  22  35  54  77 103 134 170 215 266 322
#     4  12  21  36  54  75 103 138 177 218 263 312
#     4  11  23  40  54  71  99 134 179 227 272 315
#     4  10  19  30  48  72 105 142 173 209 252 307
#
# _framework density 17.629525000000001
#
# number of rings (size 3 to 8) (size 9 to 14) (size 15 to 20)
#    0.000    1.375    2.500    5.250    0.000    4.500 
#    0.000    0.000    0.000    0.000    0.000    0.000 
#    0.000    6.500    0.000    0.000    0.000    0.250 
#
# Total GULP energy -792936.833274 kJ/mol
# GULP energy per Si atom -12389.638020 kJ/mol
# Density = 1.758940 g / cm^3
# Si number density = 17.629525 Si / 1000 Ang^3
#
#
#
# Elastic Constant Matrix: (Units=GPa)
#
#
# Indices 1 2 3 4 5 6 
#
# 1 93.7878 18.4856 28.4810 0.0000 0.0000 0.0000
# 2 18.4856 73.2673 15.8560 0.0000 0.0000 0.0000
# 3 28.4810 15.8560 74.6876 0.0000 0.0000 0.0000
# 4 0.0000 0.0000 0.0000 23.7599 0.0000 0.0000
# 5 0.0000 0.0000 0.0000 0.0000 14.9590 0.0000
# 6 0.0000 0.0000 0.0000 0.0000 0.0000 18.5989
#
#
#
# Elastic Compliance Matrix: (Units=1/GPa)
#
#
# Indices 1 2 3 4 5 6 
#
# 1 0.012390 -0.002205 -0.004256 0.000000 0.000000 0.000000
# 2 -0.002205 0.014698 -0.002280 0.000000 0.000000 0.000000
# 3 -0.004256 -0.002280 0.015496 0.000000 0.000000 0.000000
# 4 0.000000 0.000000 0.000000 0.042088 0.000000 0.000000
# 5 0.000000 0.000000 0.000000 0.000000 0.066849 0.000000
# 6 0.000000 0.000000 0.000000 0.000000 0.000000 0.053767
#
#
# Mechanical properties :
#
#
# Convention : Reuss Voigt Hill
#
# Bulk Modulus (GPa) = 39.83713 40.82085 40.32899
# Shear Modulus (GPa) = 21.63221 23.39158 22.51190
#
# Velocity S-wave (km/s) = 3.50672 3.64653 3.57731
# Velocity P-wave (km/s) = 6.24836 6.39802 6.32363
#
# Compressibility (1/GPa) = 0.02510221
#
# Stress axis : x y z
#
# Youngs Moduli (GPa) = 80.71341 68.03520 64.53188
#
# Poissons Ratio (x) = 0.15000 0.27468
# Poissons Ratio (y) = 0.17795 0.14711
# Poissons Ratio (z) = 0.34356 0.15510
#
# Static dielectric constant tensor:
#      x y z
#    x 3.055470 0.000000 0.000000 
#    y 0.000000 3.429320 0.000000 
#    z 0.000000 0.000000 3.261580 
# 
# 
# High freq. dielectric constant tensor:
#      x y z
#    x 1.629060 0.000000 0.000000 
#    y 0.000000 1.702220 0.000000 
#    z 0.000000 0.000000 1.660300 
# 
# From -- ./inp_files/38946.got.cif
#   From: 2010.03.12/outbox.cif.g09.slc.cpg/sg53_20_cif.got.tgz:38946.got - 2010.04.16 14:36:59.
