data_PCOD8218393
_publ_section_title
;
Structure prediction by ZEFSAII (Michael W. Deem and Ramdas Pophale) SiO2 
 PCOD8218393
Probable space group: P M N A
;
_chemical_formula_sum "Si O2"
_cell_formula_units_Z 56
_cell_length_a 9.499593
_cell_length_b 11.444349
_cell_length_c 28.427836
_cell_angle_alpha 90.000000
_cell_angle_beta 90.000000
_cell_angle_gamma 90.000000
_cell_volume 3090.579314
_symmetry_space_group_name_H-M "P M N A"
_symmetry_group_IT_number 53
_symmetry_cell_setting 'orthorhombic'
loop_
_space_group_symop_operation_xyz
x,y,z
1/2-x,-y,1/2+z
x,-y,-z
1/2-x,y,1/2-z
-x,-y,-z
1/2+x,y,1/2-z
-x,y,z
1/2+x,-y,1/2+z
loop_
_atom_site_type_symbol
_atom_site_label
_atom_site_fract_x
_atom_site_fract_y
_atom_site_fract_z
Si Si1 0.668057 0.729010 0.430437
Si Si2 0.332300 0.764148 0.611856
Si Si3 0.661078 0.492912 0.390069
Si Si4 0.333226 0.154318 0.662904
Si Si5 0.831875 0.092080 0.202298
Si Si6 0.840619 0.609667 0.208075
Si Si7 0.167583 0.123836 0.017008
O O1 0.500000 0.721352 0.426563
O O2 0.729786 0.597679 0.421330
O O3 0.721590 0.819593 0.390182
O O4 0.718859 0.775351 0.480945
O O5 0.500000 0.759004 0.610514
O O6 0.267126 0.634271 0.603528
O O7 0.286071 0.815250 0.662261
O O8 0.276985 0.846015 0.569243
O O9 0.500000 0.481298 0.405666
O O10 0.673996 0.523639 0.335509
O O11 0.500000 0.147847 0.661188
O O12 0.283224 0.261012 0.695679
O O13 0.275448 0.033330 0.683789
O O14 0.750000 0.124865 0.250000
O O15 0.000000 0.092841 0.211180
O O16 0.750000 0.555580 0.250000
O O17 0.000000 0.617326 0.225451
O O18 0.000000 0.117261 0.016567
O O19 0.230543 0.000000 0.000000
#
# Coordination Sequence:
#
# PCOD8218393 Si02
#       7
#     8   8   8   8   8   8   8
#     4   8  13  22  37  56  80 109 137 166 204 253
#     4   9  17  27  38  55  81 109 137 172 210 247
#     4   8  15  26  37  52  76 107 139 169 207 251
#     4   8  14  25  40  59  83 109 137 171 212 252
#     4  10  19  30  44  61  84 114 144 175 212 250
#     4   9  16  26  41  59  80 108 141 175 209 246
#     4   9  15  22  35  56  81 109 138 167 205 253
#
# _framework density 18.119579000000002
#
# number of rings (size 3 to 8) (size 9 to 14) (size 15 to 20)
#    0.000    3.286    0.000    3.000    0.000    4.571 
#    0.000    2.857    0.000    0.000    0.000    0.000 
#    0.000    9.714    0.000    6.429    0.000    7.143 
#
# Total GULP energy -693852.100660 kJ/mol
# GULP energy per Si atom -12390.216083 kJ/mol
# Density = 1.807834 g / cm^3
# Si number density = 18.119579 Si / 1000 Ang^3
#
#
#
# Elastic Constant Matrix: (Units=GPa)
#
#
# Indices 1 2 3 4 5 6 
#
# 1 13.3884 10.1660 21.3011 0.0000 0.0000 0.0000
# 2 10.1660 138.8342 65.4411 0.0000 0.0000 0.0000
# 3 21.3011 65.4411 134.4118 0.0000 0.0000 0.0000
# 4 0.0000 0.0000 0.0000 11.9145 0.0000 0.0000
# 5 0.0000 0.0000 0.0000 0.0000 17.3332 0.0000
# 6 0.0000 0.0000 0.0000 0.0000 0.0000 6.7176
#
#
#
# Elastic Compliance Matrix: (Units=1/GPa)
#
#
# Indices 1 2 3 4 5 6 
#
# 1 0.099878 0.000191 -0.015921 0.000000 0.000000 0.000000
# 2 0.000191 0.009349 -0.004582 0.000000 0.000000 0.000000
# 3 -0.015921 -0.004582 0.012194 0.000000 0.000000 0.000000
# 4 0.000000 0.000000 0.000000 0.083931 0.000000 0.000000
# 5 0.000000 0.000000 0.000000 0.000000 0.057693 0.000000
# 6 0.000000 0.000000 0.000000 0.000000 0.000000 0.148863
#
#
# Mechanical properties :
#
#
# Convention : Reuss Voigt Hill
#
# Bulk Modulus (GPa) = 12.37683 53.38340 32.88011
# Shear Modulus (GPa) = 10.42833 19.84148 15.13491
#
# Velocity S-wave (km/s) = 2.40162 3.31271 2.89325
# Velocity P-wave (km/s) = 3.81259 6.64513 5.41727
#
# Compressibility (1/GPa) = 0.08079614
#
# Stress axis : x y z
#
# Youngs Moduli (GPa) = 10.01224 106.96868 82.00911
#
# Poissons Ratio (x) = -0.02047 1.30570
# Poissons Ratio (y) = -0.00192 0.37575
# Poissons Ratio (z) = 0.15941 0.49011
#
# Static dielectric constant tensor:
#      x y z
#    x 2.534230 0.000000 0.000000 
#    y 0.000000 3.716200 0.000000 
#    z 0.000000 0.000000 3.440010 
# 
# 
# High freq. dielectric constant tensor:
#      x y z
#    x 1.602870 0.000000 0.000000 
#    y 0.000000 1.714670 0.000000 
#    z 0.000000 0.000000 1.710000 
# 
# From -- ./inp_files/34978.got.cif
#   From: 2010.03.12/outbox.cif.g09.slc.cpg/sg53_18_cif.got.tgz:34978.got - 2010.04.16 14:36:59.
