data_PCOD8218677
_publ_section_title
;
Structure prediction by ZEFSAII (Michael W. Deem and Ramdas Pophale) SiO2 
 PCOD8218677
Probable space group: P M N A
;
_chemical_formula_sum "Si O2"
_cell_formula_units_Z 56
_cell_length_a 9.263102
_cell_length_b 14.813836
_cell_length_c 20.913058
_cell_angle_alpha 90.000000
_cell_angle_beta 90.000000
_cell_angle_gamma 90.000000
_cell_volume 2869.733190
_symmetry_space_group_name_H-M "P M N A"
_symmetry_group_IT_number 53
_symmetry_cell_setting 'orthorhombic'
loop_
_space_group_symop_operation_xyz
x,y,z
1/2-x,-y,1/2+z
x,-y,-z
1/2-x,y,1/2-z
-x,-y,-z
1/2+x,y,1/2-z
-x,y,z
1/2+x,-y,1/2+z
loop_
_atom_site_type_symbol
_atom_site_label
_atom_site_fract_x
_atom_site_fract_y
_atom_site_fract_z
Si Si1 0.329463 0.578105 0.452110
Si Si2 0.665974 0.225835 0.110713
Si Si3 0.339950 0.444391 0.689931
Si Si4 0.839813 0.343954 0.191612
Si Si5 0.336244 0.949269 0.813451
Si Si6 0.329842 0.059009 0.937893
Si Si7 0.170889 0.218086 0.987371
O O1 0.266604 0.500000 0.500000
O O2 0.500000 0.562860 0.447039
O O3 0.266050 0.572188 0.379556
O O4 0.288798 0.677151 0.476924
O O5 0.500000 0.247430 0.094118
O O6 0.751504 0.317745 0.128049
O O7 0.679656 0.156081 0.169085
O O8 0.746075 0.183621 0.050168
O O9 0.250000 0.403627 0.750000
O O10 0.500000 0.400303 0.692504
O O11 0.353908 0.550387 0.698738
O O12 0.750000 0.302267 0.250000
O O13 0.000000 0.300426 0.189804
O O14 0.250000 0.974120 0.750000
O O15 0.500000 0.973801 0.798130
O O16 0.282807 0.006755 0.874038
O O17 0.500000 0.080864 0.939180
O O18 0.237521 0.152144 0.933747
O O19 0.287189 0.000000 0.000000
O O20 0.000000 0.204713 0.992914
#
# Coordination Sequence:
#
# PCOD8218677 Si02
#       7
#     8   8   8   8   8   8   8
#     4   9  18  35  57  82 115 152 189 236 292 343
#     4  11  21  35  53  77 112 152 188 228 288 355
#     4   9  18  34  55  76 106 148 191 236 289 348
#     4  10  19  31  49  76 107 144 188 233 285 345
#     4  10  22  38  58  82 111 150 188 231 283 341
#     4  10  20  41  63  80 112 155 191 227 286 350
#     4  11  22  35  58  89 112 142 194 246 289 339
#
# _framework density 19.514008
#
# number of rings (size 3 to 8) (size 9 to 14) (size 15 to 20)
#    0.000    2.000    1.429    2.571    0.000    6.000 
#    0.000    2.143    0.000    6.429    0.000    0.000 
#    0.000    0.000    0.000    0.000    0.000    0.000 
#
# Total GULP energy -694108.300225 kJ/mol
# GULP energy per Si atom -12394.791075 kJ/mol
# Density = 1.946959 g / cm^3
# Si number density = 19.514008 Si / 1000 Ang^3
#
#
#
# Elastic Constant Matrix: (Units=GPa)
#
#
# Indices 1 2 3 4 5 6 
#
# 1 96.3110 33.9948 49.7021 0.0000 0.0000 0.0000
# 2 33.9948 70.4800 29.9575 0.0000 0.0000 0.0000
# 3 49.7021 29.9575 143.7551 0.0000 0.0000 0.0000
# 4 0.0000 0.0000 0.0000 28.6193 0.0000 0.0000
# 5 0.0000 0.0000 0.0000 0.0000 33.7794 0.0000
# 6 0.0000 0.0000 0.0000 0.0000 0.0000 22.4725
#
#
#
# Elastic Compliance Matrix: (Units=1/GPa)
#
#
# Indices 1 2 3 4 5 6 
#
# 1 0.014199 -0.005225 -0.003820 0.000000 0.000000 0.000000
# 2 -0.005225 0.017490 -0.001838 0.000000 0.000000 0.000000
# 3 -0.003820 -0.001838 0.008660 0.000000 0.000000 0.000000
# 4 0.000000 0.000000 0.000000 0.034941 0.000000 0.000000
# 5 0.000000 0.000000 0.000000 0.000000 0.029604 0.000000
# 6 0.000000 0.000000 0.000000 0.000000 0.000000 0.044499
#
#
# Mechanical properties :
#
#
# Convention : Reuss Voigt Hill
#
# Bulk Modulus (GPa) = 53.81528 59.76164 56.78846
# Shear Modulus (GPa) = 28.19229 30.10036 29.14633
#
# Velocity S-wave (km/s) = 3.80507 3.93173 3.86892
# Velocity P-wave (km/s) = 6.85145 7.16260 7.00875
#
# Compressibility (1/GPa) = 0.01858208
#
# Stress axis : x y z
#
# Youngs Moduli (GPa) = 70.42916 57.17600 115.47064
#
# Poissons Ratio (x) = 0.29873 0.44113
# Poissons Ratio (y) = 0.36797 0.21228
# Poissons Ratio (z) = 0.26906 0.10511
#
# Static dielectric constant tensor:
#      x y z
#    x 3.571510 0.000000 0.000000 
#    y 0.000000 3.325000 0.000000 
#    z 0.000000 0.000000 3.715970 
# 
# 
# High freq. dielectric constant tensor:
#      x y z
#    x 1.747070 0.000000 0.000000 
#    y 0.000000 1.740880 0.000000 
#    z 0.000000 0.000000 1.764280 
# 
# From -- ./inp_files/30816.got.cif
#   From: 2010.03.12/outbox.cif.g09.slc.cpg/sg53_16_cif.got.tgz:30816.got - 2010.04.16 14:36:59.
