data_PCOD8218141
_publ_section_title
;
Structure prediction by ZEFSAII (Michael W. Deem and Ramdas Pophale) SiO2 
 PCOD8218141
Probable space group: P M N A
;
_chemical_formula_sum "Si O2"
_cell_formula_units_Z 40
_cell_length_a 9.511370
_cell_length_b 24.230619
_cell_length_c 8.764148
_cell_angle_alpha 90.000000
_cell_angle_beta 90.000000
_cell_angle_gamma 90.000000
_cell_volume 2019.841486
_symmetry_space_group_name_H-M "P M N A"
_symmetry_group_IT_number 53
_symmetry_cell_setting 'orthorhombic'
loop_
_space_group_symop_operation_xyz
x,y,z
1/2-x,-y,1/2+z
x,-y,-z
1/2-x,y,1/2-z
-x,-y,-z
1/2+x,y,1/2-z
-x,y,z
1/2+x,-y,1/2+z
loop_
_atom_site_type_symbol
_atom_site_label
_atom_site_fract_x
_atom_site_fract_y
_atom_site_fract_z
Si Si1 0.746574 0.367323 0.068711
Si Si2 0.664895 0.141312 0.906514
Si Si3 0.337659 0.249931 0.099232
Si Si4 0.000000 0.561520 0.935717
Si Si5 0.000000 0.441111 0.426427
Si Si6 0.837519 0.945793 0.899588
O O1 0.750000 0.363989 0.250000
O O2 0.727268 0.304037 0.014987
O O3 0.877586 0.399735 0.001404
O O4 0.626913 0.406637 0.007428
O O5 0.750000 0.140480 0.750000
O O6 0.500000 0.123549 0.884161
O O7 0.672154 0.202025 0.975982
O O8 0.747382 0.101390 0.019806
O O9 0.250000 0.233616 0.250000
O O10 0.500000 0.261235 0.147446
O O11 0.000000 0.554114 0.755083
O O12 0.000000 0.500000 0.000000
O O13 0.000000 0.500000 0.500000
O O14 0.750000 0.961482 0.750000
O O15 0.000000 0.926679 0.865222
O O16 0.842849 0.000000 0.000000
#
# Coordination Sequence:
#
# PCOD8218141 Si02
#       6
#     8   8   8   4   4   8
#     4   9  18  33  53  77 105 137 184 230 283 345
#     4  11  24  42  62  90 127 165 205 252 307 364
#     4  10  21  37  60  87 113 148 197 248 296 355
#     4  10  20  34  50  78 106 136 181 230 281 344
#     4  10  18  32  54  74 102 142 175 224 281 344
#     4  11  24  42  66  97 131 169 212 257 304 356
#
# _framework density 19.803535
#
# number of rings (size 3 to 8) (size 9 to 14) (size 15 to 20)
#    0.000    1.800    1.000    3.000    4.200    6.400 
#    0.000    2.000    0.000    0.000    0.000    0.000 
#    0.000    0.000    0.000    0.000    0.000    0.000 
#
# Total GULP energy -495641.453538 kJ/mol
# GULP energy per Si atom -12391.036338 kJ/mol
# Density = 1.975846 g / cm^3
# Si number density = 19.803535 Si / 1000 Ang^3
#
#
#
# Elastic Constant Matrix: (Units=GPa)
#
#
# Indices 1 2 3 4 5 6 
#
# 1 188.5007 61.3025 44.6974 0.0000 0.0000 0.0000
# 2 61.3025 117.0554 20.9319 0.0000 0.0000 0.0000
# 3 44.6974 20.9319 66.2048 0.0000 0.0000 0.0000
# 4 0.0000 0.0000 0.0000 33.0063 0.0000 0.0000
# 5 0.0000 0.0000 0.0000 0.0000 28.9087 0.0000
# 6 0.0000 0.0000 0.0000 0.0000 0.0000 37.5227
#
#
#
# Elastic Compliance Matrix: (Units=1/GPa)
#
#
# Indices 1 2 3 4 5 6 
#
# 1 0.007237 -0.003091 -0.003909 0.000000 0.000000 0.000000
# 2 -0.003091 0.010375 -0.001193 0.000000 0.000000 0.000000
# 3 -0.003909 -0.001193 0.018121 0.000000 0.000000 0.000000
# 4 0.000000 0.000000 0.000000 0.030297 0.000000 0.000000
# 5 0.000000 0.000000 0.000000 0.000000 0.034592 0.000000
# 6 0.000000 0.000000 0.000000 0.000000 0.000000 0.026651
#
#
# Mechanical properties :
#
#
# Convention : Reuss Voigt Hill
#
# Bulk Modulus (GPa) = 51.68833 69.51382 60.60108
# Shear Modulus (GPa) = 33.30932 36.20948 34.75940
#
# Velocity S-wave (km/s) = 4.10565 4.28066 4.19407
# Velocity P-wave (km/s) = 6.97369 7.72075 7.35671
#
# Compressibility (1/GPa) = 0.01934673
#
# Stress axis : x y z
#
# Youngs Moduli (GPa) = 138.17601 96.38347 55.18490
#
# Poissons Ratio (x) = 0.29794 0.21570
# Poissons Ratio (y) = 0.42713 0.06586
# Poissons Ratio (z) = 0.54009 0.11502
#
# Static dielectric constant tensor:
#      x y z
#    x 4.221380 0.000000 0.000000 
#    y 0.000000 3.833420 0.000000 
#    z 0.000000 0.000000 3.339690 
# 
# 
# High freq. dielectric constant tensor:
#      x y z
#    x 1.797350 0.000000 0.000000 
#    y 0.000000 1.792000 0.000000 
#    z 0.000000 0.000000 1.741750 
# 
# From -- ./inp_files/6350.got.cif
#   From: 2010.03.12/outbox.cif.g09.slc.cpg/sg53_4_cif.got.tgz:6350.got - 2010.04.16 14:36:59.
