data_PCOD8218508
_publ_section_title
;
Structure prediction by ZEFSAII (Michael W. Deem and Ramdas Pophale) SiO2 
 PCOD8218508
Probable space group: P M N A
;
_chemical_formula_sum "Si O2"
_cell_formula_units_Z 48
_cell_length_a 8.658005
_cell_length_b 14.076152
_cell_length_c 21.556585
_cell_angle_alpha 90.000000
_cell_angle_beta 90.000000
_cell_angle_gamma 90.000000
_cell_volume 2627.131072
_symmetry_space_group_name_H-M "P M N A"
_symmetry_group_IT_number 53
_symmetry_cell_setting 'orthorhombic'
loop_
_space_group_symop_operation_xyz
x,y,z
1/2-x,-y,1/2+z
x,-y,-z
1/2-x,y,1/2-z
-x,-y,-z
1/2+x,y,1/2-z
-x,y,z
1/2+x,-y,1/2+z
loop_
_atom_site_type_symbol
_atom_site_label
_atom_site_fract_x
_atom_site_fract_y
_atom_site_fract_z
Si Si1 0.177402 0.653738 0.400289
Si Si2 0.321940 0.207142 0.688468
Si Si3 0.327152 0.452873 0.067278
Si Si4 0.318332 0.005091 0.816398
Si Si5 0.322898 0.282944 0.477060
Si Si6 0.679985 0.066671 0.442909
O O1 0.302326 0.713766 0.363075
O O2 0.214518 0.542097 0.387955
O O3 0.201804 0.686749 0.470704
O O4 0.000000 0.676322 0.382062
O O5 0.250000 0.252543 0.750000
O O6 0.500000 0.179302 0.696577
O O7 0.227291 0.113494 0.671248
O O8 0.500000 0.416835 0.081082
O O9 0.211937 0.362468 0.076562
O O10 0.315074 0.500000 0.000000
O O11 0.250000 0.968750 0.750000
O O12 0.500000 0.993756 0.811742
O O13 0.260488 0.949135 0.876788
O O14 0.500000 0.291440 0.498777
O O15 0.285915 0.176259 0.457117
O O16 0.500000 0.044827 0.434272
O O17 0.742559 0.000000 0.500000
#
# Coordination Sequence:
#
# PCOD8218508 Si02
#       6
#     8   8   8   8   8   8
#     4  10  19  32  50  73 102 134 168 206 252 304
#     4  11  21  34  52  74 101 131 165 206 252 303
#     4   8  16  30  47  68  98 133 164 200 246 300
#     4  11  22  37  57  78 104 140 179 216 258 314
#     4  10  19  30  49  76 104 135 170 211 256 303
#     4  10  21  36  53  77 110 142 175 220 268 309
#
# _framework density 18.270882
#
# number of rings (size 3 to 8) (size 9 to 14) (size 15 to 20)
#    0.000    2.000    0.000    7.000    0.000    6.667 
#    0.000    0.000    0.000    1.000    0.000    7.000 
#    0.000    0.000    0.000    0.000    0.000    0.000 
#
# Total GULP energy -594776.384053 kJ/mol
# GULP energy per Si atom -12391.174668 kJ/mol
# Density = 1.822930 g / cm^3
# Si number density = 18.270882 Si / 1000 Ang^3
#
#
#
# Elastic Constant Matrix: (Units=GPa)
#
#
# Indices 1 2 3 4 5 6 
#
# 1 89.5072 48.8437 38.3351 0.0000 0.0000 0.0000
# 2 48.8437 118.5876 48.8561 0.0000 0.0000 0.0000
# 3 38.3351 48.8561 76.6102 0.0000 0.0000 0.0000
# 4 0.0000 0.0000 0.0000 19.7116 0.0000 0.0000
# 5 0.0000 0.0000 0.0000 0.0000 27.5633 0.0000
# 6 0.0000 0.0000 0.0000 0.0000 0.0000 30.7480
#
#
#
# Elastic Compliance Matrix: (Units=1/GPa)
#
#
# Indices 1 2 3 4 5 6 
#
# 1 0.015744 -0.004393 -0.005076 0.000000 0.000000 0.000000
# 2 -0.004393 0.012663 -0.005877 0.000000 0.000000 0.000000
# 3 -0.005076 -0.005877 0.019342 0.000000 0.000000 0.000000
# 4 0.000000 0.000000 0.000000 0.050732 0.000000 0.000000
# 5 0.000000 0.000000 0.000000 0.000000 0.036280 0.000000
# 6 0.000000 0.000000 0.000000 0.000000 0.000000 0.032522
#
#
# Mechanical properties :
#
#
# Convention : Reuss Voigt Hill
#
# Bulk Modulus (GPa) = 58.63518 61.86387 60.24953
# Shear Modulus (GPa) = 24.55049 25.51592 25.03321
#
# Velocity S-wave (km/s) = 3.66962 3.74108 3.70552
# Velocity P-wave (km/s) = 7.07931 7.25215 7.16625
#
# Compressibility (1/GPa) = 0.01705461
#
# Stress axis : x y z
#
# Youngs Moduli (GPa) = 63.51704 78.96754 51.70227
#
# Poissons Ratio (x) = 0.34691 0.26247
# Poissons Ratio (y) = 0.27904 0.30388
# Poissons Ratio (z) = 0.32244 0.46413
#
# Static dielectric constant tensor:
#      x y z
#    x 3.352880 0.000000 0.000000 
#    y 0.000000 3.630290 0.000000 
#    z 0.000000 0.000000 3.210270 
# 
# 
# High freq. dielectric constant tensor:
#      x y z
#    x 1.714640 0.000000 0.000000 
#    y 0.000000 1.711250 0.000000 
#    z 0.000000 0.000000 1.677120 
# 
# From -- ./inp_files/33846.got.cif
#   From: 2010.03.12/outbox.cif.g09.slc.cpg/sg53_17_cif.got.tgz:33846.got - 2010.04.16 14:36:59.
