data_PCOD8218578
_publ_section_title
;
Structure prediction by ZEFSAII (Michael W. Deem and Ramdas Pophale) SiO2 
 PCOD8218578
Probable space group: P M N A
;
_chemical_formula_sum "Si O2"
_cell_formula_units_Z 48
_cell_length_a 9.397762
_cell_length_b 18.385770
_cell_length_c 16.342192
_cell_angle_alpha 90.000000
_cell_angle_beta 90.000000
_cell_angle_gamma 90.000000
_cell_volume 2823.687126
_symmetry_space_group_name_H-M "P M N A"
_symmetry_group_IT_number 53
_symmetry_cell_setting 'orthorhombic'
loop_
_space_group_symop_operation_xyz
x,y,z
1/2-x,-y,1/2+z
x,-y,-z
1/2-x,y,1/2-z
-x,-y,-z
1/2+x,y,1/2-z
-x,y,z
1/2+x,-y,1/2+z
loop_
_atom_site_type_symbol
_atom_site_label
_atom_site_fract_x
_atom_site_fract_y
_atom_site_fract_z
Si Si1 0.332414 0.831124 0.329338
Si Si2 0.669269 0.580565 0.988419
Si Si3 0.834409 0.081828 0.992609
Si Si4 0.831823 0.665886 0.669079
Si Si5 0.343470 0.196082 0.075324
Si Si6 0.341328 0.712643 0.089453
O O1 0.250000 0.861870 0.250000
O O2 0.500000 0.824581 0.312053
O O3 0.299412 0.886975 0.402787
O O4 0.269898 0.750964 0.349467
O O5 0.500000 0.578699 0.985823
O O6 0.724915 0.613082 0.902785
O O7 0.734111 0.500000 0.000000
O O8 0.714420 0.631748 0.065461
O O9 0.000000 0.084722 0.011279
O O10 0.762723 0.128797 0.064535
O O11 0.775568 0.000000 0.000000
O O12 0.750000 0.642065 0.750000
O O13 0.793090 0.749828 0.647485
O O14 0.000000 0.657255 0.681999
O O15 0.500000 0.164556 0.095011
O O16 0.350964 0.243014 0.993757
O O17 0.500000 0.710163 0.129520
#
# Coordination Sequence:
#
# PCOD8218578 Si02
#       6
#     8   8   8   8   8   8
#     4  10  19  31  48  68  91 119 151 188 229 271
#     4   8  14  27  48  70  92 122 156 187 225 274
#     4   9  18  32  49  69  92 118 148 184 228 273
#     4   9  17  29  46  68  92 119 153 191 229 269
#     4   8  15  28  45  65  87 114 150 184 216 262
#     4   8  14  27  47  67  87 114 150 187 219 260
#
# _framework density 16.999048999999999
#
# number of rings (size 3 to 8) (size 9 to 14) (size 15 to 20)
#    0.000    3.333    0.000    2.500    0.000    1.667 
#    0.000    4.167    0.000    8.000    0.000    0.000 
#    0.000    0.000    0.000    0.000    0.000    0.000 
#
# Total GULP energy -594887.848152 kJ/mol
# GULP energy per Si atom -12393.496836 kJ/mol
# Density = 1.696036 g / cm^3
# Si number density = 16.999049 Si / 1000 Ang^3
#
#
#
# Elastic Constant Matrix: (Units=GPa)
#
#
# Indices 1 2 3 4 5 6 
#
# 1 59.3853 42.0924 35.9611 0.0000 0.0000 0.0000
# 2 42.0924 130.2339 39.4746 0.0000 0.0000 0.0000
# 3 35.9611 39.4746 72.9568 0.0000 0.0000 0.0000
# 4 0.0000 0.0000 0.0000 17.7223 0.0000 0.0000
# 5 0.0000 0.0000 0.0000 0.0000 25.7437 0.0000
# 6 0.0000 0.0000 0.0000 0.0000 0.0000 17.8695
#
#
#
# Elastic Compliance Matrix: (Units=1/GPa)
#
#
# Indices 1 2 3 4 5 6 
#
# 1 0.027061 -0.005626 -0.010294 0.000000 0.000000 0.000000
# 2 -0.005626 0.010354 -0.002829 0.000000 0.000000 0.000000
# 3 -0.010294 -0.002829 0.020312 0.000000 0.000000 0.000000
# 4 0.000000 0.000000 0.000000 0.056426 0.000000 0.000000
# 5 0.000000 0.000000 0.000000 0.000000 0.038845 0.000000
# 6 0.000000 0.000000 0.000000 0.000000 0.000000 0.055961
#
#
# Mechanical properties :
#
#
# Convention : Reuss Voigt Hill
#
# Bulk Modulus (GPa) = 49.43768 55.29246 52.36507
# Shear Modulus (GPa) = 19.74718 21.93696 20.84207
#
# Velocity S-wave (km/s) = 3.41202 3.59622 3.50533
# Velocity P-wave (km/s) = 6.68343 7.05983 6.87421
#
# Compressibility (1/GPa) = 0.02022749
#
# Stress axis : x y z
#
# Youngs Moduli (GPa) = 36.95397 96.57713 49.23221
#
# Poissons Ratio (x) = 0.54333 0.50682
# Poissons Ratio (y) = 0.20790 0.13930
# Poissons Ratio (z) = 0.38042 0.27326
#
# Static dielectric constant tensor:
#      x y z
#    x 3.063050 0.000000 0.000000 
#    y 0.000000 3.466980 0.000000 
#    z 0.000000 0.000000 3.061440 
# 
# 
# High freq. dielectric constant tensor:
#      x y z
#    x 1.638030 0.000000 0.000000 
#    y 0.000000 1.647760 0.000000 
#    z 0.000000 0.000000 1.637290 
# 
# From -- ./inp_files/26407.got.cif
#   From: 2010.03.12/outbox.cif.g09.slc.cpg/sg53_14_cif.got.tgz:26407.got - 2010.04.16 14:36:59.
