data_PCOD8218073
_publ_section_title
;
Structure prediction by ZEFSAII (Michael W. Deem and Ramdas Pophale) SiO2 
 PCOD8218073
Probable space group: P M N A
;
_chemical_formula_sum "Si O2"
_cell_formula_units_Z 48
_cell_length_a 8.604718
_cell_length_b 15.407929
_cell_length_c 17.764779
_cell_angle_alpha 90.000000
_cell_angle_beta 90.000000
_cell_angle_gamma 90.000000
_cell_volume 2355.270104
_symmetry_space_group_name_H-M "P M N A"
_symmetry_group_IT_number 53
_symmetry_cell_setting 'orthorhombic'
loop_
_space_group_symop_operation_xyz
x,y,z
1/2-x,-y,1/2+z
x,-y,-z
1/2-x,y,1/2-z
-x,-y,-z
1/2+x,y,1/2-z
-x,y,z
1/2+x,-y,1/2+z
loop_
_atom_site_type_symbol
_atom_site_label
_atom_site_fract_x
_atom_site_fract_y
_atom_site_fract_z
Si Si1 0.819385 0.147831 0.064615
Si Si2 0.817405 0.660715 0.167187
Si Si3 0.817996 0.011406 0.828395
Si Si4 0.819116 0.825525 0.405821
Si Si5 0.682988 0.691060 0.667326
Si Si6 0.816012 0.484553 0.333623
O O1 0.768610 0.229087 0.115107
O O2 0.000000 0.153271 0.042103
O O3 0.782573 0.059987 0.108786
O O4 0.716325 0.145079 0.990322
O O5 0.750000 0.678625 0.250000
O O6 0.776031 0.738724 0.111815
O O7 0.747712 0.572995 0.128886
O O8 0.000000 0.650091 0.174584
O O9 0.750000 0.976227 0.750000
O O10 0.731618 0.100071 0.848353
O O11 0.000000 0.029489 0.820946
O O12 0.000000 0.806708 0.395163
O O13 0.750000 0.708016 0.750000
O O14 0.500000 0.681043 0.674660
O O15 0.752882 0.603891 0.628208
O O16 0.750000 0.483689 0.250000
O O17 0.000000 0.484889 0.334811
#
# Coordination Sequence:
#
# PCOD8218073 Si02
#       6
#     8   8   8   8   8   8
#     4  10  23  41  60  84 117 155 191 233 285 339
#     4  11  21  37  60  85 115 150 192 239 287 339
#     4  11  23  41  64  89 117 149 190 236 283 336
#     4  12  25  40  59  85 117 152 191 235 286 343
#     4  10  19  34  57  85 116 151 193 237 284 336
#     4  10  18  31  53  83 116 149 190 237 285 334
#
# _framework density 20.379829999999998
#
# number of rings (size 3 to 8) (size 9 to 14) (size 15 to 20)
#    0.000    1.333    0.000    9.000    0.000    4.667 
#    0.000    0.833    0.000    5.000    0.000    0.000 
#    0.000    0.000    0.000    0.000    0.000    0.000 
#
# Total GULP energy -595367.091810 kJ/mol
# GULP energy per Si atom -12403.481079 kJ/mol
# Density = 2.033344 g / cm^3
# Si number density = 20.379830 Si / 1000 Ang^3
#
#
#
# Elastic Constant Matrix: (Units=GPa)
#
#
# Indices 1 2 3 4 5 6 
#
# 1 122.4815 36.0782 25.6970 0.0000 0.0000 0.0000
# 2 36.0782 117.1340 11.1413 0.0000 0.0000 0.0000
# 3 25.6970 11.1413 62.0225 0.0000 0.0000 0.0000
# 4 0.0000 0.0000 0.0000 31.6221 0.0000 0.0000
# 5 0.0000 0.0000 0.0000 0.0000 31.0190 0.0000
# 6 0.0000 0.0000 0.0000 0.0000 0.0000 39.8962
#
#
#
# Elastic Compliance Matrix: (Units=1/GPa)
#
#
# Indices 1 2 3 4 5 6 
#
# 1 0.009686 -0.002647 -0.003538 0.000000 0.000000 0.000000
# 2 -0.002647 0.009409 -0.000593 0.000000 0.000000 0.000000
# 3 -0.003538 -0.000593 0.017696 0.000000 0.000000 0.000000
# 4 0.000000 0.000000 0.000000 0.031623 0.000000 0.000000
# 5 0.000000 0.000000 0.000000 0.000000 0.032238 0.000000
# 6 0.000000 0.000000 0.000000 0.000000 0.000000 0.025065
#
#
# Mechanical properties :
#
#
# Convention : Reuss Voigt Hill
#
# Bulk Modulus (GPa) = 43.03949 49.71901 46.37925
# Shear Modulus (GPa) = 34.00919 35.75555 34.88237
#
# Velocity S-wave (km/s) = 4.08949 4.19317 4.14165
# Velocity P-wave (km/s) = 6.59265 6.92046 6.75854
#
# Compressibility (1/GPa) = 0.02323448
#
# Stress axis : x y z
#
# Youngs Moduli (GPa) = 103.23713 106.28146 56.51142
#
# Poissons Ratio (x) = 0.28133 0.19992
# Poissons Ratio (y) = 0.27327 0.03354
# Poissons Ratio (z) = 0.36523 0.06307
#
# Static dielectric constant tensor:
#      x y z
#    x 3.748850 0.000000 0.000000 
#    y 0.000000 4.334300 0.000000 
#    z 0.000000 0.000000 3.456520 
# 
# 
# High freq. dielectric constant tensor:
#      x y z
#    x 1.809490 0.000000 0.000000 
#    y 0.000000 1.821280 0.000000 
#    z 0.000000 0.000000 1.770660 
# 
# From -- ./inp_files/26229.got.cif
#   From: 2010.03.12/outbox.cif.g09.slc.cpg/sg53_14_cif.got.tgz:26229.got - 2010.04.16 14:36:59.
