data_PCOD8218357
_publ_section_title
;
Structure prediction by ZEFSAII (Michael W. Deem and Ramdas Pophale) SiO2 
 PCOD8218357
Probable space group: P M N A
;
_chemical_formula_sum "Si O2"
_cell_formula_units_Z 64
_cell_length_a 9.115435
_cell_length_b 16.739593
_cell_length_c 23.163914
_cell_angle_alpha 90.000000
_cell_angle_beta 90.000000
_cell_angle_gamma 90.000000
_cell_volume 3534.550874
_symmetry_space_group_name_H-M "P M N A"
_symmetry_group_IT_number 53
_symmetry_cell_setting 'orthorhombic'
loop_
_space_group_symop_operation_xyz
x,y,z
1/2-x,-y,1/2+z
x,-y,-z
1/2-x,y,1/2-z
-x,-y,-z
1/2+x,y,1/2-z
-x,y,z
1/2+x,-y,1/2+z
loop_
_atom_site_type_symbol
_atom_site_label
_atom_site_fract_x
_atom_site_fract_y
_atom_site_fract_z
Si Si1 0.835867 0.180952 0.604578
Si Si2 0.172503 0.459082 0.308143
Si Si3 0.830982 0.093338 0.990924
Si Si4 0.673562 0.213979 0.070715
Si Si5 0.837900 0.333375 0.523405
Si Si6 0.334555 0.574109 0.389971
Si Si7 0.833799 0.274159 0.807562
Si Si8 0.829740 0.274389 0.306594
O O1 0.750861 0.113715 0.568541
O O2 0.844877 0.261254 0.568190
O O3 0.747286 0.198521 0.663318
O O4 0.000000 0.150468 0.619422
O O5 0.250000 0.491305 0.250000
O O6 0.235003 0.504337 0.363735
O O7 0.210905 0.366520 0.317089
O O8 0.000000 0.475591 0.302783
O O9 0.759711 0.138522 0.045408
O O10 0.000000 0.119792 0.985905
O O11 0.813892 0.000000 0.000000
O O12 0.500000 0.199233 0.062670
O O13 0.718862 0.223889 0.137458
O O14 0.717372 0.296134 0.037299
O O15 0.728679 0.401572 0.546998
O O16 0.000000 0.371295 0.516365
O O17 0.500000 0.542807 0.398103
O O18 0.330007 0.649937 0.348704
O O19 0.750000 0.298962 0.750000
O O20 0.000000 0.249065 0.793246
O O21 0.750000 0.239893 0.250000
O O22 0.000000 0.264563 0.294999
#
# Coordination Sequence:
#
# PCOD8218357 Si02
#       8
#     8   8   8   8   8   8   8   8
#     4   9  17  30  48  69  95 127 162 198 235 279
#     4  10  19  31  47  66  92 126 165 211 258 299
#     4  10  20  33  52  80 108 129 152 188 235 286
#     4   9  18  34  55  77 101 129 164 202 240 292
#     4   8  15  28  46  67  92 124 160 199 243 289
#     4  10  19  29  43  65  94 127 165 209 252 294
#     4  10  19  29  43  65  94 129 168 206 244 288
#     4   9  19  35  54  76  99 127 165 207 250 294
#
# _framework density 18.106967999999998
#
# number of rings (size 3 to 8) (size 9 to 14) (size 15 to 20)
#    0.000    2.625    0.000    3.000    0.000    7.500 
#    0.000    0.625    0.000    4.500    0.000    1.750 
#    0.000    0.000    0.000    0.000    0.000    0.000 
#
# Total GULP energy -793549.467053 kJ/mol
# GULP energy per Si atom -12399.210423 kJ/mol
# Density = 1.806576 g / cm^3
# Si number density = 18.106968 Si / 1000 Ang^3
#
#
#
# Elastic Constant Matrix: (Units=GPa)
#
#
# Indices 1 2 3 4 5 6 
#
# 1 116.5857 35.1596 43.5612 0.0000 0.0000 0.0000
# 2 35.1596 45.4672 24.8642 0.0000 0.0000 0.0000
# 3 43.5612 24.8642 87.8262 0.0000 0.0000 0.0000
# 4 0.0000 0.0000 0.0000 19.7454 0.0000 0.0000
# 5 0.0000 0.0000 0.0000 0.0000 30.9679 0.0000
# 6 0.0000 0.0000 0.0000 0.0000 0.0000 21.4563
#
#
#
# Elastic Compliance Matrix: (Units=1/GPa)
#
#
# Indices 1 2 3 4 5 6 
#
# 1 0.012282 -0.007296 -0.004026 0.000000 0.000000 0.000000
# 2 -0.007296 0.030357 -0.004975 0.000000 0.000000 0.000000
# 3 -0.004026 -0.004975 0.014792 0.000000 0.000000 0.000000
# 4 0.000000 0.000000 0.000000 0.050645 0.000000 0.000000
# 5 0.000000 0.000000 0.000000 0.000000 0.032291 0.000000
# 6 0.000000 0.000000 0.000000 0.000000 0.000000 0.046606
#
#
# Mechanical properties :
#
#
# Convention : Reuss Voigt Hill
#
# Bulk Modulus (GPa) = 40.26554 50.78324 45.52439
# Shear Modulus (GPa) = 21.94460 24.18686 23.06573
#
# Velocity S-wave (km/s) = 3.48507 3.65879 3.57299
# Velocity P-wave (km/s) = 6.20324 6.77910 6.49755
#
# Compressibility (1/GPa) = 0.02483513
#
# Stress axis : x y z
#
# Youngs Moduli (GPa) = 81.41976 32.94182 67.60526
#
# Poissons Ratio (x) = 0.24034 0.27220
# Poissons Ratio (y) = 0.59402 0.33637
# Poissons Ratio (z) = 0.32782 0.16390
#
# Static dielectric constant tensor:
#      x y z
#    x 3.570510 0.000000 0.000000 
#    y 0.000000 2.976220 0.000000 
#    z 0.000000 0.000000 3.489400 
# 
# 
# High freq. dielectric constant tensor:
#      x y z
#    x 1.712520 0.000000 0.000000 
#    y 0.000000 1.661530 0.000000 
#    z 0.000000 0.000000 1.697050 
# 
# From -- ./inp_files/34434.got.cif
#   From: 2010.03.12/outbox.cif.g09.slc.cpg/sg53_18_cif.got.tgz:34434.got - 2010.04.16 14:36:59.
