data_PCOD8218575
_publ_section_title
;
Structure prediction by ZEFSAII (Michael W. Deem and Ramdas Pophale) SiO2 
 PCOD8218575
Probable space group: P M N A
;
_chemical_formula_sum "Si O2"
_cell_formula_units_Z 48
_cell_length_a 8.972482
_cell_length_b 15.098224
_cell_length_c 20.337527
_cell_angle_alpha 90.000000
_cell_angle_beta 90.000000
_cell_angle_gamma 90.000000
_cell_volume 2755.095152
_symmetry_space_group_name_H-M "P M N A"
_symmetry_group_IT_number 53
_symmetry_cell_setting 'orthorhombic'
loop_
_space_group_symop_operation_xyz
x,y,z
1/2-x,-y,1/2+z
x,-y,-z
1/2-x,y,1/2-z
-x,-y,-z
1/2+x,y,1/2-z
-x,y,z
1/2+x,-y,1/2+z
loop_
_atom_site_type_symbol
_atom_site_label
_atom_site_fract_x
_atom_site_fract_y
_atom_site_fract_z
Si Si1 0.169236 0.763733 0.507162
Si Si2 0.174358 0.986140 0.812589
Si Si3 0.829026 0.195615 0.343453
Si Si4 0.824361 0.623961 0.814137
Si Si5 0.673311 0.925481 0.449966
Si Si6 0.324451 0.414206 0.460118
O O1 0.181511 0.807323 0.578321
O O2 0.245182 0.831869 0.457227
O O3 0.249640 0.669340 0.504981
O O4 0.000000 0.748621 0.485228
O O5 0.250000 0.035444 0.750000
O O6 0.256242 0.892650 0.816739
O O7 0.000000 0.970697 0.801770
O O8 0.205357 0.044900 0.876087
O O9 0.733626 0.275948 0.315002
O O10 0.000000 0.204506 0.319941
O O11 0.750000 0.576296 0.750000
O O12 0.777612 0.576712 0.882995
O O13 0.000000 0.622422 0.804816
O O14 0.500000 0.910561 0.464882
O O15 0.736481 0.000000 0.500000
O O16 0.269982 0.500000 0.500000
O O17 0.500000 0.400580 0.465574
#
# Coordination Sequence:
#
# PCOD8218575 Si02
#       6
#     8   8   8   8   8   8
#     4  10  20  32  52  80 106 133 168 216 263 303
#     4  11  22  34  49  70 100 137 175 217 260 302
#     4  10  19  31  47  71 103 136 169 204 251 306
#     4  10  19  31  49  73 103 134 165 204 252 308
#     4  10  20  35  54  74 100 137 179 214 250 304
#     4   9  19  36  57  78 102 135 174 213 256 310
#
# _framework density 17.422266
#
# number of rings (size 3 to 8) (size 9 to 14) (size 15 to 20)
#    0.000    2.000    1.667    2.500    0.000    4.000 
#    0.000    0.000    0.000    1.000    0.000    2.333 
#    0.000    0.000    0.000    0.000    0.000    0.000 
#
# Total GULP energy -595190.228821 kJ/mol
# GULP energy per Si atom -12399.796434 kJ/mol
# Density = 1.738261 g / cm^3
# Si number density = 17.422266 Si / 1000 Ang^3
#
#
#
# Elastic Constant Matrix: (Units=GPa)
#
#
# Indices 1 2 3 4 5 6 
#
# 1 68.6474 45.1158 48.1429 0.0000 0.0000 0.0000
# 2 45.1158 99.4182 62.0967 0.0000 0.0000 0.0000
# 3 48.1429 62.0967 106.6051 0.0000 0.0000 0.0000
# 4 0.0000 0.0000 0.0000 19.7391 0.0000 0.0000
# 5 0.0000 0.0000 0.0000 0.0000 30.2751 0.0000
# 6 0.0000 0.0000 0.0000 0.0000 0.0000 18.2957
#
#
#
# Elastic Compliance Matrix: (Units=1/GPa)
#
#
# Indices 1 2 3 4 5 6 
#
# 1 0.023642 -0.006382 -0.006959 0.000000 0.000000 0.000000
# 2 -0.006382 0.017534 -0.007331 0.000000 0.000000 0.000000
# 3 -0.006959 -0.007331 0.016794 0.000000 0.000000 0.000000
# 4 0.000000 0.000000 0.000000 0.050661 0.000000 0.000000
# 5 0.000000 0.000000 0.000000 0.000000 0.033030 0.000000
# 6 0.000000 0.000000 0.000000 0.000000 0.000000 0.054658
#
#
# Mechanical properties :
#
#
# Convention : Reuss Voigt Hill
#
# Bulk Modulus (GPa) = 60.15217 65.04240 62.59729
# Shear Modulus (GPa) = 20.55881 21.61634 21.08757
#
# Velocity S-wave (km/s) = 3.43888 3.52622 3.48283
# Velocity P-wave (km/s) = 7.09710 7.34799 7.22364
#
# Compressibility (1/GPa) = 0.01662450
#
# Stress axis : x y z
#
# Youngs Moduli (GPa) = 42.29746 57.03313 59.54638
#
# Poissons Ratio (x) = 0.36398 0.41441
# Poissons Ratio (y) = 0.26994 0.43654
# Poissons Ratio (z) = 0.29436 0.41812
#
# Static dielectric constant tensor:
#      x y z
#    x 3.327690 0.000000 0.000000 
#    y 0.000000 2.961240 0.000000 
#    z 0.000000 0.000000 3.625420 
# 
# 
# High freq. dielectric constant tensor:
#      x y z
#    x 1.683370 0.000000 0.000000 
#    y 0.000000 1.638620 0.000000 
#    z 0.000000 0.000000 1.679530 
# 
# From -- ./inp_files/30469.got.cif
#   From: 2010.03.12/outbox.cif.g09.slc.cpg/sg53_16_cif.got.tgz:30469.got - 2010.04.16 14:36:59.
