data_PCOD8218039
_publ_section_title
;
Structure prediction by ZEFSAII (Michael W. Deem and Ramdas Pophale) SiO2 
 PCOD8218039
Probable space group: P M N A
;
_chemical_formula_sum "Si O2"
_cell_formula_units_Z 64
_cell_length_a 9.124031
_cell_length_b 20.357654
_cell_length_c 19.465050
_cell_angle_alpha 90.000000
_cell_angle_beta 90.000000
_cell_angle_gamma 90.000000
_cell_volume 3615.513642
_symmetry_space_group_name_H-M "P M N A"
_symmetry_group_IT_number 53
_symmetry_cell_setting 'orthorhombic'
loop_
_space_group_symop_operation_xyz
x,y,z
1/2-x,-y,1/2+z
x,-y,-z
1/2-x,y,1/2-z
-x,-y,-z
1/2+x,y,1/2-z
-x,y,z
1/2+x,-y,1/2+z
loop_
_atom_site_type_symbol
_atom_site_label
_atom_site_fract_x
_atom_site_fract_y
_atom_site_fract_z
Si Si1 0.169838 0.156160 0.446210
Si Si2 0.827592 0.983695 0.572909
Si Si3 0.826327 0.765548 0.179928
Si Si4 0.326785 0.402009 0.323032
Si Si5 0.174126 0.485215 0.924238
Si Si6 0.327329 0.711624 0.574400
Si Si7 0.669285 0.123690 0.894600
Si Si8 0.326275 0.660216 0.429573
O O1 0.222304 0.089898 0.404257
O O2 0.259474 0.216589 0.415302
O O3 0.201814 0.144173 0.526874
O O4 0.000000 0.171591 0.433854
O O5 0.000000 0.977965 0.560731
O O6 0.752522 0.000000 0.500000
O O7 0.793184 0.046402 0.621264
O O8 0.750000 0.744928 0.250000
O O9 0.774395 0.837229 0.156419
O O10 0.768562 0.713147 0.124517
O O11 0.000000 0.765031 0.188765
O O12 0.250000 0.403144 0.250000
O O13 0.500000 0.407649 0.312312
O O14 0.265900 0.463163 0.368206
O O15 0.284889 0.334462 0.361607
O O16 0.227056 0.411724 0.905124
O O17 0.000000 0.491591 0.926280
O O18 0.237223 0.500000 0.000000
O O19 0.500000 0.720287 0.568544
O O20 0.264275 0.678309 0.504875
O O21 0.500000 0.138241 0.876665
O O22 0.500000 0.660840 0.433290
#
# Coordination Sequence:
#
# PCOD8218039 Si02
#       8
#     8   8   8   8   8   8   8   8
#     4   9  16  27  48  77 103 130 163 206 255 301
#     4   7  12  24  43  69  99 127 157 195 243 298
#     4  11  22  34  48  69 101 137 173 214 258 307
#     4  10  21  35  55  79 105 135 169 210 254 304
#     4   9  15  29  54  79  99 129 173 210 244 294
#     4  10  18  31  51  76 103 134 170 211 253 298
#     4   9  16  29  49  71  98 131 168 207 251 304
#     4   9  17  30  50  74  99 128 169 214 253 296
#
# _framework density 17.701495999999999
#
# number of rings (size 3 to 8) (size 9 to 14) (size 15 to 20)
#    0.000    2.750    2.500    1.875    0.000    1.000 
#    0.000    0.625    0.000    4.875    0.000    1.750 
#    0.000    0.000    0.000    0.000    0.000    0.000 
#
# Total GULP energy -793028.085342 kJ/mol
# GULP energy per Si atom -12391.063833 kJ/mol
# Density = 1.766121 g / cm^3
# Si number density = 17.701496 Si / 1000 Ang^3
#
#
#
# Elastic Constant Matrix: (Units=GPa)
#
#
# Indices 1 2 3 4 5 6 
#
# 1 34.0957 34.5816 32.2534 0.0000 0.0000 0.0000
# 2 34.5816 172.8862 65.7951 0.0000 0.0000 0.0000
# 3 32.2534 65.7951 110.4706 0.0000 0.0000 0.0000
# 4 0.0000 0.0000 0.0000 19.1979 0.0000 0.0000
# 5 0.0000 0.0000 0.0000 0.0000 22.2403 0.0000
# 6 0.0000 0.0000 0.0000 0.0000 0.0000 22.0875
#
#
#
# Elastic Compliance Matrix: (Units=1/GPa)
#
#
# Indices 1 2 3 4 5 6 
#
# 1 0.043646 -0.005018 -0.009754 0.000000 0.000000 0.000000
# 2 -0.005018 0.008056 -0.003333 0.000000 0.000000 0.000000
# 3 -0.009754 -0.003333 0.013885 0.000000 0.000000 0.000000
# 4 0.000000 0.000000 0.000000 0.052089 0.000000 0.000000
# 5 0.000000 0.000000 0.000000 0.000000 0.044963 0.000000
# 6 0.000000 0.000000 0.000000 0.000000 0.000000 0.045274
#
#
# Mechanical properties :
#
#
# Convention : Reuss Voigt Hill
#
# Bulk Modulus (GPa) = 34.04074 64.74585 49.39329
# Shear Modulus (GPa) = 19.69136 25.02663 22.35900
#
# Velocity S-wave (km/s) = 3.33890 3.76415 3.55789
# Velocity P-wave (km/s) = 5.84265 7.45303 6.69642
#
# Compressibility (1/GPa) = 0.02937656
#
# Stress axis : x y z
#
# Youngs Moduli (GPa) = 22.91148 124.12455 72.01850
#
# Poissons Ratio (x) = 0.62288 0.70249
# Poissons Ratio (y) = 0.11497 0.24005
# Poissons Ratio (z) = 0.22349 0.41373
#
# Static dielectric constant tensor:
#      x y z
#    x 2.856090 0.000000 0.000000 
#    y 0.000000 3.696050 0.000000 
#    z 0.000000 0.000000 3.066130 
# 
# 
# High freq. dielectric constant tensor:
#      x y z
#    x 1.642510 0.000000 0.000000 
#    y 0.000000 1.707540 0.000000 
#    z 0.000000 0.000000 1.653920 
# 
# From -- ./inp_files/31345.got.cif
#   From: 2010.03.12/outbox.cif.g09.slc.cpg/sg53_16_cif.got.tgz:31345.got - 2010.04.16 14:36:59.
