data_PCOD8218555
_publ_section_title
;
Structure prediction by ZEFSAII (Michael W. Deem and Ramdas Pophale) SiO2 
 PCOD8218555
Probable space group: P M N A
;
_chemical_formula_sum "Si O2"
_cell_formula_units_Z 64
_cell_length_a 9.134542
_cell_length_b 16.288802
_cell_length_c 24.211657
_cell_angle_alpha 90.000000
_cell_angle_beta 90.000000
_cell_angle_gamma 90.000000
_cell_volume 3602.470507
_symmetry_space_group_name_H-M "P M N A"
_symmetry_group_IT_number 53
_symmetry_cell_setting 'orthorhombic'
loop_
_space_group_symop_operation_xyz
x,y,z
1/2-x,-y,1/2+z
x,-y,-z
1/2-x,y,1/2-z
-x,-y,-z
1/2+x,y,1/2-z
-x,y,z
1/2+x,-y,1/2+z
loop_
_atom_site_type_symbol
_atom_site_label
_atom_site_fract_x
_atom_site_fract_y
_atom_site_fract_z
Si Si1 0.171048 0.802761 0.087914
Si Si2 0.326522 0.483438 0.693575
Si Si3 0.835798 0.229791 0.195391
Si Si4 0.162158 0.618088 0.885851
Si Si5 0.832584 0.863461 0.607881
Si Si6 0.827018 0.743148 0.970318
Si Si7 0.171965 0.295228 0.805829
Si Si8 0.333505 0.033760 0.942524
O O1 0.230703 0.758477 0.142929
O O2 0.245026 0.890366 0.081401
O O3 0.000000 0.819031 0.093029
O O4 0.203775 0.743035 0.035716
O O5 0.250000 0.512197 0.750000
O O6 0.500000 0.498068 0.700294
O O7 0.261540 0.538493 0.642480
O O8 0.287587 0.389354 0.680816
O O9 0.750000 0.252889 0.250000
O O10 0.838825 0.310439 0.158832
O O11 0.751706 0.157007 0.164080
O O12 0.000000 0.200120 0.209206
O O13 0.232506 0.657671 0.941955
O O14 0.000000 0.589039 0.901744
O O15 0.756512 0.820888 0.555198
O O16 0.000000 0.832707 0.611143
O O17 0.825085 0.961371 0.602153
O O18 0.000000 0.752683 0.956721
O O19 0.250000 0.264870 0.750000
O O20 0.000000 0.284617 0.797211
O O21 0.500000 0.062713 0.953109
O O22 0.266206 0.000000 0.000000
#
# Coordination Sequence:
#
# PCOD8218555 Si02
#       8
#     8   8   8   8   8   8   8   8
#     4  10  20  33  52  76 101 129 165 205 249 301
#     4   9  16  29  49  70  96 128 166 209 247 286
#     4  10  19  31  47  69 100 134 169 202 242 294
#     4   8  15  27  45  70  99 130 163 200 241 288
#     4  10  19  32  49  70  98 128 162 202 244 289
#     4   9  17  30  47  70 101 132 161 197 244 297
#     4   9  19  35  53  75  99 128 167 209 250 294
#     4  10  20  34  52  76 101 124 160 204 244 293
#
# _framework density 17.765588000000001
#
# number of rings (size 3 to 8) (size 9 to 14) (size 15 to 20)
#    0.000    2.625    1.250    1.875    0.000    1.750 
#    0.000    3.750    0.000    5.250    0.000    0.000 
#    0.000    9.000    0.000    0.000    0.000    0.000 
#
# Total GULP energy -793239.242582 kJ/mol
# GULP energy per Si atom -12394.363165 kJ/mol
# Density = 1.772515 g / cm^3
# Si number density = 17.765588 Si / 1000 Ang^3
#
#
#
# Elastic Constant Matrix: (Units=GPa)
#
#
# Indices 1 2 3 4 5 6 
#
# 1 57.5865 26.4897 35.3335 0.0000 0.0000 0.0000
# 2 26.4897 94.9772 59.1364 0.0000 0.0000 0.0000
# 3 35.3335 59.1364 114.2132 0.0000 0.0000 0.0000
# 4 0.0000 0.0000 0.0000 27.9100 0.0000 0.0000
# 5 0.0000 0.0000 0.0000 0.0000 26.5979 0.0000
# 6 0.0000 0.0000 0.0000 0.0000 0.0000 19.3221
#
#
#
# Elastic Compliance Matrix: (Units=1/GPa)
#
#
# Indices 1 2 3 4 5 6 
#
# 1 0.021924 -0.002792 -0.005337 0.000000 0.000000 0.000000
# 2 -0.002792 0.015894 -0.007366 0.000000 0.000000 0.000000
# 3 -0.005337 -0.007366 0.014220 0.000000 0.000000 0.000000
# 4 0.000000 0.000000 0.000000 0.035829 0.000000 0.000000
# 5 0.000000 0.000000 0.000000 0.000000 0.037597 0.000000
# 6 0.000000 0.000000 0.000000 0.000000 0.000000 0.051754
#
#
# Mechanical properties :
#
#
# Convention : Reuss Voigt Hill
#
# Bulk Modulus (GPa) = 47.50759 56.52177 52.01468
# Shear Modulus (GPa) = 23.23167 24.48718 23.85942
#
# Velocity S-wave (km/s) = 3.62011 3.71664 3.66869
# Velocity P-wave (km/s) = 6.65379 7.09241 6.87660
#
# Compressibility (1/GPa) = 0.02104927
#
# Stress axis : x y z
#
# Youngs Moduli (GPa) = 45.61207 62.91858 70.32178
#
# Poissons Ratio (x) = 0.17565 0.37531
# Poissons Ratio (y) = 0.12733 0.51796
# Poissons Ratio (z) = 0.24343 0.46343
#
# Static dielectric constant tensor:
#      x y z
#    x 3.238990 0.000000 0.000000 
#    y 0.000000 3.238340 0.000000 
#    z 0.000000 0.000000 3.446170 
# 
# 
# High freq. dielectric constant tensor:
#      x y z
#    x 1.672510 0.000000 0.000000 
#    y 0.000000 1.675700 0.000000 
#    z 0.000000 0.000000 1.684150 
# 
# From -- ./inp_files/34498.got.cif
#   From: 2010.03.12/outbox.cif.g09.slc.cpg/sg53_18_cif.got.tgz:34498.got - 2010.04.16 14:36:59.
