data_PCOD8218076
_publ_section_title
;
Structure prediction by ZEFSAII (Michael W. Deem and Ramdas Pophale) SiO2 
 PCOD8218076
Probable space group: P M N A
;
_chemical_formula_sum "Si O2"
_cell_formula_units_Z 56
_cell_length_a 21.323698
_cell_length_b 9.271814
_cell_length_c 14.865385
_cell_angle_alpha 90.000000
_cell_angle_beta 90.000000
_cell_angle_gamma 90.000000
_cell_volume 2939.025779
_symmetry_space_group_name_H-M "P M N A"
_symmetry_group_IT_number 53
_symmetry_cell_setting 'orthorhombic'
loop_
_space_group_symop_operation_xyz
x,y,z
1/2-x,-y,1/2+z
x,-y,-z
1/2-x,y,1/2-z
-x,-y,-z
1/2+x,y,1/2-z
-x,y,z
1/2+x,-y,1/2+z
loop_
_atom_site_type_symbol
_atom_site_label
_atom_site_fract_x
_atom_site_fract_y
_atom_site_fract_z
Si Si1 0.283738 0.640615 0.453595
Si Si2 0.350936 0.537961 0.099280
Si Si3 0.689007 0.131176 0.686373
Si Si4 0.069321 0.977685 0.285963
Si Si5 0.628376 0.229405 0.138689
Si Si6 0.746809 0.897649 0.922852
Si Si7 0.929769 0.780173 0.444403
O O1 0.317428 0.500000 0.500000
O O2 0.221146 0.584981 0.403653
O O3 0.321553 0.726363 0.376294
O O4 0.271072 0.748334 0.535906
O O5 0.362487 0.398400 0.163286
O O6 0.395952 0.670067 0.126831
O O7 0.374957 0.500000 0.000000
O O8 0.750000 0.155075 0.750000
O O9 0.622727 0.111049 0.734771
O O10 0.698667 0.988019 0.626165
O O11 0.068893 0.930772 0.390946
O O12 0.000000 0.951573 0.242726
O O13 0.081775 0.151034 0.290993
O O14 0.693769 0.142459 0.149890
O O15 0.609429 0.208606 0.035091
O O16 0.717577 0.000000 0.000000
O O17 0.000000 0.727141 0.466750
#
# Coordination Sequence:
#
# PCOD8218076 Si02
#       7
#     8   8   8   8   8   8   8
#     4  10  18  36  56  80 110 141 181 237 281 329
#     4   9  17  28  48  75 108 137 172 220 258 310
#     4  11  22  34  57  83 111 144 186 230 290 334
#     4  11  23  37  52  76 112 149 188 232 276 327
#     4  11  18  30  51  79 114 146 180 216 263 334
#     4  10  18  31  54  78 109 138 177 223 273 327
#     4  10  19  31  49  74 109 155 187 205 252 333
#
# _framework density 19.053934000000002
#
# number of rings (size 3 to 8) (size 9 to 14) (size 15 to 20)
#    0.000    1.714    5.714    2.571    0.000    4.286 
#    0.000    3.571    0.000    4.286    0.000    0.000 
#    0.000    0.000    0.000    0.000    0.000    0.000 
#
# Total GULP energy -693751.224912 kJ/mol
# GULP energy per Si atom -12388.414731 kJ/mol
# Density = 1.901057 g / cm^3
# Si number density = 19.053934 Si / 1000 Ang^3
#
#
#
# Elastic Constant Matrix: (Units=GPa)
#
#
# Indices 1 2 3 4 5 6 
#
# 1 87.2474 29.5983 29.6049 0.0000 0.0000 0.0000
# 2 29.5983 122.3115 27.1980 0.0000 0.0000 0.0000
# 3 29.6049 27.1980 40.6397 0.0000 0.0000 0.0000
# 4 0.0000 0.0000 0.0000 25.0909 0.0000 0.0000
# 5 0.0000 0.0000 0.0000 0.0000 20.9981 0.0000
# 6 0.0000 0.0000 0.0000 0.0000 0.0000 13.6385
#
#
#
# Elastic Compliance Matrix: (Units=1/GPa)
#
#
# Indices 1 2 3 4 5 6 
#
# 1 0.015441 -0.001451 -0.010277 0.000000 0.000000 0.000000
# 2 -0.001451 0.009742 -0.005462 0.000000 0.000000 0.000000
# 3 -0.010277 -0.005462 0.035749 0.000000 0.000000 0.000000
# 4 0.000000 0.000000 0.000000 0.039855 0.000000 0.000000
# 5 0.000000 0.000000 0.000000 0.000000 0.047623 0.000000
# 6 0.000000 0.000000 0.000000 0.000000 0.000000 0.073322
#
#
# Mechanical properties :
#
#
# Convention : Reuss Voigt Hill
#
# Bulk Modulus (GPa) = 37.66481 47.00009 42.33245
# Shear Modulus (GPa) = 18.87050 22.86534 20.86792
#
# Velocity S-wave (km/s) = 3.15043 3.46791 3.31298
# Velocity P-wave (km/s) = 5.74839 6.38401 6.07452
#
# Compressibility (1/GPa) = 0.02654998
#
# Stress axis : x y z
#
# Youngs Moduli (GPa) = 64.76135 102.65150 27.97290
#
# Poissons Ratio (x) = 0.14898 0.28749
# Poissons Ratio (y) = 0.09399 0.15280
# Poissons Ratio (z) = 0.66557 0.56072
#
# Static dielectric constant tensor:
#      x y z
#    x 3.295320 0.000000 0.000000 
#    y 0.000000 4.112400 0.000000 
#    z 0.000000 0.000000 3.138170 
# 
# 
# High freq. dielectric constant tensor:
#      x y z
#    x 1.706520 0.000000 0.000000 
#    y 0.000000 1.765460 0.000000 
#    z 0.000000 0.000000 1.689200 
# 
# From -- ./inp_files/24352.got.cif
#   From: 2010.03.12/outbox.cif.g09.slc.cpg/sg53_13_cif.got.tgz:24352.got - 2010.04.16 14:36:59.
