data_PCOD8218539
_publ_section_title
;
Structure prediction by ZEFSAII (Michael W. Deem and Ramdas Pophale) SiO2 
 PCOD8218539
Probable space group: P M N A
;
_chemical_formula_sum "Si O2"
_cell_formula_units_Z 48
_cell_length_a 9.284318
_cell_length_b 16.349076
_cell_length_c 18.745498
_cell_angle_alpha 90.000000
_cell_angle_beta 90.000000
_cell_angle_gamma 90.000000
_cell_volume 2845.379527
_symmetry_space_group_name_H-M "P M N A"
_symmetry_group_IT_number 53
_symmetry_cell_setting 'orthorhombic'
loop_
_space_group_symop_operation_xyz
x,y,z
1/2-x,-y,1/2+z
x,-y,-z
1/2-x,y,1/2-z
-x,-y,-z
1/2+x,y,1/2-z
-x,y,z
1/2+x,-y,1/2+z
loop_
_atom_site_type_symbol
_atom_site_label
_atom_site_fract_x
_atom_site_fract_y
_atom_site_fract_z
Si Si1 0.169497 0.143509 0.683395
Si Si2 0.332221 0.911314 0.026910
Si Si3 0.161987 0.442935 0.604045
Si Si4 0.660130 0.760550 0.519892
Si Si5 0.661313 0.298013 0.641153
Si Si6 0.661356 0.615864 0.942248
O O1 0.250000 0.098849 0.750000
O O2 0.204767 0.094682 0.610921
O O3 0.234224 0.234676 0.680338
O O4 0.000000 0.148155 0.697952
O O5 0.500000 0.894482 0.013925
O O6 0.246804 0.845408 0.980071
O O7 0.284418 0.000000 0.000000
O O8 0.270534 0.388468 0.651483
O O9 0.215161 0.537493 0.603710
O O10 0.160717 0.408127 0.524597
O O11 0.000000 0.437139 0.635269
O O12 0.500000 0.777139 0.549478
O O13 0.653507 0.724040 0.441414
O O14 0.736659 0.694122 0.571403
O O15 0.500000 0.296135 0.674031
O O16 0.500000 0.640010 0.918804
#
# Coordination Sequence:
#
# PCOD8218539 Si02
#       6
#     8   8   8   8   8   8
#     4  10  19  31  47  65  87 114 145 181 219 264
#     4   9  18  32  48  64  84 114 149 183 224 276
#     4   8  13  21  33  50  73 104 140 172 202 237
#     4   9  16  24  36  56  81 108 138 174 216 259
#     4   9  16  25  37  55  80 109 140 172 208 250
#     4   8  13  21  33  49  73 106 140 171 203 243
#
# _framework density 16.869454000000001
#
# number of rings (size 3 to 8) (size 9 to 14) (size 15 to 20)
#    0.000    3.167    0.000    2.500    0.000    5.667 
#    0.000    3.333    0.000    0.000    0.000    0.000 
#    0.000    1.333    0.000    9.000    0.000   15.167 
#
# Total GULP energy -594875.982819 kJ/mol
# GULP energy per Si atom -12393.249642 kJ/mol
# Density = 1.683106 g / cm^3
# Si number density = 16.869454 Si / 1000 Ang^3
#
#
#
# Elastic Constant Matrix: (Units=GPa)
#
#
# Indices 1 2 3 4 5 6 
#
# 1 108.2130 70.4323 25.4683 0.0000 0.0000 0.0000
# 2 70.4323 135.2783 31.7260 0.0000 0.0000 0.0000
# 3 25.4683 31.7260 34.4881 0.0000 0.0000 0.0000
# 4 0.0000 0.0000 0.0000 11.4495 0.0000 0.0000
# 5 0.0000 0.0000 0.0000 0.0000 15.9974 0.0000
# 6 0.0000 0.0000 0.0000 0.0000 0.0000 22.1306
#
#
#
# Elastic Compliance Matrix: (Units=1/GPa)
#
#
# Indices 1 2 3 4 5 6 
#
# 1 0.014581 -0.006460 -0.004825 0.000000 0.000000 0.000000
# 2 -0.006460 0.012288 -0.006533 0.000000 0.000000 0.000000
# 3 -0.004825 -0.006533 0.038569 0.000000 0.000000 0.000000
# 4 0.000000 0.000000 0.000000 0.087340 0.000000 0.000000
# 5 0.000000 0.000000 0.000000 0.000000 0.062510 0.000000
# 6 0.000000 0.000000 0.000000 0.000000 0.000000 0.045186
#
#
# Mechanical properties :
#
#
# Convention : Reuss Voigt Hill
#
# Bulk Modulus (GPa) = 33.55583 59.24807 46.40195
# Shear Modulus (GPa) = 16.33749 19.93901 18.13825
#
# Velocity S-wave (km/s) = 3.11539 3.44169 3.28260
# Velocity P-wave (km/s) = 5.73372 7.14083 6.47561
#
# Compressibility (1/GPa) = 0.02980108
#
# Stress axis : x y z
#
# Youngs Moduli (GPa) = 68.58089 81.38164 25.92788
#
# Poissons Ratio (x) = 0.52574 0.12510
# Poissons Ratio (y) = 0.44304 0.16939
# Poissons Ratio (z) = 0.33091 0.53167
#
# Static dielectric constant tensor:
#      x y z
#    x 3.401120 0.000000 0.000000 
#    y 0.000000 3.200280 0.000000 
#    z 0.000000 0.000000 2.768120 
# 
# 
# High freq. dielectric constant tensor:
#      x y z
#    x 1.659960 0.000000 0.000000 
#    y 0.000000 1.639240 0.000000 
#    z 0.000000 0.000000 1.588870 
# 
# From -- ./inp_files/26442.got.cif
#   From: 2010.03.12/outbox.cif.g09.slc.cpg/sg53_14_cif.got.tgz:26442.got - 2010.04.16 14:36:59.
