data_PCOD8218981
_publ_section_title
;
Structure prediction by ZEFSAII (Michael W. Deem and Ramdas Pophale) SiO2 
 PCOD8218981
Probable space group: P M N A
;
_chemical_formula_sum "Si O2"
_cell_formula_units_Z 40
_cell_length_a 26.179644
_cell_length_b 7.250718
_cell_length_c 10.193961
_cell_angle_alpha 90.000000
_cell_angle_beta 90.000000
_cell_angle_gamma 90.000000
_cell_volume 1935.030073
_symmetry_space_group_name_H-M "P M N A"
_symmetry_group_IT_number 53
_symmetry_cell_setting 'orthorhombic'
loop_
_space_group_symop_operation_xyz
x,y,z
1/2-x,-y,1/2+z
x,-y,-z
1/2-x,y,1/2-z
-x,-y,-z
1/2+x,y,1/2-z
-x,y,z
1/2+x,-y,1/2+z
loop_
_atom_site_type_symbol
_atom_site_label
_atom_site_fract_x
_atom_site_fract_y
_atom_site_fract_z
Si Si1 0.902646 0.461850 0.851574
Si Si2 0.693218 0.496500 0.795610
Si Si3 0.557506 0.249537 0.158646
Si Si4 0.940716 0.071159 0.860274
Si Si5 0.842373 0.216486 0.492017
O O1 0.843477 0.519405 0.830634
O O2 0.938502 0.572034 0.750868
O O3 0.908919 0.248266 0.818700
O O4 0.920055 0.500000 0.000000
O O5 0.750000 0.454935 0.750000
O O6 0.691280 0.686680 0.877967
O O7 0.671571 0.320074 0.874284
O O8 0.500000 0.239923 0.100760
O O9 0.597380 0.250950 0.038282
O O10 0.570704 0.074508 0.247474
O O11 0.000000 0.121672 0.872743
O O12 0.920006 0.000000 0.000000
O O13 0.828758 0.000000 0.500000
#
# Coordination Sequence:
#
# PCOD8218981 Si02
#       5
#     8   8   8   8   8
#     4  11  21  35  59  87 120 160 204 253 304 362
#     4  10  24  43  64  87 120 157 202 259 314 360
#     4  10  21  37  60  90 126 166 201 242 299 363
#     4  10  19  32  53  85 124 162 199 242 293 353
#     4  10  22  43  65  90 124 158 204 252 300 371
#
# _framework density 20.671513999999998
#
# number of rings (size 3 to 8) (size 9 to 14) (size 15 to 20)
#    0.000    1.800    2.000    1.800    2.800    2.000 
#    0.000   10.000    0.000    0.000    0.000    0.000 
#    0.000    0.000    0.000    0.000    0.000    0.000 
#
# Total GULP energy -496070.500909 kJ/mol
# GULP energy per Si atom -12401.762523 kJ/mol
# Density = 2.062446 g / cm^3
# Si number density = 20.671514 Si / 1000 Ang^3
#
#
#
# Elastic Constant Matrix: (Units=GPa)
#
#
# Indices 1 2 3 4 5 6 
#
# 1 120.3091 39.2836 42.9437 0.0000 0.0000 0.0000
# 2 39.2836 156.8896 36.9833 0.0000 0.0000 0.0000
# 3 42.9437 36.9833 70.2620 0.0000 0.0000 0.0000
# 4 0.0000 0.0000 0.0000 25.0809 0.0000 0.0000
# 5 0.0000 0.0000 0.0000 0.0000 12.5375 0.0000
# 6 0.0000 0.0000 0.0000 0.0000 0.0000 27.3122
#
#
#
# Elastic Compliance Matrix: (Units=1/GPa)
#
#
# Indices 1 2 3 4 5 6 
#
# 1 0.010865 -0.001319 -0.005947 0.000000 0.000000 0.000000
# 2 -0.001319 0.007437 -0.003108 0.000000 0.000000 0.000000
# 3 -0.005947 -0.003108 0.019503 0.000000 0.000000 0.000000
# 4 0.000000 0.000000 0.000000 0.039871 0.000000 0.000000
# 5 0.000000 0.000000 0.000000 0.000000 0.079761 0.000000
# 6 0.000000 0.000000 0.000000 0.000000 0.000000 0.036614
#
#
# Mechanical properties :
#
#
# Convention : Reuss Voigt Hill
#
# Bulk Modulus (GPa) = 58.62505 65.09798 61.86151
# Shear Modulus (GPa) = 22.67741 28.20281 25.44011
#
# Velocity S-wave (km/s) = 3.31575 3.69769 3.51192
# Velocity P-wave (km/s) = 6.56360 7.05624 6.81437
#
# Compressibility (1/GPa) = 0.01705756
#
# Stress axis : x y z
#
# Youngs Moduli (GPa) = 92.03768 134.46528 51.27382
#
# Poissons Ratio (x) = 0.17733 0.30490
# Poissons Ratio (y) = 0.12137 0.15938
# Poissons Ratio (z) = 0.54731 0.41798
#
# Static dielectric constant tensor:
#      x y z
#    x 3.513420 0.000000 0.000000 
#    y 0.000000 3.842530 0.000000 
#    z 0.000000 0.000000 3.663250 
# 
# 
# High freq. dielectric constant tensor:
#      x y z
#    x 1.790600 0.000000 0.000000 
#    y 0.000000 1.820500 0.000000 
#    z 0.000000 0.000000 1.807400 
# 
# From -- ./inp_files/18583.got.cif
#   From: 2010.03.12/outbox.cif.g09.slc.cpg/sg53_10_cif.got.tgz:18583.got - 2010.04.16 14:36:59.
