data_PCOD8218915
_publ_section_title
;
Structure prediction by ZEFSAII (Michael W. Deem and Ramdas Pophale) SiO2 
 PCOD8218915
Probable space group: P M N A
;
_chemical_formula_sum "Si O2"
_cell_formula_units_Z 40
_cell_length_a 8.789138
_cell_length_b 13.881460
_cell_length_c 17.420646
_cell_angle_alpha 90.000000
_cell_angle_beta 90.000000
_cell_angle_gamma 90.000000
_cell_volume 2125.424513
_symmetry_space_group_name_H-M "P M N A"
_symmetry_group_IT_number 53
_symmetry_cell_setting 'orthorhombic'
loop_
_space_group_symop_operation_xyz
x,y,z
1/2-x,-y,1/2+z
x,-y,-z
1/2-x,y,1/2-z
-x,-y,-z
1/2+x,y,1/2-z
-x,y,z
1/2+x,-y,1/2+z
loop_
_atom_site_type_symbol
_atom_site_label
_atom_site_fract_x
_atom_site_fract_y
_atom_site_fract_z
Si Si1 0.179641 0.428972 0.166753
Si Si2 0.677738 0.891728 0.484887
Si Si3 0.676536 0.714772 0.941366
Si Si4 0.678387 0.205291 0.673001
Si Si5 0.177732 0.385709 0.601119
O O1 0.250000 0.442499 0.250000
O O2 0.231402 0.327408 0.130657
O O3 0.238579 0.513277 0.111391
O O4 0.000000 0.432572 0.173233
O O5 0.500000 0.878501 0.501819
O O6 0.768377 0.823207 0.542990
O O7 0.716958 0.866109 0.396944
O O8 0.732679 0.000000 0.500000
O O9 0.500000 0.716408 0.920160
O O10 0.710212 0.648861 0.015054
O O11 0.750000 0.159287 0.750000
O O12 0.500000 0.220246 0.683000
O O13 0.755319 0.308892 0.660676
O O14 0.000000 0.398989 0.617451
#
# Coordination Sequence:
#
# PCOD8218915 Si02
#       5
#     8   8   8   8   8
#     4  12  24  37  54  77 109 146 183 220 261 312
#     4   9  19  37  59  80 104 139 181 223 269 321
#     4  10  21  37  57  81 108 139 177 221 268 319
#     4  10  19  32  52  79 109 138 173 218 268 318
#     4  10  20  35  55  79 109 142 177 217 262 314
#
# _framework density 18.819772
#
# number of rings (size 3 to 8) (size 9 to 14) (size 15 to 20)
#    0.000    1.800    0.000    4.800    0.000    6.000 
#    0.000    1.000    0.000    2.400    0.000    0.000 
#    0.000    0.000    0.000    0.000    0.000    0.000 
#
# Total GULP energy -496219.586168 kJ/mol
# GULP energy per Si atom -12405.489654 kJ/mol
# Density = 1.877694 g / cm^3
# Si number density = 18.819772 Si / 1000 Ang^3
#
#
#
# Elastic Constant Matrix: (Units=GPa)
#
#
# Indices 1 2 3 4 5 6 
#
# 1 111.1651 48.5966 31.8859 0.0000 0.0000 0.0000
# 2 48.5966 121.8741 37.5021 0.0000 0.0000 0.0000
# 3 31.8859 37.5021 47.8577 0.0000 0.0000 0.0000
# 4 0.0000 0.0000 0.0000 18.8649 0.0000 0.0000
# 5 0.0000 0.0000 0.0000 0.0000 32.7609 0.0000
# 6 0.0000 0.0000 0.0000 0.0000 0.0000 29.2565
#
#
#
# Elastic Compliance Matrix: (Units=1/GPa)
#
#
# Indices 1 2 3 4 5 6 
#
# 1 0.011920 -0.003043 -0.005557 0.000000 0.000000 0.000000
# 2 -0.003043 0.011589 -0.007054 0.000000 0.000000 0.000000
# 3 -0.005557 -0.007054 0.030126 0.000000 0.000000 0.000000
# 4 0.000000 0.000000 0.000000 0.053009 0.000000 0.000000
# 5 0.000000 0.000000 0.000000 0.000000 0.030524 0.000000
# 6 0.000000 0.000000 0.000000 0.000000 0.000000 0.034180
#
#
# Mechanical properties :
#
#
# Convention : Reuss Voigt Hill
#
# Bulk Modulus (GPa) = 44.79074 57.42957 51.11016
# Shear Modulus (GPa) = 23.79836 27.03726 25.41781
#
# Velocity S-wave (km/s) = 3.55990 3.79442 3.67903
# Velocity P-wave (km/s) = 6.38347 7.05540 6.72782
#
# Compressibility (1/GPa) = 0.02232604
#
# Stress axis : x y z
#
# Youngs Moduli (GPa) = 83.89334 86.28745 33.19433
#
# Poissons Ratio (x) = 0.26257 0.18447
# Poissons Ratio (y) = 0.25528 0.23416
# Poissons Ratio (z) = 0.46622 0.60868
#
# Static dielectric constant tensor:
#      x y z
#    x 3.514080 0.000000 0.000000 
#    y 0.000000 3.394650 0.000000 
#    z 0.000000 0.000000 3.458970 
# 
# 
# High freq. dielectric constant tensor:
#      x y z
#    x 1.743710 0.000000 0.000000 
#    y 0.000000 1.718470 0.000000 
#    z 0.000000 0.000000 1.730140 
# 
# From -- ./inp_files/19855.got.cif
#   From: 2010.03.12/outbox.cif.g09.slc.cpg/sg53_10_cif.got.tgz:19855.got - 2010.04.16 14:36:59.
