data_PCOD8218174
_publ_section_title
;
Structure prediction by ZEFSAII (Michael W. Deem and Ramdas Pophale) SiO2 
 PCOD8218174
Probable space group: P M N A
;
_chemical_formula_sum "Si O2"
_cell_formula_units_Z 48
_cell_length_a 18.528793
_cell_length_b 8.917661
_cell_length_c 14.925504
_cell_angle_alpha 90.000000
_cell_angle_beta 90.000000
_cell_angle_gamma 90.000000
_cell_volume 2466.193186
_symmetry_space_group_name_H-M "P M N A"
_symmetry_group_IT_number 53
_symmetry_cell_setting 'orthorhombic'
loop_
_space_group_symop_operation_xyz
x,y,z
1/2-x,-y,1/2+z
x,-y,-z
1/2-x,y,1/2-z
-x,-y,-z
1/2+x,y,1/2-z
-x,y,z
1/2+x,-y,1/2+z
loop_
_atom_site_type_symbol
_atom_site_label
_atom_site_fract_x
_atom_site_fract_y
_atom_site_fract_z
Si Si1 0.662614 0.173186 0.020950
Si Si2 0.580507 0.314099 0.169455
Si Si3 0.082681 0.635125 0.864993
Si Si4 0.825016 0.643558 0.201306
Si Si5 0.585337 0.660600 0.140248
Si Si6 0.692939 0.676188 0.492372
O O1 0.618551 0.272455 0.949540
O O2 0.743689 0.227110 0.034944
O O3 0.628032 0.194197 0.118064
O O4 0.657972 0.000000 0.000000
O O5 0.500000 0.299989 0.132496
O O6 0.584151 0.266842 0.274233
O O7 0.605848 0.484690 0.148734
O O8 0.129822 0.491828 0.840909
O O9 0.000000 0.592427 0.889649
O O10 0.119709 0.713501 0.951416
O O11 0.750000 0.595711 0.250000
O O12 0.875030 0.734012 0.272658
O O13 0.810351 0.737647 0.110589
O O14 0.500000 0.690306 0.144013
O O15 0.712403 0.500000 0.500000
#
# Coordination Sequence:
#
# PCOD8218174 Si02
#       6
#     8   8   8   8   8   8
#     4  12  24  36  53  82 117 151 195 239 284 336
#     4   9  19  36  58  82 113 146 184 232 287 345
#     4   9  20  35  58  92 117 143 189 243 287 336
#     4  10  18  32  56  86 119 148 183 232 283 342
#     4  10  20  36  59  84 113 149 187 228 289 348
#     4  10  21  36  60  84 116 151 186 234 284 343
#
# _framework density 19.463194999999999
#
# number of rings (size 3 to 8) (size 9 to 14) (size 15 to 20)
#    0.000    2.000    1.667    3.500    7.000    6.333 
#    0.000    3.333    0.000    0.500    0.000    0.000 
#    0.000    0.000    0.000    0.000    0.000    0.000 
#
# Total GULP energy -594708.952572 kJ/mol
# GULP energy per Si atom -12389.769845 kJ/mol
# Density = 1.941890 g / cm^3
# Si number density = 19.463195 Si / 1000 Ang^3
#
#
#
# Elastic Constant Matrix: (Units=GPa)
#
#
# Indices 1 2 3 4 5 6 
#
# 1 149.7896 29.2653 67.0880 0.0000 0.0000 0.0000
# 2 29.2653 51.7267 21.0528 0.0000 0.0000 0.0000
# 3 67.0880 21.0528 123.4452 0.0000 0.0000 0.0000
# 4 0.0000 0.0000 0.0000 6.7415 0.0000 0.0000
# 5 0.0000 0.0000 0.0000 0.0000 44.3277 0.0000
# 6 0.0000 0.0000 0.0000 0.0000 0.0000 0.4905
#
#
#
# Elastic Compliance Matrix: (Units=1/GPa)
#
#
# Indices 1 2 3 4 5 6 
#
# 1 0.009369 -0.003469 -0.004500 0.000000 0.000000 0.000000
# 2 -0.003469 0.022059 -0.001877 0.000000 0.000000 0.000000
# 3 -0.004500 -0.001877 0.010867 0.000000 0.000000 0.000000
# 4 0.000000 0.000000 0.000000 0.148335 0.000000 0.000000
# 5 0.000000 0.000000 0.000000 0.000000 0.022559 0.000000
# 6 0.000000 0.000000 0.000000 0.000000 0.000000 2.038938
#
#
# Mechanical properties :
#
#
# Convention : Reuss Voigt Hill
#
# Bulk Modulus (GPa) = 44.24269 62.19708 53.21989
# Shear Modulus (GPa) = 2.19360 24.14895 13.17128
#
# Velocity S-wave (km/s) = 1.06278 3.52625 2.60422
# Velocity P-wave (km/s) = 4.92817 6.97172 6.03704
#
# Compressibility (1/GPa) = 0.02260260
#
# Stress axis : x y z
#
# Youngs Moduli (GPa) = 106.72985 45.33308 92.02551
#
# Poissons Ratio (x) = 0.15727 0.41414
# Poissons Ratio (y) = 0.37028 0.17269
# Poissons Ratio (z) = 0.48032 0.08507
#
# Static dielectric constant tensor:
#      x y z
#    x 3.841980 0.000000 0.000000 
#    y 0.000000 2.926320 0.000000 
#    z 0.000000 0.000000 4.390170 
# 
# 
# High freq. dielectric constant tensor:
#      x y z
#    x 1.777870 0.000000 0.000000 
#    y 0.000000 1.680580 0.000000 
#    z 0.000000 0.000000 1.784130 
# 
# From -- ./inp_files/23641.got.cif
#   From: 2010.03.12/outbox.cif.g09.slc.cpg/sg53_12_cif.got.tgz:23641.got - 2010.04.16 14:36:59.
