data_PCOD8218132
_publ_section_title
;
Structure prediction by ZEFSAII (Michael W. Deem and Ramdas Pophale) SiO2 
 PCOD8218132
Probable space group: P M N A
;
_chemical_formula_sum "Si O2"
_cell_formula_units_Z 64
_cell_length_a 17.283548
_cell_length_b 21.858403
_cell_length_c 9.386234
_cell_angle_alpha 90.000000
_cell_angle_beta 90.000000
_cell_angle_gamma 90.000000
_cell_volume 3546.032452
_symmetry_space_group_name_H-M "P M N A"
_symmetry_group_IT_number 53
_symmetry_cell_setting 'orthorhombic'
loop_
_space_group_symop_operation_xyz
x,y,z
1/2-x,-y,1/2+z
x,-y,-z
1/2-x,y,1/2-z
-x,-y,-z
1/2+x,y,1/2-z
-x,y,z
1/2+x,-y,1/2+z
loop_
_atom_site_type_symbol
_atom_site_label
_atom_site_fract_x
_atom_site_fract_y
_atom_site_fract_z
Si Si1 0.172591 0.253133 0.943201
Si Si2 0.089244 0.215581 0.451211
Si Si3 0.176691 0.323368 0.579171
Si Si4 0.411697 0.839343 0.248197
Si Si5 0.910393 0.639340 0.137543
Si Si6 0.089494 0.068042 0.978946
Si Si7 0.269511 0.561260 0.413167
Si Si8 0.829133 0.837864 0.814186
O O1 0.246572 0.286601 0.875048
O O2 0.147042 0.204306 0.827523
O O3 0.103811 0.302949 0.967761
O O4 0.192030 0.222025 0.093455
O O5 0.132375 0.281174 0.464431
O O6 0.107426 0.167677 0.580727
O O7 0.111981 0.180599 0.308980
O O8 0.000000 0.232055 0.445307
O O9 0.118557 0.336144 0.708900
O O10 0.209542 0.388461 0.520664
O O11 0.500000 0.818623 0.277993
O O12 0.399218 0.907647 0.315158
O O13 0.859162 0.582756 0.080599
O O14 0.000000 0.619735 0.142459
O O15 0.000000 0.068942 0.022080
O O16 0.133066 0.110918 0.089116
O O17 0.123431 0.000000 0.000000
O O18 0.258326 0.500000 0.500000
O O19 0.250000 0.548400 0.250000
O O20 0.750000 0.864423 0.750000
#
# Coordination Sequence:
#
# PCOD8218132 Si02
#       8
#     8   8   8   8   8   8   8   8
#     4  10  18  32  53  78 110 142 182 222 277 338
#     4  11  21  34  54  84 116 141 178 231 292 343
#     4  10  19  33  56  82 108 144 183 224 283 329
#     4   9  18  31  55  83 107 141 182 227 273 329
#     4  10  19  32  56  85 112 142 187 235 277 331
#     4   9  19  39  61  79 107 152 197 230 271 331
#     4   9  20  38  57  79 107 149 194 232 272 333
#     4  11  22  36  53  79 117 149 179 230 287 334
#
# _framework density 18.048338999999999
#
# number of rings (size 3 to 8) (size 9 to 14) (size 15 to 20)
#    0.000    2.125    2.500    2.250    0.000    1.750 
#    4.500    1.875    0.000   12.375    0.000    0.000 
#    0.000    0.000    0.000    0.000    0.000    0.000 
#
# Total GULP energy -793074.392018 kJ/mol
# GULP energy per Si atom -12391.787375 kJ/mol
# Density = 1.800726 g / cm^3
# Si number density = 18.048339 Si / 1000 Ang^3
#
#
#
# Elastic Constant Matrix: (Units=GPa)
#
#
# Indices 1 2 3 4 5 6 
#
# 1 92.6775 45.9900 26.5533 0.0000 0.0000 0.0000
# 2 45.9900 127.4841 46.5820 0.0000 0.0000 0.0000
# 3 26.5533 46.5820 80.4592 0.0000 0.0000 0.0000
# 4 0.0000 0.0000 0.0000 23.1970 0.0000 0.0000
# 5 0.0000 0.0000 0.0000 0.0000 24.3712 0.0000
# 6 0.0000 0.0000 0.0000 0.0000 0.0000 20.8670
#
#
#
# Elastic Compliance Matrix: (Units=1/GPa)
#
#
# Indices 1 2 3 4 5 6 
#
# 1 0.013407 -0.004084 -0.002060 0.000000 0.000000 0.000000
# 2 -0.004084 0.011193 -0.005132 0.000000 0.000000 0.000000
# 3 -0.002060 -0.005132 0.016080 0.000000 0.000000 0.000000
# 4 0.000000 0.000000 0.000000 0.043109 0.000000 0.000000
# 5 0.000000 0.000000 0.000000 0.000000 0.041032 0.000000
# 6 0.000000 0.000000 0.000000 0.000000 0.000000 0.047923
#
#
# Mechanical properties :
#
#
# Convention : Reuss Voigt Hill
#
# Bulk Modulus (GPa) = 55.16667 59.87460 57.52063
# Shear Modulus (GPa) = 24.83385 25.78673 25.31029
#
# Velocity S-wave (km/s) = 3.71342 3.78399 3.74887
# Velocity P-wave (km/s) = 7.00132 7.23451 7.11887
#
# Compressibility (1/GPa) = 0.01812689
#
# Stress axis : x y z
#
# Youngs Moduli (GPa) = 74.58845 89.34446 62.18934
#
# Poissons Ratio (x) = 0.36486 0.12813
# Poissons Ratio (y) = 0.30460 0.31917
# Poissons Ratio (z) = 0.15367 0.45854
#
# Static dielectric constant tensor:
#      x y z
#    x 3.434830 0.000000 0.000000 
#    y 0.000000 3.430540 0.000000 
#    z 0.000000 0.000000 3.338380 
# 
# 
# High freq. dielectric constant tensor:
#      x y z
#    x 1.706130 0.000000 0.000000 
#    y 0.000000 1.685390 0.000000 
#    z 0.000000 0.000000 1.683700 
# 
# From -- ./inp_files/10207.got.cif
#   From: 2010.03.12/outbox.cif.g09.slc.cpg/sg53_6_cif.got.tgz:10207.got - 2010.04.16 14:36:59.
