data_PCOD8218935
_publ_section_title
;
Structure prediction by ZEFSAII (Michael W. Deem and Ramdas Pophale) SiO2 
 PCOD8218935
Probable space group: P M N A
;
_chemical_formula_sum "Si O2"
_cell_formula_units_Z 56
_cell_length_a 27.263728
_cell_length_b 17.306724
_cell_length_c 6.974692
_cell_angle_alpha 90.000000
_cell_angle_beta 90.000000
_cell_angle_gamma 90.000000
_cell_volume 3290.979236
_symmetry_space_group_name_H-M "P M N A"
_symmetry_group_IT_number 53
_symmetry_cell_setting 'orthorhombic'
loop_
_space_group_symop_operation_xyz
x,y,z
1/2-x,-y,1/2+z
x,-y,-z
1/2-x,y,1/2-z
-x,-y,-z
1/2+x,y,1/2-z
-x,y,z
1/2+x,-y,1/2+z
loop_
_atom_site_type_symbol
_atom_site_label
_atom_site_fract_x
_atom_site_fract_y
_atom_site_fract_z
Si Si1 0.696452 0.699038 0.735794
Si Si2 0.296262 0.581750 0.392951
Si Si3 0.557233 0.912253 0.969915
Si Si4 0.444860 0.327347 0.022954
Si Si5 0.055444 0.795756 0.200973
Si Si6 0.149413 0.412699 0.534795
Si Si7 0.899432 0.208208 0.202773
O O1 0.750000 0.738334 0.750000
O O2 0.699161 0.649375 0.544458
O O3 0.657021 0.767770 0.731975
O O4 0.685653 0.642764 0.915411
O O5 0.297752 0.500000 0.500000
O O6 0.250000 0.586881 0.250000
O O7 0.344053 0.597937 0.262154
O O8 0.500000 0.905401 0.911959
O O9 0.567668 0.869796 0.169728
O O10 0.589879 0.874573 0.800853
O O11 0.573805 0.000000 0.000000
O O12 0.500000 0.360015 0.038533
O O13 0.436669 0.280902 0.826428
O O14 0.407045 0.398422 0.025276
O O15 0.435363 0.271707 0.203635
O O16 0.000000 0.800219 0.123963
O O17 0.091873 0.796167 0.023130
O O18 0.165405 0.500000 0.500000
#
# Coordination Sequence:
#
# PCOD8218935 Si02
#       7
#     8   8   8   8   8   8   8
#     4  11  22  36  51  76 100 131 172 219 264 310
#     4  12  21  33  53  73 100 129 167 221 275 319
#     4   9  18  32  52  83 114 135 162 202 247 301
#     4   9  19  33  49  70 100 137 175 210 247 303
#     4   9  16  30  51  75 105 136 166 201 244 296
#     4  11  21  34  50  71 100 133 170 216 267 308
#     4  10  19  32  53  75 103 136 171 206 256 307
#
# _framework density 17.016213
#
# number of rings (size 3 to 8) (size 9 to 14) (size 15 to 20)
#    0.000    1.857    2.857    3.857    0.000    0.857 
#    0.000    2.143    0.000    0.429    3.714    0.000 
#    0.000    0.000    0.000    0.000    0.000    0.000 
#
# Total GULP energy -694264.582438 kJ/mol
# GULP energy per Si atom -12397.581829 kJ/mol
# Density = 1.697748 g / cm^3
# Si number density = 17.016213 Si / 1000 Ang^3
#
#
#
# Elastic Constant Matrix: (Units=GPa)
#
#
# Indices 1 2 3 4 5 6 
#
# 1 100.9534 29.7354 31.9616 0.0000 0.0000 0.0000
# 2 29.7354 54.8791 22.2000 0.0000 0.0000 0.0000
# 3 31.9616 22.2000 98.3058 0.0000 0.0000 0.0000
# 4 0.0000 0.0000 0.0000 17.0960 0.0000 0.0000
# 5 0.0000 0.0000 0.0000 0.0000 12.1300 0.0000
# 6 0.0000 0.0000 0.0000 0.0000 0.0000 13.6463
#
#
#
# Elastic Compliance Matrix: (Units=1/GPa)
#
#
# Indices 1 2 3 4 5 6 
#
# 1 0.012439 -0.005617 -0.002776 0.000000 0.000000 0.000000
# 2 -0.005617 0.022590 -0.003275 0.000000 0.000000 0.000000
# 3 -0.002776 -0.003275 0.011814 0.000000 0.000000 0.000000
# 4 0.000000 0.000000 0.000000 0.058493 0.000000 0.000000
# 5 0.000000 0.000000 0.000000 0.000000 0.082440 0.000000
# 6 0.000000 0.000000 0.000000 0.000000 0.000000 0.073280
#
#
# Mechanical properties :
#
#
# Convention : Reuss Voigt Hill
#
# Bulk Modulus (GPa) = 42.53930 46.88135 44.71032
# Shear Modulus (GPa) = 17.10990 19.92389 18.51689
#
# Velocity S-wave (km/s) = 3.17441 3.42552 3.30235
# Velocity P-wave (km/s) = 6.20398 6.57696 6.39319
#
# Compressibility (1/GPa) = 0.02350768
#
# Stress axis : x y z
#
# Youngs Moduli (GPa) = 80.39375 44.26696 84.64229
#
# Poissons Ratio (x) = 0.24864 0.23494
# Poissons Ratio (y) = 0.45156 0.27723
# Poissons Ratio (z) = 0.22315 0.14499
#
# Static dielectric constant tensor:
#      x y z
#    x 3.212260 0.000000 0.000000 
#    y 0.000000 3.071310 0.000000 
#    z 0.000000 0.000000 3.391450 
# 
# 
# High freq. dielectric constant tensor:
#      x y z
#    x 1.648860 0.000000 0.000000 
#    y 0.000000 1.629160 0.000000 
#    z 0.000000 0.000000 1.670120 
# 
# From -- ./inp_files/5346.got.cif
#   From: 2010.03.12/outbox.cif.g09.slc.cpg/sg53_3_cif.got.tgz:5346.got - 2010.04.16 14:36:59.
