data_PCOD8218894
_publ_section_title
;
Structure prediction by ZEFSAII (Michael W. Deem and Ramdas Pophale) SiO2 
 PCOD8218894
Probable space group: P M N A
;
_chemical_formula_sum "Si O2"
_cell_formula_units_Z 48
_cell_length_a 8.927507
_cell_length_b 16.142571
_cell_length_c 18.272649
_cell_angle_alpha 90.000000
_cell_angle_beta 90.000000
_cell_angle_gamma 90.000000
_cell_volume 2633.324723
_symmetry_space_group_name_H-M "P M N A"
_symmetry_group_IT_number 53
_symmetry_cell_setting 'orthorhombic'
loop_
_space_group_symop_operation_xyz
x,y,z
1/2-x,-y,1/2+z
x,-y,-z
1/2-x,y,1/2-z
-x,-y,-z
1/2+x,y,1/2-z
-x,y,z
1/2+x,-y,1/2+z
loop_
_atom_site_type_symbol
_atom_site_label
_atom_site_fract_x
_atom_site_fract_y
_atom_site_fract_z
Si Si1 0.826506 0.407859 0.523802
Si Si2 0.324306 0.328971 0.824312
Si Si3 0.171537 0.741932 0.953115
Si Si4 0.823406 0.974151 0.326447
Si Si5 0.826831 0.174066 0.894361
Si Si6 0.824880 0.837294 0.674395
O O1 0.783965 0.500000 0.500000
O O2 0.789517 0.393135 0.609671
O O3 0.726557 0.349463 0.473193
O O4 0.000000 0.387843 0.508717
O O5 0.250000 0.364279 0.750000
O O6 0.500000 0.318154 0.811841
O O7 0.254926 0.239550 0.842000
O O8 0.270137 0.775695 0.887521
O O9 0.000000 0.737240 0.928144
O O10 0.193399 0.802239 0.021537
O O11 0.750000 0.948474 0.250000
O O12 0.751104 0.915301 0.387567
O O13 0.000000 0.960189 0.322212
O O14 0.781907 0.068499 0.346728
O O15 0.000000 0.169988 0.871313
O O16 0.750000 0.810724 0.750000
O O17 0.000000 0.827229 0.684521
#
# Coordination Sequence:
#
# PCOD8218894 Si02
#       6
#     8   8   8   8   8   8
#     4   9  19  37  59  80 104 137 174 213 260 313
#     4  10  19  32  52  77 106 137 170 210 256 308
#     4  10  21  36  55  79 105 135 171 212 261 313
#     4  10  20  33  50  73 102 138 178 218 260 303
#     4  10  20  33  50  74 105 139 174 212 255 306
#     4  10  21  37  56  76 102 137 177 220 261 305
#
# _framework density 18.227907999999999
#
# number of rings (size 3 to 8) (size 9 to 14) (size 15 to 20)
#    0.000    2.167    0.000    3.000    0.000    5.667 
#    0.000    4.167    0.000    2.000    0.000    0.000 
#    0.000    0.000    0.000    0.000    0.000    0.000 
#
# Total GULP energy -595382.017696 kJ/mol
# GULP energy per Si atom -12403.792035 kJ/mol
# Density = 1.818642 g / cm^3
# Si number density = 18.227908 Si / 1000 Ang^3
#
#
#
# Elastic Constant Matrix: (Units=GPa)
#
#
# Indices 1 2 3 4 5 6 
#
# 1 94.1338 43.7620 51.2375 0.0000 0.0000 0.0000
# 2 43.7620 87.5741 60.4667 0.0000 0.0000 0.0000
# 3 51.2375 60.4667 100.8277 0.0000 0.0000 0.0000
# 4 0.0000 0.0000 0.0000 15.8616 0.0000 0.0000
# 5 0.0000 0.0000 0.0000 0.0000 33.1487 0.0000
# 6 0.0000 0.0000 0.0000 0.0000 0.0000 27.6603
#
#
#
# Elastic Compliance Matrix: (Units=1/GPa)
#
#
# Indices 1 2 3 4 5 6 
#
# 1 0.015436 -0.003921 -0.005492 0.000000 0.000000 0.000000
# 2 -0.003921 0.020485 -0.010292 0.000000 0.000000 0.000000
# 3 -0.005492 -0.010292 0.018881 0.000000 0.000000 0.000000
# 4 0.000000 0.000000 0.000000 0.063045 0.000000 0.000000
# 5 0.000000 0.000000 0.000000 0.000000 0.030167 0.000000
# 6 0.000000 0.000000 0.000000 0.000000 0.000000 0.036153
#
#
# Mechanical properties :
#
#
# Convention : Reuss Voigt Hill
#
# Bulk Modulus (GPa) = 64.97640 65.94091 65.45865
# Shear Modulus (GPa) = 21.86194 23.80542 22.83368
#
# Velocity S-wave (km/s) = 3.46694 3.61777 3.54316
# Velocity P-wave (km/s) = 7.19377 7.32839 7.26139
#
# Compressibility (1/GPa) = 0.01539020
#
# Stress axis : x y z
#
# Youngs Moduli (GPa) = 64.78532 48.81700 52.96266
#
# Poissons Ratio (x) = 0.19141 0.29089
# Poissons Ratio (y) = 0.25403 0.54510
# Poissons Ratio (z) = 0.35583 0.50243
#
# Static dielectric constant tensor:
#      x y z
#    x 3.484190 0.000000 0.000000 
#    y 0.000000 3.242750 0.000000 
#    z 0.000000 0.000000 3.424200 
# 
# 
# High freq. dielectric constant tensor:
#      x y z
#    x 1.722680 0.000000 0.000000 
#    y 0.000000 1.692960 0.000000 
#    z 0.000000 0.000000 1.703670 
# 
# From -- ./inp_files/20141.got.cif
#   From: 2010.03.12/outbox.cif.g09.slc.cpg/sg53_11_cif.got.tgz:20141.got - 2010.04.16 14:36:59.
