data_PCOD8218468
_publ_section_title
;
Structure prediction by ZEFSAII (Michael W. Deem and Ramdas Pophale) SiO2 
 PCOD8218468
Probable space group: P M N A
;
_chemical_formula_sum "Si O2"
_cell_formula_units_Z 40
_cell_length_a 8.926889
_cell_length_b 13.784770
_cell_length_c 20.846568
_cell_angle_alpha 90.000000
_cell_angle_beta 90.000000
_cell_angle_gamma 90.000000
_cell_volume 2565.276753
_symmetry_space_group_name_H-M "P M N A"
_symmetry_group_IT_number 53
_symmetry_cell_setting 'orthorhombic'
loop_
_space_group_symop_operation_xyz
x,y,z
1/2-x,-y,1/2+z
x,-y,-z
1/2-x,y,1/2-z
-x,-y,-z
1/2+x,y,1/2-z
-x,y,z
1/2+x,-y,1/2+z
loop_
_atom_site_type_symbol
_atom_site_label
_atom_site_fract_x
_atom_site_fract_y
_atom_site_fract_z
Si Si1 0.823365 0.277050 0.931931
Si Si2 0.670045 0.289336 0.057384
Si Si3 0.676332 0.611082 0.184156
Si Si4 0.824926 0.387251 0.314943
Si Si5 0.329737 0.893808 0.013015
O O1 0.745800 0.327487 0.872533
O O2 0.000000 0.283910 0.925054
O O3 0.768382 0.330587 0.997685
O O4 0.769486 0.163858 0.934047
O O5 0.500000 0.328830 0.049874
O O6 0.737654 0.324831 0.125002
O O7 0.672301 0.171137 0.052601
O O8 0.750000 0.647567 0.250000
O O9 0.500000 0.628560 0.187316
O O10 0.716878 0.498817 0.172436
O O11 0.750000 0.348163 0.250000
O O12 0.000000 0.371541 0.306649
O O13 0.500000 0.904434 0.038814
O O14 0.260050 0.000000 0.000000
#
# Coordination Sequence:
#
# PCOD8218468 Si02
#       5
#     8   8   8   8   8
#     4  10  19  30  46  71  96 122 154 195 234 272
#     4   8  16  31  47  68  93 121 156 192 232 278
#     4  10  19  32  48  67  93 127 159 189 229 276
#     4   9  18  31  48  67  93 126 157 191 230 275
#     4   8  15  30  51  70  90 120 155 191 235 282
#
# _framework density 15.592859000000001
#
# number of rings (size 3 to 8) (size 9 to 14) (size 15 to 20)
#    1.200    1.800    0.000    1.800    0.000    2.800 
#    0.000    4.000    0.000    1.200    0.000    2.800 
#    0.000    0.000    0.000    0.000    0.000    0.000 
#
# Total GULP energy -495569.884528 kJ/mol
# GULP energy per Si atom -12389.247113 kJ/mol
# Density = 1.555737 g / cm^3
# Si number density = 15.592859 Si / 1000 Ang^3
#
#
#
# Elastic Constant Matrix: (Units=GPa)
#
#
# Indices 1 2 3 4 5 6 
#
# 1 71.5483 33.0750 47.6736 0.0000 0.0000 0.0000
# 2 33.0750 73.5450 63.8599 0.0000 0.0000 0.0000
# 3 47.6736 63.8599 137.2853 0.0000 0.0000 0.0000
# 4 0.0000 0.0000 0.0000 -2.9804 0.0000 0.0000
# 5 0.0000 0.0000 0.0000 0.0000 29.5297 0.0000
# 6 0.0000 0.0000 0.0000 0.0000 0.0000 15.8062
#
#
#
# Elastic Compliance Matrix: (Units=1/GPa)
#
#
# Indices 1 2 3 4 5 6 
#
# 1 0.019126 -0.004755 -0.004430 0.000000 0.000000 0.000000
# 2 -0.004755 0.023992 -0.009509 0.000000 0.000000 0.000000
# 3 -0.004430 -0.009509 0.013246 0.000000 0.000000 0.000000
# 4 0.000000 0.000000 0.000000 -0.335523 0.000000 0.000000
# 5 0.000000 0.000000 0.000000 0.000000 0.033864 0.000000
# 6 0.000000 0.000000 0.000000 0.000000 0.000000 0.063266
#
#
# Mechanical properties :
#
#
# Convention : Reuss Voigt Hill
#
# Bulk Modulus (GPa) = 52.69718 63.51060 58.10389
# Shear Modulus (GPa) = -36.14974 17.65577 -9.24699
#
# Velocity S-wave (km/s) = -4.82015 3.36861 -2.43786
# Velocity P-wave (km/s) = 1.70018 7.47991 5.42401
#
# Compressibility (1/GPa) = 0.01897635
#
# Stress axis : x y z
#
# Youngs Moduli (GPa) = 52.28354 41.67973 75.49591
#
# Poissons Ratio (x) = 0.19819 0.33445
# Poissons Ratio (y) = 0.24861 0.71790
# Poissons Ratio (z) = 0.23162 0.39634
#
# Static dielectric constant tensor:
#      x y z
#    x 3.010210 0.000000 0.000000 
#    y 0.000000 2.868480 0.000000 
#    z 0.000000 0.000000 2.967320 
# 
# 
# High freq. dielectric constant tensor:
#      x y z
#    x 1.599360 0.000000 0.000000 
#    y 0.000000 1.575790 0.000000 
#    z 0.000000 0.000000 1.586990 
# 
# From -- ./inp_files/20023.got.cif
#   From: 2010.03.12/outbox.cif.g09.slc.cpg/sg53_11_cif.got.tgz:20023.got - 2010.04.16 14:36:59.
