data_PCOD8218147
_publ_section_title
;
Structure prediction by ZEFSAII (Michael W. Deem and Ramdas Pophale) SiO2 
 PCOD8218147
Probable space group: P M N A
;
_chemical_formula_sum "Si O2"
_cell_formula_units_Z 64
_cell_length_a 8.675511
_cell_length_b 20.103935
_cell_length_c 19.369081
_cell_angle_alpha 90.000000
_cell_angle_beta 90.000000
_cell_angle_gamma 90.000000
_cell_volume 3378.198397
_symmetry_space_group_name_H-M "P M N A"
_symmetry_group_IT_number 53
_symmetry_cell_setting 'orthorhombic'
loop_
_space_group_symop_operation_xyz
x,y,z
1/2-x,-y,1/2+z
x,-y,-z
1/2-x,y,1/2-z
-x,-y,-z
1/2+x,y,1/2-z
-x,y,z
1/2+x,-y,1/2+z
loop_
_atom_site_type_symbol
_atom_site_label
_atom_site_fract_x
_atom_site_fract_y
_atom_site_fract_z
Si Si1 0.319901 0.145637 0.447905
Si Si2 0.173122 0.986387 0.580827
Si Si3 0.681847 0.760746 0.176176
Si Si4 0.682031 0.403963 0.325609
Si Si5 0.318581 0.515385 0.077815
Si Si6 0.317370 0.707940 0.572927
Si Si7 0.821405 0.118646 0.893231
Si Si8 0.682670 0.655408 0.426890
O O1 0.500000 0.137520 0.434376
O O2 0.236575 0.087572 0.404625
O O3 0.254677 0.216541 0.420888
O O4 0.283009 0.140778 0.528943
O O5 0.000000 0.991369 0.609213
O O6 0.181156 0.000000 0.500000
O O7 0.276692 0.041589 0.619120
O O8 0.750000 0.741971 0.250000
O O9 0.500000 0.747783 0.174397
O O10 0.719041 0.837274 0.158252
O O11 0.770391 0.715627 0.121601
O O12 0.750000 0.407529 0.250000
O O13 0.500000 0.405888 0.320737
O O14 0.735864 0.466214 0.369914
O O15 0.738516 0.335452 0.361850
O O16 0.500000 0.506961 0.086152
O O17 0.267823 0.589248 0.098726
O O18 0.263439 0.500000 0.000000
O O19 0.500000 0.711629 0.567751
O O20 0.256551 0.672570 0.503593
O O21 0.000000 0.128930 0.875418
O O22 0.500000 0.644618 0.424616
#
# Coordination Sequence:
#
# PCOD8218147 Si02
#       8
#     8   8   8   8   8   8   8   8
#     4   9  16  30  52  80 109 144 189 236 285 344
#     4   9  17  28  44  75 113 145 181 233 288 337
#     4  12  25  40  57  82 116 155 196 243 295 352
#     4  11  23  41  63  89 120 158 196 238 290 348
#     4  11  23  39  61  92 123 153 193 242 291 345
#     4   9  18  34  59  86 115 151 192 235 290 350
#     4  10  18  32  54  78 108 148 191 238 290 346
#     4  11  21  39  63  88 115 151 195 240 291 352
#
# _framework density 18.945008999999999
#
# number of rings (size 3 to 8) (size 9 to 14) (size 15 to 20)
#    0.000    1.750    2.500    3.000    0.000    3.000 
#    0.000    3.750    0.000    0.750    0.000    3.500 
#    0.000    0.000    0.000    0.000    0.000    0.000 
#
# Total GULP energy -793732.830538 kJ/mol
# GULP energy per Si atom -12402.075477 kJ/mol
# Density = 1.890189 g / cm^3
# Si number density = 18.945009 Si / 1000 Ang^3
#
#
#
# Elastic Constant Matrix: (Units=GPa)
#
#
# Indices 1 2 3 4 5 6 
#
# 1 55.2564 21.4957 28.3722 0.0000 0.0000 0.0000
# 2 21.4957 144.3993 45.1158 0.0000 0.0000 0.0000
# 3 28.3722 45.1158 98.8618 0.0000 0.0000 0.0000
# 4 0.0000 0.0000 0.0000 21.5475 0.0000 0.0000
# 5 0.0000 0.0000 0.0000 0.0000 19.1656 0.0000
# 6 0.0000 0.0000 0.0000 0.0000 0.0000 31.4305
#
#
#
# Elastic Compliance Matrix: (Units=1/GPa)
#
#
# Indices 1 2 3 4 5 6 
#
# 1 0.021494 -0.001484 -0.005491 0.000000 0.000000 0.000000
# 2 -0.001484 0.008179 -0.003307 0.000000 0.000000 0.000000
# 3 -0.005491 -0.003307 0.013200 0.000000 0.000000 0.000000
# 4 0.000000 0.000000 0.000000 0.046409 0.000000 0.000000
# 5 0.000000 0.000000 0.000000 0.000000 0.052177 0.000000
# 6 0.000000 0.000000 0.000000 0.000000 0.000000 0.031816
#
#
# Mechanical properties :
#
#
# Convention : Reuss Voigt Hill
#
# Bulk Modulus (GPa) = 44.82391 54.27609 49.55000
# Shear Modulus (GPa) = 24.84141 27.99764 26.41952
#
# Velocity S-wave (km/s) = 3.62503 3.84844 3.73840
# Velocity P-wave (km/s) = 6.42125 6.96123 6.69669
#
# Compressibility (1/GPa) = 0.02230952
#
# Stress axis : x y z
#
# Youngs Moduli (GPa) = 46.52374 122.25974 75.75664
#
# Poissons Ratio (x) = 0.18143 0.41601
# Poissons Ratio (y) = 0.06904 0.25051
# Poissons Ratio (z) = 0.25548 0.40428
#
# Static dielectric constant tensor:
#      x y z
#    x 3.403830 0.000000 0.000000 
#    y 0.000000 3.760600 0.000000 
#    z 0.000000 0.000000 3.260260 
# 
# 
# High freq. dielectric constant tensor:
#      x y z
#    x 1.734930 0.000000 0.000000 
#    y 0.000000 1.754250 0.000000 
#    z 0.000000 0.000000 1.702730 
# 
# From -- ./inp_files/31344.got.cif
#   From: 2010.03.12/outbox.cif.g09.slc.cpg/sg53_16_cif.got.tgz:31344.got - 2010.04.16 14:36:59.
