data_PCOD8218080
_publ_section_title
;
Structure prediction by ZEFSAII (Michael W. Deem and Ramdas Pophale) SiO2 
 PCOD8218080
Probable space group: P M N A
;
_chemical_formula_sum "Si O2"
_cell_formula_units_Z 52
_cell_length_a 13.139970
_cell_length_b 11.698895
_cell_length_c 19.178606
_cell_angle_alpha 90.000000
_cell_angle_beta 90.000000
_cell_angle_gamma 90.000000
_cell_volume 2948.195331
_symmetry_space_group_name_H-M "P M N A"
_symmetry_group_IT_number 53
_symmetry_cell_setting 'orthorhombic'
loop_
_space_group_symop_operation_xyz
x,y,z
1/2-x,-y,1/2+z
x,-y,-z
1/2-x,y,1/2-z
-x,-y,-z
1/2+x,y,1/2-z
-x,y,z
1/2+x,-y,1/2+z
loop_
_atom_site_type_symbol
_atom_site_label
_atom_site_fract_x
_atom_site_fract_y
_atom_site_fract_z
Si Si1 0.379648 0.920326 0.188226
Si Si2 0.274240 0.056536 0.574328
Si Si3 0.750000 0.277205 0.750000
Si Si4 0.879083 0.684523 0.871804
Si Si5 0.883941 0.275762 0.973044
Si Si6 0.119482 0.084288 0.189459
Si Si7 0.383593 0.432200 0.651614
O O1 0.500000 0.910459 0.184003
O O2 0.335580 0.946272 0.111798
O O3 0.335359 0.800372 0.213998
O O4 0.342000 0.022851 0.239741
O O5 0.315390 0.184325 0.567473
O O6 0.261404 0.000000 0.500000
O O7 0.354367 0.988835 0.621421
O O8 0.807585 0.355645 0.804623
O O9 0.838260 0.785904 0.820812
O O10 0.842304 0.562162 0.843211
O O11 0.000000 0.683133 0.876163
O O12 0.837433 0.704046 0.950210
O O13 0.879755 0.393027 0.929121
O O14 0.000000 0.229901 0.977551
O O15 0.000000 0.090945 0.193803
O O16 0.500000 0.421788 0.679547
#
# Coordination Sequence:
#
# PCOD8218080 Si02
#       7
#     8   8   4   8   8   8   8
#     4  11  23  39  57  78 108 142 183 232 276 324
#     4  12  21  33  54  82 112 142 183 223 270 333
#     4  12  20  36  56  80 100 144 186 224 268 314
#     4   9  18  32  52  82 114 140 168 214 277 328
#     4  10  18  31  54  82 113 140 170 221 277 323
#     4  10  19  34  56  82 113 142 174 223 277 325
#     4  10  20  34  52  79 111 141 177 219 265 321
#
# _framework density 17.637907999999999
#
# number of rings (size 3 to 8) (size 9 to 14) (size 15 to 20)
#    0.000    1.538    4.615    1.385    0.000    5.231 
#    2.769    0.000    0.000    0.000    0.000    3.231 
#    0.000    0.000    0.000    0.000    0.000    0.000 
#
# Total GULP energy -644651.177801 kJ/mol
# GULP energy per Si atom -12397.138035 kJ/mol
# Density = 1.759776 g / cm^3
# Si number density = 17.637908 Si / 1000 Ang^3
#
#
#
# Elastic Constant Matrix: (Units=GPa)
#
#
# Indices 1 2 3 4 5 6 
#
# 1 51.2819 27.2955 23.3692 0.0000 0.0000 0.0000
# 2 27.2955 120.7444 29.5331 0.0000 0.0000 0.0000
# 3 23.3692 29.5331 81.7206 0.0000 0.0000 0.0000
# 4 0.0000 0.0000 0.0000 29.0872 0.0000 0.0000
# 5 0.0000 0.0000 0.0000 0.0000 22.5092 0.0000
# 6 0.0000 0.0000 0.0000 0.0000 0.0000 15.1692
#
#
#
# Elastic Compliance Matrix: (Units=1/GPa)
#
#
# Indices 1 2 3 4 5 6 
#
# 1 0.024172 -0.004139 -0.005416 0.000000 0.000000 0.000000
# 2 -0.004139 0.009794 -0.002356 0.000000 0.000000 0.000000
# 3 -0.005416 -0.002356 0.014637 0.000000 0.000000 0.000000
# 4 0.000000 0.000000 0.000000 0.034379 0.000000 0.000000
# 5 0.000000 0.000000 0.000000 0.000000 0.044426 0.000000
# 6 0.000000 0.000000 0.000000 0.000000 0.000000 0.065923
#
#
# Mechanical properties :
#
#
# Convention : Reuss Voigt Hill
#
# Bulk Modulus (GPa) = 40.35568 46.01584 43.18576
# Shear Modulus (GPa) = 22.18140 24.92303 23.55222
#
# Velocity S-wave (km/s) = 3.55011 3.76312 3.65816
# Velocity P-wave (km/s) = 6.30350 6.71023 6.51004
#
# Compressibility (1/GPa) = 0.02477966
#
# Stress axis : x y z
#
# Youngs Moduli (GPa) = 41.37093 102.10423 68.31998
#
# Poissons Ratio (x) = 0.42266 0.37004
# Poissons Ratio (y) = 0.17125 0.16094
# Poissons Ratio (z) = 0.22408 0.24053
#
# Static dielectric constant tensor:
#      x y z
#    x 3.025480 0.000000 0.000000 
#    y 0.000000 3.605830 0.000000 
#    z 0.000000 0.000000 3.316470 
# 
# 
# High freq. dielectric constant tensor:
#      x y z
#    x 1.656100 0.000000 0.000000 
#    y 0.000000 1.693470 0.000000 
#    z 0.000000 0.000000 1.679880 
# 
# From -- ./inp_files/28417.got.cif
#   From: 2010.03.12/outbox.cif.g09.slc.cpg/sg53_15_cif.got.tgz:28417.got - 2010.04.16 14:36:59.
