data_PCOD8218685
_publ_section_title
;
Structure prediction by ZEFSAII (Michael W. Deem and Ramdas Pophale) SiO2 
 PCOD8218685
Probable space group: P M N A
;
_chemical_formula_sum "Si O2"
_cell_formula_units_Z 64
_cell_length_a 9.211694
_cell_length_b 27.442858
_cell_length_c 13.770417
_cell_angle_alpha 90.000000
_cell_angle_beta 90.000000
_cell_angle_gamma 90.000000
_cell_volume 3481.095463
_symmetry_space_group_name_H-M "P M N A"
_symmetry_group_IT_number 53
_symmetry_cell_setting 'orthorhombic'
loop_
_space_group_symop_operation_xyz
x,y,z
1/2-x,-y,1/2+z
x,-y,-z
1/2-x,y,1/2-z
-x,-y,-z
1/2+x,y,1/2-z
-x,y,z
1/2+x,-y,1/2+z
loop_
_atom_site_type_symbol
_atom_site_label
_atom_site_fract_x
_atom_site_fract_y
_atom_site_fract_z
Si Si1 0.670060 0.975731 0.345245
Si Si2 0.334284 0.306855 0.538416
Si Si3 0.328818 0.117896 0.545450
Si Si4 0.165061 0.553302 0.525874
Si Si5 0.331241 0.211923 0.651130
Si Si6 0.327651 0.632124 0.647536
Si Si7 0.669904 0.914165 0.654755
Si Si8 0.162922 0.619500 0.341653
O O1 0.750000 0.958154 0.250000
O O2 0.500000 0.973009 0.326982
O O3 0.720397 0.936355 0.424456
O O4 0.716202 0.030538 0.373859
O O5 0.500000 0.322974 0.555944
O O6 0.311792 0.249709 0.561012
O O7 0.291426 0.323579 0.428327
O O8 0.235519 0.331666 0.619195
O O9 0.500000 0.123024 0.554160
O O10 0.262080 0.161199 0.610807
O O11 0.283125 0.121882 0.432415
O O12 0.227511 0.500000 0.500000
O O13 0.265678 0.581332 0.603869
O O14 0.167024 0.579213 0.423307
O O15 0.000000 0.550619 0.567276
O O16 0.250000 0.227457 0.750000
O O17 0.500000 0.207077 0.678179
O O18 0.250000 0.644021 0.750000
O O19 0.500000 0.626795 0.664309
O O20 0.750000 0.895233 0.750000
O O21 0.500000 0.912009 0.675290
O O22 0.250000 0.598767 0.250000
O O23 0.000000 0.632179 0.309360
#
# Coordination Sequence:
#
# PCOD8218685 Si02
#       8
#     8   8   8   8   8   8   8   8
#     4   9  16  27  45  68  92 121 157 194 234 283
#     4   9  19  35  53  73  97 126 162 202 244 291
#     4   9  17  30  48  68  93 126 159 191 235 294
#     4   9  19  35  52  74 105 137 169 205 245 290
#     4  10  20  34  52  74  99 126 156 194 244 297
#     4  10  20  35  55  77 102 134 173 214 253 294
#     4   9  17  30  47  66  90 122 160 198 234 277
#     4  10  19  31  50  73  98 128 161 198 238 283
#
# _framework density 18.385017999999999
#
# number of rings (size 3 to 8) (size 9 to 14) (size 15 to 20)
#    0.000    2.625    0.000    1.875    0.000    4.750 
#    0.000    3.125    0.000    3.000    0.000    0.000 
#    0.000    0.000    0.000    0.000    0.000    0.000 
#
# Total GULP energy -793134.587572 kJ/mol
# GULP energy per Si atom -12392.727931 kJ/mol
# Density = 1.834317 g / cm^3
# Si number density = 18.385018 Si / 1000 Ang^3
#
#
#
# Elastic Constant Matrix: (Units=GPa)
#
#
# Indices 1 2 3 4 5 6 
#
# 1 62.9783 23.4057 45.0325 0.0000 0.0000 0.0000
# 2 23.4057 64.1509 44.9780 0.0000 0.0000 0.0000
# 3 45.0325 44.9780 122.9627 0.0000 0.0000 0.0000
# 4 0.0000 0.0000 0.0000 20.1984 0.0000 0.0000
# 5 0.0000 0.0000 0.0000 0.0000 33.1639 0.0000
# 6 0.0000 0.0000 0.0000 0.0000 0.0000 19.5316
#
#
#
# Elastic Compliance Matrix: (Units=1/GPa)
#
#
# Indices 1 2 3 4 5 6 
#
# 1 0.021989 -0.003196 -0.006884 0.000000 0.000000 0.000000
# 2 -0.003196 0.021430 -0.006668 0.000000 0.000000 0.000000
# 3 -0.006884 -0.006668 0.013093 0.000000 0.000000 0.000000
# 4 0.000000 0.000000 0.000000 0.049509 0.000000 0.000000
# 5 0.000000 0.000000 0.000000 0.000000 0.030153 0.000000
# 6 0.000000 0.000000 0.000000 0.000000 0.000000 0.051199
#
#
# Mechanical properties :
#
#
# Convention : Reuss Voigt Hill
#
# Bulk Modulus (GPa) = 43.45044 52.99157 48.22101
# Shear Modulus (GPa) = 21.87805 23.69050 22.78427
#
# Velocity S-wave (km/s) = 3.45337 3.59357 3.52417
# Velocity P-wave (km/s) = 6.29174 6.79000 6.54561
#
# Compressibility (1/GPa) = 0.02301473
#
# Stress axis : x y z
#
# Youngs Moduli (GPa) = 45.47824 46.66446 76.37881
#
# Poissons Ratio (x) = 0.14915 0.52577
# Poissons Ratio (y) = 0.14536 0.50930
# Poissons Ratio (z) = 0.31306 0.31116
#
# Static dielectric constant tensor:
#      x y z
#    x 3.361920 0.000000 0.000000 
#    y 0.000000 3.414670 0.000000 
#    z 0.000000 0.000000 3.382980 
# 
# 
# High freq. dielectric constant tensor:
#      x y z
#    x 1.697990 0.000000 0.000000 
#    y 0.000000 1.701300 0.000000 
#    z 0.000000 0.000000 1.716550 
# 
# From -- ./inp_files/14243.got.cif
#   From: 2010.03.12/outbox.cif.g09.slc.cpg/sg53_8_cif.got.tgz:14243.got - 2010.04.16 14:36:59.
