data_PCOD8218434
_publ_section_title
;
Structure prediction by ZEFSAII (Michael W. Deem and Ramdas Pophale) SiO2 
 PCOD8218434
Probable space group: P M N A
;
_chemical_formula_sum "Si O2"
_cell_formula_units_Z 64
_cell_length_a 8.988843
_cell_length_b 15.604640
_cell_length_c 28.612711
_cell_angle_alpha 90.000000
_cell_angle_beta 90.000000
_cell_angle_gamma 90.000000
_cell_volume 4013.437991
_symmetry_space_group_name_H-M "P M N A"
_symmetry_group_IT_number 53
_symmetry_cell_setting 'orthorhombic'
loop_
_space_group_symop_operation_xyz
x,y,z
1/2-x,-y,1/2+z
x,-y,-z
1/2-x,y,1/2-z
-x,-y,-z
1/2+x,y,1/2-z
-x,y,z
1/2+x,-y,1/2+z
loop_
_atom_site_type_symbol
_atom_site_label
_atom_site_fract_x
_atom_site_fract_y
_atom_site_fract_z
Si Si1 0.828429 0.004329 0.298625
Si Si2 0.825561 0.810844 0.700057
Si Si3 0.175618 0.396228 0.049600
Si Si4 0.826370 0.667237 0.148324
Si Si5 0.824909 0.409934 0.946687
Si Si6 0.323587 0.348233 0.139290
Si Si7 0.674470 0.492673 0.299677
Si Si8 0.825297 0.818753 0.300328
O O1 0.750000 0.003508 0.250000
O O2 0.786069 0.095220 0.323323
O O3 0.000000 0.005388 0.286754
O O4 0.789953 0.913298 0.323443
O O5 0.750000 0.797838 0.750000
O O6 0.769287 0.737907 0.665036
O O7 0.000000 0.801349 0.708481
O O8 0.235118 0.493239 0.055509
O O9 0.267153 0.338506 0.086016
O O10 0.000000 0.388183 0.059428
O O11 0.214525 0.366150 0.996546
O O12 0.762395 0.644499 0.096778
O O13 0.795949 0.589499 0.183888
O O14 0.736845 0.750008 0.163889
O O15 0.000000 0.689817 0.146706
O O16 0.000000 0.417704 0.941093
O O17 0.500000 0.359993 0.140983
O O18 0.245332 0.429666 0.162534
O O19 0.750000 0.476933 0.250000
O O20 0.500000 0.473023 0.295667
O O21 0.750000 0.807682 0.250000
O O22 0.000000 0.803899 0.293533
#
# Coordination Sequence:
#
# PCOD8218434 Si02
#       8
#     8   8   8   8   8   8   8   8
#     4   8  15  29  46  63  86 115 149 185 225 265
#     4   9  18  31  46  65  90 121 152 186 223 266
#     4   9  16  31  52  68  86 115 153 190 227 272
#     4  10  19  32  48  67  90 119 152 185 223 268
#     4   8  15  30  51  69  85 114 153 189 226 272
#     4  11  21  31  45  68  95 121 152 187 227 268
#     4  11  22  34  46  61  89 127 160 186 217 261
#     4  10  19  30  46  68  92 120 151 187 225 266
#
# _framework density 15.946427999999999
#
# number of rings (size 3 to 8) (size 9 to 14) (size 15 to 20)
#    0.000    2.500    1.250    2.625    0.000    4.500 
#    0.000    1.875    0.000    0.000    0.000    0.875 
#    0.000    7.000    0.000    0.000    0.000    0.000 
#
# Total GULP energy -792999.059146 kJ/mol
# GULP energy per Si atom -12390.610299 kJ/mol
# Density = 1.591013 g / cm^3
# Si number density = 15.946428 Si / 1000 Ang^3
#
#
#
# Elastic Constant Matrix: (Units=GPa)
#
#
# Indices 1 2 3 4 5 6 
#
# 1 48.6556 34.9239 27.9877 0.0000 0.0000 0.0000
# 2 34.9239 100.2220 38.3666 0.0000 0.0000 0.0000
# 3 27.9877 38.3666 94.9858 0.0000 0.0000 0.0000
# 4 0.0000 0.0000 0.0000 11.7272 0.0000 0.0000
# 5 0.0000 0.0000 0.0000 0.0000 22.7980 0.0000
# 6 0.0000 0.0000 0.0000 0.0000 0.0000 17.3919
#
#
#
# Elastic Compliance Matrix: (Units=1/GPa)
#
#
# Indices 1 2 3 4 5 6 
#
# 1 0.029564 -0.008242 -0.005382 0.000000 0.000000 0.000000
# 2 -0.008242 0.014100 -0.003267 0.000000 0.000000 0.000000
# 3 -0.005382 -0.003267 0.013433 0.000000 0.000000 0.000000
# 4 0.000000 0.000000 0.000000 0.085271 0.000000 0.000000
# 5 0.000000 0.000000 0.000000 0.000000 0.043863 0.000000
# 6 0.000000 0.000000 0.000000 0.000000 0.000000 0.057498
#
#
# Mechanical properties :
#
#
# Convention : Reuss Voigt Hill
#
# Bulk Modulus (GPa) = 42.88847 49.60219 46.24533
# Shear Modulus (GPa) = 17.52633 19.88912 18.70773
#
# Velocity S-wave (km/s) = 3.31883 3.53547 3.42886
# Velocity P-wave (km/s) = 6.45290 6.91658 6.68876
#
# Compressibility (1/GPa) = 0.02331629
#
# Stress axis : x y z
#
# Youngs Moduli (GPa) = 33.82456 70.91956 74.44154
#
# Poissons Ratio (x) = 0.58450 0.40066
# Poissons Ratio (y) = 0.27877 0.24320
# Poissons Ratio (z) = 0.18205 0.23169
#
# Static dielectric constant tensor:
#      x y z
#    x 2.822120 0.000000 0.000000 
#    y 0.000000 3.462380 0.000000 
#    z 0.000000 0.000000 3.061590 
# 
# 
# High freq. dielectric constant tensor:
#      x y z
#    x 1.608980 0.000000 0.000000 
#    y 0.000000 1.607730 0.000000 
#    z 0.000000 0.000000 1.593160 
# 
# From -- ./inp_files/38440.got.cif
#   From: 2010.03.12/outbox.cif.g09.slc.cpg/sg53_20_cif.got.tgz:38440.got - 2010.04.16 14:36:59.
