data_PCOD8218164
_publ_section_title
;
Structure prediction by ZEFSAII (Michael W. Deem and Ramdas Pophale) SiO2 
 PCOD8218164
Probable space group: P M N A
;
_chemical_formula_sum "Si O2"
_cell_formula_units_Z 32
_cell_length_a 19.020179
_cell_length_b 8.449464
_cell_length_c 9.013801
_cell_angle_alpha 90.000000
_cell_angle_beta 90.000000
_cell_angle_gamma 90.000000
_cell_volume 1448.610823
_symmetry_space_group_name_H-M "P M N A"
_symmetry_group_IT_number 53
_symmetry_cell_setting 'orthorhombic'
loop_
_space_group_symop_operation_xyz
x,y,z
1/2-x,-y,1/2+z
x,-y,-z
1/2-x,y,1/2-z
-x,-y,-z
1/2+x,y,1/2-z
-x,y,z
1/2+x,-y,1/2+z
loop_
_atom_site_type_symbol
_atom_site_label
_atom_site_fract_x
_atom_site_fract_y
_atom_site_fract_z
Si Si1 0.000000 0.154867 0.712377
Si Si2 0.364541 0.395569 0.144569
Si Si3 0.500000 0.203197 0.137305
Si Si4 0.234839 0.815134 0.477382
Si Si5 0.855013 0.707170 0.204506
O O1 0.000000 0.202479 0.540635
O O2 0.934052 0.227889 0.800229
O O3 0.000000 0.965723 0.717976
O O4 0.431049 0.292558 0.192923
O O5 0.349578 0.517073 0.278271
O O6 0.382622 0.500000 0.000000
O O7 0.297924 0.279197 0.117670
O O8 0.313164 0.748803 0.446231
O O9 0.182768 0.792986 0.340586
O O10 0.239911 0.000000 0.500000
#
# Coordination Sequence:
#
# PCOD8218164 Si02
#       5
#     4   8   4   8   8
#     4  11  19  32  54  83 117 146 190 236 283 340
#     4  10  18  32  55  83 114 145 181 235 292 337
#     4  11  18  29  56  84 115 143 181 244 302 324
#     4  10  20  37  56  82 116 150 186 231 282 340
#     4  10  21  35  56  86 113 148 190 231 287 339
#
# _framework density 22.090129000000001
#
# number of rings (size 3 to 8) (size 9 to 14) (size 15 to 20)
#    0.000    1.750    5.000    2.625    0.000    0.000 
#    0.000   28.125    0.000    0.000    0.000   25.375 
#    0.000    0.000    0.000    0.000    0.000    0.000 
#
# Total GULP energy -396794.440781 kJ/mol
# GULP energy per Si atom -12399.826274 kJ/mol
# Density = 2.203985 g / cm^3
# Si number density = 22.090129 Si / 1000 Ang^3
#
#
#
# Elastic Constant Matrix: (Units=GPa)
#
#
# Indices 1 2 3 4 5 6 
#
# 1 202.5416 101.6970 45.0258 0.0000 0.0000 0.0000
# 2 101.6970 223.9499 44.1950 0.0000 0.0000 0.0000
# 3 45.0258 44.1950 14.5369 0.0000 0.0000 0.0000
# 4 0.0000 0.0000 0.0000 13.4508 0.0000 0.0000
# 5 0.0000 0.0000 0.0000 0.0000 8.4506 0.0000
# 6 0.0000 0.0000 0.0000 0.0000 0.0000 23.7339
#
#
#
# Elastic Compliance Matrix: (Units=1/GPa)
#
#
# Indices 1 2 3 4 5 6 
#
# 1 0.020301 0.007974 -0.087121 0.000000 0.000000 0.000000
# 2 0.007974 0.014294 -0.068156 0.000000 0.000000 0.000000
# 3 -0.087121 -0.068156 0.545840 0.000000 0.000000 0.000000
# 4 0.000000 0.000000 0.000000 0.074345 0.000000 0.000000
# 5 0.000000 0.000000 0.000000 0.000000 0.118335 0.000000
# 6 0.000000 0.000000 0.000000 0.000000 0.000000 0.042134
#
#
# Mechanical properties :
#
#
# Convention : Reuss Voigt Hill
#
# Bulk Modulus (GPa) = 3.49858 91.42931 47.46395
# Shear Modulus (GPa) = 4.14892 25.80109 14.97500
#
# Velocity S-wave (km/s) = 1.37195 3.42130 2.60649
# Velocity P-wave (km/s) = 2.02408 7.55553 5.53096
#
# Compressibility (1/GPa) = 0.28582999
#
# Stress axis : x y z
#
# Youngs Moduli (GPa) = 49.25903 69.95815 1.83204
#
# Poissons Ratio (x) = -0.55785 0.15961
# Poissons Ratio (y) = -0.39279 0.12486
# Poissons Ratio (z) = 4.29151 4.76804
#
# Static dielectric constant tensor:
#      x y z
#    x 4.275940 0.000000 0.000000 
#    y 0.000000 4.223490 0.000000 
#    z 0.000000 0.000000 3.536380 
# 
# 
# High freq. dielectric constant tensor:
#      x y z
#    x 1.879230 0.000000 0.000000 
#    y 0.000000 1.889910 0.000000 
#    z 0.000000 0.000000 1.810250 
# 
# From -- ./inp_files/16582.got.cif
#   From: 2010.03.12/outbox.cif.g09.slc.cpg/sg53_9_cif.got.tgz:16582.got - 2010.04.16 14:36:59.
