data_PCOD8218025
_publ_section_title
;
Structure prediction by ZEFSAII (Michael W. Deem and Ramdas Pophale) SiO2 
 PCOD8218025
Probable space group: P M N A
;
_chemical_formula_sum "Si O2"
_cell_formula_units_Z 64
_cell_length_a 17.413733
_cell_length_b 12.270019
_cell_length_c 15.919467
_cell_angle_alpha 90.000000
_cell_angle_beta 90.000000
_cell_angle_gamma 90.000000
_cell_volume 3401.462125
_symmetry_space_group_name_H-M "P M N A"
_symmetry_group_IT_number 53
_symmetry_cell_setting 'orthorhombic'
loop_
_space_group_symop_operation_xyz
x,y,z
1/2-x,-y,1/2+z
x,-y,-z
1/2-x,y,1/2-z
-x,-y,-z
1/2+x,y,1/2-z
-x,y,z
1/2+x,-y,1/2+z
loop_
_atom_site_type_symbol
_atom_site_label
_atom_site_fract_x
_atom_site_fract_y
_atom_site_fract_z
Si Si1 0.912309 0.609235 0.052049
Si Si2 0.277771 0.762930 0.499464
Si Si3 0.591513 0.520947 0.270687
Si Si4 0.713661 0.870172 0.840505
Si Si5 0.084445 0.290314 0.654580
Si Si6 0.414237 0.306068 0.186786
Si Si7 0.128379 0.623832 0.513355
Si Si8 0.788489 0.882077 0.340547
O O1 0.860347 0.704140 0.010812
O O2 0.879055 0.571293 0.142037
O O3 0.000000 0.654180 0.057863
O O4 0.910513 0.500000 0.000000
O O5 0.273159 0.833048 0.586029
O O6 0.212877 0.673832 0.511510
O O7 0.264387 0.835379 0.415841
O O8 0.500000 0.513309 0.267846
O O9 0.622843 0.605820 0.201245
O O10 0.621113 0.396417 0.252576
O O11 0.750000 0.861977 0.750000
O O12 0.637057 0.799240 0.830742
O O13 0.690578 0.993584 0.862109
O O14 0.076871 0.319273 0.557072
O O15 0.132245 0.181500 0.667049
O O16 0.000000 0.266602 0.691658
O O17 0.500000 0.269564 0.214940
O O18 0.419410 0.367188 0.098425
O O19 0.144532 0.500000 0.500000
O O20 0.750000 0.871284 0.250000
#
# Coordination Sequence:
#
# PCOD8218025 Si02
#       8
#     8   8   8   8   8   8   8   8
#     4  10  21  36  56  82 113 148 185 228 280 337
#     4  10  21  37  58  80 111 149 184 232 278 328
#     4   9  18  32  51  81 115 143 175 221 278 329
#     4  10  23  40  57  80 108 148 193 235 279 330
#     4  10  19  31  54  84 113 145 183 229 275 328
#     4  10  20  34  55  81 115 151 180 220 273 334
#     4  10  18  31  50  81 116 149 179 207 261 337
#     4  10  21  39  59  79 108 146 190 237 286 328
#
# _framework density 18.815438
#
# number of rings (size 3 to 8) (size 9 to 14) (size 15 to 20)
#    0.000    2.125    1.250    1.875    1.750    1.000 
#    0.000    0.625    0.000    7.500    0.000    0.000 
#    0.000    0.000    0.000    0.000    0.000    0.000 
#
# Total GULP energy -793109.240182 kJ/mol
# GULP energy per Si atom -12392.331878 kJ/mol
# Density = 1.877261 g / cm^3
# Si number density = 18.815438 Si / 1000 Ang^3
#
#
#
# Elastic Constant Matrix: (Units=GPa)
#
#
# Indices 1 2 3 4 5 6 
#
# 1 72.8791 46.1673 34.3406 0.0000 0.0000 0.0000
# 2 46.1673 127.4909 40.1188 0.0000 0.0000 0.0000
# 3 34.3406 40.1188 74.5800 0.0000 0.0000 0.0000
# 4 0.0000 0.0000 0.0000 22.3518 0.0000 0.0000
# 5 0.0000 0.0000 0.0000 0.0000 24.3489 0.0000
# 6 0.0000 0.0000 0.0000 0.0000 0.0000 1071.8925
#
#
#
# Elastic Compliance Matrix: (Units=1/GPa)
#
#
# Indices 1 2 3 4 5 6 
#
# 1 0.020070 -0.005248 -0.006418 0.000000 0.000000 0.000000
# 2 -0.005248 0.010814 -0.003401 0.000000 0.000000 0.000000
# 3 -0.006418 -0.003401 0.018193 0.000000 0.000000 0.000000
# 4 0.000000 0.000000 0.000000 0.044739 0.000000 0.000000
# 5 0.000000 0.000000 0.000000 0.000000 0.041070 0.000000
# 6 0.000000 0.000000 0.000000 0.000000 0.000000 0.000933
#
#
# Mechanical properties :
#
#
# Convention : Reuss Voigt Hill
#
# Bulk Modulus (GPa) = 52.78937 57.35593 55.07265
# Shear Modulus (GPa) = 29.02451 234.00687 131.51569
#
# Velocity S-wave (km/s) = 3.93184 11.16421 8.36956
# Velocity P-wave (km/s) = 6.98068 14.02625 11.07848
#
# Compressibility (1/GPa) = 0.01894321
#
# Stress axis : x y z
#
# Youngs Moduli (GPa) = 49.82503 92.46979 54.96583
#
# Poissons Ratio (x) = 0.48530 0.35278
# Poissons Ratio (y) = 0.26149 0.18693
# Poissons Ratio (z) = 0.31979 0.31447
#
# Static dielectric constant tensor:
#      x y z
#    x 3.192150 0.000000 0.000000 
#    y 0.000000 3.525080 0.000000 
#    z 0.000000 0.000000 3.781290 
# 
# 
# High freq. dielectric constant tensor:
#      x y z
#    x 1.709940 0.000000 0.000000 
#    y 0.000000 1.729150 0.000000 
#    z 0.000000 0.000000 1.746150 
# 
# From -- ./inp_files/23874.got.cif
#   From: 2010.03.12/outbox.cif.g09.slc.cpg/sg53_12_cif.got.tgz:23874.got - 2010.04.16 14:36:59.
