data_PCOD8218928
_publ_section_title
;
Structure prediction by ZEFSAII (Michael W. Deem and Ramdas Pophale) SiO2 
 PCOD8218928
Probable space group: P M N A
;
_chemical_formula_sum "Si O2"
_cell_formula_units_Z 64
_cell_length_a 8.990525
_cell_length_b 23.424364
_cell_length_c 15.661926
_cell_angle_alpha 90.000000
_cell_angle_beta 90.000000
_cell_angle_gamma 90.000000
_cell_volume 3298.359801
_symmetry_space_group_name_H-M "P M N A"
_symmetry_group_IT_number 53
_symmetry_cell_setting 'orthorhombic'
loop_
_space_group_symop_operation_xyz
x,y,z
1/2-x,-y,1/2+z
x,-y,-z
1/2-x,y,1/2-z
-x,-y,-z
1/2+x,y,1/2-z
-x,y,z
1/2+x,-y,1/2+z
loop_
_atom_site_type_symbol
_atom_site_label
_atom_site_fract_x
_atom_site_fract_y
_atom_site_fract_z
Si Si1 0.173830 0.052364 0.906201
Si Si2 0.327613 0.369885 0.505944
Si Si3 0.174213 0.940027 0.586195
Si Si4 0.828177 0.827410 0.164747
Si Si5 0.173747 0.180627 0.338095
Si Si6 0.174759 0.238092 0.001925
Si Si7 0.674188 0.568453 0.666532
Si Si8 0.833181 0.532517 0.410931
O O1 0.200221 0.104871 0.842537
O O2 0.000000 0.038669 0.916922
O O3 0.259198 0.996886 0.868902
O O4 0.240104 0.069544 0.997751
O O5 0.500000 0.382372 0.522507
O O6 0.287900 0.303868 0.514754
O O7 0.282166 0.390562 0.411555
O O8 0.236522 0.404607 0.577430
O O9 0.205032 0.886348 0.646719
O O10 0.000000 0.948228 0.567776
O O11 0.750000 0.804271 0.250000
O O12 0.000000 0.812281 0.173616
O O13 0.764954 0.796153 0.080534
O O14 0.250000 0.199333 0.250000
O O15 0.239594 0.217695 0.414589
O O16 0.000000 0.193699 0.331695
O O17 0.000000 0.227400 0.016599
O O18 0.750000 0.595862 0.750000
O O19 0.500000 0.564825 0.680651
O O20 0.736041 0.504265 0.654739
O O21 0.831074 0.500000 0.500000
O O22 0.000000 0.538881 0.375179
#
# Coordination Sequence:
#
# PCOD8218928 Si02
#       8
#     8   8   8   8   8   8   8   8
#     4  10  19  33  56  83 109 143 181 226 286 346
#     4   9  19  35  57  80 107 147 187 228 277 330
#     4  10  20  34  54  82 112 144 181 228 283 342
#     4  10  22  38  59  84 110 144 186 235 288 343
#     4  11  24  39  58  83 113 152 193 236 288 345
#     4  10  21  41  62  82 113 152 196 243 290 338
#     4  10  19  32  52  81 114 146 181 223 274 328
#     4   9  17  31  52  78 107 139 175 216 260 313
#
# _framework density 19.403583000000001
#
# number of rings (size 3 to 8) (size 9 to 14) (size 15 to 20)
#    0.000    2.125    1.250    2.625    0.000    6.500 
#    0.000    4.375    0.000    1.500    0.000    0.000 
#    0.000    0.000    0.000    0.000    0.000    0.000 
#
# Total GULP energy -793675.315339 kJ/mol
# GULP energy per Si atom -12401.176802 kJ/mol
# Density = 1.935942 g / cm^3
# Si number density = 19.403583 Si / 1000 Ang^3
#
#
#
# Elastic Constant Matrix: (Units=GPa)
#
#
# Indices 1 2 3 4 5 6 
#
# 1 80.1815 30.4829 26.0209 0.0000 0.0000 0.0000
# 2 30.4829 82.7578 18.9722 0.0000 0.0000 0.0000
# 3 26.0209 18.9722 74.3890 0.0000 0.0000 0.0000
# 4 0.0000 0.0000 0.0000 14.4670 0.0000 0.0000
# 5 0.0000 0.0000 0.0000 0.0000 32.3116 0.0000
# 6 0.0000 0.0000 0.0000 0.0000 0.0000 27.2123
#
#
#
# Elastic Compliance Matrix: (Units=1/GPa)
#
#
# Indices 1 2 3 4 5 6 
#
# 1 0.015679 -0.004798 -0.004261 0.000000 0.000000 0.000000
# 2 -0.004798 0.014302 -0.001969 0.000000 0.000000 0.000000
# 3 -0.004261 -0.001969 0.015435 0.000000 0.000000 0.000000
# 4 0.000000 0.000000 0.000000 0.069123 0.000000 0.000000
# 5 0.000000 0.000000 0.000000 0.000000 0.030949 0.000000
# 6 0.000000 0.000000 0.000000 0.000000 0.000000 0.036748
#
#
# Mechanical properties :
#
#
# Convention : Reuss Voigt Hill
#
# Bulk Modulus (GPa) = 42.80800 43.14227 42.97513
# Shear Modulus (GPa) = 23.57619 25.58834 24.58227
#
# Velocity S-wave (km/s) = 3.48953 3.63539 3.56321
# Velocity P-wave (km/s) = 6.19238 6.31695 6.25497
#
# Compressibility (1/GPa) = 0.02336012
#
# Stress axis : x y z
#
# Youngs Moduli (GPa) = 63.78140 69.91881 64.78611
#
# Poissons Ratio (x) = 0.33549 0.27602
# Poissons Ratio (y) = 0.30604 0.12758
# Poissons Ratio (z) = 0.27174 0.13769
#
# Static dielectric constant tensor:
#      x y z
#    x 3.597420 0.000000 0.000000 
#    y 0.000000 3.578490 0.000000 
#    z 0.000000 0.000000 3.385920 
# 
# 
# High freq. dielectric constant tensor:
#      x y z
#    x 1.760460 0.000000 0.000000 
#    y 0.000000 1.750980 0.000000 
#    z 0.000000 0.000000 1.742160 
# 
# From -- ./inp_files/20954.got.cif
#   From: 2010.03.12/outbox.cif.g09.slc.cpg/sg53_11_cif.got.tgz:20954.got - 2010.04.16 14:36:59.
