data_PCOD8218733
_publ_section_title
;
Structure prediction by ZEFSAII (Michael W. Deem and Ramdas Pophale) SiO2 
 PCOD8218733
Probable space group: P M N A
;
_chemical_formula_sum "Si O2"
_cell_formula_units_Z 56
_cell_length_a 8.853162
_cell_length_b 15.380598
_cell_length_c 23.216905
_cell_angle_alpha 90.000000
_cell_angle_beta 90.000000
_cell_angle_gamma 90.000000
_cell_volume 3161.374579
_symmetry_space_group_name_H-M "P M N A"
_symmetry_group_IT_number 53
_symmetry_cell_setting 'orthorhombic'
loop_
_space_group_symop_operation_xyz
x,y,z
1/2-x,-y,1/2+z
x,-y,-z
1/2-x,y,1/2-z
-x,-y,-z
1/2+x,y,1/2-z
-x,y,z
1/2+x,-y,1/2+z
loop_
_atom_site_type_symbol
_atom_site_label
_atom_site_fract_x
_atom_site_fract_y
_atom_site_fract_z
Si Si1 0.325046 0.984905 0.688451
Si Si2 0.176688 0.502709 0.310564
Si Si3 0.322015 0.815775 0.812839
Si Si4 0.321529 0.670026 0.120467
Si Si5 0.175837 0.177527 0.812542
Si Si6 0.322141 0.653113 0.890716
Si Si7 0.678293 0.600017 0.494765
O O1 0.250000 0.991161 0.750000
O O2 0.500000 0.961126 0.694209
O O3 0.240993 0.904569 0.656757
O O4 0.302392 0.080327 0.660652
O O5 0.250000 0.482583 0.250000
O O6 0.225132 0.597286 0.332966
O O7 0.232938 0.431464 0.356008
O O8 0.000000 0.494695 0.301948
O O9 0.250000 0.800829 0.750000
O O10 0.500000 0.822164 0.805236
O O11 0.275755 0.737454 0.854411
O O12 0.500000 0.678896 0.114987
O O13 0.252066 0.760466 0.140957
O O14 0.256165 0.644876 0.059140
O O15 0.250000 0.188814 0.750000
O O16 0.000000 0.200217 0.805480
O O17 0.500000 0.650121 0.903824
O O18 0.230843 0.654609 0.950004
O O19 0.732404 0.500000 0.500000
O O20 0.500000 0.606163 0.487449
#
# Coordination Sequence:
#
# PCOD8218733 Si02
#       7
#     8   8   8   8   8   8   8
#     4   9  17  30  50  75 107 143 175 214 262 313
#     4  10  21  34  50  74 105 139 171 207 257 311
#     4  10  19  31  52  80 110 142 176 216 262 314
#     4  11  22  36  56  77 104 143 178 220 267 313
#     4  10  20  34  53  80 112 143 178 219 265 319
#     4  10  21  37  54  75 105 141 178 217 262 314
#     4  11  23  38  57  79 101 135 182 228 266 309
#
# _framework density 17.713813999999999
#
# number of rings (size 3 to 8) (size 9 to 14) (size 15 to 20)
#    0.000    1.857    1.429    3.857    0.000    6.286 
#    0.000    0.000    0.000    0.857    0.000    6.000 
#    0.000    0.000    0.000    0.000    0.000    0.000 
#
# Total GULP energy -694354.266852 kJ/mol
# GULP energy per Si atom -12399.183337 kJ/mol
# Density = 1.767350 g / cm^3
# Si number density = 17.713814 Si / 1000 Ang^3
#
#
#
# Elastic Constant Matrix: (Units=GPa)
#
#
# Indices 1 2 3 4 5 6 
#
# 1 83.8324 58.6391 44.1504 0.0000 0.0000 0.0000
# 2 58.6391 125.9739 41.6539 0.0000 0.0000 0.0000
# 3 44.1504 41.6539 85.6394 0.0000 0.0000 0.0000
# 4 0.0000 0.0000 0.0000 345.1142 0.0000 0.0000
# 5 0.0000 0.0000 0.0000 0.0000 31.7594 0.0000
# 6 0.0000 0.0000 0.0000 0.0000 0.0000 25.8955
#
#
#
# Elastic Compliance Matrix: (Units=1/GPa)
#
#
# Indices 1 2 3 4 5 6 
#
# 1 0.020831 -0.007323 -0.007177 0.000000 0.000000 0.000000
# 2 -0.007323 0.012034 -0.002078 0.000000 0.000000 0.000000
# 3 -0.007177 -0.002078 0.016388 0.000000 0.000000 0.000000
# 4 0.000000 0.000000 0.000000 0.002898 0.000000 0.000000
# 5 0.000000 0.000000 0.000000 0.000000 0.031487 0.000000
# 6 0.000000 0.000000 0.000000 0.000000 0.000000 0.038617
#
#
# Mechanical properties :
#
#
# Convention : Reuss Voigt Hill
#
# Bulk Modulus (GPa) = 62.12702 64.92583 63.52643
# Shear Modulus (GPa) = 31.09923 90.62063 60.85993
#
# Velocity S-wave (km/s) = 4.19459 7.16025 5.86787
# Velocity P-wave (km/s) = 7.65560 10.25140 9.04708
#
# Compressibility (1/GPa) = 0.01609606
#
# Stress axis : x y z
#
# Youngs Moduli (GPa) = 48.00540 83.09726 61.02179
#
# Poissons Ratio (x) = 0.60855 0.43797
# Poissons Ratio (y) = 0.35156 0.12679
# Poissons Ratio (z) = 0.34454 0.17266
#
# Static dielectric constant tensor:
#      x y z
#    x 3.368430 0.000000 0.000000 
#    y 0.000000 3.880730 0.000000 
#    z 0.000000 0.000000 3.038030 
# 
# 
# High freq. dielectric constant tensor:
#      x y z
#    x 1.697540 0.000000 0.000000 
#    y 0.000000 1.697950 0.000000 
#    z 0.000000 0.000000 1.658530 
# 
# From -- ./inp_files/30802.got.cif
#   From: 2010.03.12/outbox.cif.g09.slc.cpg/sg53_16_cif.got.tgz:30802.got - 2010.04.16 14:36:59.
