data_PCOD8218659
_publ_section_title
;
Structure prediction by ZEFSAII (Michael W. Deem and Ramdas Pophale) SiO2 
 PCOD8218659
Probable space group: P M N A
;
_chemical_formula_sum "Si O2"
_cell_formula_units_Z 64
_cell_length_a 9.147995
_cell_length_b 11.577924
_cell_length_c 32.923743
_cell_angle_alpha 90.000000
_cell_angle_beta 90.000000
_cell_angle_gamma 90.000000
_cell_volume 3487.111354
_symmetry_space_group_name_H-M "P M N A"
_symmetry_group_IT_number 53
_symmetry_cell_setting 'orthorhombic'
loop_
_space_group_symop_operation_xyz
x,y,z
1/2-x,-y,1/2+z
x,-y,-z
1/2-x,y,1/2-z
-x,-y,-z
1/2+x,y,1/2-z
-x,y,z
1/2+x,-y,1/2+z
loop_
_atom_site_type_symbol
_atom_site_label
_atom_site_fract_x
_atom_site_fract_y
_atom_site_fract_z
Si Si1 0.826295 0.091133 0.626731
Si Si2 0.327499 0.166726 0.110726
Si Si3 0.833072 0.290841 0.470957
Si Si4 0.837270 0.494119 0.060433
Si Si5 0.670488 0.794045 0.209223
Si Si6 0.835618 0.629276 0.854078
Si Si7 0.331057 0.270870 0.938955
Si Si8 0.328573 0.473447 0.790887
O O1 0.769805 0.133570 0.670753
O O2 0.764922 0.174353 0.591176
O O3 0.000000 0.094324 0.625590
O O4 0.769320 0.962569 0.617996
O O5 0.500000 0.177538 0.118861
O O6 0.287088 0.202056 0.064448
O O7 0.242673 0.246414 0.142988
O O8 0.739542 0.409246 0.472126
O O9 0.811007 0.228395 0.514430
O O10 0.000000 0.329524 0.464446
O O11 0.841744 0.424621 0.101865
O O12 0.750403 0.610196 0.068574
O O13 0.000000 0.523109 0.044958
O O14 0.750000 0.837280 0.250000
O O15 0.500000 0.814952 0.216018
O O16 0.705055 0.660425 0.200261
O O17 0.737513 0.547023 0.826924
O O18 0.000000 0.643165 0.836363
O O19 0.500000 0.293172 0.928654
O O20 0.250000 0.514110 0.750000
O O21 0.500000 0.497498 0.787133
#
# Coordination Sequence:
#
# PCOD8218659 Si02
#       8
#     8   8   8   8   8   8   8   8
#     4   9  18  33  53  75  99 130 169 209 248 295
#     4   9  18  34  53  71  96 133 173 209 249 297
#     4   9  18  31  49  73  99 130 167 208 254 301
#     4  10  20  32  48  71 100 133 168 208 254 306
#     4   9  18  33  53  77 103 130 159 195 243 295
#     4  10  20  34  51  72  99 131 169 210 251 296
#     4  10  19  31  49  74 102 129 163 209 255 303
#     4  10  19  32  53  80 108 134 160 197 248 305
#
# _framework density 18.353300000000001
#
# number of rings (size 3 to 8) (size 9 to 14) (size 15 to 20)
#    0.000    2.500    0.000    2.250    0.000    5.500 
#    0.000    5.000    0.000    1.500    0.000    4.375 
#    0.000    0.000    0.000    0.000    0.000    0.000 
#
# Total GULP energy -793598.834904 kJ/mol
# GULP energy per Si atom -12399.981795 kJ/mol
# Density = 1.831153 g / cm^3
# Si number density = 18.353300 Si / 1000 Ang^3
#
#
#
# Elastic Constant Matrix: (Units=GPa)
#
#
# Indices 1 2 3 4 5 6 
#
# 1 69.8772 41.6565 33.6576 0.0000 0.0000 0.0000
# 2 41.6565 119.5603 53.7466 0.0000 0.0000 0.0000
# 3 33.6576 53.7466 87.1627 0.0000 0.0000 0.0000
# 4 0.0000 0.0000 0.0000 25.7230 0.0000 0.0000
# 5 0.0000 0.0000 0.0000 0.0000 24.7095 0.0000
# 6 0.0000 0.0000 0.0000 0.0000 0.0000 15.0134
#
#
#
# Elastic Compliance Matrix: (Units=1/GPa)
#
#
# Indices 1 2 3 4 5 6 
#
# 1 0.019296 -0.004667 -0.004573 0.000000 0.000000 0.000000
# 2 -0.004667 0.012700 -0.006029 0.000000 0.000000 0.000000
# 3 -0.004573 -0.006029 0.016956 0.000000 0.000000 0.000000
# 4 0.000000 0.000000 0.000000 0.038876 0.000000 0.000000
# 5 0.000000 0.000000 0.000000 0.000000 0.040470 0.000000
# 6 0.000000 0.000000 0.000000 0.000000 0.000000 0.066607
#
#
# Mechanical properties :
#
#
# Convention : Reuss Voigt Hill
#
# Bulk Modulus (GPa) = 54.30726 59.41349 56.86037
# Shear Modulus (GPa) = 21.59059 22.92516 22.25787
#
# Velocity S-wave (km/s) = 3.43357 3.53810 3.48623
# Velocity P-wave (km/s) = 6.73598 7.00951 6.87410
#
# Compressibility (1/GPa) = 0.01841375
#
# Stress axis : x y z
#
# Youngs Moduli (GPa) = 51.82469 78.73771 58.97470
#
# Poissons Ratio (x) = 0.36748 0.26970
# Poissons Ratio (y) = 0.24187 0.35557
# Poissons Ratio (z) = 0.23700 0.47472
#
# Static dielectric constant tensor:
#      x y z
#    x 3.418960 0.000000 0.000000 
#    y 0.000000 3.347390 0.000000 
#    z 0.000000 0.000000 3.536860 
# 
# 
# High freq. dielectric constant tensor:
#      x y z
#    x 1.699550 0.000000 0.000000 
#    y 0.000000 1.699170 0.000000 
#    z 0.000000 0.000000 1.717110 
# 
# From -- ./inp_files/38172.got.cif
#   From: 2010.03.12/outbox.cif.g09.slc.cpg/sg53_20_cif.got.tgz:38172.got - 2010.04.16 14:36:59.
