data_PCOD8218537
_publ_section_title
;
Structure prediction by ZEFSAII (Michael W. Deem and Ramdas Pophale) SiO2 
 PCOD8218537
Probable space group: P M N A
;
_chemical_formula_sum "Si O2"
_cell_formula_units_Z 64
_cell_length_a 17.249281
_cell_length_b 16.162301
_cell_length_c 13.505878
_cell_angle_alpha 90.000000
_cell_angle_beta 90.000000
_cell_angle_gamma 90.000000
_cell_volume 3765.277682
_symmetry_space_group_name_H-M "P M N A"
_symmetry_group_IT_number 53
_symmetry_cell_setting 'orthorhombic'
loop_
_space_group_symop_operation_xyz
x,y,z
1/2-x,-y,1/2+z
x,-y,-z
1/2-x,y,1/2-z
-x,-y,-z
1/2+x,y,1/2-z
-x,y,z
1/2+x,-y,1/2+z
loop_
_atom_site_type_symbol
_atom_site_label
_atom_site_fract_x
_atom_site_fract_y
_atom_site_fract_z
Si Si1 0.337318 0.923268 0.928137
Si Si2 0.409836 0.845156 0.361652
Si Si3 0.334203 0.909914 0.546316
Si Si4 0.091230 0.232317 0.515764
Si Si5 0.087976 0.554787 0.346395
Si Si6 0.589919 0.020454 0.271857
Si Si7 0.160918 0.284538 0.720409
Si Si8 0.586679 0.391855 0.073225
O O1 0.252120 0.882380 0.922678
O O2 0.359054 0.953921 0.820399
O O3 0.398464 0.857600 0.970015
O O4 0.339213 0.000000 0.000000
O O5 0.500000 0.847596 0.385312
O O6 0.366148 0.844027 0.467093
O O7 0.389328 0.762188 0.302897
O O8 0.385992 0.926617 0.299402
O O9 0.390967 0.914805 0.640649
O O10 0.331763 0.000000 0.500000
O O11 0.142548 0.242541 0.614738
O O12 0.119980 0.298106 0.430076
O O13 0.000000 0.246289 0.541808
O O14 0.138735 0.617664 0.280029
O O15 0.126475 0.461287 0.354515
O O16 0.086874 0.584527 0.458453
O O17 0.000000 0.553762 0.304235
O O18 0.500000 0.026478 0.244860
O O19 0.250000 0.274227 0.750000
O O20 0.500000 0.390434 0.114542
#
# Coordination Sequence:
#
# PCOD8218537 Si02
#       8
#     8   8   8   8   8   8   8   8
#     4  11  21  31  46  70 100 129 157 198 253 297
#     4  10  19  32  49  67  89 122 165 202 233 278
#     4   9  19  34  49  64  87 123 164 203 242 284
#     4  10  19  31  46  68  99 132 164 196 236 289
#     4   8  13  25  44  65  87 114 147 180 221 272
#     4  10  20  33  49  66  87 121 164 205 239 279
#     4  11  20  28  42  68 101 129 151 186 240 294
#     4   7  12  24  44  65  85 113 147 181 219 271
#
# _framework density 16.997418
#
# number of rings (size 3 to 8) (size 9 to 14) (size 15 to 20)
#    0.000    2.500    0.000    5.250    0.000    5.500 
#    0.000    0.000    0.000    1.500    0.000    0.000 
#    0.000    0.000    0.000   75.125    0.000    0.000 
#
# Total GULP energy -792934.412490 kJ/mol
# GULP energy per Si atom -12389.600195 kJ/mol
# Density = 1.695873 g / cm^3
# Si number density = 16.997418 Si / 1000 Ang^3
#
#
#
# Elastic Constant Matrix: (Units=GPa)
#
#
# Indices 1 2 3 4 5 6 
#
# 1 78.0302 33.4144 40.5836 0.0000 0.0000 0.0000
# 2 33.4144 92.4741 41.9879 0.0000 0.0000 0.0000
# 3 40.5836 41.9879 87.8653 0.0000 0.0000 0.0000
# 4 0.0000 0.0000 0.0000 29.7660 0.0000 0.0000
# 5 0.0000 0.0000 0.0000 0.0000 28.8287 0.0000
# 6 0.0000 0.0000 0.0000 0.0000 0.0000 15.1547
#
#
#
# Elastic Compliance Matrix: (Units=1/GPa)
#
#
# Indices 1 2 3 4 5 6 
#
# 1 0.017677 -0.003423 -0.006529 0.000000 0.000000 0.000000
# 2 -0.003423 0.014473 -0.005335 0.000000 0.000000 0.000000
# 3 -0.006529 -0.005335 0.016946 0.000000 0.000000 0.000000
# 4 0.000000 0.000000 0.000000 0.033595 0.000000 0.000000
# 5 0.000000 0.000000 0.000000 0.000000 0.034688 0.000000
# 6 0.000000 0.000000 0.000000 0.000000 0.000000 0.065986
#
#
# Mechanical properties :
#
#
# Convention : Reuss Voigt Hill
#
# Bulk Modulus (GPa) = 53.98968 54.48240 54.23604
# Shear Modulus (GPa) = 22.71548 24.24212 23.47880
#
# Velocity S-wave (km/s) = 3.65966 3.78063 3.72064
# Velocity P-wave (km/s) = 7.04910 7.15406 7.10177
#
# Compressibility (1/GPa) = 0.01852206
#
# Stress axis : x y z
#
# Youngs Moduli (GPa) = 56.57038 69.09352 59.00996
#
# Poissons Ratio (x) = 0.23650 0.38528
# Poissons Ratio (y) = 0.19363 0.31483
# Poissons Ratio (z) = 0.36935 0.36863
#
# Static dielectric constant tensor:
#      x y z
#    x 3.150920 0.000000 0.000000 
#    y 0.000000 3.576530 0.000000 
#    z 0.000000 0.000000 3.314830 
# 
# 
# High freq. dielectric constant tensor:
#      x y z
#    x 1.645210 0.000000 0.000000 
#    y 0.000000 1.648600 0.000000 
#    z 0.000000 0.000000 1.630080 
# 
# From -- ./inp_files/17115.got.cif
#   From: 2010.03.12/outbox.cif.g09.slc.cpg/sg53_9_cif.got.tgz:17115.got - 2010.04.16 14:36:59.
