data_PCOD8218694
_publ_section_title
;
Structure prediction by ZEFSAII (Michael W. Deem and Ramdas Pophale) SiO2 
 PCOD8218694
Probable space group: P M N A
;
_chemical_formula_sum "Si O2"
_cell_formula_units_Z 40
_cell_length_a 8.790827
_cell_length_b 26.463736
_cell_length_c 9.199237
_cell_angle_alpha 90.000000
_cell_angle_beta 90.000000
_cell_angle_gamma 90.000000
_cell_volume 2140.093247
_symmetry_space_group_name_H-M "P M N A"
_symmetry_group_IT_number 53
_symmetry_cell_setting 'orthorhombic'
loop_
_space_group_symop_operation_xyz
x,y,z
1/2-x,-y,1/2+z
x,-y,-z
1/2-x,y,1/2-z
-x,-y,-z
1/2+x,y,1/2-z
-x,y,z
1/2+x,-y,1/2+z
loop_
_atom_site_type_symbol
_atom_site_label
_atom_site_fract_x
_atom_site_fract_y
_atom_site_fract_z
Si Si1 0.679695 0.047727 0.908052
Si Si2 0.820043 0.144026 0.409474
Si Si3 0.821860 0.756466 0.908015
Si Si4 0.821955 0.353026 0.091782
Si Si5 0.179767 0.451945 0.408794
O O1 0.750000 0.045781 0.750000
O O2 0.500000 0.046212 0.891955
O O3 0.734573 0.098210 0.989637
O O4 0.739207 0.000000 0.000000
O O5 0.750000 0.136767 0.250000
O O6 0.759020 0.195904 0.486467
O O7 0.000000 0.146066 0.395159
O O8 0.750000 0.753401 0.750000
O O9 0.793255 0.701735 0.986334
O O10 0.000000 0.767612 0.894941
O O11 0.750000 0.350242 0.250000
O O12 0.742241 0.400677 0.011527
O O13 0.000000 0.363987 0.105459
O O14 0.234879 0.500000 0.500000
O O15 0.250000 0.457146 0.250000
O O16 0.000000 0.449031 0.398019
#
# Coordination Sequence:
#
# PCOD8218694 Si02
#       5
#     8   8   8   8   8
#     4  10  22  38  55  77 103 132 168 206 245 291
#     4  10  19  31  50  76 103 131 163 199 242 291
#     4   9  16  26  43  69  98 127 160 198 241 287
#     4   9  16  26  43  67  94 125 160 199 242 287
#     4  10  20  32  48  71  97 127 163 202 246 294
#
# _framework density 18.690773
#
# number of rings (size 3 to 8) (size 9 to 14) (size 15 to 20)
#    0.000    2.400    0.000    5.400    0.000    6.000 
#    0.000    0.000    0.000    1.200    0.000    0.000 
#    0.000    0.000    0.000    0.000    0.000    0.000 
#
# Total GULP energy -495603.008822 kJ/mol
# GULP energy per Si atom -12390.075221 kJ/mol
# Density = 1.864823 g / cm^3
# Si number density = 18.690773 Si / 1000 Ang^3
#
#
#
# Elastic Constant Matrix: (Units=GPa)
#
#
# Indices 1 2 3 4 5 6 
#
# 1 81.1407 62.7703 25.9841 0.0000 0.0000 0.0000
# 2 62.7703 230.5606 62.8048 0.0000 0.0000 0.0000
# 3 25.9841 62.8048 63.6718 0.0000 0.0000 0.0000
# 4 0.0000 0.0000 0.0000 25.2264 0.0000 0.0000
# 5 0.0000 0.0000 0.0000 0.0000 21.1733 0.0000
# 6 0.0000 0.0000 0.0000 0.0000 0.0000 36.8709
#
#
#
# Elastic Compliance Matrix: (Units=1/GPa)
#
#
# Indices 1 2 3 4 5 6 
#
# 1 0.016037 -0.003532 -0.003060 0.000000 0.000000 0.000000
# 2 -0.003532 0.006709 -0.005176 0.000000 0.000000 0.000000
# 3 -0.003060 -0.005176 0.022060 0.000000 0.000000 0.000000
# 4 0.000000 0.000000 0.000000 0.039641 0.000000 0.000000
# 5 0.000000 0.000000 0.000000 0.000000 0.047229 0.000000
# 6 0.000000 0.000000 0.000000 0.000000 0.000000 0.027122
#
#
# Mechanical properties :
#
#
# Convention : Reuss Voigt Hill
#
# Bulk Modulus (GPa) = 47.01803 75.38794 61.20299
# Shear Modulus (GPa) = 26.39571 31.57503 28.98537
#
# Velocity S-wave (km/s) = 3.76204 4.11461 3.94227
# Velocity P-wave (km/s) = 6.63935 7.93696 7.31698
#
# Compressibility (1/GPa) = 0.02126844
#
# Stress axis : x y z
#
# Youngs Moduli (GPa) = 62.35586 149.05543 45.33110
#
# Poissons Ratio (x) = 0.52653 0.13872
# Poissons Ratio (y) = 0.22027 0.23463
# Poissons Ratio (z) = 0.19082 0.77151
#
# Static dielectric constant tensor:
#      x y z
#    x 3.505060 0.000000 0.000000 
#    y 0.000000 4.881490 0.000000 
#    z 0.000000 0.000000 2.899810 
# 
# 
# High freq. dielectric constant tensor:
#      x y z
#    x 1.737620 0.000000 0.000000 
#    y 0.000000 1.764690 0.000000 
#    z 0.000000 0.000000 1.657410 
# 
# From -- ./inp_files/6449.got.cif
#   From: 2010.03.12/outbox.cif.g09.slc.cpg/sg53_4_cif.got.tgz:6449.got - 2010.04.16 14:36:59.
