data_PCOD8218762
_publ_section_title
;
Structure prediction by ZEFSAII (Michael W. Deem and Ramdas Pophale) SiO2 
 PCOD8218762
Probable space group: P M N A
;
_chemical_formula_sum "Si O2"
_cell_formula_units_Z 64
_cell_length_a 8.941563
_cell_length_b 22.827292
_cell_length_c 17.192176
_cell_angle_alpha 90.000000
_cell_angle_beta 90.000000
_cell_angle_gamma 90.000000
_cell_volume 3509.123746
_symmetry_space_group_name_H-M "P M N A"
_symmetry_group_IT_number 53
_symmetry_cell_setting 'orthorhombic'
loop_
_space_group_symop_operation_xyz
x,y,z
1/2-x,-y,1/2+z
x,-y,-z
1/2-x,y,1/2-z
-x,-y,-z
1/2+x,y,1/2-z
-x,y,z
1/2+x,-y,1/2+z
loop_
_atom_site_type_symbol
_atom_site_label
_atom_site_fract_x
_atom_site_fract_y
_atom_site_fract_z
Si Si1 0.672755 0.372538 0.441987
Si Si2 0.826516 0.452313 0.330401
Si Si3 0.676343 0.133430 0.984695
Si Si4 0.330717 0.430594 0.918890
Si Si5 0.822725 0.939067 0.331638
Si Si6 0.668001 0.037355 0.422549
Si Si7 0.175445 0.743876 0.027115
Si Si8 0.328645 0.315751 0.830058
O O1 0.500000 0.382225 0.424469
O O2 0.764191 0.391739 0.365814
O O3 0.716765 0.413966 0.513730
O O4 0.708740 0.304862 0.461068
O O5 0.750000 0.467543 0.250000
O O6 0.789969 0.505080 0.389276
O O7 0.000000 0.445145 0.314742
O O8 0.500000 0.136681 0.994420
O O9 0.718088 0.107784 0.899278
O O10 0.747240 0.196553 0.997974
O O11 0.740720 0.095505 0.056013
O O12 0.500000 0.428832 0.952583
O O13 0.315256 0.384705 0.848308
O O14 0.750000 0.918159 0.250000
O O15 0.000000 0.945110 0.321605
O O16 0.754639 0.002122 0.355069
O O17 0.500000 0.052566 0.393558
O O18 0.659414 0.000000 0.500000
O O19 0.245106 0.723352 0.107427
O O20 0.000000 0.753515 0.038679
O O21 0.250000 0.301862 0.750000
O O22 0.500000 0.295347 0.826430
#
# Coordination Sequence:
#
# PCOD8218762 Si02
#       8
#     8   8   8   8   8   8   8   8
#     4  10  21  36  54  76 102 134 172 214 258 307
#     4  11  22  35  53  77 104 132 165 209 261 316
#     4  10  20  34  53  77 104 136 176 217 255 298
#     4   9  19  34  52  75 102 133 168 207 255 311
#     4  10  20  33  51  78 111 142 171 207 251 299
#     4   9  17  31  52  76 103 136 171 206 246 292
#     4  10  21  36  53  73  99 134 176 216 255 302
#     4  10  19  32  49  70 100 135 170 209 254 305
#
# _framework density 18.238171000000001
#
# number of rings (size 3 to 8) (size 9 to 14) (size 15 to 20)
#    0.000    2.125    0.000    3.375    0.000    8.000 
#    0.000    1.250    0.000    0.750    0.000    1.750 
#    0.000    0.000    0.000    0.000    0.000    0.000 
#
# Total GULP energy -793686.101934 kJ/mol
# GULP energy per Si atom -12401.345343 kJ/mol
# Density = 1.819666 g / cm^3
# Si number density = 18.238171 Si / 1000 Ang^3
#
#
#
# Elastic Constant Matrix: (Units=GPa)
#
#
# Indices 1 2 3 4 5 6 
#
# 1 108.2902 58.8339 31.1315 0.0000 0.0000 0.0000
# 2 58.8339 109.8850 21.9812 0.0000 0.0000 0.0000
# 3 31.1315 21.9812 29.4053 0.0000 0.0000 0.0000
# 4 0.0000 0.0000 0.0000 14.6179 0.0000 0.0000
# 5 0.0000 0.0000 0.0000 0.0000 33.8754 0.0000
# 6 0.0000 0.0000 0.0000 0.0000 0.0000 41.1488
#
#
#
# Elastic Compliance Matrix: (Units=1/GPa)
#
#
# Indices 1 2 3 4 5 6 
#
# 1 0.016182 -0.006158 -0.012529 0.000000 0.000000 0.000000
# 2 -0.006158 0.013044 -0.003231 0.000000 0.000000 0.000000
# 3 -0.012529 -0.003231 0.049687 0.000000 0.000000 0.000000
# 4 0.000000 0.000000 0.000000 0.068409 0.000000 0.000000
# 5 0.000000 0.000000 0.000000 0.000000 0.029520 0.000000
# 6 0.000000 0.000000 0.000000 0.000000 0.000000 0.024302
#
#
# Mechanical properties :
#
#
# Convention : Reuss Voigt Hill
#
# Bulk Modulus (GPa) = 28.50849 52.38596 40.44722
# Shear Modulus (GPa) = 19.48019 26.97069 23.22544
#
# Velocity S-wave (km/s) = 3.27173 3.84969 3.57242
# Velocity P-wave (km/s) = 5.47151 6.96748 6.26431
#
# Compressibility (1/GPa) = 0.03507727
#
# Stress axis : x y z
#
# Youngs Moduli (GPa) = 61.79849 76.66520 20.12596
#
# Poissons Ratio (x) = 0.47208 0.25215
# Poissons Ratio (y) = 0.38054 0.06503
# Poissons Ratio (z) = 0.77424 0.24773
#
# Static dielectric constant tensor:
#      x y z
#    x 3.527750 0.000000 0.000000 
#    y 0.000000 3.410440 0.000000 
#    z 0.000000 0.000000 3.208990 
# 
# 
# High freq. dielectric constant tensor:
#      x y z
#    x 1.724620 0.000000 0.000000 
#    y 0.000000 1.698590 0.000000 
#    z 0.000000 0.000000 1.686980 
# 
# From -- ./inp_files/26994.got.cif
#   From: 2010.03.12/outbox.cif.g09.slc.cpg/sg53_14_cif.got.tgz:26994.got - 2010.04.16 14:36:59.
