data_PCOD8218058
_publ_section_title
;
Structure prediction by ZEFSAII (Michael W. Deem and Ramdas Pophale) SiO2 
 PCOD8218058
Probable space group: P M N A
;
_chemical_formula_sum "Si O2"
_cell_formula_units_Z 48
_cell_length_a 8.943181
_cell_length_b 14.932375
_cell_length_c 20.709680
_cell_angle_alpha 90.000000
_cell_angle_beta 90.000000
_cell_angle_gamma 90.000000
_cell_volume 2765.631396
_symmetry_space_group_name_H-M "P M N A"
_symmetry_group_IT_number 53
_symmetry_cell_setting 'orthorhombic'
loop_
_space_group_symop_operation_xyz
x,y,z
1/2-x,-y,1/2+z
x,-y,-z
1/2-x,y,1/2-z
-x,-y,-z
1/2+x,y,1/2-z
-x,y,z
1/2+x,-y,1/2+z
loop_
_atom_site_type_symbol
_atom_site_label
_atom_site_fract_x
_atom_site_fract_y
_atom_site_fract_z
Si Si1 0.176744 0.007128 0.312431
Si Si2 0.172796 0.816753 0.848169
Si Si3 0.674080 0.765633 0.977121
Si Si4 0.323984 0.413770 0.457644
Si Si5 0.173653 0.065022 0.554246
Si Si6 0.329637 0.384760 0.313772
O O1 0.250000 0.959593 0.250000
O O2 0.227425 0.110641 0.311636
O O3 0.000000 0.001527 0.306828
O O4 0.242284 0.956995 0.375645
O O5 0.231815 0.810676 0.920687
O O6 0.193679 0.721731 0.813366
O O7 0.000000 0.846309 0.848671
O O8 0.500000 0.760183 0.957631
O O9 0.736973 0.667184 0.992502
O O10 0.697897 0.830033 0.038919
O O11 0.284774 0.500000 0.500000
O O12 0.500000 0.391568 0.457862
O O13 0.269558 0.424340 0.382699
O O14 0.000000 0.040075 0.557971
O O15 0.247039 0.000000 0.500000
O O16 0.250000 0.425442 0.250000
O O17 0.500000 0.413019 0.306506
#
# Coordination Sequence:
#
# PCOD8218058 Si02
#       6
#     8   8   8   8   8   8
#     4  11  21  33  48  68  99 135 174 214 257 302
#     4  10  19  31  46  70 102 135 168 199 246 306
#     4  10  18  31  53  77  99 128 169 213 252 296
#     4   9  19  36  54  73 102 134 164 205 259 310
#     4   9  17  32  51  71  98 135 170 203 252 301
#     4   9  18  30  46  69  97 128 158 191 240 299
#
# _framework density 17.355892000000001
#
# number of rings (size 3 to 8) (size 9 to 14) (size 15 to 20)
#    0.000    2.333    1.667    3.000    0.000    5.000 
#    0.000    4.167    0.000    1.000    0.000    7.000 
#    0.000    0.000    0.000    0.000    0.000    0.000 
#
# Total GULP energy -594970.481739 kJ/mol
# GULP energy per Si atom -12395.218370 kJ/mol
# Density = 1.731639 g / cm^3
# Si number density = 17.355892 Si / 1000 Ang^3
#
#
#
# Elastic Constant Matrix: (Units=GPa)
#
#
# Indices 1 2 3 4 5 6 
#
# 1 51.6847 24.5023 37.9022 0.0000 0.0000 0.0000
# 2 24.5023 73.7907 58.9378 0.0000 0.0000 0.0000
# 3 37.9022 58.9378 143.4711 0.0000 0.0000 0.0000
# 4 0.0000 0.0000 0.0000 19.1268 0.0000 0.0000
# 5 0.0000 0.0000 0.0000 0.0000 25.3764 0.0000
# 6 0.0000 0.0000 0.0000 0.0000 0.0000 9.1048
#
#
#
# Elastic Compliance Matrix: (Units=1/GPa)
#
#
# Indices 1 2 3 4 5 6 
#
# 1 0.024961 -0.004497 -0.004747 0.000000 0.000000 0.000000
# 2 -0.004497 0.020980 -0.007431 0.000000 0.000000 0.000000
# 3 -0.004747 -0.007431 0.011277 0.000000 0.000000 0.000000
# 4 0.000000 0.000000 0.000000 0.052283 0.000000 0.000000
# 5 0.000000 0.000000 0.000000 0.000000 0.039407 0.000000
# 6 0.000000 0.000000 0.000000 0.000000 0.000000 0.109833
#
#
# Mechanical properties :
#
#
# Convention : Reuss Voigt Hill
#
# Bulk Modulus (GPa) = 41.89570 56.84789 49.37180
# Shear Modulus (GPa) = 16.66420 20.56186 18.61303
#
# Velocity S-wave (km/s) = 3.10198 3.44571 3.27835
# Velocity P-wave (km/s) = 6.08452 6.97538 6.54512
#
# Compressibility (1/GPa) = 0.02386880
#
# Stress axis : x y z
#
# Youngs Moduli (GPa) = 40.06250 47.66447 88.67966
#
# Poissons Ratio (x) = 0.21434 0.42095
# Poissons Ratio (y) = 0.18016 0.65894
# Poissons Ratio (z) = 0.19017 0.35417
#
# Static dielectric constant tensor:
#      x y z
#    x 3.153280 0.000000 0.000000 
#    y 0.000000 3.050980 0.000000 
#    z 0.000000 0.000000 3.443280 
# 
# 
# High freq. dielectric constant tensor:
#      x y z
#    x 1.662090 0.000000 0.000000 
#    y 0.000000 1.634840 0.000000 
#    z 0.000000 0.000000 1.674790 
# 
# From -- ./inp_files/30508.got.cif
#   From: 2010.03.12/outbox.cif.g09.slc.cpg/sg53_16_cif.got.tgz:30508.got - 2010.04.16 14:36:59.
