data_PCOD8218843
_publ_section_title
;
Structure prediction by ZEFSAII (Michael W. Deem and Ramdas Pophale) SiO2 
 PCOD8218843
Probable space group: P M N A
;
_chemical_formula_sum "Si O2"
_cell_formula_units_Z 48
_cell_length_a 8.963857
_cell_length_b 31.310089
_cell_length_c 9.111166
_cell_angle_alpha 90.000000
_cell_angle_beta 90.000000
_cell_angle_gamma 90.000000
_cell_volume 2557.132200
_symmetry_space_group_name_H-M "P M N A"
_symmetry_group_IT_number 53
_symmetry_cell_setting 'orthorhombic'
loop_
_space_group_symop_operation_xyz
x,y,z
1/2-x,-y,1/2+z
x,-y,-z
1/2-x,y,1/2-z
-x,-y,-z
1/2+x,y,1/2-z
-x,y,z
1/2+x,-y,1/2+z
loop_
_atom_site_type_symbol
_atom_site_label
_atom_site_fract_x
_atom_site_fract_y
_atom_site_fract_z
Si Si1 0.323978 0.540953 0.907672
Si Si2 0.673647 0.880709 0.593928
Si Si3 0.825365 0.786929 0.907195
Si Si4 0.824199 0.959381 0.094356
Si Si5 0.675415 0.622032 0.092885
Si Si6 0.676782 0.704405 0.909302
O O1 0.250000 0.539528 0.750000
O O2 0.500000 0.541515 0.884763
O O3 0.271773 0.500000 0.000000
O O4 0.268177 0.582798 0.993796
O O5 0.750000 0.886066 0.750000
O O6 0.500000 0.887944 0.623213
O O7 0.701792 0.833696 0.520864
O O8 0.736079 0.916318 0.483218
O O9 0.750000 0.789274 0.750000
O O10 0.742680 0.747422 0.988313
O O11 0.000000 0.776580 0.893689
O O12 0.750000 0.963813 0.250000
O O13 0.000000 0.957640 0.115804
O O14 0.774309 0.000000 0.000000
O O15 0.750000 0.619497 0.250000
O O16 0.500000 0.619588 0.116551
O O17 0.723726 0.665396 0.012360
O O18 0.750000 0.697647 0.750000
O O19 0.500000 0.708117 0.891303
#
# Coordination Sequence:
#
# PCOD8218843 Si02
#       6
#     8   8   8   8   8   8
#     4  10  21  37  57  82 109 137 172 211 253 304
#     4   9  18  32  51  76 103 131 166 207 249 298
#     4   9  16  28  48  73 101 132 167 207 251 297
#     4  10  21  36  53  75 102 131 166 206 248 298
#     4  10  22  37  53  76 105 137 174 214 255 303
#     4  10  19  32  51  76 103 132 171 213 253 300
#
# _framework density 18.771027
#
# number of rings (size 3 to 8) (size 9 to 14) (size 15 to 20)
#    0.000    2.333    0.000    3.500    0.000    4.000 
#    0.000    0.833    0.000    4.000    0.000    0.000 
#    0.000    0.000    0.000    0.000    0.000    0.000 
#
# Total GULP energy -595035.544916 kJ/mol
# GULP energy per Si atom -12396.573852 kJ/mol
# Density = 1.872830 g / cm^3
# Si number density = 18.771027 Si / 1000 Ang^3
#
#
#
# Elastic Constant Matrix: (Units=GPa)
#
#
# Indices 1 2 3 4 5 6 
#
# 1 56.5588 53.7774 44.0827 0.0000 0.0000 0.0000
# 2 53.7774 205.5206 91.5509 0.0000 0.0000 0.0000
# 3 44.0827 91.5509 134.7846 0.0000 0.0000 0.0000
# 4 0.0000 0.0000 0.0000 33.3343 0.0000 0.0000
# 5 0.0000 0.0000 0.0000 0.0000 30.8300 0.0000
# 6 0.0000 0.0000 0.0000 0.0000 0.0000 27.9899
#
#
#
# Elastic Compliance Matrix: (Units=1/GPa)
#
#
# Indices 1 2 3 4 5 6 
#
# 1 0.026193 -0.004356 -0.005608 0.000000 0.000000 0.000000
# 2 -0.004356 0.007701 -0.003806 0.000000 0.000000 0.000000
# 3 -0.005608 -0.003806 0.011839 0.000000 0.000000 0.000000
# 4 0.000000 0.000000 0.000000 0.029999 0.000000 0.000000
# 5 0.000000 0.000000 0.000000 0.000000 0.032436 0.000000
# 6 0.000000 0.000000 0.000000 0.000000 0.000000 0.035727
#
#
# Mechanical properties :
#
#
# Convention : Reuss Voigt Hill
#
# Bulk Modulus (GPa) = 54.96671 86.18731 70.57701
# Shear Modulus (GPa) = 28.16905 32.26104 30.21505
#
# Velocity S-wave (km/s) = 3.87805 4.15017 4.01641
# Velocity P-wave (km/s) = 7.02842 8.30542 7.69346
#
# Compressibility (1/GPa) = 0.01819283
#
# Stress axis : x y z
#
# Youngs Moduli (GPa) = 38.17769 129.85501 84.46781
#
# Poissons Ratio (x) = 0.56559 0.47372
# Poissons Ratio (y) = 0.16629 0.32150
# Poissons Ratio (z) = 0.21411 0.49426
#
# Static dielectric constant tensor:
#      x y z
#    x 3.400030 0.000000 0.000000 
#    y 0.000000 4.405370 0.000000 
#    z 0.000000 0.000000 3.158560 
# 
# 
# High freq. dielectric constant tensor:
#      x y z
#    x 1.726770 0.000000 0.000000 
#    y 0.000000 1.759070 0.000000 
#    z 0.000000 0.000000 1.703100 
# 
# From -- ./inp_files/6742.got.cif
#   From: 2010.03.12/outbox.cif.g09.slc.cpg/sg53_4_cif.got.tgz:6742.got - 2010.04.16 14:36:59.
