data_PCOD8218308
_publ_section_title
;
Structure prediction by ZEFSAII (Michael W. Deem and Ramdas Pophale) SiO2 
 PCOD8218308
Probable space group: P M N A
;
_chemical_formula_sum "Si O2"
_cell_formula_units_Z 56
_cell_length_a 14.715207
_cell_length_b 12.134808
_cell_length_c 14.427766
_cell_angle_alpha 90.000000
_cell_angle_beta 90.000000
_cell_angle_gamma 90.000000
_cell_volume 2576.311517
_symmetry_space_group_name_H-M "P M N A"
_symmetry_group_IT_number 53
_symmetry_cell_setting 'orthorhombic'
loop_
_space_group_symop_operation_xyz
x,y,z
1/2-x,-y,1/2+z
x,-y,-z
1/2-x,y,1/2-z
-x,-y,-z
1/2+x,y,1/2-z
-x,y,z
1/2+x,-y,1/2+z
loop_
_atom_site_type_symbol
_atom_site_label
_atom_site_fract_x
_atom_site_fract_y
_atom_site_fract_z
Si Si1 0.400804 0.317284 0.185039
Si Si2 0.835158 0.127812 0.187855
Si Si3 0.256482 0.747652 0.964071
Si Si4 0.900726 0.754868 0.384958
Si Si5 0.855658 0.445828 0.741104
Si Si6 0.646617 0.111115 0.717305
Si Si7 0.102094 0.694920 0.086304
O O1 0.500000 0.294630 0.138984
O O2 0.390235 0.229562 0.268573
O O3 0.317818 0.314900 0.112245
O O4 0.404566 0.438496 0.227331
O O5 0.750000 0.101027 0.250000
O O6 0.799880 0.153804 0.084225
O O7 0.888545 0.011376 0.189348
O O8 0.325687 0.794584 0.041020
O O9 0.178868 0.667834 0.008313
O O10 0.873586 0.635350 0.345057
O O11 0.911313 0.844483 0.303675
O O12 0.000000 0.745823 0.432685
O O13 0.750000 0.466073 0.750000
O O14 0.896851 0.396824 0.834733
O O15 0.750000 0.122478 0.750000
O O16 0.629410 0.186312 0.627627
O O17 0.000000 0.698703 0.043553
#
# Coordination Sequence:
#
# PCOD8218308 Si02
#       7
#     8   8   8   8   8   8   8
#     4  11  24  43  65  91 130 176 218 259 320 394
#     4   9  22  41  63  84 127 179 215 254 321 392
#     4  11  22  43  60  99 132 166 210 270 329 371
#     4  11  21  37  66 100 131 166 216 270 321 378
#     4  11  20  41  67  93 130 172 213 261 323 389
#     4  10  18  39  64  91 127 173 213 261 320 386
#     4  11  22  39  66  98 127 164 217 270 322 380
#
# _framework density 21.736502000000002
#
# number of rings (size 3 to 8) (size 9 to 14) (size 15 to 20)
#    0.000    1.429    2.857    5.143    0.000    2.857 
#    5.143    2.143    0.000    6.000    0.000    0.000 
#    0.000    0.000    0.000    0.000    0.000    0.000 
#
# Total GULP energy -694088.211208 kJ/mol
# GULP energy per Si atom -12394.432343 kJ/mol
# Density = 2.168703 g / cm^3
# Si number density = 21.736502 Si / 1000 Ang^3
#
#
#
# Elastic Constant Matrix: (Units=GPa)
#
#
# Indices 1 2 3 4 5 6 
#
# 1 155.8301 17.9977 44.2576 0.0000 0.0000 0.0000
# 2 17.9977 147.3481 41.4709 0.0000 0.0000 0.0000
# 3 44.2576 41.4709 79.3524 0.0000 0.0000 0.0000
# 4 0.0000 0.0000 0.0000 3.6422 0.0000 0.0000
# 5 0.0000 0.0000 0.0000 0.0000 19.6087 0.0000
# 6 0.0000 0.0000 0.0000 0.0000 0.0000 -451.3435
#
#
#
# Elastic Compliance Matrix: (Units=1/GPa)
#
#
# Indices 1 2 3 4 5 6 
#
# 1 0.007637 0.000312 -0.004423 0.000000 0.000000 0.000000
# 2 0.000312 0.007970 -0.004339 0.000000 0.000000 0.000000
# 3 -0.004423 -0.004339 0.017336 0.000000 0.000000 0.000000
# 4 0.000000 0.000000 0.000000 0.274559 0.000000 0.000000
# 5 0.000000 0.000000 0.000000 0.000000 0.050998 0.000000
# 6 0.000000 0.000000 0.000000 0.000000 0.000000 -0.002216
#
#
# Mechanical properties :
#
#
# Convention : Reuss Voigt Hill
#
# Bulk Modulus (GPa) = 62.32932 65.55369 63.94150
# Shear Modulus (GPa) = 13.20891 -67.03156 -26.91132
#
# Velocity S-wave (km/s) = 2.46780 -5.55924 -3.52244
# Velocity P-wave (km/s) = 6.07102 3.31408 3.59681
#
# Compressibility (1/GPa) = 0.01604381
#
# Stress axis : x y z
#
# Youngs Moduli (GPa) = 130.93646 125.47391 57.68237
#
# Poissons Ratio (x) = -0.03913 0.25510
# Poissons Ratio (y) = -0.04084 0.25029
# Poissons Ratio (z) = 0.57908 0.54444
#
# Static dielectric constant tensor:
#      x y z
#    x 4.051950 0.000000 0.000000 
#    y 0.000000 3.901620 0.000000 
#    z 0.000000 0.000000 4.229810 
# 
# 
# High freq. dielectric constant tensor:
#      x y z
#    x 1.871120 0.000000 0.000000 
#    y 0.000000 1.838390 0.000000 
#    z 0.000000 0.000000 1.838760 
# 
# From -- ./inp_files/22804.got.cif
#   From: 2010.03.12/outbox.cif.g09.slc.cpg/sg53_12_cif.got.tgz:22804.got - 2010.04.16 14:36:59.
