data_PCOD8218955
_publ_section_title
;
Structure prediction by ZEFSAII (Michael W. Deem and Ramdas Pophale) SiO2 
 PCOD8218955
Probable space group: P M N A
;
_chemical_formula_sum "Si O2"
_cell_formula_units_Z 64
_cell_length_a 9.431965
_cell_length_b 17.376687
_cell_length_c 19.356831
_cell_angle_alpha 90.000000
_cell_angle_beta 90.000000
_cell_angle_gamma 90.000000
_cell_volume 3172.513050
_symmetry_space_group_name_H-M "P M N A"
_symmetry_group_IT_number 53
_symmetry_cell_setting 'orthorhombic'
loop_
_space_group_symop_operation_xyz
x,y,z
1/2-x,-y,1/2+z
x,-y,-z
1/2-x,y,1/2-z
-x,-y,-z
1/2+x,y,1/2-z
-x,y,z
1/2+x,-y,1/2+z
loop_
_atom_site_type_symbol
_atom_site_label
_atom_site_fract_x
_atom_site_fract_y
_atom_site_fract_z
Si Si1 0.161909 0.874896 0.815492
Si Si2 0.161987 0.084922 0.030060
Si Si3 0.839012 0.292576 0.137168
Si Si4 0.157784 0.815156 0.425501
Si Si5 0.845819 0.330182 0.486741
Si Si6 0.663393 0.540929 0.686381
Si Si7 0.335970 0.734625 0.319558
Si Si8 0.159584 0.413376 0.916458
O O1 0.250000 0.907858 0.750000
O O2 0.210852 0.911518 0.889188
O O3 0.182275 0.782551 0.816083
O O4 0.000000 0.897680 0.801515
O O5 0.000000 0.117015 0.025382
O O6 0.267580 0.134752 0.984340
O O7 0.169776 0.000000 0.000000
O O8 0.798517 0.369364 0.178518
O O9 0.000000 0.297657 0.109778
O O10 0.736450 0.284838 0.072509
O O11 0.133585 0.729312 0.451737
O O12 0.260997 0.806833 0.359107
O O13 0.000000 0.849201 0.407298
O O14 0.757258 0.402230 0.516136
O O15 0.000000 0.358655 0.460195
O O16 0.750000 0.506866 0.750000
O O17 0.500000 0.527052 0.703177
O O18 0.708110 0.493221 0.618715
O O19 0.250000 0.719958 0.250000
O O20 0.500000 0.756892 0.304628
O O21 0.328789 0.656155 0.362537
O O22 0.000000 0.420199 0.944460
#
# Coordination Sequence:
#
# PCOD8218955 Si02
#       8
#     8   8   8   8   8   8   8   8
#     4  10  21  37  60  88 117 151 189 231 280 335
#     4  10  21  39  63  89 117 152 190 227 277 342
#     4  10  20  35  55  78 108 145 186 230 283 342
#     4  10  20  35  56  83 113 145 186 233 281 335
#     4  10  20  33  53  80 106 139 184 233 281 332
#     4  10  21  35  51  73 102 141 186 234 288 345
#     4  10  19  32  53  79 109 147 191 239 288 340
#     4   9  19  34  51  72 104 146 187 232 289 344
#
# _framework density 20.173282
#
# number of rings (size 3 to 8) (size 9 to 14) (size 15 to 20)
#    0.000    2.125    1.250    1.875    0.000    4.250 
#    0.000    3.125    0.000    1.500    0.000    0.000 
#    0.000    0.000    0.000    0.000    0.000    0.000 
#
# Total GULP energy -793362.288378 kJ/mol
# GULP energy per Si atom -12396.285756 kJ/mol
# Density = 2.012737 g / cm^3
# Si number density = 20.173282 Si / 1000 Ang^3
#
#
#
# Elastic Constant Matrix: (Units=GPa)
#
#
# Indices 1 2 3 4 5 6 
#
# 1 110.2399 19.3540 42.9413 0.0000 0.0000 0.0000
# 2 19.3540 56.7976 16.8667 0.0000 0.0000 0.0000
# 3 42.9413 16.8667 69.7451 0.0000 0.0000 0.0000
# 4 0.0000 0.0000 0.0000 17.5493 0.0000 0.0000
# 5 0.0000 0.0000 0.0000 0.0000 37.2576 0.0000
# 6 0.0000 0.0000 0.0000 0.0000 0.0000 50.8447
#
#
#
# Elastic Compliance Matrix: (Units=1/GPa)
#
#
# Indices 1 2 3 4 5 6 
#
# 1 0.012154 -0.002068 -0.006983 0.000000 0.000000 0.000000
# 2 -0.002068 0.019320 -0.003399 0.000000 0.000000 0.000000
# 3 -0.006983 -0.003399 0.019459 0.000000 0.000000 0.000000
# 4 0.000000 0.000000 0.000000 0.056982 0.000000 0.000000
# 5 0.000000 0.000000 0.000000 0.000000 0.026840 0.000000
# 6 0.000000 0.000000 0.000000 0.000000 0.000000 0.019668
#
#
# Mechanical properties :
#
#
# Convention : Reuss Voigt Hill
#
# Bulk Modulus (GPa) = 38.41175 43.90075 41.15625
# Shear Modulus (GPa) = 26.59536 31.63836 29.11686
#
# Velocity S-wave (km/s) = 3.63484 3.96451 3.80325
# Velocity P-wave (km/s) = 6.05792 6.53954 6.30333
#
# Compressibility (1/GPa) = 0.02603370
#
# Stress axis : x y z
#
# Youngs Moduli (GPa) = 82.27536 51.75866 51.38897
#
# Poissons Ratio (x) = 0.10703 0.35886
# Poissons Ratio (y) = 0.17014 0.17468
# Poissons Ratio (z) = 0.57454 0.17594
#
# Static dielectric constant tensor:
#      x y z
#    x 3.918360 0.000000 0.000000 
#    y 0.000000 3.472740 0.000000 
#    z 0.000000 0.000000 3.515960 
# 
# 
# High freq. dielectric constant tensor:
#      x y z
#    x 1.793370 0.000000 0.000000 
#    y 0.000000 1.763460 0.000000 
#    z 0.000000 0.000000 1.782680 
# 
# From -- ./inp_files/31248.got.cif
#   From: 2010.03.12/outbox.cif.g09.slc.cpg/sg53_16_cif.got.tgz:31248.got - 2010.04.16 14:36:59.
