data_PCOD8218035
_publ_section_title
;
Structure prediction by ZEFSAII (Michael W. Deem and Ramdas Pophale) SiO2 
 PCOD8218035
Probable space group: P M N A
;
_chemical_formula_sum "Si O2"
_cell_formula_units_Z 64
_cell_length_a 9.043290
_cell_length_b 11.413455
_cell_length_c 33.447340
_cell_angle_alpha 90.000000
_cell_angle_beta 90.000000
_cell_angle_gamma 90.000000
_cell_volume 3452.273335
_symmetry_space_group_name_H-M "P M N A"
_symmetry_group_IT_number 53
_symmetry_cell_setting 'orthorhombic'
loop_
_space_group_symop_operation_xyz
x,y,z
1/2-x,-y,1/2+z
x,-y,-z
1/2-x,y,1/2-z
-x,-y,-z
1/2+x,y,1/2-z
-x,y,z
1/2+x,-y,1/2+z
loop_
_atom_site_type_symbol
_atom_site_label
_atom_site_fract_x
_atom_site_fract_y
_atom_site_fract_z
Si Si1 0.671553 0.297417 0.568220
Si Si2 0.674587 0.069227 0.708444
Si Si3 0.827614 0.798204 0.790291
Si Si4 0.824039 0.856996 0.371000
Si Si5 0.168737 0.698287 0.636700
Si Si6 0.829415 0.434346 0.073180
Si Si7 0.326826 0.223201 0.482283
Si Si8 0.831924 0.080535 0.419984
O O1 0.500000 0.273332 0.578218
O O2 0.771513 0.259057 0.605709
O O3 0.698002 0.433868 0.558801
O O4 0.722259 0.226981 0.528566
O O5 0.750000 0.109131 0.750000
O O6 0.500000 0.094195 0.710832
O O7 0.746894 0.141951 0.672289
O O8 0.709576 0.933215 0.700093
O O9 0.750000 0.758002 0.750000
O O10 0.765200 0.713452 0.823964
O O11 0.000000 0.777529 0.785701
O O12 0.000000 0.858589 0.364959
O O13 0.767633 0.966011 0.397976
O O14 0.232112 0.587654 0.612656
O O15 0.186318 0.813859 0.610534
O O16 0.000000 0.674284 0.648630
O O17 0.778178 0.345692 0.038248
O O18 0.000000 0.412165 0.084167
O O19 0.500000 0.206547 0.478702
O O20 0.254454 0.110770 0.460760
O O21 0.000000 0.058683 0.432335
#
# Coordination Sequence:
#
# PCOD8218035 Si02
#       8
#     8   8   8   8   8   8   8   8
#     4  10  21  36  53  76 104 137 180 226 267 311
#     4  10  20  34  55  81 109 140 175 214 257 307
#     4  10  19  30  49  78 109 138 168 206 256 312
#     4  11  22  36  53  75 109 146 180 217 259 314
#     4  10  18  31  51  75 105 136 171 213 259 311
#     4   9  18  34  55  76 100 133 176 223 270 315
#     4   9  18  33  55  78 101 133 175 224 271 316
#     4   9  19  33  49  72 104 140 173 212 263 313
#
# _framework density 18.538509000000001
#
# number of rings (size 3 to 8) (size 9 to 14) (size 15 to 20)
#    0.000    2.250    1.250    1.875    0.000    5.500 
#    0.000    2.500    0.000    4.500    0.000    0.000 
#    0.000    0.000    0.000    0.000    0.000    0.000 
#
# Total GULP energy -793700.467167 kJ/mol
# GULP energy per Si atom -12401.569799 kJ/mol
# Density = 1.849631 g / cm^3
# Si number density = 18.538509 Si / 1000 Ang^3
#
#
#
# Elastic Constant Matrix: (Units=GPa)
#
#
# Indices 1 2 3 4 5 6 
#
# 1 74.6910 15.9769 52.8613 0.0000 0.0000 0.0000
# 2 15.9769 36.0385 21.9476 0.0000 0.0000 0.0000
# 3 52.8613 21.9476 126.2124 0.0000 0.0000 0.0000
# 4 0.0000 0.0000 0.0000 21.4215 0.0000 0.0000
# 5 0.0000 0.0000 0.0000 0.0000 34.1313 0.0000
# 6 0.0000 0.0000 0.0000 0.0000 0.0000 23.8896
#
#
#
# Elastic Compliance Matrix: (Units=1/GPa)
#
#
# Indices 1 2 3 4 5 6 
#
# 1 0.019561 -0.004119 -0.007476 0.000000 0.000000 0.000000
# 2 -0.004119 0.031902 -0.003823 0.000000 0.000000 0.000000
# 3 -0.007476 -0.003823 0.011719 0.000000 0.000000 0.000000
# 4 0.000000 0.000000 0.000000 0.046682 0.000000 0.000000
# 5 0.000000 0.000000 0.000000 0.000000 0.029299 0.000000
# 6 0.000000 0.000000 0.000000 0.000000 0.000000 0.041859
#
#
# Mechanical properties :
#
#
# Convention : Reuss Voigt Hill
#
# Bulk Modulus (GPa) = 30.91504 46.50149 38.70826
# Shear Modulus (GPa) = 22.45785 25.63224 24.04504
#
# Velocity S-wave (km/s) = 3.48432 3.72243 3.60534
# Velocity P-wave (km/s) = 5.73582 6.60405 6.18519
#
# Compressibility (1/GPa) = 0.03234672
#
# Stress axis : x y z
#
# Youngs Moduli (GPa) = 51.12268 31.34599 85.33007
#
# Poissons Ratio (x) = 0.12910 0.63796
# Poissons Ratio (y) = 0.21056 0.32618
# Poissons Ratio (z) = 0.38221 0.11982
#
# Static dielectric constant tensor:
#      x y z
#    x 3.393770 0.000000 0.000000 
#    y 0.000000 3.155790 0.000000 
#    z 0.000000 0.000000 3.694880 
# 
# 
# High freq. dielectric constant tensor:
#      x y z
#    x 1.721110 0.000000 0.000000 
#    y 0.000000 1.689420 0.000000 
#    z 0.000000 0.000000 1.722720 
# 
# From -- ./inp_files/38270.got.cif
#   From: 2010.03.12/outbox.cif.g09.slc.cpg/sg53_20_cif.got.tgz:38270.got - 2010.04.16 14:36:59.
