data_PCOD8218745
_publ_section_title
;
Structure prediction by ZEFSAII (Michael W. Deem and Ramdas Pophale) SiO2 
 PCOD8218745
Probable space group: P M N A
;
_chemical_formula_sum "Si O2"
_cell_formula_units_Z 64
_cell_length_a 9.010411
_cell_length_b 18.377699
_cell_length_c 26.140891
_cell_angle_alpha 90.000000
_cell_angle_beta 90.000000
_cell_angle_gamma 90.000000
_cell_volume 4328.686380
_symmetry_space_group_name_H-M "P M N A"
_symmetry_group_IT_number 53
_symmetry_cell_setting 'orthorhombic'
loop_
_space_group_symop_operation_xyz
x,y,z
1/2-x,-y,1/2+z
x,-y,-z
1/2-x,y,1/2-z
-x,-y,-z
1/2+x,y,1/2-z
-x,y,z
1/2+x,-y,1/2+z
loop_
_atom_site_type_symbol
_atom_site_label
_atom_site_fract_x
_atom_site_fract_y
_atom_site_fract_z
Si Si1 0.325349 0.669407 0.007115
Si Si2 0.336760 0.462997 0.054819
Si Si3 0.174606 0.085108 0.600613
Si Si4 0.824500 0.340696 0.697178
Si Si5 0.673681 0.826805 0.198265
Si Si6 0.832237 0.958072 0.946778
Si Si7 0.324396 0.590158 0.399453
Si Si8 0.173463 0.834438 0.502364
O O1 0.500000 0.664853 0.021283
O O2 0.288708 0.620507 0.956785
O O3 0.276753 0.750905 0.993433
O O4 0.233619 0.642939 0.056060
O O5 0.500000 0.465777 0.081057
O O6 0.218353 0.505744 0.089521
O O7 0.347341 0.500000 0.000000
O O8 0.233185 0.124036 0.651790
O O9 0.219950 0.136801 0.553495
O O10 0.000000 0.072697 0.602116
O O11 0.250665 0.006125 0.596280
O O12 0.750000 0.365760 0.750000
O O13 0.785830 0.256591 0.686096
O O14 0.752495 0.388780 0.653216
O O15 0.000000 0.354175 0.699524
O O16 0.750000 0.854263 0.250000
O O17 0.500000 0.836337 0.205581
O O18 0.755565 0.879524 0.953092
O O19 0.000000 0.945793 0.929151
O O20 0.820026 0.000000 0.000000
O O21 0.500000 0.597232 0.394842
O O22 0.000000 0.844328 0.511592
#
# Coordination Sequence:
#
# PCOD8218745 Si02
#       8
#     8   8   8   8   8   8   8   8
#     4   9  17  29  44  61  82 110 142 173 207 246
#     4   8  15  28  43  58  79 108 139 171 206 243
#     4   9  16  27  42  58  78 108 141 167 197 239
#     4  10  19  32  46  61  83 109 140 176 211 245
#     4   9  18  30  44  61  81 106 137 173 208 241
#     4   9  17  27  38  56  81 106 133 167 204 239
#     4  11  20  28  41  61  84 112 143 172 206 245
#     4   9  16  27  43  60  79 106 139 171 203 243
#
# _framework density 14.785085
#
# number of rings (size 3 to 8) (size 9 to 14) (size 15 to 20)
#    0.000    2.750    0.000    3.375    0.000    7.250 
#    0.000    2.500    0.000    0.000    0.000    0.000 
#    0.000    1.000    0.000    6.500    0.000    4.875 
#
# Total GULP energy -793453.985601 kJ/mol
# GULP energy per Si atom -12397.718525 kJ/mol
# Density = 1.475143 g / cm^3
# Si number density = 14.785085 Si / 1000 Ang^3
#
#
#
# Elastic Constant Matrix: (Units=GPa)
#
#
# Indices 1 2 3 4 5 6 
#
# 1 70.6169 44.4402 41.6287 0.0000 0.0000 0.0000
# 2 44.4402 114.6272 54.3997 0.0000 0.0000 0.0000
# 3 41.6287 54.3997 80.1933 0.0000 0.0000 0.0000
# 4 0.0000 0.0000 0.0000 24.5859 0.0000 0.0000
# 5 0.0000 0.0000 0.0000 0.0000 22.9783 0.0000
# 6 0.0000 0.0000 0.0000 0.0000 0.0000 17.8235
#
#
#
# Elastic Compliance Matrix: (Units=1/GPa)
#
#
# Indices 1 2 3 4 5 6 
#
# 1 0.021915 -0.004568 -0.008278 0.000000 0.000000 0.000000
# 2 -0.004568 0.013818 -0.007002 0.000000 0.000000 0.000000
# 3 -0.008278 -0.007002 0.021517 0.000000 0.000000 0.000000
# 4 0.000000 0.000000 0.000000 0.040674 0.000000 0.000000
# 5 0.000000 0.000000 0.000000 0.000000 0.043519 0.000000
# 6 0.000000 0.000000 0.000000 0.000000 0.000000 0.056106
#
#
# Mechanical properties :
#
#
# Convention : Reuss Voigt Hill
#
# Bulk Modulus (GPa) = 56.96579 60.70831 58.83705
# Shear Modulus (GPa) = 20.56799 21.40880 20.98840
#
# Velocity S-wave (km/s) = 3.73383 3.80939 3.77180
# Velocity P-wave (km/s) = 7.56317 7.77806 7.67137
#
# Compressibility (1/GPa) = 0.01755440
#
# Stress axis : x y z
#
# Youngs Moduli (GPa) = 45.63031 72.36892 46.47520
#
# Poissons Ratio (x) = 0.33058 0.38470
# Poissons Ratio (y) = 0.20844 0.32543
# Poissons Ratio (z) = 0.37771 0.50675
#
# Static dielectric constant tensor:
#      x y z
#    x 2.866500 0.000000 0.000000 
#    y 0.000000 3.078600 0.000000 
#    z 0.000000 0.000000 2.706130 
# 
# 
# High freq. dielectric constant tensor:
#      x y z
#    x 1.569080 0.000000 0.000000 
#    y 0.000000 1.557820 0.000000 
#    z 0.000000 0.000000 1.530570 
# 
# From -- ./inp_files/34512.got.cif
#   From: 2010.03.12/outbox.cif.g09.slc.cpg/sg53_18_cif.got.tgz:34512.got - 2010.04.16 14:36:59.
