data_PCOD8218720
_publ_section_title
;
Structure prediction by ZEFSAII (Michael W. Deem and Ramdas Pophale) SiO2 
 PCOD8218720
Probable space group: P M N A
;
_chemical_formula_sum "Si O2"
_cell_formula_units_Z 56
_cell_length_a 18.528796
_cell_length_b 30.596383
_cell_length_c 5.046195
_cell_angle_alpha 90.000000
_cell_angle_beta 90.000000
_cell_angle_gamma 90.000000
_cell_volume 2860.759293
_symmetry_space_group_name_H-M "P M N A"
_symmetry_group_IT_number 53
_symmetry_cell_setting 'orthorhombic'
loop_
_space_group_symop_operation_xyz
x,y,z
1/2-x,-y,1/2+z
x,-y,-z
1/2-x,y,1/2-z
-x,-y,-z
1/2+x,y,1/2-z
-x,y,z
1/2+x,-y,1/2+z
loop_
_atom_site_type_symbol
_atom_site_label
_atom_site_fract_x
_atom_site_fract_y
_atom_site_fract_z
Si Si1 0.918396 0.674665 0.889147
Si Si2 0.082218 0.899719 0.411130
Si Si3 0.334876 0.761151 0.730666
Si Si4 0.334907 0.813445 0.229824
Si Si5 0.581467 0.382156 0.877908
Si Si6 0.081538 0.955498 0.894731
Si Si7 0.202374 0.449278 0.502167
O O1 0.869197 0.717050 0.878188
O O2 0.916079 0.654391 0.600319
O O3 0.000000 0.688079 0.967690
O O4 0.888911 0.640091 0.107500
O O5 0.129294 0.856649 0.386176
O O6 0.116210 0.933000 0.631967
O O7 0.000000 0.887651 0.493136
O O8 0.084265 0.920623 0.124790
O O9 0.250000 0.753733 0.750000
O O10 0.359388 0.799049 0.523364
O O11 0.358995 0.775270 0.024665
O O12 0.250000 0.821622 0.250000
O O13 0.500000 0.399681 0.834098
O O14 0.628426 0.422856 0.976212
O O15 0.000000 0.968697 0.814660
O O16 0.121002 0.000000 0.000000
O O17 0.180784 0.500000 0.500000
O O18 0.250000 0.435926 0.250000
O O19 0.250000 0.436577 0.750000
#
# Coordination Sequence:
#
# PCOD8218720 Si02
#       7
#     8   8   8   8   8   8   8
#     4  10  21  36  55  80 109 140 177 224 273 321
#     4  10  19  31  51  77 100 130 172 209 250 307
#     4  10  21  36  53  74 101 136 177 215 260 318
#     4  10  21  36  52  73 103 137 172 214 262 310
#     4  10  21  37  56  81 112 145 181 221 274 334
#     4   9  17  30  49  75 105 131 161 207 255 300
#     4  10  21  37  57  83 113 145 185 230 272 317
#
# _framework density 19.575223000000001
#
# number of rings (size 3 to 8) (size 9 to 14) (size 15 to 20)
#    0.000    2.143    0.000    3.000    0.000    4.857 
#    0.000    0.000    0.000    6.857    0.000    0.000 
#    0.000    0.000    0.000    0.000    0.000    0.000 
#
# Total GULP energy -694160.469423 kJ/mol
# GULP energy per Si atom -12395.722668 kJ/mol
# Density = 1.953067 g / cm^3
# Si number density = 19.575223 Si / 1000 Ang^3
#
#
#
# Elastic Constant Matrix: (Units=GPa)
#
#
# Indices 1 2 3 4 5 6 
#
# 1 56.4426 53.6328 32.1338 0.0000 0.0000 0.0000
# 2 53.6328 98.6757 25.1516 0.0000 0.0000 0.0000
# 3 32.1338 25.1516 109.9764 0.0000 0.0000 0.0000
# 4 0.0000 0.0000 0.0000 39.4875 0.0000 0.0000
# 5 0.0000 0.0000 0.0000 0.0000 11.9310 0.0000
# 6 0.0000 0.0000 0.0000 0.0000 0.0000 311.7932
#
#
#
# Elastic Compliance Matrix: (Units=1/GPa)
#
#
# Indices 1 2 3 4 5 6 
#
# 1 0.041666 -0.020753 -0.007428 0.000000 0.000000 0.000000
# 2 -0.020753 0.021099 0.001239 0.000000 0.000000 0.000000
# 3 -0.007428 0.001239 0.010980 0.000000 0.000000 0.000000
# 4 0.000000 0.000000 0.000000 0.025324 0.000000 0.000000
# 5 0.000000 0.000000 0.000000 0.000000 0.083815 0.000000
# 6 0.000000 0.000000 0.000000 0.000000 0.000000 0.003207
#
#
# Mechanical properties :
#
#
# Convention : Reuss Voigt Hill
#
# Bulk Modulus (GPa) = 50.35459 54.10345 52.22902
# Shear Modulus (GPa) = 20.27599 82.92077 51.59838
#
# Velocity S-wave (km/s) = 3.22187 6.51552 5.13967
# Velocity P-wave (km/s) = 6.29445 9.18158 7.87152
#
# Compressibility (1/GPa) = 0.01985916
#
# Stress axis : x y z
#
# Youngs Moduli (GPa) = 24.00018 47.39670 91.07489
#
# Poissons Ratio (x) = 0.98364 0.67651
# Poissons Ratio (y) = 0.49809 -0.11281
# Poissons Ratio (z) = 0.17828 -0.05871
#
# Static dielectric constant tensor:
#      x y z
#    x 3.361550 0.000000 0.000000 
#    y 0.000000 3.656400 0.000000 
#    z 0.000000 0.000000 3.948650 
# 
# 
# High freq. dielectric constant tensor:
#      x y z
#    x 1.730830 0.000000 0.000000 
#    y 0.000000 1.760960 0.000000 
#    z 0.000000 0.000000 1.788950 
# 
# From -- ./inp_files/1479.got.cif
#   From: 2010.03.12/outbox.cif.g09.slc.cpg/sg53_1_cif.got.tgz:1479.got - 2010.04.16 14:36:59.
