data_PCOD8218362
_publ_section_title
;
Structure prediction by ZEFSAII (Michael W. Deem and Ramdas Pophale) SiO2 
 PCOD8218362
Probable space group: P M N A
;
_chemical_formula_sum "Si O2"
_cell_formula_units_Z 56
_cell_length_a 9.380170
_cell_length_b 18.897033
_cell_length_c 17.129655
_cell_angle_alpha 90.000000
_cell_angle_beta 90.000000
_cell_angle_gamma 90.000000
_cell_volume 3036.357800
_symmetry_space_group_name_H-M "P M N A"
_symmetry_group_IT_number 53
_symmetry_cell_setting 'orthorhombic'
loop_
_space_group_symop_operation_xyz
x,y,z
1/2-x,-y,1/2+z
x,-y,-z
1/2-x,y,1/2-z
-x,-y,-z
1/2+x,y,1/2-z
-x,y,z
1/2+x,-y,1/2+z
loop_
_atom_site_type_symbol
_atom_site_label
_atom_site_fract_x
_atom_site_fract_y
_atom_site_fract_z
Si Si1 0.332344 0.852974 0.824792
Si Si2 0.336161 0.200667 0.561782
Si Si3 0.839995 0.735805 0.897071
Si Si4 0.333521 0.920117 0.989744
Si Si5 0.831100 0.534095 0.079179
Si Si6 0.339304 0.593564 0.678053
Si Si7 0.169285 0.672249 0.168652
O O1 0.250000 0.885999 0.750000
O O2 0.500000 0.849802 0.807714
O O3 0.271866 0.774370 0.840071
O O4 0.295963 0.899417 0.900962
O O5 0.500000 0.177443 0.568939
O O6 0.307210 0.248372 0.486441
O O7 0.243764 0.129194 0.554137
O O8 0.291399 0.249841 0.635014
O O9 0.825358 0.651518 0.890356
O O10 0.000000 0.760910 0.873996
O O11 0.500000 0.912745 0.006891
O O12 0.279562 0.000000 0.000000
O O13 0.782134 0.481440 0.147944
O O14 0.779889 0.612454 0.105599
O O15 0.000000 0.534313 0.068929
O O16 0.763604 0.500000 0.000000
O O17 0.250000 0.621430 0.750000
O O18 0.500000 0.585975 0.707089
O O19 0.250000 0.661374 0.250000
O O20 0.000000 0.665561 0.182754
#
# Coordination Sequence:
#
# PCOD8218362 Si02
#       7
#     8   8   8   8   8   8   8
#     4  10  19  31  49  73 100 130 162 196 240 294
#     4   9  18  33  53  76  99 127 166 206 244 292
#     4   9  17  30  48  70  97 127 161 201 242 289
#     4   9  19  36  56  77 102 132 164 201 249 302
#     4   9  17  31  51  71  92 125 171 216 255 297
#     4  10  19  29  44  67  94 124 156 194 240 285
#     4  10  20  34  53  76 103 136 175 219 264 310
#
# _framework density 18.443148000000001
#
# number of rings (size 3 to 8) (size 9 to 14) (size 15 to 20)
#    0.000    2.571    0.000    2.143    0.000    6.571 
#    0.000    0.714    0.000    6.857    0.000    0.000 
#    0.000    0.000    0.000    0.000    0.000    0.000 
#
# Total GULP energy -694134.847299 kJ/mol
# GULP energy per Si atom -12395.265130 kJ/mol
# Density = 1.840117 g / cm^3
# Si number density = 18.443148 Si / 1000 Ang^3
#
#
#
# Elastic Constant Matrix: (Units=GPa)
#
#
# Indices 1 2 3 4 5 6 
#
# 1 59.6553 41.4091 37.4834 0.0000 0.0000 0.0000
# 2 41.4091 127.6733 44.7857 0.0000 0.0000 0.0000
# 3 37.4834 44.7857 90.4712 0.0000 0.0000 0.0000
# 4 0.0000 0.0000 0.0000 21.0429 0.0000 0.0000
# 5 0.0000 0.0000 0.0000 0.0000 27.7673 0.0000
# 6 0.0000 0.0000 0.0000 0.0000 0.0000 19.5260
#
#
#
# Elastic Compliance Matrix: (Units=1/GPa)
#
#
# Indices 1 2 3 4 5 6 
#
# 1 0.025527 -0.005529 -0.007839 0.000000 0.000000 0.000000
# 2 -0.005529 0.010676 -0.002994 0.000000 0.000000 0.000000
# 3 -0.007839 -0.002994 0.015783 0.000000 0.000000 0.000000
# 4 0.000000 0.000000 0.000000 0.047522 0.000000 0.000000
# 5 0.000000 0.000000 0.000000 0.000000 0.036014 0.000000
# 6 0.000000 0.000000 0.000000 0.000000 0.000000 0.051214
#
#
# Mechanical properties :
#
#
# Convention : Reuss Voigt Hill
#
# Bulk Modulus (GPa) = 51.91776 58.35068 55.13422
# Shear Modulus (GPa) = 22.13564 23.94201 23.03883
#
# Velocity S-wave (km/s) = 3.46816 3.60690 3.53821
# Velocity P-wave (km/s) = 6.65198 7.00379 6.83015
#
# Compressibility (1/GPa) = 0.01926123
#
# Stress axis : x y z
#
# Youngs Moduli (GPa) = 39.17494 93.66651 63.35908
#
# Poissons Ratio (x) = 0.51793 0.49665
# Poissons Ratio (y) = 0.21662 0.18970
# Poissons Ratio (z) = 0.30708 0.28044
#
# Static dielectric constant tensor:
#      x y z
#    x 3.216810 0.000000 0.000000 
#    y 0.000000 3.451710 0.000000 
#    z 0.000000 0.000000 3.376570 
# 
# 
# High freq. dielectric constant tensor:
#      x y z
#    x 1.692990 0.000000 0.000000 
#    y 0.000000 1.711980 0.000000 
#    z 0.000000 0.000000 1.711170 
# 
# From -- ./inp_files/21851.got.cif
#   From: 2010.03.12/outbox.cif.g09.slc.cpg/sg53_11_cif.got.tgz:21851.got - 2010.04.16 14:36:59.
