data_PCOD8218849
_publ_section_title
;
Structure prediction by ZEFSAII (Michael W. Deem and Ramdas Pophale) SiO2 
 PCOD8218849
Probable space group: P M N A
;
_chemical_formula_sum "Si O2"
_cell_formula_units_Z 64
_cell_length_a 9.488020
_cell_length_b 18.213762
_cell_length_c 19.401973
_cell_angle_alpha 90.000000
_cell_angle_beta 90.000000
_cell_angle_gamma 90.000000
_cell_volume 3352.904199
_symmetry_space_group_name_H-M "P M N A"
_symmetry_group_IT_number 53
_symmetry_cell_setting 'orthorhombic'
loop_
_space_group_symop_operation_xyz
x,y,z
1/2-x,-y,1/2+z
x,-y,-z
1/2-x,y,1/2-z
-x,-y,-z
1/2+x,y,1/2-z
-x,y,z
1/2+x,-y,1/2+z
loop_
_atom_site_type_symbol
_atom_site_label
_atom_site_fract_x
_atom_site_fract_y
_atom_site_fract_z
Si Si1 0.836338 0.616834 0.580791
Si Si2 0.335800 0.647324 0.076374
Si Si3 0.164723 0.519539 0.321539
Si Si4 0.660992 0.049844 0.566740
Si Si5 0.344646 0.994556 0.190456
Si Si6 0.655839 0.751276 0.599436
Si Si7 0.846048 0.217724 0.942191
Si Si8 0.343803 0.165247 0.189977
O O1 0.798499 0.611810 0.498777
O O2 0.801285 0.542855 0.621952
O O3 0.740047 0.677428 0.618412
O O4 0.000000 0.638300 0.588836
O O5 0.500000 0.664110 0.079062
O O6 0.290708 0.593620 0.138490
O O7 0.260360 0.725073 0.093126
O O8 0.250000 0.510535 0.250000
O O9 0.000000 0.519420 0.302359
O O10 0.500000 0.046246 0.593694
O O11 0.768588 0.014093 0.618729
O O12 0.709552 0.134097 0.557017
O O13 0.676491 0.000000 0.500000
O O14 0.250000 0.956887 0.250000
O O15 0.500000 0.957861 0.189674
O O16 0.361258 0.080082 0.205366
O O17 0.500000 0.752624 0.634702
O O18 0.635326 0.755840 0.519166
O O19 0.752837 0.820263 0.621376
O O20 0.000000 0.221842 0.905775
O O21 0.250000 0.203250 0.250000
O O22 0.500000 0.200963 0.185439
#
# Coordination Sequence:
#
# PCOD8218849 Si02
#       8
#     8   8   8   8   8   8   8   8
#     4   9  18  34  55  77 104 138 176 216 258 309
#     4   9  18  35  58  79 101 136 180 220 258 306
#     4  10  21  36  55  80 108 138 173 216 267 317
#     4  10  20  35  56  81 111 145 178 218 271 323
#     4  10  21  36  54  76 103 137 179 224 269 321
#     4  10  19  32  51  76 106 137 171 211 257 311
#     4   9  19  34  53  79 107 136 172 215 263 314
#     4  10  20  33  49  70  98 135 176 215 259 312
#
# _framework density 19.087931000000001
#
# number of rings (size 3 to 8) (size 9 to 14) (size 15 to 20)
#    0.000    2.375    0.000    2.250    0.000    6.750 
#    0.000    1.875    0.000    5.250    0.000    0.000 
#    0.000    0.000    0.000    0.000    0.000    0.000 
#
# Total GULP energy -793094.347062 kJ/mol
# GULP energy per Si atom -12392.099173 kJ/mol
# Density = 1.904449 g / cm^3
# Si number density = 19.087931 Si / 1000 Ang^3
#
#
#
# Elastic Constant Matrix: (Units=GPa)
#
#
# Indices 1 2 3 4 5 6 
#
# 1 128.3996 34.6659 51.0354 0.0000 0.0000 0.0000
# 2 34.6659 64.1127 21.5107 0.0000 0.0000 0.0000
# 3 51.0354 21.5107 67.7624 0.0000 0.0000 0.0000
# 4 0.0000 0.0000 0.0000 21.2264 0.0000 0.0000
# 5 0.0000 0.0000 0.0000 0.0000 28.1631 0.0000
# 6 0.0000 0.0000 0.0000 0.0000 0.0000 15.8132
#
#
#
# Elastic Compliance Matrix: (Units=1/GPa)
#
#
# Indices 1 2 3 4 5 6 
#
# 1 0.011903 -0.003837 -0.007747 0.000000 0.000000 0.000000
# 2 -0.003837 0.018694 -0.003044 0.000000 0.000000 0.000000
# 3 -0.007747 -0.003044 0.021559 0.000000 0.000000 0.000000
# 4 0.000000 0.000000 0.000000 0.047111 0.000000 0.000000
# 5 0.000000 0.000000 0.000000 0.000000 0.035507 0.000000
# 6 0.000000 0.000000 0.000000 0.000000 0.000000 0.063238
#
#
# Mechanical properties :
#
#
# Convention : Reuss Voigt Hill
#
# Bulk Modulus (GPa) = 43.67027 52.74430 48.20729
# Shear Modulus (GPa) = 21.28548 23.24472 22.26510
#
# Velocity S-wave (km/s) = 3.34298 3.49344 3.41904
# Velocity P-wave (km/s) = 6.15051 6.63057 6.39505
#
# Compressibility (1/GPa) = 0.02289887
#
# Stress axis : x y z
#
# Youngs Moduli (GPa) = 84.01012 53.49420 46.38531
#
# Poissons Ratio (x) = 0.20525 0.35935
# Poissons Ratio (y) = 0.32234 0.14121
# Poissons Ratio (z) = 0.65083 0.16286
#
# Static dielectric constant tensor:
#      x y z
#    x 2.705930 0.000000 0.000000 
#    y 0.000000 3.455430 0.000000 
#    z 0.000000 0.000000 3.328780 
# 
# 
# High freq. dielectric constant tensor:
#      x y z
#    x 1.751760 0.000000 0.000000 
#    y 0.000000 1.729640 0.000000 
#    z 0.000000 0.000000 1.725160 
# 
# From -- ./inp_files/31215.got.cif
#   From: 2010.03.12/outbox.cif.g09.slc.cpg/sg53_16_cif.got.tgz:31215.got - 2010.04.16 14:36:59.
