data_PCOD8218957
_publ_section_title
;
Structure prediction by ZEFSAII (Michael W. Deem and Ramdas Pophale) SiO2 
 PCOD8218957
Probable space group: P M N A
;
_chemical_formula_sum "Si O2"
_cell_formula_units_Z 40
_cell_length_a 8.944024
_cell_length_b 11.607700
_cell_length_c 21.633902
_cell_angle_alpha 90.000000
_cell_angle_beta 90.000000
_cell_angle_gamma 90.000000
_cell_volume 2246.021914
_symmetry_space_group_name_H-M "P M N A"
_symmetry_group_IT_number 53
_symmetry_cell_setting 'orthorhombic'
loop_
_space_group_symop_operation_xyz
x,y,z
1/2-x,-y,1/2+z
x,-y,-z
1/2-x,y,1/2-z
-x,-y,-z
1/2+x,y,1/2-z
-x,y,z
1/2+x,-y,1/2+z
loop_
_atom_site_type_symbol
_atom_site_label
_atom_site_fract_x
_atom_site_fract_y
_atom_site_fract_z
Si Si1 0.826909 0.294660 0.189236
Si Si2 0.326632 0.674394 0.036772
Si Si3 0.174677 0.438635 0.410961
Si Si4 0.321900 0.032827 0.315524
Si Si5 0.321988 0.071916 0.938339
O O1 0.750000 0.340981 0.250000
O O2 0.781792 0.386249 0.138992
O O3 0.775454 0.165319 0.173204
O O4 0.000000 0.297695 0.200806
O O5 0.500000 0.696882 0.028169
O O6 0.297528 0.576767 0.088693
O O7 0.256658 0.798378 0.052940
O O8 0.266569 0.622025 0.973120
O O9 0.000000 0.411956 0.398890
O O10 0.250000 0.989957 0.250000
O O11 0.500000 0.013902 0.312198
O O12 0.255423 0.969621 0.375339
O O13 0.500000 0.066192 0.928675
O O14 0.275994 0.000000 0.000000
#
# Coordination Sequence:
#
# PCOD8218957 Si02
#       5
#     8   8   8   8   8
#     4  10  20  33  50  73  98 125 162 205 248 293
#     4   8  16  30  50  76 102 130 162 198 243 293
#     4   9  16  31  53  73  98 130 163 199 241 290
#     4  10  21  36  53  74 102 135 170 211 257 303
#     4  10  19  32  53  80 107 135 170 209 250 300
#
# _framework density 17.809263999999999
#
# number of rings (size 3 to 8) (size 9 to 14) (size 15 to 20)
#    0.000    2.600    0.000    3.600    0.000    4.400 
#    0.000    5.000    0.000    0.000    0.000    0.000 
#    0.000    0.000    0.000    0.000    0.000    0.000 
#
# Total GULP energy -495660.412726 kJ/mol
# GULP energy per Si atom -12391.510318 kJ/mol
# Density = 1.776873 g / cm^3
# Si number density = 17.809264 Si / 1000 Ang^3
#
#
#
# Elastic Constant Matrix: (Units=GPa)
#
#
# Indices 1 2 3 4 5 6 
#
# 1 42.0802 29.6969 36.3664 0.0000 0.0000 0.0000
# 2 29.6969 117.6989 64.2113 0.0000 0.0000 0.0000
# 3 36.3664 64.2113 122.0536 0.0000 0.0000 0.0000
# 4 0.0000 0.0000 0.0000 33.8675 0.0000 0.0000
# 5 0.0000 0.0000 0.0000 0.0000 35.4748 0.0000
# 6 0.0000 0.0000 0.0000 0.0000 0.0000 23.2955
#
#
#
# Elastic Compliance Matrix: (Units=1/GPa)
#
#
# Indices 1 2 3 4 5 6 
#
# 1 0.033428 -0.004208 -0.007746 0.000000 0.000000 0.000000
# 2 -0.004208 0.012446 -0.005294 0.000000 0.000000 0.000000
# 3 -0.007746 -0.005294 0.013286 0.000000 0.000000 0.000000
# 4 0.000000 0.000000 0.000000 0.029527 0.000000 0.000000
# 5 0.000000 0.000000 0.000000 0.000000 0.028189 0.000000
# 6 0.000000 0.000000 0.000000 0.000000 0.000000 0.042927
#
#
# Mechanical properties :
#
#
# Convention : Reuss Voigt Hill
#
# Bulk Modulus (GPa) = 40.54509 60.26464 50.40487
# Shear Modulus (GPa) = 24.68871 28.63145 26.66008
#
# Velocity S-wave (km/s) = 3.72732 4.01393 3.87328
# Velocity P-wave (km/s) = 6.42959 7.44275 6.95465
#
# Compressibility (1/GPa) = 0.02466390
#
# Stress axis : x y z
#
# Youngs Moduli (GPa) = 29.91460 80.34554 75.26614
#
# Poissons Ratio (x) = 0.33813 0.58302
# Poissons Ratio (y) = 0.12590 0.39845
# Poissons Ratio (z) = 0.23172 0.42534
#
# Static dielectric constant tensor:
#      x y z
#    x 3.066220 0.000000 0.000000 
#    y 0.000000 3.624750 0.000000 
#    z 0.000000 0.000000 3.174080 
# 
# 
# High freq. dielectric constant tensor:
#      x y z
#    x 1.670120 0.000000 0.000000 
#    y 0.000000 1.691180 0.000000 
#    z 0.000000 0.000000 1.688750 
# 
# From -- ./inp_files/25840.got.cif
#   From: 2010.03.12/outbox.cif.g09.slc.cpg/sg53_13_cif.got.tgz:25840.got - 2010.04.16 14:36:59.
