data_PCOD8218116
_publ_section_title
;
Structure prediction by ZEFSAII (Michael W. Deem and Ramdas Pophale) SiO2 
 PCOD8218116
Probable space group: P M N A
;
_chemical_formula_sum "Si O2"
_cell_formula_units_Z 52
_cell_length_a 9.417307
_cell_length_b 11.596519
_cell_length_c 25.610265
_cell_angle_alpha 90.000000
_cell_angle_beta 90.000000
_cell_angle_gamma 90.000000
_cell_volume 2796.845297
_symmetry_space_group_name_H-M "P M N A"
_symmetry_group_IT_number 53
_symmetry_cell_setting 'orthorhombic'
loop_
_space_group_symop_operation_xyz
x,y,z
1/2-x,-y,1/2+z
x,-y,-z
1/2-x,y,1/2-z
-x,-y,-z
1/2+x,y,1/2-z
-x,y,z
1/2+x,-y,1/2+z
loop_
_atom_site_type_symbol
_atom_site_label
_atom_site_fract_x
_atom_site_fract_y
_atom_site_fract_z
Si Si1 0.668577 0.192420 0.630772
Si Si2 0.167265 0.875042 0.014902
Si Si3 0.331234 0.367759 0.802046
Si Si4 0.750000 0.202626 0.250000
Si Si5 0.842847 0.048721 0.162804
Si Si6 0.831932 0.759290 0.911829
Si Si7 0.341203 0.622478 0.835750
O O1 0.500000 0.220062 0.636398
O O2 0.715874 0.169351 0.571174
O O3 0.763550 0.298296 0.649935
O O4 0.721075 0.080316 0.664504
O O5 0.000000 0.889861 0.013855
O O6 0.211243 0.777685 0.972134
O O7 0.234661 0.000000 0.000000
O O8 0.250000 0.327042 0.750000
O O9 0.500000 0.344853 0.796986
O O10 0.295274 0.501283 0.811411
O O11 0.850319 0.114843 0.218044
O O12 0.663456 0.281891 0.210014
O O13 0.769586 0.129603 0.119390
O O14 0.000000 0.027258 0.141162
O O15 0.758654 0.648103 0.885621
O O16 0.000000 0.743990 0.903737
O O17 0.500000 0.616446 0.857575
#
# Coordination Sequence:
#
# PCOD8218116 Si02
#       7
#     8   8   8   4   8   8   8
#     4  10  20  35  56  84 115 148 184 222 272 328
#     4   9  15  30  57  85 114 147 184 225 271 325
#     4  11  24  42  59  79 108 148 191 229 274 326
#     4  10  18  32  52  78 108 140 180 220 280 332
#     4   9  17  29  49  79 110 138 174 219 270 323
#     4   9  17  31  56  86 111 140 179 226 273 324
#     4  10  21  37  56  79 108 143 184 232 280 327
#
# _framework density 18.592375000000001
#
# number of rings (size 3 to 8) (size 9 to 14) (size 15 to 20)
#    0.000    2.308    2.308    0.923    1.077    1.846 
#    0.000    4.615    0.000    5.538    0.000    0.000 
#    0.000    0.000    0.000    0.000    0.000    0.000 
#
# Total GULP energy -644353.333040 kJ/mol
# GULP energy per Si atom -12391.410251 kJ/mol
# Density = 1.855006 g / cm^3
# Si number density = 18.592375 Si / 1000 Ang^3
#
#
#
# Elastic Constant Matrix: (Units=GPa)
#
#
# Indices 1 2 3 4 5 6 
#
# 1 62.7705 36.5323 37.5641 0.0000 0.0000 0.0000
# 2 36.5323 85.2548 60.7081 0.0000 0.0000 0.0000
# 3 37.5641 60.7081 132.0258 0.0000 0.0000 0.0000
# 4 0.0000 0.0000 0.0000 29.0687 0.0000 0.0000
# 5 0.0000 0.0000 0.0000 0.0000 23.7808 0.0000
# 6 0.0000 0.0000 0.0000 0.0000 0.0000 23.4700
#
#
#
# Elastic Compliance Matrix: (Units=1/GPa)
#
#
# Indices 1 2 3 4 5 6 
#
# 1 0.021923 -0.007364 -0.002852 0.000000 0.000000 0.000000
# 2 -0.007364 0.019913 -0.007061 0.000000 0.000000 0.000000
# 3 -0.002852 -0.007061 0.011633 0.000000 0.000000 0.000000
# 4 0.000000 0.000000 0.000000 0.034401 0.000000 0.000000
# 5 0.000000 0.000000 0.000000 0.000000 0.042051 0.000000
# 6 0.000000 0.000000 0.000000 0.000000 0.000000 0.042608
#
#
# Mechanical properties :
#
#
# Convention : Reuss Voigt Hill
#
# Bulk Modulus (GPa) = 52.86632 61.07335 56.96983
# Shear Modulus (GPa) = 23.43159 24.94700 24.18930
#
# Velocity S-wave (km/s) = 3.55389 3.66701 3.61090
# Velocity P-wave (km/s) = 6.73323 7.13087 6.93490
#
# Compressibility (1/GPa) = 0.01891564
#
# Stress axis : x y z
#
# Youngs Moduli (GPa) = 45.61371 50.21808 85.96538
#
# Poissons Ratio (x) = 0.36979 0.24515
# Poissons Ratio (y) = 0.33588 0.60703
# Poissons Ratio (z) = 0.13008 0.35461
#
# Static dielectric constant tensor:
#      x y z
#    x 3.086930 0.000000 0.000000 
#    y 0.000000 3.453800 0.000000 
#    z 0.000000 0.000000 3.525430 
# 
# 
# High freq. dielectric constant tensor:
#      x y z
#    x 1.684550 0.000000 0.000000 
#    y 0.000000 1.719560 0.000000 
#    z 0.000000 0.000000 1.723420 
# 
# From -- ./inp_files/36234.got.cif
#   From: 2010.03.12/outbox.cif.g09.slc.cpg/sg53_19_cif.got.tgz:36234.got - 2010.04.16 14:36:59.
