data_PCOD8218712
_publ_section_title
;
Structure prediction by ZEFSAII (Michael W. Deem and Ramdas Pophale) SiO2 
 PCOD8218712
Probable space group: P M N A
;
_chemical_formula_sum "Si O2"
_cell_formula_units_Z 64
_cell_length_a 8.835529
_cell_length_b 14.878610
_cell_length_c 24.299470
_cell_angle_alpha 90.000000
_cell_angle_beta 90.000000
_cell_angle_gamma 90.000000
_cell_volume 3194.417806
_symmetry_space_group_name_H-M "P M N A"
_symmetry_group_IT_number 53
_symmetry_cell_setting 'orthorhombic'
loop_
_space_group_symop_operation_xyz
x,y,z
1/2-x,-y,1/2+z
x,-y,-z
1/2-x,y,1/2-z
-x,-y,-z
1/2+x,y,1/2-z
-x,y,z
1/2+x,-y,1/2+z
loop_
_atom_site_type_symbol
_atom_site_label
_atom_site_fract_x
_atom_site_fract_y
_atom_site_fract_z
Si Si1 0.677796 0.175789 0.402187
Si Si2 0.827839 0.158547 0.514755
Si Si3 0.678564 0.133674 0.624810
Si Si4 0.677876 0.041840 0.309084
Si Si5 0.174503 0.621375 0.914834
Si Si6 0.678226 0.288157 0.807361
Si Si7 0.173514 0.439127 0.868123
Si Si8 0.328305 0.370426 0.974552
O O1 0.500000 0.162775 0.410852
O O2 0.757718 0.133766 0.455744
O O3 0.735098 0.121621 0.348911
O O4 0.721906 0.280333 0.392757
O O5 0.734354 0.109838 0.563317
O O6 0.815379 0.264042 0.523814
O O7 0.000000 0.124385 0.516528
O O8 0.500000 0.149597 0.624498
O O9 0.761304 0.223916 0.644701
O O10 0.726817 0.053270 0.665161
O O11 0.750000 0.055333 0.250000
O O12 0.500000 0.046383 0.301735
O O13 0.199191 0.547305 0.866657
O O14 0.000000 0.622482 0.934186
O O15 0.276915 0.591034 0.966450
O O16 0.750000 0.257896 0.750000
O O17 0.500000 0.279776 0.803198
O O18 0.723814 0.390643 0.822152
O O19 0.214774 0.405579 0.928715
O O20 0.000000 0.414397 0.855614
O O21 0.500000 0.401332 0.962042
#
# Coordination Sequence:
#
# PCOD8218712 Si02
#       8
#     8   8   8   8   8   8   8   8
#     4   9  19  39  61  83 117 156 194 239 288 345
#     4  10  20  34  55  87 122 156 192 233 287 345
#     4  11  22  38  61  88 117 151 189 234 289 351
#     4  10  23  41  63  88 112 147 194 240 291 345
#     4   9  19  34  55  81 112 151 193 234 281 336
#     4  12  25  41  59  82 113 152 194 239 292 349
#     4  11  21  34  54  81 112 150 194 235 282 337
#     4  10  19  31  50  80 117 153 190 233 281 334
#
# _framework density 20.034949999999998
#
# number of rings (size 3 to 8) (size 9 to 14) (size 15 to 20)
#    0.000    1.750    1.250    3.375    0.000    6.500 
#    0.000    3.125    0.000    1.500    0.000    0.000 
#    0.000    0.000    0.000    0.000    0.000    0.000 
#
# Total GULP energy -793762.400672 kJ/mol
# GULP energy per Si atom -12402.537510 kJ/mol
# Density = 1.998935 g / cm^3
# Si number density = 20.034950 Si / 1000 Ang^3
#
#
#
# Elastic Constant Matrix: (Units=GPa)
#
#
# Indices 1 2 3 4 5 6 
#
# 1 95.1503 34.7838 44.5726 0.0000 0.0000 0.0000
# 2 34.7838 65.3470 52.7936 0.0000 0.0000 0.0000
# 3 44.5726 52.7936 129.3359 0.0000 0.0000 0.0000
# 4 0.0000 0.0000 0.0000 31.0972 0.0000 0.0000
# 5 0.0000 0.0000 0.0000 0.0000 36.7924 0.0000
# 6 0.0000 0.0000 0.0000 0.0000 0.0000 17.9035
#
#
#
# Elastic Compliance Matrix: (Units=1/GPa)
#
#
# Indices 1 2 3 4 5 6 
#
# 1 0.013604 -0.005153 -0.002585 0.000000 0.000000 0.000000
# 2 -0.005153 0.024784 -0.008341 0.000000 0.000000 0.000000
# 3 -0.002585 -0.008341 0.012027 0.000000 0.000000 0.000000
# 4 0.000000 0.000000 0.000000 0.032157 0.000000 0.000000
# 5 0.000000 0.000000 0.000000 0.000000 0.027180 0.000000
# 6 0.000000 0.000000 0.000000 0.000000 0.000000 0.055855
#
#
# Mechanical properties :
#
#
# Convention : Reuss Voigt Hill
#
# Bulk Modulus (GPa) = 54.76983 61.57034 58.17008
# Shear Modulus (GPa) = 24.52760 27.67083 26.09921
#
# Velocity S-wave (km/s) = 3.50271 3.72038 3.61319
# Velocity P-wave (km/s) = 6.61477 7.01806 6.81940
#
# Compressibility (1/GPa) = 0.01825823
#
# Stress axis : x y z
#
# Youngs Moduli (GPa) = 73.50544 40.34789 83.14407
#
# Poissons Ratio (x) = 0.20792 0.21493
# Poissons Ratio (y) = 0.37878 0.69349
# Poissons Ratio (z) = 0.19001 0.33654
#
# Static dielectric constant tensor:
#      x y z
#    x 3.640740 0.000000 0.000000 
#    y 0.000000 3.786140 0.000000 
#    z 0.000000 0.000000 3.639970 
# 
# 
# High freq. dielectric constant tensor:
#      x y z
#    x 1.783730 0.000000 0.000000 
#    y 0.000000 1.783880 0.000000 
#    z 0.000000 0.000000 1.768550 
# 
# From -- ./inp_files/34326.got.cif
#   From: 2010.03.12/outbox.cif.g09.slc.cpg/sg53_18_cif.got.tgz:34326.got - 2010.04.16 14:36:59.
