data_PCOD8218750
_publ_section_title
;
Structure prediction by ZEFSAII (Michael W. Deem and Ramdas Pophale) SiO2 
 PCOD8218750
Probable space group: P M N A
;
_chemical_formula_sum "Si O2"
_cell_formula_units_Z 56
_cell_length_a 8.778373
_cell_length_b 20.851405
_cell_length_c 16.430277
_cell_angle_alpha 90.000000
_cell_angle_beta 90.000000
_cell_angle_gamma 90.000000
_cell_volume 3007.421080
_symmetry_space_group_name_H-M "P M N A"
_symmetry_group_IT_number 53
_symmetry_cell_setting 'orthorhombic'
loop_
_space_group_symop_operation_xyz
x,y,z
1/2-x,-y,1/2+z
x,-y,-z
1/2-x,y,1/2-z
-x,-y,-z
1/2+x,y,1/2-z
-x,y,z
1/2+x,-y,1/2+z
loop_
_atom_site_type_symbol
_atom_site_label
_atom_site_fract_x
_atom_site_fract_y
_atom_site_fract_z
Si Si1 0.172067 0.039833 0.380245
Si Si2 0.820830 0.649422 0.999582
Si Si3 0.321293 0.163140 0.331304
Si Si4 0.818008 0.784205 0.506857
Si Si5 0.680052 0.421223 0.334224
Si Si6 0.168877 0.910240 0.437389
Si Si7 0.670514 0.463434 0.915676
O O1 0.282245 0.087032 0.330952
O O2 0.162201 0.065321 0.471069
O O3 0.000000 0.040729 0.343370
O O4 0.244418 0.966780 0.381723
O O5 0.737282 0.715248 0.021918
O O6 0.773712 0.625424 0.909030
O O7 0.000000 0.659092 0.005297
O O8 0.768342 0.600581 0.069865
O O9 0.250000 0.193714 0.250000
O O10 0.500000 0.173681 0.332850
O O11 0.248617 0.202261 0.404602
O O12 0.755839 0.838896 0.442258
O O13 0.000000 0.787458 0.511470
O O14 0.750000 0.393854 0.250000
O O15 0.500000 0.426211 0.326238
O O16 0.746679 0.492340 0.349080
O O17 0.000000 0.902831 0.401867
O O18 0.500000 0.446529 0.885181
O O19 0.662015 0.500000 0.000000
#
# Coordination Sequence:
#
# PCOD8218750 Si02
#       7
#     8   8   8   8   8   8   8
#     4   8  13  26  45  63  83 110 144 183 224 265
#     4  10  20  33  48  70 100 132 164 199 240 285
#     4  11  21  32  44  62  89 122 157 192 231 276
#     4  10  19  32  48  67  92 124 158 190 227 275
#     4  10  20  33  50  72  99 128 160 199 241 285
#     4   7  12  24  44  65  85 110 142 180 223 267
#     4   9  17  31  51  72  94 123 160 200 241 284
#
# _framework density 18.620605999999999
#
# number of rings (size 3 to 8) (size 9 to 14) (size 15 to 20)
#    0.000    2.714    0.000    4.714    0.000    4.000 
#    0.000    7.857    0.000    0.000    0.000    1.000 
#    0.000    2.286    0.000    0.000    0.000    0.000 
#
# Total GULP energy -693741.467556 kJ/mol
# GULP energy per Si atom -12388.240492 kJ/mol
# Density = 1.857822 g / cm^3
# Si number density = 18.620606 Si / 1000 Ang^3
#
#
#
# Elastic Constant Matrix: (Units=GPa)
#
#
# Indices 1 2 3 4 5 6 
#
# 1 81.3863 25.5112 2.5426 0.0000 0.0000 0.0000
# 2 25.5112 109.1736 0.5952 0.0000 0.0000 0.0000
# 3 2.5426 0.5952 7.9953 0.0000 0.0000 0.0000
# 4 0.0000 0.0000 0.0000 14.8269 0.0000 0.0000
# 5 0.0000 0.0000 0.0000 0.0000 21.0066 0.0000
# 6 0.0000 0.0000 0.0000 0.0000 0.0000 26.3871
#
#
#
# Elastic Compliance Matrix: (Units=1/GPa)
#
#
# Indices 1 2 3 4 5 6 
#
# 1 0.013387 -0.003106 -0.004026 0.000000 0.000000 0.000000
# 2 -0.003106 0.009884 0.000252 0.000000 0.000000 0.000000
# 3 -0.004026 0.000252 0.126336 0.000000 0.000000 0.000000
# 4 0.000000 0.000000 0.000000 0.067445 0.000000 0.000000
# 5 0.000000 0.000000 0.000000 0.000000 0.047604 0.000000
# 6 0.000000 0.000000 0.000000 0.000000 0.000000 0.037897
#
#
# Mechanical properties :
#
#
# Convention : Reuss Voigt Hill
#
# Bulk Modulus (GPa) = 7.36126 28.42812 17.89469
# Shear Modulus (GPa) = 13.82763 23.77120 18.79942
#
# Velocity S-wave (km/s) = 2.72802 3.57684 3.18087
# Velocity P-wave (km/s) = 3.72621 5.68846 4.80849
#
# Compressibility (1/GPa) = 0.13584625
#
# Stress axis : x y z
#
# Youngs Moduli (GPa) = 74.70210 101.17179 7.91542
#
# Poissons Ratio (x) = 0.31425 0.03187
# Poissons Ratio (y) = 0.23204 -0.00199
# Poissons Ratio (z) = 0.30074 -0.02549
#
# Static dielectric constant tensor:
#      x y z
#    x 3.349790 0.000000 0.000000 
#    y 0.000000 3.822960 0.000000 
#    z 0.000000 0.000000 3.023450 
# 
# 
# High freq. dielectric constant tensor:
#      x y z
#    x 1.715010 0.000000 0.000000 
#    y 0.000000 1.726400 0.000000 
#    z 0.000000 0.000000 1.675630 
# 
# From -- ./inp_files/26649.got.cif
#   From: 2010.03.12/outbox.cif.g09.slc.cpg/sg53_14_cif.got.tgz:26649.got - 2010.04.16 14:36:59.
