data_PCOD8218675
_publ_section_title
;
Structure prediction by ZEFSAII (Michael W. Deem and Ramdas Pophale) SiO2 
 PCOD8218675
Probable space group: P M N A
;
_chemical_formula_sum "Si O2"
_cell_formula_units_Z 56
_cell_length_a 8.663430
_cell_length_b 19.984293
_cell_length_c 15.679032
_cell_angle_alpha 90.000000
_cell_angle_beta 90.000000
_cell_angle_gamma 90.000000
_cell_volume 2714.550376
_symmetry_space_group_name_H-M "P M N A"
_symmetry_group_IT_number 53
_symmetry_cell_setting 'orthorhombic'
loop_
_space_group_symop_operation_xyz
x,y,z
1/2-x,-y,1/2+z
x,-y,-z
1/2-x,y,1/2-z
-x,-y,-z
1/2+x,y,1/2-z
-x,y,z
1/2+x,-y,1/2+z
loop_
_atom_site_type_symbol
_atom_site_label
_atom_site_fract_x
_atom_site_fract_y
_atom_site_fract_z
Si Si1 0.318785 0.076231 0.489788
Si Si2 0.177634 0.880327 0.335539
Si Si3 0.178468 0.708015 0.938159
Si Si4 0.831560 0.623326 0.323584
Si Si5 0.175000 0.247942 0.871527
Si Si6 0.316924 0.170534 0.156772
Si Si7 0.828325 0.572423 0.509089
O O1 0.500000 0.082235 0.472484
O O2 0.278787 0.106077 0.581256
O O3 0.235963 0.114384 0.411816
O O4 0.262675 0.000000 0.500000
O O5 0.250000 0.914593 0.250000
O O6 0.197827 0.800582 0.328725
O O7 0.000000 0.902252 0.345507
O O8 0.264771 0.754219 0.868786
O O9 0.238813 0.630912 0.939893
O O10 0.000000 0.704765 0.913103
O O11 0.205829 0.745108 0.027353
O O12 0.750000 0.577062 0.250000
O O13 0.704358 0.681670 0.328535
O O14 0.846989 0.587276 0.411133
O O15 0.000000 0.648909 0.295709
O O16 0.000000 0.223020 0.854833
O O17 0.250000 0.152337 0.250000
O O18 0.500000 0.168530 0.161364
O O19 0.743435 0.500000 0.500000
O O20 0.000000 0.565839 0.550507
#
# Coordination Sequence:
#
# PCOD8218675 Si02
#       7
#     8   8   8   8   8   8   8
#     4  11  25  46  69  94 128 167 210 264 324 387
#     4  12  24  38  60  89 124 162 202 247 303 367
#     4  10  20  36  61  90 123 160 205 260 317 376
#     4  10  19  31  49  75 108 143 187 234 290 356
#     4  10  19  33  55  82 117 152 189 237 293 356
#     4  12  25  43  70  99 131 171 221 275 329 391
#     4   9  19  36  57  81 114 159 207 255 313 381
#
# _framework density 20.629567000000002
#
# number of rings (size 3 to 8) (size 9 to 14) (size 15 to 20)
#    0.000    1.429    1.429    4.714    0.000    3.714 
#    0.000    0.714    0.000    1.714    0.000    0.000 
#    0.000    0.000    0.000    0.000    0.000    0.000 
#
# Total GULP energy -693752.309085 kJ/mol
# GULP energy per Si atom -12388.434091 kJ/mol
# Density = 2.058261 g / cm^3
# Si number density = 20.629567 Si / 1000 Ang^3
#
#
#
# Elastic Constant Matrix: (Units=GPa)
#
#
# Indices 1 2 3 4 5 6 
#
# 1 117.5792 44.4801 44.8884 0.0000 0.0000 0.0000
# 2 44.4801 113.5434 36.9477 0.0000 0.0000 0.0000
# 3 44.8884 36.9477 113.0471 0.0000 0.0000 0.0000
# 4 0.0000 0.0000 0.0000 -1.0890 0.0000 0.0000
# 5 0.0000 0.0000 0.0000 0.0000 25.0916 0.0000
# 6 0.0000 0.0000 0.0000 0.0000 0.0000 30.2001
#
#
#
# Elastic Compliance Matrix: (Units=1/GPa)
#
#
# Indices 1 2 3 4 5 6 
#
# 1 0.010989 -0.003228 -0.003308 0.000000 0.000000 0.000000
# 2 -0.003228 0.010804 -0.002249 0.000000 0.000000 0.000000
# 3 -0.003308 -0.002249 0.010895 0.000000 0.000000 0.000000
# 4 0.000000 0.000000 0.000000 -0.918259 0.000000 0.000000
# 5 0.000000 0.000000 0.000000 0.000000 0.039854 0.000000
# 6 0.000000 0.000000 0.000000 0.000000 0.000000 0.033112
#
#
# Mechanical properties :
#
#
# Convention : Reuss Voigt Hill
#
# Bulk Modulus (GPa) = 66.15595 66.31134 66.23365
# Shear Modulus (GPa) = -6.32916 25.36410 9.51747
#
# Velocity S-wave (km/s) = -1.75347 3.51023 2.15024
# Velocity P-wave (km/s) = 5.29515 6.97442 6.19198
#
# Compressibility (1/GPa) = 0.01511580
#
# Stress axis : x y z
#
# Youngs Moduli (GPa) = 90.99780 92.56000 91.78797
#
# Poissons Ratio (x) = 0.29882 0.30367
# Poissons Ratio (y) = 0.29378 0.20644
# Poissons Ratio (z) = 0.30106 0.20818
#
# Static dielectric constant tensor:
#      x y z
#    x 3.845650 0.000000 0.000000 
#    y 0.000000 3.897190 0.000000 
#    z 0.000000 0.000000 4.028610 
# 
# 
# High freq. dielectric constant tensor:
#      x y z
#    x 1.815000 0.000000 0.000000 
#    y 0.000000 1.791170 0.000000 
#    z 0.000000 0.000000 1.813200 
# 
# From -- ./inp_files/20564.got.cif
#   From: 2010.03.12/outbox.cif.g09.slc.cpg/sg53_11_cif.got.tgz:20564.got - 2010.04.16 14:36:59.
