data_PCOD8218215
_publ_section_title
;
Structure prediction by ZEFSAII (Michael W. Deem and Ramdas Pophale) SiO2 
 PCOD8218215
Probable space group: P M N A
;
_chemical_formula_sum "Si O2"
_cell_formula_units_Z 64
_cell_length_a 23.199443
_cell_length_b 12.630695
_cell_length_c 11.499896
_cell_angle_alpha 90.000000
_cell_angle_beta 90.000000
_cell_angle_gamma 90.000000
_cell_volume 3369.758045
_symmetry_space_group_name_H-M "P M N A"
_symmetry_group_IT_number 53
_symmetry_cell_setting 'orthorhombic'
loop_
_space_group_symop_operation_xyz
x,y,z
1/2-x,-y,1/2+z
x,-y,-z
1/2-x,y,1/2-z
-x,-y,-z
1/2+x,y,1/2-z
-x,y,z
1/2+x,-y,1/2+z
loop_
_atom_site_type_symbol
_atom_site_label
_atom_site_fract_x
_atom_site_fract_y
_atom_site_fract_z
Si Si1 0.368252 0.179948 0.096766
Si Si2 0.372016 0.896436 0.568171
Si Si3 0.435005 0.298865 0.507649
Si Si4 0.934024 0.213768 0.630486
Si Si5 0.933312 0.420158 0.777258
Si Si6 0.565723 0.011828 0.216987
Si Si7 0.250686 0.074565 0.117017
Si Si8 0.065565 0.352795 0.258639
O O1 0.396537 0.064570 0.115913
O O2 0.299793 0.164893 0.108340
O O3 0.391507 0.266232 0.188872
O O4 0.386983 0.216424 0.970050
O O5 0.397749 0.807889 0.483795
O O6 0.418815 0.929568 0.663781
O O7 0.309902 0.861050 0.617981
O O8 0.355491 0.000000 0.500000
O O9 0.500000 0.270315 0.549216
O O10 0.408755 0.386971 0.595563
O O11 0.434472 0.343008 0.379253
O O12 0.921456 0.322400 0.694278
O O13 0.000000 0.209490 0.583393
O O14 0.922856 0.114382 0.716931
O O15 0.908013 0.528727 0.721122
O O16 0.000000 0.447470 0.792491
O O17 0.500000 0.038374 0.189993
O O18 0.250000 0.020169 0.250000
O O19 0.257815 0.000000 0.000000
O O20 0.000000 0.337732 0.307947
#
# Coordination Sequence:
#
# PCOD8218215 Si02
#       8
#     8   8   8   8   8   8   8   8
#     4  12  22  36  57  82 112 151 194 238 288 343
#     4  11  22  34  54  84 116 152 192 236 286 347
#     4  10  18  33  55  84 119 152 190 235 291 349
#     4  10  21  34  52  83 120 155 185 229 289 347
#     4   9  19  34  53  83 120 154 191 235 289 347
#     4  11  20  33  53  82 120 151 183 226 285 353
#     4  11  23  41  61  85 116 157 204 245 289 343
#     4  10  19  33  56  86 116 150 195 240 284 346
#
# _framework density 18.992462
#
# number of rings (size 3 to 8) (size 9 to 14) (size 15 to 20)
#    0.000    1.500    2.500    3.750    0.000    5.000 
#    0.000    1.875    0.000    0.000   16.250    0.000 
#    0.000    0.000    0.000    0.000    0.000    0.000 
#
# Total GULP energy -792911.673026 kJ/mol
# GULP energy per Si atom -12389.244891 kJ/mol
# Density = 1.894923 g / cm^3
# Si number density = 18.992462 Si / 1000 Ang^3
#
#
#
# Elastic Constant Matrix: (Units=GPa)
#
#
# Indices 1 2 3 4 5 6 
#
# 1 64.7854 35.6513 14.8264 0.0000 0.0000 0.0000
# 2 35.6513 117.9987 19.9975 0.0000 0.0000 0.0000
# 3 14.8264 19.9975 81.1785 0.0000 0.0000 0.0000
# 4 0.0000 0.0000 0.0000 16.4537 0.0000 0.0000
# 5 0.0000 0.0000 0.0000 0.0000 3.5280 0.0000
# 6 0.0000 0.0000 0.0000 0.0000 0.0000 93.9525
#
#
#
# Elastic Compliance Matrix: (Units=1/GPa)
#
#
# Indices 1 2 3 4 5 6 
#
# 1 0.018860 -0.005337 -0.002130 0.000000 0.000000 0.000000
# 2 -0.005337 0.010354 -0.001576 0.000000 0.000000 0.000000
# 3 -0.002130 -0.001576 0.013096 0.000000 0.000000 0.000000
# 4 0.000000 0.000000 0.000000 0.060777 0.000000 0.000000
# 5 0.000000 0.000000 0.000000 0.000000 0.283449 0.000000
# 6 0.000000 0.000000 0.000000 0.000000 0.000000 0.010644
#
#
# Mechanical properties :
#
#
# Convention : Reuss Voigt Hill
#
# Bulk Modulus (GPa) = 41.28112 44.99033 43.13573
# Shear Modulus (GPa) = 11.81084 35.68601 23.74842
#
# Velocity S-wave (km/s) = 2.49644 4.33940 3.53995
# Velocity P-wave (km/s) = 5.48565 6.98907 6.28249
#
# Compressibility (1/GPa) = 0.02422415
#
# Stress axis : x y z
#
# Youngs Moduli (GPa) = 53.02198 96.57805 76.36085
#
# Poissons Ratio (x) = 0.51547 0.16263
# Poissons Ratio (y) = 0.28300 0.12034
# Poissons Ratio (z) = 0.11293 0.15220
#
# Static dielectric constant tensor:
#      x y z
#    x 3.451450 0.000000 0.000000 
#    y 0.000000 3.510400 0.000000 
#    z 0.000000 0.000000 1.314220 
# 
# 
# High freq. dielectric constant tensor:
#      x y z
#    x 1.708110 0.000000 0.000000 
#    y 0.000000 1.733610 0.000000 
#    z 0.000000 0.000000 1.746430 
# 
# From -- ./inp_files/18480.got.cif
#   From: 2010.03.12/outbox.cif.g09.slc.cpg/sg53_10_cif.got.tgz:18480.got - 2010.04.16 14:36:59.
