data_PCOD8218814
_publ_section_title
;
Structure prediction by ZEFSAII (Michael W. Deem and Ramdas Pophale) SiO2 
 PCOD8218814
Probable space group: P M N A
;
_chemical_formula_sum "Si O2"
_cell_formula_units_Z 40
_cell_length_a 8.648392
_cell_length_b 11.709097
_cell_length_c 21.664828
_cell_angle_alpha 90.000000
_cell_angle_beta 90.000000
_cell_angle_gamma 90.000000
_cell_volume 2193.885792
_symmetry_space_group_name_H-M "P M N A"
_symmetry_group_IT_number 53
_symmetry_cell_setting 'orthorhombic'
loop_
_space_group_symop_operation_xyz
x,y,z
1/2-x,-y,1/2+z
x,-y,-z
1/2-x,y,1/2-z
-x,-y,-z
1/2+x,y,1/2-z
-x,y,z
1/2+x,-y,1/2+z
loop_
_atom_site_type_symbol
_atom_site_label
_atom_site_fract_x
_atom_site_fract_y
_atom_site_fract_z
Si Si1 0.182521 0.042316 0.816493
Si Si2 0.179280 0.715029 0.312750
Si Si3 0.184701 0.075797 0.057836
Si Si4 0.679555 0.440883 0.591605
Si Si5 0.177824 0.673088 0.962007
O O1 0.250000 0.001162 0.750000
O O2 0.231084 0.170931 0.832496
O O3 0.000000 0.034650 0.810905
O O4 0.242161 0.968553 0.875066
O O5 0.250000 0.667981 0.250000
O O6 0.205832 0.612062 0.359167
O O7 0.000000 0.744809 0.305888
O O8 0.255627 0.203827 0.050829
O O9 0.000000 0.075503 0.055111
O O10 0.247280 0.000000 0.000000
O O11 0.500000 0.440979 0.612663
O O12 0.742761 0.569461 0.579955
O O13 0.698795 0.360861 0.532506
O O14 0.000000 0.684718 0.944850
#
# Coordination Sequence:
#
# PCOD8218814 Si02
#       5
#     8   8   8   8   8
#     4  10  19  32  51  72  98 130 162 201 246 295
#     4  11  21  33  50  71  96 125 161 203 245 290
#     4   9  16  27  48  77 102 126 164 207 241 281
#     4   9  16  30  52  74  98 127 161 199 239 285
#     4   8  15  28  49  76 101 128 161 197 238 286
#
# _framework density 18.232489000000001
#
# number of rings (size 3 to 8) (size 9 to 14) (size 15 to 20)
#    0.000    2.600    0.000    6.000    0.000    3.200 
#    0.000    3.000    0.000   15.600    0.000    0.000 
#    0.000    0.000    0.000    0.000    0.000    0.000 
#
# Total GULP energy -495679.730136 kJ/mol
# GULP energy per Si atom -12391.993253 kJ/mol
# Density = 1.819099 g / cm^3
# Si number density = 18.232489 Si / 1000 Ang^3
#
#
#
# Elastic Constant Matrix: (Units=GPa)
#
#
# Indices 1 2 3 4 5 6 
#
# 1 42.4629 14.5717 27.7166 0.0000 0.0000 0.0000
# 2 14.5717 130.4493 71.9938 0.0000 0.0000 0.0000
# 3 27.7166 71.9938 109.2523 0.0000 0.0000 0.0000
# 4 0.0000 0.0000 0.0000 35.5110 0.0000 0.0000
# 5 0.0000 0.0000 0.0000 0.0000 25.7322 0.0000
# 6 0.0000 0.0000 0.0000 0.0000 0.0000 39.0276
#
#
#
# Elastic Compliance Matrix: (Units=1/GPa)
#
#
# Indices 1 2 3 4 5 6 
#
# 1 0.028355 0.001261 -0.008025 0.000000 0.000000 0.000000
# 2 0.001261 0.012103 -0.008296 0.000000 0.000000 0.000000
# 3 -0.008025 -0.008296 0.016655 0.000000 0.000000 0.000000
# 4 0.000000 0.000000 0.000000 0.028160 0.000000 0.000000
# 5 0.000000 0.000000 0.000000 0.000000 0.038862 0.000000
# 6 0.000000 0.000000 0.000000 0.000000 0.000000 0.025623
#
#
# Mechanical properties :
#
#
# Convention : Reuss Voigt Hill
#
# Bulk Modulus (GPa) = 37.04276 56.74764 46.89520
# Shear Modulus (GPa) = 26.47251 31.24631 28.85941
#
# Velocity S-wave (km/s) = 3.81457 4.14426 3.98283
# Velocity P-wave (km/s) = 6.30573 7.35472 6.85033
#
# Compressibility (1/GPa) = 0.02699583
#
# Stress axis : x y z
#
# Youngs Moduli (GPa) = 35.26717 82.62275 60.04026
#
# Poissons Ratio (x) = -0.10422 0.48180
# Poissons Ratio (y) = -0.04449 0.49807
# Poissons Ratio (z) = 0.28301 0.68541
#
# Static dielectric constant tensor:
#      x y z
#    x 2.954770 0.000000 0.000000 
#    y 0.000000 3.762410 0.000000 
#    z 0.000000 0.000000 3.375770 
# 
# 
# High freq. dielectric constant tensor:
#      x y z
#    x 1.668400 0.000000 0.000000 
#    y 0.000000 1.708640 0.000000 
#    z 0.000000 0.000000 1.707820 
# 
# From -- ./inp_files/30358.got.cif
#   From: 2010.03.12/outbox.cif.g09.slc.cpg/sg53_16_cif.got.tgz:30358.got - 2010.04.16 14:36:59.
