data_PCOD8218443
_publ_section_title
;
Structure prediction by ZEFSAII (Michael W. Deem and Ramdas Pophale) SiO2 
 PCOD8218443
Probable space group: P M N A
;
_chemical_formula_sum "Si O2"
_cell_formula_units_Z 40
_cell_length_a 25.522395
_cell_length_b 4.989240
_cell_length_c 15.922017
_cell_angle_alpha 90.000000
_cell_angle_beta 90.000000
_cell_angle_gamma 90.000000
_cell_volume 2027.467516
_symmetry_space_group_name_H-M "P M N A"
_symmetry_group_IT_number 53
_symmetry_cell_setting 'orthorhombic'
loop_
_space_group_symop_operation_xyz
x,y,z
1/2-x,-y,1/2+z
x,-y,-z
1/2-x,y,1/2-z
-x,-y,-z
1/2+x,y,1/2-z
-x,y,z
1/2+x,-y,1/2+z
loop_
_atom_site_type_symbol
_atom_site_label
_atom_site_fract_x
_atom_site_fract_y
_atom_site_fract_z
Si Si1 0.333457 0.906505 0.094679
Si Si2 0.300517 0.579411 0.807979
Si Si3 0.907801 0.431305 0.228487
Si Si4 0.941757 0.238999 0.054539
Si Si5 0.058423 0.081190 0.678045
O O1 0.301618 0.632905 0.114550
O O2 0.395891 0.855713 0.110081
O O3 0.308286 0.124006 0.156521
O O4 0.324437 0.000000 0.000000
O O5 0.250000 0.559153 0.750000
O O6 0.347598 0.507511 0.746056
O O7 0.908338 0.312031 0.135539
O O8 0.937998 0.713006 0.242647
O O9 0.933872 0.221259 0.291785
O O10 0.000000 0.146398 0.083031
O O11 0.945527 0.500000 0.000000
O O12 0.915175 0.000000 0.000000
O O13 0.000000 0.105134 0.637828
#
# Coordination Sequence:
#
# PCOD8218443 Si02
#       5
#     8   8   8   8   8
#     4  10  21  37  58  85 113 140 177 224 272 322
#     4  10  21  39  60  79 105 144 185 224 270 320
#     4  10  20  34  52  75 104 139 184 224 261 323
#     4  10  19  30  46  69 100 135 168 211 264 309
#     4  10  19  32  54  80 108 144 177 212 263 326
#
# _framework density 19.729047999999999
#
# number of rings (size 3 to 8) (size 9 to 14) (size 15 to 20)
#    0.000    2.000    0.000    4.200    0.000    2.000 
#    0.000    3.000    0.000    7.200    0.000    0.000 
#    0.000    0.000    0.000    0.000    0.000    0.000 
#
# Total GULP energy -495862.063268 kJ/mol
# GULP energy per Si atom -12396.551582 kJ/mol
# Density = 1.968414 g / cm^3
# Si number density = 19.729048 Si / 1000 Ang^3
#
#
#
# Elastic Constant Matrix: (Units=GPa)
#
#
# Indices 1 2 3 4 5 6 
#
# 1 110.1456 27.6318 31.6027 0.0000 0.0000 0.0000
# 2 27.6318 98.6434 8.6010 0.0000 0.0000 0.0000
# 3 31.6027 8.6010 83.9762 0.0000 0.0000 0.0000
# 4 0.0000 0.0000 0.0000 36.3520 0.0000 0.0000
# 5 0.0000 0.0000 0.0000 0.0000 19.3590 0.0000
# 6 0.0000 0.0000 0.0000 0.0000 0.0000 21.2301
#
#
#
# Elastic Compliance Matrix: (Units=1/GPa)
#
#
# Indices 1 2 3 4 5 6 
#
# 1 0.010850 -0.002707 -0.003806 0.000000 0.000000 0.000000
# 2 -0.002707 0.010904 -0.000098 0.000000 0.000000 0.000000
# 3 -0.003806 -0.000098 0.013350 0.000000 0.000000 0.000000
# 4 0.000000 0.000000 0.000000 0.027509 0.000000 0.000000
# 5 0.000000 0.000000 0.000000 0.000000 0.051656 0.000000
# 6 0.000000 0.000000 0.000000 0.000000 0.000000 0.047103
#
#
# Mechanical properties :
#
#
# Convention : Reuss Voigt Hill
#
# Bulk Modulus (GPa) = 45.69891 47.60401 46.65146
# Shear Modulus (GPa) = 27.48927 30.38353 28.93640
#
# Velocity S-wave (km/s) = 3.73680 3.92859 3.83389
# Velocity P-wave (km/s) = 6.46775 6.69027 6.57995
#
# Compressibility (1/GPa) = 0.02188236
#
# Stress axis : x y z
#
# Youngs Moduli (GPa) = 92.16521 91.70550 74.90395
#
# Poissons Ratio (x) = 0.24829 0.28508
# Poissons Ratio (y) = 0.24953 0.00734
# Poissons Ratio (z) = 0.35077 0.00898
#
# Static dielectric constant tensor:
#      x y z
#    x 3.545630 0.000000 0.000000 
#    y 0.000000 3.878940 0.000000 
#    z 0.000000 0.000000 3.283250 
# 
# 
# High freq. dielectric constant tensor:
#      x y z
#    x 1.749370 0.000000 0.000000 
#    y 0.000000 1.793830 0.000000 
#    z 0.000000 0.000000 1.747610 
# 
# From -- ./inp_files/24540.got.cif
#   From: 2010.03.12/outbox.cif.g09.slc.cpg/sg53_13_cif.got.tgz:24540.got - 2010.04.16 14:36:59.
