data_PCOD8218826
_publ_section_title
;
Structure prediction by ZEFSAII (Michael W. Deem and Ramdas Pophale) SiO2 
 PCOD8218826
Probable space group: P M N A
;
_chemical_formula_sum "Si O2"
_cell_formula_units_Z 56
_cell_length_a 8.687988
_cell_length_b 13.390850
_cell_length_c 28.020747
_cell_angle_alpha 90.000000
_cell_angle_beta 90.000000
_cell_angle_gamma 90.000000
_cell_volume 3259.920932
_symmetry_space_group_name_H-M "P M N A"
_symmetry_group_IT_number 53
_symmetry_cell_setting 'orthorhombic'
loop_
_space_group_symop_operation_xyz
x,y,z
1/2-x,-y,1/2+z
x,-y,-z
1/2-x,y,1/2-z
-x,-y,-z
1/2+x,y,1/2-z
-x,y,z
1/2+x,-y,1/2+z
loop_
_atom_site_type_symbol
_atom_site_label
_atom_site_fract_x
_atom_site_fract_y
_atom_site_fract_z
Si Si1 0.182001 0.012739 0.299762
Si Si2 0.678456 0.077827 0.610162
Si Si3 0.823625 0.304346 0.390952
Si Si4 0.172680 0.095555 0.443167
Si Si5 0.178358 0.210982 0.536334
Si Si6 0.179130 0.609032 0.980300
Si Si7 0.817884 0.229349 0.200005
O O1 0.250000 0.972684 0.250000
O O2 0.227673 0.935223 0.340879
O O3 0.000000 0.022696 0.295844
O O4 0.250550 0.120746 0.312532
O O5 0.500000 0.087134 0.622335
O O6 0.736642 0.179121 0.584939
O O7 0.704957 0.984396 0.574968
O O8 0.805761 0.195888 0.413578
O O9 0.753419 0.384151 0.427740
O O10 0.731419 0.307091 0.341091
O O11 0.000000 0.332300 0.381185
O O12 0.200639 0.120265 0.498686
O O13 0.000000 0.052596 0.435352
O O14 0.248913 0.313115 0.517237
O O15 0.000000 0.230124 0.546513
O O16 0.000000 0.632324 0.975747
O O17 0.214090 0.500000 0.000000
O O18 0.750000 0.268523 0.250000
O O19 0.000000 0.221760 0.203681
#
# Coordination Sequence:
#
# PCOD8218826 Si02
#       7
#     8   8   8   8   8   8   8
#     4  11  21  34  49  68  98 135 177 215 252 295
#     4  12  22  31  47  71 100 135 172 208 250 296
#     4  10  19  32  51  74 102 136 172 210 252 303
#     4   9  18  31  46  66  98 134 169 205 245 290
#     4  10  21  35  51  71  98 131 169 209 249 299
#     4  10  21  37  56  78 104 131 165 212 261 310
#     4  11  20  31  48  71 101 136 174 212 251 297
#
# _framework density 17.178329999999999
#
# number of rings (size 3 to 8) (size 9 to 14) (size 15 to 20)
#    0.000    1.571    1.429    7.286    0.000    5.714 
#    0.000    0.000    0.000    0.000    0.000    1.000 
#    0.000    6.857    0.000    0.000    0.000    0.000 
#
# Total GULP energy -694569.382129 kJ/mol
# GULP energy per Si atom -12403.024681 kJ/mol
# Density = 1.713923 g / cm^3
# Si number density = 17.178330 Si / 1000 Ang^3
#
#
#
# Elastic Constant Matrix: (Units=GPa)
#
#
# Indices 1 2 3 4 5 6 
#
# 1 147.5778 36.4105 57.0531 0.0000 0.0000 0.0000
# 2 36.4105 47.7655 34.1149 0.0000 0.0000 0.0000
# 3 57.0531 34.1149 117.2921 0.0000 0.0000 0.0000
# 4 0.0000 0.0000 0.0000 18.7901 0.0000 0.0000
# 5 0.0000 0.0000 0.0000 0.0000 32.8089 0.0000
# 6 0.0000 0.0000 0.0000 0.0000 0.0000 20.1034
#
#
#
# Elastic Compliance Matrix: (Units=1/GPa)
#
#
# Indices 1 2 3 4 5 6 
#
# 1 0.009137 -0.004784 -0.003053 0.000000 0.000000 0.000000
# 2 -0.004784 0.028930 -0.006087 0.000000 0.000000 0.000000
# 3 -0.003053 -0.006087 0.011781 0.000000 0.000000 0.000000
# 4 0.000000 0.000000 0.000000 0.053219 0.000000 0.000000
# 5 0.000000 0.000000 0.000000 0.000000 0.030480 0.000000
# 6 0.000000 0.000000 0.000000 0.000000 0.000000 0.049743
#
#
# Mechanical properties :
#
#
# Convention : Reuss Voigt Hill
#
# Bulk Modulus (GPa) = 45.45586 63.08804 54.27195
# Shear Modulus (GPa) = 22.88626 26.67760 24.78193
#
# Velocity S-wave (km/s) = 3.65399 3.94506 3.80231
# Velocity P-wave (km/s) = 6.65739 7.58660 7.13713
#
# Compressibility (1/GPa) = 0.02199936
#
# Stress axis : x y z
#
# Youngs Moduli (GPa) = 109.44924 34.56587 84.88159
#
# Poissons Ratio (x) = 0.16538 0.25912
# Poissons Ratio (y) = 0.52365 0.51670
# Poissons Ratio (z) = 0.33411 0.21041
#
# Static dielectric constant tensor:
#      x y z
#    x 3.324570 0.000000 0.000000 
#    y 0.000000 2.815370 0.000000 
#    z 0.000000 0.000000 3.441030 
# 
# 
# High freq. dielectric constant tensor:
#      x y z
#    x 1.681700 0.000000 0.000000 
#    y 0.000000 1.610750 0.000000 
#    z 0.000000 0.000000 1.670540 
# 
# From -- ./inp_files/38366.got.cif
#   From: 2010.03.12/outbox.cif.g09.slc.cpg/sg53_20_cif.got.tgz:38366.got - 2010.04.16 14:36:59.
