data_PCOD8218342
_publ_section_title
;
Structure prediction by ZEFSAII (Michael W. Deem and Ramdas Pophale) SiO2 
 PCOD8218342
Probable space group: P M N A
;
_chemical_formula_sum "Si O2"
_cell_formula_units_Z 48
_cell_length_a 30.630759
_cell_length_b 5.138101
_cell_length_c 17.405450
_cell_angle_alpha 90.000000
_cell_angle_beta 90.000000
_cell_angle_gamma 90.000000
_cell_volume 2739.338184
_symmetry_space_group_name_H-M "P M N A"
_symmetry_group_IT_number 53
_symmetry_cell_setting 'orthorhombic'
loop_
_space_group_symop_operation_xyz
x,y,z
1/2-x,-y,1/2+z
x,-y,-z
1/2-x,y,1/2-z
-x,-y,-z
1/2+x,y,1/2-z
-x,y,z
1/2+x,-y,1/2+z
loop_
_atom_site_type_symbol
_atom_site_label
_atom_site_fract_x
_atom_site_fract_y
_atom_site_fract_z
Si Si1 0.049972 0.543835 0.324143
Si Si2 0.136090 0.554658 0.741471
Si Si3 0.182741 0.044130 0.787488
Si Si4 0.267460 0.047992 0.869694
Si Si5 0.185998 0.444065 0.416623
Si Si6 0.549755 0.971424 0.917221
O O1 0.083380 0.474160 0.255624
O O2 0.053650 0.322471 0.389014
O O3 0.000000 0.562534 0.293060
O O4 0.068742 0.817467 0.357440
O O5 0.147428 0.812921 0.789213
O O6 0.149906 0.569209 0.650943
O O7 0.158638 0.319432 0.786120
O O8 0.214788 0.030322 0.861340
O O9 0.211514 0.000139 0.712720
O O10 0.286524 0.823256 0.924574
O O11 0.278896 0.332071 0.900224
O O12 0.163645 0.500000 0.500000
O O13 0.500000 0.062231 0.927547
O O14 0.573616 0.000000 0.000000
#
# Coordination Sequence:
#
# PCOD8218342 Si02
#       6
#     8   8   8   8   8   8
#     4  10  19  30  42  57  79 107 141 178 217 252
#     4  10  19  30  43  62  83 109 145 182 212 242
#     4   9  17  30  47  62  78 103 143 181 206 244
#     4   9  17  30  46  62  81 108 138 172 210 251
#     4  10  19  29  42  63  89 112 137 171 213 253
#     4   9  17  28  40  52  68  97 138 177 209 247
#
# _framework density 17.522480000000002
#
# number of rings (size 3 to 8) (size 9 to 14) (size 15 to 20)
#    0.000    2.500    0.000    3.000    0.000    7.333 
#    0.000    0.000    0.000    0.000    0.000    0.000 
#    0.000    0.000    0.000    0.000    0.000   58.333 
#
# Total GULP energy -594933.854003 kJ/mol
# GULP energy per Si atom -12394.455292 kJ/mol
# Density = 1.748260 g / cm^3
# Si number density = 17.522480 Si / 1000 Ang^3
#
#
#
# Elastic Constant Matrix: (Units=GPa)
#
#
# Indices 1 2 3 4 5 6 
#
# 1 74.2782 8.5687 5.7115 0.0000 0.0000 0.0000
# 2 8.5687 81.6330 -1.3963 0.0000 0.0000 0.0000
# 3 5.7115 -1.3963 8.4239 0.0000 0.0000 0.0000
# 4 0.0000 0.0000 0.0000 11.7416 0.0000 0.0000
# 5 0.0000 0.0000 0.0000 0.0000 11.4689 0.0000
# 6 0.0000 0.0000 0.0000 0.0000 0.0000 12.9585
#
#
#
# Elastic Compliance Matrix: (Units=1/GPa)
#
#
# Indices 1 2 3 4 5 6 
#
# 1 0.014431 -0.001687 -0.010064 0.000000 0.000000 0.000000
# 2 -0.001687 0.012482 0.003213 0.000000 0.000000 0.000000
# 3 -0.010064 0.003213 0.126067 0.000000 0.000000 0.000000
# 4 0.000000 0.000000 0.000000 0.085167 0.000000 0.000000
# 5 0.000000 0.000000 0.000000 0.000000 0.087192 0.000000
# 6 0.000000 0.000000 0.000000 0.000000 0.000000 0.077169
#
#
# Mechanical properties :
#
#
# Convention : Reuss Voigt Hill
#
# Bulk Modulus (GPa) = 7.35819 21.12255 14.24037
# Shear Modulus (GPa) = 10.75530 17.33055 14.04292
#
# Velocity S-wave (km/s) = 2.48019 3.14832 2.83401
# Velocity P-wave (km/s) = 3.52281 5.02958 4.34205
#
# Compressibility (1/GPa) = 0.13590300
#
# Stress axis : x y z
#
# Youngs Moduli (GPa) = 69.29342 80.11561 7.93230
#
# Poissons Ratio (x) = 0.13515 0.07983
# Poissons Ratio (y) = 0.11689 -0.02548
# Poissons Ratio (z) = 0.69739 -0.25739
#
# Static dielectric constant tensor:
#      x y z
#    x 3.273830 0.000000 0.000000 
#    y 0.000000 3.439290 0.000000 
#    z 0.000000 0.000000 2.823340 
# 
# 
# High freq. dielectric constant tensor:
#      x y z
#    x 1.663000 0.000000 0.000000 
#    y 0.000000 1.704040 0.000000 
#    z 0.000000 0.000000 1.603360 
# 
# From -- ./inp_files/25093.got.cif
#   From: 2010.03.12/outbox.cif.g09.slc.cpg/sg53_13_cif.got.tgz:25093.got - 2010.04.16 14:36:59.
