data_PCOD8218470
_publ_section_title
;
Structure prediction by ZEFSAII (Michael W. Deem and Ramdas Pophale) SiO2 
 PCOD8218470
Probable space group: P M N A
;
_chemical_formula_sum "Si O2"
_cell_formula_units_Z 64
_cell_length_a 8.798476
_cell_length_b 16.808607
_cell_length_c 25.539145
_cell_angle_alpha 90.000000
_cell_angle_beta 90.000000
_cell_angle_gamma 90.000000
_cell_volume 3776.987354
_symmetry_space_group_name_H-M "P M N A"
_symmetry_group_IT_number 53
_symmetry_cell_setting 'orthorhombic'
loop_
_space_group_symop_operation_xyz
x,y,z
1/2-x,-y,1/2+z
x,-y,-z
1/2-x,y,1/2-z
-x,-y,-z
1/2+x,y,1/2-z
-x,y,z
1/2+x,-y,1/2+z
loop_
_atom_site_type_symbol
_atom_site_label
_atom_site_fract_x
_atom_site_fract_y
_atom_site_fract_z
Si Si1 0.832078 0.493128 0.562127
Si Si2 0.823400 0.907177 0.501567
Si Si3 0.679171 0.822326 0.599712
Si Si4 0.672422 0.339364 0.548241
Si Si5 0.320590 0.667739 0.937795
Si Si6 0.177061 0.084431 0.305038
Si Si7 0.674644 0.173372 0.595963
Si Si8 0.322109 0.099667 0.805160
O O1 0.839207 0.500000 0.500000
O O2 0.721725 0.420714 0.577932
O O3 0.774463 0.579267 0.582838
O O4 0.000000 0.474672 0.584424
O O5 0.726390 0.867290 0.547097
O O6 0.776726 0.871852 0.446086
O O7 0.000000 0.889964 0.512446
O O8 0.788025 0.000000 0.500000
O O9 0.500000 0.824429 0.604685
O O10 0.735017 0.731220 0.598313
O O11 0.750113 0.863486 0.649860
O O12 0.500000 0.348555 0.528461
O O13 0.775906 0.320048 0.498306
O O14 0.689323 0.268136 0.589362
O O15 0.500000 0.680907 0.933679
O O16 0.250000 0.108908 0.250000
O O17 0.000000 0.102932 0.302015
O O18 0.208783 0.992502 0.318277
O O19 0.500000 0.145687 0.590247
O O20 0.737500 0.153518 0.652799
O O21 0.250000 0.122911 0.750000
O O22 0.500000 0.119036 0.804677
#
# Coordination Sequence:
#
# PCOD8218470 Si02
#       8
#     8   8   8   8   8   8   8   8
#     4   8  16  29  46  68  95 132 171 205 248 298
#     4  11  23  36  50  70  99 137 175 209 252 306
#     4  12  23  34  51  76 104 136 171 210 258 305
#     4  10  19  30  46  72 103 135 169 208 252 302
#     4  10  19  32  49  70 100 136 172 210 250 302
#     4  10  21  38  57  77 100 130 171 217 261 304
#     4  11  22  34  50  75 105 136 171 210 254 304
#     4  10  21  37  57  77  99 131 172 217 262 303
#
# _framework density 16.944721999999999
#
# number of rings (size 3 to 8) (size 9 to 14) (size 15 to 20)
#    0.000    1.750    1.250    4.875    0.000    9.750 
#    0.000    0.000    0.000    0.000    0.000    0.875 
#    0.000    2.000    0.000    0.000    0.000    0.000 
#
# Total GULP energy -793697.736358 kJ/mol
# GULP energy per Si atom -12401.527131 kJ/mol
# Density = 1.690616 g / cm^3
# Si number density = 16.944722 Si / 1000 Ang^3
#
#
#
# Elastic Constant Matrix: (Units=GPa)
#
#
# Indices 1 2 3 4 5 6 
#
# 1 80.7229 49.6740 33.9537 0.0000 0.0000 0.0000
# 2 49.6740 109.0762 48.1932 0.0000 0.0000 0.0000
# 3 33.9537 48.1932 80.7000 0.0000 0.0000 0.0000
# 4 0.0000 0.0000 0.0000 -2.8120 0.0000 0.0000
# 5 0.0000 0.0000 0.0000 0.0000 28.6463 0.0000
# 6 0.0000 0.0000 0.0000 0.0000 0.0000 31.1329
#
#
#
# Elastic Compliance Matrix: (Units=1/GPa)
#
#
# Indices 1 2 3 4 5 6 
#
# 1 0.017962 -0.006576 -0.003630 0.000000 0.000000 0.000000
# 2 -0.006576 0.014861 -0.006108 0.000000 0.000000 0.000000
# 3 -0.003630 -0.006108 0.017567 0.000000 0.000000 0.000000
# 4 0.000000 0.000000 0.000000 -0.355617 0.000000 0.000000
# 5 0.000000 0.000000 0.000000 0.000000 0.034909 0.000000
# 6 0.000000 0.000000 0.000000 0.000000 0.000000 0.032120
#
#
# Mechanical properties :
#
#
# Convention : Reuss Voigt Hill
#
# Bulk Modulus (GPa) = 56.30297 59.34898 57.82598
# Shear Modulus (GPa) = -25.04386 20.63865 -2.20260
#
# Velocity S-wave (km/s) = -3.84861 3.49377 -1.14136
# Velocity P-wave (km/s) = 3.68110 7.16773 5.69767
#
# Compressibility (1/GPa) = 0.01776105
#
# Stress axis : x y z
#
# Youngs Moduli (GPa) = 55.67455 67.28804 56.92573
#
# Poissons Ratio (x) = 0.44248 0.20664
# Poissons Ratio (y) = 0.36611 0.34772
# Poissons Ratio (z) = 0.20210 0.41102
#
# Static dielectric constant tensor:
#      x y z
#    x 3.578910 0.000000 0.000000 
#    y 0.000000 3.531270 0.000000 
#    z 0.000000 0.000000 2.531350 
# 
# 
# High freq. dielectric constant tensor:
#      x y z
#    x 1.672360 0.000000 0.000000 
#    y 0.000000 1.660970 0.000000 
#    z 0.000000 0.000000 1.615880 
# 
# From -- ./inp_files/34419.got.cif
#   From: 2010.03.12/outbox.cif.g09.slc.cpg/sg53_18_cif.got.tgz:34419.got - 2010.04.16 14:36:59.
