data_PCOD8218379
_publ_section_title
;
Structure prediction by ZEFSAII (Michael W. Deem and Ramdas Pophale) SiO2 
 PCOD8218379
Probable space group: P M N A
;
_chemical_formula_sum "Si O2"
_cell_formula_units_Z 64
_cell_length_a 9.296089
_cell_length_b 20.361290
_cell_length_c 20.249429
_cell_angle_alpha 90.000000
_cell_angle_beta 90.000000
_cell_angle_gamma 90.000000
_cell_volume 3832.819292
_symmetry_space_group_name_H-M "P M N A"
_symmetry_group_IT_number 53
_symmetry_cell_setting 'orthorhombic'
loop_
_space_group_symop_operation_xyz
x,y,z
1/2-x,-y,1/2+z
x,-y,-z
1/2-x,y,1/2-z
-x,-y,-z
1/2+x,y,1/2-z
-x,y,z
1/2+x,-y,1/2+z
loop_
_atom_site_type_symbol
_atom_site_label
_atom_site_fract_x
_atom_site_fract_y
_atom_site_fract_z
Si Si1 0.166350 0.947159 0.553435
Si Si2 0.835965 0.175322 0.008225
Si Si3 0.663708 0.151819 0.646851
Si Si4 0.156867 0.728946 0.336674
Si Si5 0.167678 0.023498 0.686711
Si Si6 0.667412 0.581509 0.188222
Si Si7 0.340735 0.297173 0.989915
Si Si8 0.328190 0.439002 0.957916
O O1 0.255848 0.880658 0.549279
O O2 0.000000 0.931213 0.538663
O O3 0.223343 0.000000 0.500000
O O4 0.190993 0.974273 0.626454
O O5 0.000000 0.178440 0.031870
O O6 0.824319 0.158269 0.931472
O O7 0.764576 0.245708 0.026003
O O8 0.500000 0.139282 0.669150
O O9 0.721193 0.218079 0.682375
O O10 0.764945 0.093613 0.670224
O O11 0.200364 0.658914 0.307456
O O12 0.144765 0.723823 0.414800
O O13 0.000000 0.751033 0.309646
O O14 0.250000 0.993362 0.750000
O O15 0.000000 0.033177 0.702491
O O16 0.750000 0.547801 0.250000
O O17 0.500000 0.565657 0.195677
O O18 0.726349 0.554312 0.117889
O O19 0.500000 0.294685 0.022931
O O20 0.275152 0.371243 0.992368
O O21 0.500000 0.436884 0.956565
O O22 0.267692 0.500000 0.000000
#
# Coordination Sequence:
#
# PCOD8218379 Si02
#       8
#     8   8   8   8   8   8   8   8
#     4  10  20  35  54  73  92 121 161 200 240 286
#     4  10  19  29  47  73  99 124 154 199 242 279
#     4  10  19  30  45  67  93 123 158 193 232 274
#     4   8  15  27  41  58  85 122 159 190 224 265
#     4  11  23  37  51  67  92 123 155 196 243 292
#     4   9  17  28  43  64  90 122 157 193 230 271
#     4   8  14  26  45  67  92 121 155 195 235 278
#     4   8  14  27  48  72  95 123 161 200 234 273
#
# _framework density 16.697890000000001
#
# number of rings (size 3 to 8) (size 9 to 14) (size 15 to 20)
#    0.000    2.750    1.250    2.625    0.000    3.250 
#    0.000    3.125    0.000    1.500    0.000    0.875 
#    0.000    2.000    0.000    0.000    0.000    0.000 
#
# Total GULP energy -793307.309648 kJ/mol
# GULP energy per Si atom -12395.426713 kJ/mol
# Density = 1.665989 g / cm^3
# Si number density = 16.697890 Si / 1000 Ang^3
#
#
#
# Elastic Constant Matrix: (Units=GPa)
#
#
# Indices 1 2 3 4 5 6 
#
# 1 89.4719 53.8885 45.2128 0.0000 0.0000 0.0000
# 2 53.8885 106.7165 45.3762 0.0000 0.0000 0.0000
# 3 45.2128 45.3762 67.4989 0.0000 0.0000 0.0000
# 4 0.0000 0.0000 0.0000 12.7418 0.0000 0.0000
# 5 0.0000 0.0000 0.0000 0.0000 22.3329 0.0000
# 6 0.0000 0.0000 0.0000 0.0000 0.0000 11.6878
#
#
#
# Elastic Compliance Matrix: (Units=1/GPa)
#
#
# Indices 1 2 3 4 5 6 
#
# 1 0.019251 -0.005935 -0.008906 0.000000 0.000000 0.000000
# 2 -0.005935 0.014951 -0.006075 0.000000 0.000000 0.000000
# 3 -0.008906 -0.006075 0.024865 0.000000 0.000000 0.000000
# 4 0.000000 0.000000 0.000000 0.078482 0.000000 0.000000
# 5 0.000000 0.000000 0.000000 0.000000 0.044777 0.000000
# 6 0.000000 0.000000 0.000000 0.000000 0.000000 0.085559
#
#
# Mechanical properties :
#
#
# Convention : Reuss Voigt Hill
#
# Bulk Modulus (GPa) = 58.02054 61.40471 59.71263
# Shear Modulus (GPa) = 15.84982 17.29983 16.57482
#
# Velocity S-wave (km/s) = 3.08427 3.22226 3.15402
# Velocity P-wave (km/s) = 6.89248 7.12023 7.00728
#
# Compressibility (1/GPa) = 0.01723527
#
# Stress axis : x y z
#
# Youngs Moduli (GPa) = 51.94436 66.88636 40.21795
#
# Poissons Ratio (x) = 0.39695 0.35816
# Poissons Ratio (y) = 0.30827 0.24434
# Poissons Ratio (z) = 0.46259 0.40636
#
# Static dielectric constant tensor:
#      x y z
#    x 3.196000 0.000000 0.000000 
#    y 0.000000 3.153950 0.000000 
#    z 0.000000 0.000000 3.167150 
# 
# 
# High freq. dielectric constant tensor:
#      x y z
#    x 1.638110 0.000000 0.000000 
#    y 0.000000 1.624600 0.000000 
#    z 0.000000 0.000000 1.616900 
# 
# From -- ./inp_files/31392.got.cif
#   From: 2010.03.12/outbox.cif.g09.slc.cpg/sg53_16_cif.got.tgz:31392.got - 2010.04.16 14:36:59.
