data_PCOD8218447
_publ_section_title
;
Structure prediction by ZEFSAII (Michael W. Deem and Ramdas Pophale) SiO2 
 PCOD8218447
Probable space group: P M N A
;
_chemical_formula_sum "Si O2"
_cell_formula_units_Z 56
_cell_length_a 8.930496
_cell_length_b 20.467042
_cell_length_c 17.954014
_cell_angle_alpha 90.000000
_cell_angle_beta 90.000000
_cell_angle_gamma 90.000000
_cell_volume 3281.649701
_symmetry_space_group_name_H-M "P M N A"
_symmetry_group_IT_number 53
_symmetry_cell_setting 'orthorhombic'
loop_
_space_group_symop_operation_xyz
x,y,z
1/2-x,-y,1/2+z
x,-y,-z
1/2-x,y,1/2-z
-x,-y,-z
1/2+x,y,1/2-z
-x,y,z
1/2+x,-y,1/2+z
loop_
_atom_site_type_symbol
_atom_site_label
_atom_site_fract_x
_atom_site_fract_y
_atom_site_fract_z
Si Si1 0.665133 0.569543 0.460663
Si Si2 0.823564 0.515288 0.326501
Si Si3 0.173031 0.008892 0.328709
Si Si4 0.823737 0.244254 0.172273
Si Si5 0.673211 0.862257 0.924900
Si Si6 0.824285 0.613908 0.885232
Si Si7 0.331062 0.935050 0.451361
O O1 0.658055 0.500000 0.500000
O O2 0.500000 0.588758 0.430634
O O3 0.778622 0.566918 0.391254
O O4 0.717658 0.619062 0.526371
O O5 0.750000 0.539693 0.250000
O O6 0.768689 0.442328 0.344543
O O7 0.000000 0.514701 0.317755
O O8 0.250000 0.016008 0.250000
O O9 0.248835 0.949491 0.373601
O O10 0.000000 0.991842 0.318599
O O11 0.196793 0.077045 0.370262
O O12 0.750000 0.223686 0.250000
O O13 0.759874 0.199712 0.106913
O O14 0.781450 0.318625 0.153790
O O15 0.000000 0.233263 0.178177
O O16 0.500000 0.844733 0.934850
O O17 0.742127 0.878207 0.005695
O O18 0.000000 0.597183 0.877042
O O19 0.500000 0.911488 0.435643
O O20 0.330044 0.000000 0.500000
#
# Coordination Sequence:
#
# PCOD8218447 Si02
#       7
#     8   8   8   8   8   8   8
#     4   8  15  30  48  65  89 119 150 187 232 277
#     4  11  20  29  45  69  95 122 153 190 232 276
#     4  10  19  30  46  69  96 124 155 192 235 279
#     4  11  22  34  48  68  94 126 162 194 227 268
#     4  10  20  33  48  67  94 127 160 194 231 273
#     4   9  19  34  49  66  92 125 157 191 231 275
#     4   9  17  30  48  68  91 120 154 192 234 279
#
# _framework density 17.064587
#
# number of rings (size 3 to 8) (size 9 to 14) (size 15 to 20)
#    0.000    2.286    0.000    4.714    0.000    9.429 
#    0.000    0.000    0.000    0.000    0.000    1.000 
#    0.000    2.286    0.000    0.000    0.000    0.000 
#
# Total GULP energy -694383.065432 kJ/mol
# GULP energy per Si atom -12399.697597 kJ/mol
# Density = 1.702575 g / cm^3
# Si number density = 17.064587 Si / 1000 Ang^3
#
#
#
# Elastic Constant Matrix: (Units=GPa)
#
#
# Indices 1 2 3 4 5 6 
#
# 1 116.0630 19.9952 46.6372 0.0000 0.0000 0.0000
# 2 19.9952 23.7269 4.2532 0.0000 0.0000 0.0000
# 3 46.6372 4.2532 64.2997 0.0000 0.0000 0.0000
# 4 0.0000 0.0000 0.0000 35.4565 0.0000 0.0000
# 5 0.0000 0.0000 0.0000 0.0000 33.5953 0.0000
# 6 0.0000 0.0000 0.0000 0.0000 0.0000 15.1738
#
#
#
# Elastic Compliance Matrix: (Units=1/GPa)
#
#
# Indices 1 2 3 4 5 6 
#
# 1 0.014278 -0.010298 -0.009675 0.000000 0.000000 0.000000
# 2 -0.010298 0.050079 0.004157 0.000000 0.000000 0.000000
# 3 -0.009675 0.004157 0.022294 0.000000 0.000000 0.000000
# 4 0.000000 0.000000 0.000000 0.028204 0.000000 0.000000
# 5 0.000000 0.000000 0.000000 0.000000 0.029766 0.000000
# 6 0.000000 0.000000 0.000000 0.000000 0.000000 0.065903
#
#
# Mechanical properties :
#
#
# Convention : Reuss Voigt Hill
#
# Bulk Modulus (GPa) = 18.17531 38.42897 28.30214
# Shear Modulus (GPa) = 19.19419 25.72537 22.45978
#
# Velocity S-wave (km/s) = 3.35744 3.88690 3.63183
# Velocity P-wave (km/s) = 5.06990 6.53549 5.84878
#
# Compressibility (1/GPa) = 0.05501970
#
# Stress axis : x y z
#
# Youngs Moduli (GPa) = 70.03981 19.96826 44.85464
#
# Poissons Ratio (x) = 0.20563 0.43395
# Poissons Ratio (y) = 0.72126 -0.18644
# Poissons Ratio (z) = 0.67760 -0.08300
#
# Static dielectric constant tensor:
#      x y z
#    x 3.290210 0.000000 0.000000 
#    y 0.000000 2.956430 0.000000 
#    z 0.000000 0.000000 3.396060 
# 
# 
# High freq. dielectric constant tensor:
#      x y z
#    x 1.671070 0.000000 0.000000 
#    y 0.000000 1.613060 0.000000 
#    z 0.000000 0.000000 1.661570 
# 
# From -- ./inp_files/26655.got.cif
#   From: 2010.03.12/outbox.cif.g09.slc.cpg/sg53_14_cif.got.tgz:26655.got - 2010.04.16 14:36:59.
