data_PCOD8218449
_publ_section_title
;
Structure prediction by ZEFSAII (Michael W. Deem and Ramdas Pophale) SiO2 
 PCOD8218449
Probable space group: P M N A
;
_chemical_formula_sum "Si O2"
_cell_formula_units_Z 64
_cell_length_a 9.034710
_cell_length_b 20.114312
_cell_length_c 20.289913
_cell_angle_alpha 90.000000
_cell_angle_beta 90.000000
_cell_angle_gamma 90.000000
_cell_volume 3687.224528
_symmetry_space_group_name_H-M "P M N A"
_symmetry_group_IT_number 53
_symmetry_cell_setting 'orthorhombic'
loop_
_space_group_symop_operation_xyz
x,y,z
1/2-x,-y,1/2+z
x,-y,-z
1/2-x,y,1/2-z
-x,-y,-z
1/2+x,y,1/2-z
-x,y,z
1/2+x,-y,1/2+z
loop_
_atom_site_type_symbol
_atom_site_label
_atom_site_fract_x
_atom_site_fract_y
_atom_site_fract_z
Si Si1 0.173204 0.947085 0.553780
Si Si2 0.830701 0.180955 0.007147
Si Si3 0.667372 0.156002 0.647308
Si Si4 0.161086 0.720116 0.335464
Si Si5 0.172702 0.023494 0.685231
Si Si6 0.324251 0.571262 0.184918
Si Si7 0.335648 0.308350 0.986821
Si Si8 0.171503 0.439026 0.950981
O O1 0.257340 0.877836 0.548528
O O2 0.000000 0.934138 0.542796
O O3 0.231710 0.000000 0.500000
O O4 0.211328 0.975119 0.625393
O O5 0.000000 0.188258 0.028830
O O6 0.816858 0.163471 0.930609
O O7 0.749855 0.250149 0.026182
O O8 0.500000 0.140980 0.668550
O O9 0.719854 0.223687 0.683872
O O10 0.771022 0.097310 0.671328
O O11 0.215919 0.649131 0.309692
O O12 0.146315 0.717192 0.413402
O O13 0.000000 0.738098 0.305753
O O14 0.250000 0.993544 0.750000
O O15 0.000000 0.028176 0.697765
O O16 0.250000 0.537494 0.250000
O O17 0.500000 0.558234 0.183231
O O18 0.253070 0.542815 0.117738
O O19 0.500000 0.320149 0.017318
O O20 0.242953 0.376298 0.988219
O O21 0.000000 0.423492 0.935804
O O22 0.190523 0.500000 0.000000
#
# Coordination Sequence:
#
# PCOD8218449 Si02
#       8
#     8   8   8   8   8   8   8   8
#     4  10  20  35  54  74  96 128 168 210 257 307
#     4  10  19  30  50  77 103 129 163 213 258 298
#     4  10  19  30  46  69  96 128 165 204 247 293
#     4   8  16  29  44  64  93 130 168 204 242 284
#     4  11  23  37  51  67  94 128 163 208 257 309
#     4  10  20  33  50  72 100 137 177 217 255 301
#     4   9  17  30  49  73 103 135 169 208 250 302
#     4  10  20  34  53  78 109 142 175 215 260 307
#
# _framework density 17.357229
#
# number of rings (size 3 to 8) (size 9 to 14) (size 15 to 20)
#    0.000    2.250    1.250    3.000    0.000    7.250 
#    0.000    1.250    0.000    0.000    0.000    0.875 
#    0.000    2.000    0.000    0.000    0.000    0.000 
#
# Total GULP energy -793492.954520 kJ/mol
# GULP energy per Si atom -12398.327414 kJ/mol
# Density = 1.731772 g / cm^3
# Si number density = 17.357229 Si / 1000 Ang^3
#
#
#
# Elastic Constant Matrix: (Units=GPa)
#
#
# Indices 1 2 3 4 5 6 
#
# 1 117.4586 55.7521 58.9396 0.0000 0.0000 0.0000
# 2 55.7521 84.7336 37.6407 0.0000 0.0000 0.0000
# 3 58.9396 37.6407 70.7982 0.0000 0.0000 0.0000
# 4 0.0000 0.0000 0.0000 8.0444 0.0000 0.0000
# 5 0.0000 0.0000 0.0000 0.0000 23.4015 0.0000
# 6 0.0000 0.0000 0.0000 0.0000 0.0000 28.4593
#
#
#
# Elastic Compliance Matrix: (Units=1/GPa)
#
#
# Indices 1 2 3 4 5 6 
#
# 1 0.016898 -0.006375 -0.010678 0.000000 0.000000 0.000000
# 2 -0.006375 0.017856 -0.004186 0.000000 0.000000 0.000000
# 3 -0.010678 -0.004186 0.025240 0.000000 0.000000 0.000000
# 4 0.000000 0.000000 0.000000 0.124310 0.000000 0.000000
# 5 0.000000 0.000000 0.000000 0.000000 0.042732 0.000000
# 6 0.000000 0.000000 0.000000 0.000000 0.000000 0.035138
#
#
# Mechanical properties :
#
#
# Convention : Reuss Voigt Hill
#
# Bulk Modulus (GPa) = 57.09369 64.18392 60.63880
# Shear Modulus (GPa) = 16.10360 20.02491 18.06426
#
# Velocity S-wave (km/s) = 3.04924 3.40029 3.22954
# Velocity P-wave (km/s) = 6.73513 7.24392 6.99415
#
# Compressibility (1/GPa) = 0.01751507
#
# Stress axis : x y z
#
# Youngs Moduli (GPa) = 59.18024 56.00468 39.61987
#
# Poissons Ratio (x) = 0.35701 0.42306
# Poissons Ratio (y) = 0.37725 0.16586
# Poissons Ratio (z) = 0.63193 0.23445
#
# Static dielectric constant tensor:
#      x y z
#    x 3.478620 0.000000 0.000000 
#    y 0.000000 3.078290 0.000000 
#    z 0.000000 0.000000 2.779030 
# 
# 
# High freq. dielectric constant tensor:
#      x y z
#    x 1.688630 0.000000 0.000000 
#    y 0.000000 1.648890 0.000000 
#    z 0.000000 0.000000 1.642800 
# 
# From -- ./inp_files/31393.got.cif
#   From: 2010.03.12/outbox.cif.g09.slc.cpg/sg53_16_cif.got.tgz:31393.got - 2010.04.16 14:36:59.
