data_PCOD8218792
_publ_section_title
;
Structure prediction by ZEFSAII (Michael W. Deem and Ramdas Pophale) SiO2 
 PCOD8218792
Probable space group: P M N A
;
_chemical_formula_sum "Si O2"
_cell_formula_units_Z 64
_cell_length_a 8.490849
_cell_length_b 14.868358
_cell_length_c 29.485643
_cell_angle_alpha 90.000000
_cell_angle_beta 90.000000
_cell_angle_gamma 90.000000
_cell_volume 3722.414489
_symmetry_space_group_name_H-M "P M N A"
_symmetry_group_IT_number 53
_symmetry_cell_setting 'orthorhombic'
loop_
_space_group_symop_operation_xyz
x,y,z
1/2-x,-y,1/2+z
x,-y,-z
1/2-x,y,1/2-z
-x,-y,-z
1/2+x,y,1/2-z
-x,y,z
1/2+x,-y,1/2+z
loop_
_atom_site_type_symbol
_atom_site_label
_atom_site_fract_x
_atom_site_fract_y
_atom_site_fract_z
Si Si1 0.682601 0.312510 0.459971
Si Si2 0.817106 0.354326 0.938026
Si Si3 0.315515 0.491106 0.798269
Si Si4 0.316808 0.877142 0.974175
Si Si5 0.684928 0.951960 0.435211
Si Si6 0.682877 0.799165 0.120190
Si Si7 0.183336 0.295093 0.796344
Si Si8 0.313697 0.463112 0.391317
O O1 0.500000 0.288548 0.452850
O O2 0.707864 0.361669 0.508143
O O3 0.782589 0.221750 0.455459
O O4 0.746535 0.379464 0.421240
O O5 0.716601 0.270363 0.920345
O O6 0.752302 0.444631 0.914270
O O7 0.000000 0.337927 0.925700
O O8 0.250000 0.526185 0.750000
O O9 0.500000 0.502461 0.797239
O O10 0.270840 0.387967 0.807095
O O11 0.248323 0.549095 0.840102
O O12 0.500000 0.887587 0.986382
O O13 0.266937 0.950369 0.936527
O O14 0.213840 0.896050 0.018777
O O15 0.500000 0.962674 0.427312
O O16 0.763284 0.898608 0.393799
O O17 0.500000 0.798262 0.132545
O O18 0.784921 0.774856 0.164023
O O19 0.250000 0.252810 0.750000
O O20 0.000000 0.316442 0.791642
O O21 0.500000 0.464858 0.391135
#
# Coordination Sequence:
#
# PCOD8218792 Si02
#       8
#     8   8   8   8   8   8   8   8
#     4  10  20  34  52  74 104 143 182 217 259 310
#     4  10  19  32  50  72 103 143 181 214 250 302
#     4  11  21  34  52  74 101 133 172 219 266 311
#     4  11  21  34  51  75 104 133 170 220 263 302
#     4  11  21  35  54  74  99 135 174 213 258 312
#     4  12  22  33  51  78 107 138 173 215 261 311
#     4  11  21  35  53  75 103 137 173 214 260 312
#     4  10  20  34  52  75 104 140 180 218 258 310
#
# _framework density 17.193142999999999
#
# number of rings (size 3 to 8) (size 9 to 14) (size 15 to 20)
#    0.000    1.250    2.500    7.500    0.000    2.000 
#    0.000    0.000    0.000    2.250    0.000    0.875 
#    0.000    4.000    0.000    0.000    0.000    0.000 
#
# Total GULP energy -793850.895531 kJ/mol
# GULP energy per Si atom -12403.920243 kJ/mol
# Density = 1.715401 g / cm^3
# Si number density = 17.193143 Si / 1000 Ang^3
#
#
#
# Elastic Constant Matrix: (Units=GPa)
#
#
# Indices 1 2 3 4 5 6 
#
# 1 42.0754 15.6948 6.4609 0.0000 0.0000 0.0000
# 2 15.6948 81.8402 40.1188 0.0000 0.0000 0.0000
# 3 6.4609 40.1188 106.9819 0.0000 0.0000 0.0000
# 4 0.0000 0.0000 0.0000 23.5044 0.0000 0.0000
# 5 0.0000 0.0000 0.0000 0.0000 26.0932 0.0000
# 6 0.0000 0.0000 0.0000 0.0000 0.0000 17.9647
#
#
#
# Elastic Compliance Matrix: (Units=1/GPa)
#
#
# Indices 1 2 3 4 5 6 
#
# 1 0.025609 -0.005088 0.000362 0.000000 0.000000 0.000000
# 2 -0.005088 0.015982 -0.005686 0.000000 0.000000 0.000000
# 3 0.000362 -0.005686 0.011458 0.000000 0.000000 0.000000
# 4 0.000000 0.000000 0.000000 0.042545 0.000000 0.000000
# 5 0.000000 0.000000 0.000000 0.000000 0.038324 0.000000
# 6 0.000000 0.000000 0.000000 0.000000 0.000000 0.055665
#
#
# Mechanical properties :
#
#
# Convention : Reuss Voigt Hill
#
# Bulk Modulus (GPa) = 31.03327 39.49405 35.26366
# Shear Modulus (GPa) = 22.60902 24.75399 23.68151
#
# Velocity S-wave (km/s) = 3.63023 3.79853 3.71533
# Velocity P-wave (km/s) = 5.97163 6.50070 6.24178
#
# Compressibility (1/GPa) = 0.03222348
#
# Stress axis : x y z
#
# Youngs Moduli (GPa) = 39.04812 62.56987 87.27645
#
# Poissons Ratio (x) = 0.31839 -0.03156
# Poissons Ratio (y) = 0.19870 0.49626
# Poissons Ratio (z) = -0.01412 0.35578
#
# Static dielectric constant tensor:
#      x y z
#    x 3.215430 0.000000 0.000000 
#    y 0.000000 3.162540 0.000000 
#    z 0.000000 0.000000 4.038090 
# 
# 
# High freq. dielectric constant tensor:
#      x y z
#    x 1.673000 0.000000 0.000000 
#    y 0.000000 1.641100 0.000000 
#    z 0.000000 0.000000 1.652450 
# 
# From -- ./inp_files/38494.got.cif
#   From: 2010.03.12/outbox.cif.g09.slc.cpg/sg53_20_cif.got.tgz:38494.got - 2010.04.16 14:36:59.
