data_PCOD8218699
_publ_section_title
;
Structure prediction by ZEFSAII (Michael W. Deem and Ramdas Pophale) SiO2 
 PCOD8218699
Probable space group: P M N A
;
_chemical_formula_sum "Si O2"
_cell_formula_units_Z 56
_cell_length_a 8.996836
_cell_length_b 18.999228
_cell_length_c 18.416927
_cell_angle_alpha 90.000000
_cell_angle_beta 90.000000
_cell_angle_gamma 90.000000
_cell_volume 3148.059449
_symmetry_space_group_name_H-M "P M N A"
_symmetry_group_IT_number 53
_symmetry_cell_setting 'orthorhombic'
loop_
_space_group_symop_operation_xyz
x,y,z
1/2-x,-y,1/2+z
x,-y,-z
1/2-x,y,1/2-z
-x,-y,-z
1/2+x,y,1/2-z
-x,y,z
1/2+x,-y,1/2+z
loop_
_atom_site_type_symbol
_atom_site_label
_atom_site_fract_x
_atom_site_fract_y
_atom_site_fract_z
Si Si1 0.674306 0.431409 0.172178
Si Si2 0.326429 0.295905 0.326739
Si Si3 0.670521 0.213309 0.464516
Si Si4 0.674679 0.721683 0.093678
Si Si5 0.676172 0.863088 0.172921
Si Si6 0.326550 0.414862 0.826917
Si Si7 0.674483 0.928909 0.461377
O O1 0.750000 0.434491 0.250000
O O2 0.500000 0.415400 0.178728
O O3 0.755178 0.365325 0.133600
O O4 0.701884 0.508254 0.135537
O O5 0.250000 0.278640 0.250000
O O6 0.500000 0.308986 0.313734
O O7 0.297072 0.229973 0.380103
O O8 0.500000 0.226722 0.483621
O O9 0.761426 0.267095 0.513983
O O10 0.714811 0.133088 0.481880
O O11 0.500000 0.719444 0.085887
O O12 0.723077 0.784463 0.148034
O O13 0.737206 0.647077 0.122420
O O14 0.750000 0.879693 0.250000
O O15 0.500000 0.871630 0.179398
O O16 0.737269 0.918614 0.113820
O O17 0.250000 0.409402 0.750000
O O18 0.500000 0.403564 0.812931
O O19 0.500000 0.931374 0.443207
O O20 0.728832 0.000000 0.500000
#
# Coordination Sequence:
#
# PCOD8218699 Si02
#       7
#     8   8   8   8   8   8   8
#     4   9  16  27  44  65  90 121 157 196 238 280
#     4  10  19  32  50  70  92 118 154 198 239 282
#     4   9  19  34  51  72  95 121 155 192 234 287
#     4   9  18  31  47  69  97 128 161 196 235 279
#     4  10  19  31  50  76 104 133 166 201 235 279
#     4   9  17  28  43  66  94 124 160 199 236 277
#     4   9  18  35  57  76  99 131 161 194 241 291
#
# _framework density 17.788734999999999
#
# number of rings (size 3 to 8) (size 9 to 14) (size 15 to 20)
#    0.000    2.714    0.000    2.571    0.000    3.143 
#    0.000    1.429    0.000    6.000    0.000    0.000 
#    0.000    0.000    0.000    0.000    0.000    0.000 
#
# Total GULP energy -694058.824409 kJ/mol
# GULP energy per Si atom -12393.907579 kJ/mol
# Density = 1.774825 g / cm^3
# Si number density = 17.788735 Si / 1000 Ang^3
#
#
#
# Elastic Constant Matrix: (Units=GPa)
#
#
# Indices 1 2 3 4 5 6 
#
# 1 65.4033 38.7571 42.4923 0.0000 0.0000 0.0000
# 2 38.7571 115.2232 66.6285 0.0000 0.0000 0.0000
# 3 42.4923 66.6285 104.6645 0.0000 0.0000 0.0000
# 4 0.0000 0.0000 0.0000 28.4653 0.0000 0.0000
# 5 0.0000 0.0000 0.0000 0.0000 26.9862 0.0000
# 6 0.0000 0.0000 0.0000 0.0000 0.0000 25.7813
#
#
#
# Elastic Compliance Matrix: (Units=1/GPa)
#
#
# Indices 1 2 3 4 5 6 
#
# 1 0.021612 -0.003475 -0.006562 0.000000 0.000000 0.000000
# 2 -0.003475 0.014294 -0.007688 0.000000 0.000000 0.000000
# 3 -0.006562 -0.007688 0.017113 0.000000 0.000000 0.000000
# 4 0.000000 0.000000 0.000000 0.035131 0.000000 0.000000
# 5 0.000000 0.000000 0.000000 0.000000 0.037056 0.000000
# 6 0.000000 0.000000 0.000000 0.000000 0.000000 0.038788
#
#
# Mechanical properties :
#
#
# Convention : Reuss Voigt Hill
#
# Bulk Modulus (GPa) = 56.92264 64.56074 60.74169
# Shear Modulus (GPa) = 24.35463 25.40744 24.88103
#
# Velocity S-wave (km/s) = 3.70415 3.78337 3.74397
# Velocity P-wave (km/s) = 7.09669 7.44695 7.27393
#
# Compressibility (1/GPa) = 0.01756770
#
# Stress axis : x y z
#
# Youngs Moduli (GPa) = 46.26971 69.96183 58.43591
#
# Poissons Ratio (x) = 0.24312 0.38346
# Poissons Ratio (y) = 0.16079 0.44927
# Poissons Ratio (z) = 0.30363 0.53789
#
# Static dielectric constant tensor:
#      x y z
#    x 3.328830 0.000000 0.000000 
#    y 0.000000 3.757110 0.000000 
#    z 0.000000 0.000000 3.067660 
# 
# 
# High freq. dielectric constant tensor:
#      x y z
#    x 1.692050 0.000000 0.000000 
#    y 0.000000 1.689000 0.000000 
#    z 0.000000 0.000000 1.664320 
# 
# From -- ./inp_files/26669.got.cif
#   From: 2010.03.12/outbox.cif.g09.slc.cpg/sg53_14_cif.got.tgz:26669.got - 2010.04.16 14:36:59.
