data_PCOD8218823
_publ_section_title
;
Structure prediction by ZEFSAII (Michael W. Deem and Ramdas Pophale) SiO2 
 PCOD8218823
Probable space group: P M N A
;
_chemical_formula_sum "Si O2"
_cell_formula_units_Z 48
_cell_length_a 8.931174
_cell_length_b 15.586845
_cell_length_c 19.058128
_cell_angle_alpha 90.000000
_cell_angle_beta 90.000000
_cell_angle_gamma 90.000000
_cell_volume 2653.059602
_symmetry_space_group_name_H-M "P M N A"
_symmetry_group_IT_number 53
_symmetry_cell_setting 'orthorhombic'
loop_
_space_group_symop_operation_xyz
x,y,z
1/2-x,-y,1/2+z
x,-y,-z
1/2-x,y,1/2-z
-x,-y,-z
1/2+x,y,1/2-z
-x,y,z
1/2+x,-y,1/2+z
loop_
_atom_site_type_symbol
_atom_site_label
_atom_site_fract_x
_atom_site_fract_y
_atom_site_fract_z
Si Si1 0.175419 0.174236 0.919529
Si Si2 0.668801 0.002684 0.916612
Si Si3 0.826130 0.494564 0.324798
Si Si4 0.674405 0.832346 0.581862
Si Si5 0.177405 0.329141 0.173760
Si Si6 0.825756 0.315543 0.674537
O O1 0.253286 0.251904 0.880360
O O2 0.000000 0.177368 0.905404
O O3 0.237682 0.084318 0.889386
O O4 0.215999 0.184589 0.001137
O O5 0.500000 0.010805 0.888557
O O6 0.739823 0.914989 0.887180
O O7 0.675493 0.000000 0.000000
O O8 0.750000 0.499704 0.250000
O O9 0.742473 0.415692 0.364158
O O10 0.803703 0.588707 0.358694
O O11 0.000000 0.471366 0.317351
O O12 0.500000 0.851556 0.590096
O O13 0.726249 0.750321 0.625875
O O14 0.250000 0.316648 0.250000
O O15 0.000000 0.336418 0.180511
O O16 0.750000 0.305538 0.750000
O O17 0.000000 0.294519 0.684088
#
# Coordination Sequence:
#
# PCOD8218823 Si02
#       6
#     8   8   8   8   8   8
#     4  10  19  33  53  74  99 131 165 203 246 293
#     4   9  17  30  50  74  98 127 164 204 245 293
#     4   9  17  30  49  71  96 128 164 200 240 289
#     4   9  19  34  51  73 100 131 166 203 246 295
#     4  10  19  32  51  74 100 129 164 204 244 290
#     4  10  20  34  52  75 101 129 164 204 245 292
#
# _framework density 18.092317999999999
#
# number of rings (size 3 to 8) (size 9 to 14) (size 15 to 20)
#    0.000    2.500    0.000    3.500    0.000    6.000 
#    0.000    1.667    0.000    7.000    0.000    0.000 
#    0.000    0.000    0.000    0.000    0.000    0.000 
#
# Total GULP energy -594995.474466 kJ/mol
# GULP energy per Si atom -12395.739051 kJ/mol
# Density = 1.805114 g / cm^3
# Si number density = 18.092318 Si / 1000 Ang^3
#
#
#
# Elastic Constant Matrix: (Units=GPa)
#
#
# Indices 1 2 3 4 5 6 
#
# 1 121.4955 89.4712 38.8283 0.0000 0.0000 0.0000
# 2 89.4712 193.9336 56.2955 0.0000 0.0000 0.0000
# 3 38.8283 56.2955 45.2228 0.0000 0.0000 0.0000
# 4 0.0000 0.0000 0.0000 23.9286 0.0000 0.0000
# 5 0.0000 0.0000 0.0000 0.0000 19.8543 0.0000
# 6 0.0000 0.0000 0.0000 0.0000 0.0000 38.6320
#
#
#
# Elastic Compliance Matrix: (Units=1/GPa)
#
#
# Indices 1 2 3 4 5 6 
#
# 1 0.013424 -0.004458 -0.005976 0.000000 0.000000 0.000000
# 2 -0.004458 0.009555 -0.008066 0.000000 0.000000 0.000000
# 3 -0.005976 -0.008066 0.037285 0.000000 0.000000 0.000000
# 4 0.000000 0.000000 0.000000 0.041791 0.000000 0.000000
# 5 0.000000 0.000000 0.000000 0.000000 0.050367 0.000000
# 6 0.000000 0.000000 0.000000 0.000000 0.000000 0.025885
#
#
# Mechanical properties :
#
#
# Convention : Reuss Voigt Hill
#
# Bulk Modulus (GPa) = 42.98734 81.09354 62.04044
# Shear Modulus (GPa) = 22.41541 28.22012 25.31776
#
# Velocity S-wave (km/s) = 3.52369 3.95370 3.74487
# Velocity P-wave (km/s) = 6.35348 8.10936 7.28452
#
# Compressibility (1/GPa) = 0.02326267
#
# Stress axis : x y z
#
# Youngs Moduli (GPa) = 74.49504 104.65951 26.82074
#
# Poissons Ratio (x) = 0.46662 0.16027
# Poissons Ratio (y) = 0.33213 0.21634
# Poissons Ratio (z) = 0.44515 0.84421
#
# Static dielectric constant tensor:
#      x y z
#    x 3.493360 0.000000 0.000000 
#    y 0.000000 4.015550 0.000000 
#    z 0.000000 0.000000 2.944870 
# 
# 
# High freq. dielectric constant tensor:
#      x y z
#    x 1.717580 0.000000 0.000000 
#    y 0.000000 1.724590 0.000000 
#    z 0.000000 0.000000 1.649990 
# 
# From -- ./inp_files/30483.got.cif
#   From: 2010.03.12/outbox.cif.g09.slc.cpg/sg53_16_cif.got.tgz:30483.got - 2010.04.16 14:36:59.
