data_PCOD8218221
_publ_section_title
;
Structure prediction by ZEFSAII (Michael W. Deem and Ramdas Pophale) SiO2 
 PCOD8218221
Probable space group: P M N A
;
_chemical_formula_sum "Si O2"
_cell_formula_units_Z 48
_cell_length_a 9.011864
_cell_length_b 16.954754
_cell_length_c 15.399318
_cell_angle_alpha 90.000000
_cell_angle_beta 90.000000
_cell_angle_gamma 90.000000
_cell_volume 2352.922427
_symmetry_space_group_name_H-M "P M N A"
_symmetry_group_IT_number 53
_symmetry_cell_setting 'orthorhombic'
loop_
_space_group_symop_operation_xyz
x,y,z
1/2-x,-y,1/2+z
x,-y,-z
1/2-x,y,1/2-z
-x,-y,-z
1/2+x,y,1/2-z
-x,y,z
1/2+x,-y,1/2+z
loop_
_atom_site_type_symbol
_atom_site_label
_atom_site_fract_x
_atom_site_fract_y
_atom_site_fract_z
Si Si1 0.670837 0.907639 0.493639
Si Si2 0.667340 0.498688 0.396640
Si Si3 0.324729 0.187097 0.336042
Si Si4 0.674561 0.177062 0.837669
Si Si5 0.328817 0.653002 0.099176
Si Si6 0.327048 0.657498 0.896203
O O1 0.500000 0.887401 0.473169
O O2 0.721312 0.867856 0.583551
O O3 0.771805 0.875273 0.417211
O O4 0.698124 0.000000 0.500000
O O5 0.673421 0.500000 0.500000
O O6 0.500000 0.489386 0.362284
O O7 0.733632 0.581039 0.361606
O O8 0.766015 0.426334 0.361711
O O9 0.250000 0.149966 0.250000
O O10 0.500000 0.190703 0.323736
O O11 0.262566 0.274854 0.347631
O O12 0.750000 0.145770 0.750000
O O13 0.500000 0.167071 0.829614
O O14 0.720075 0.268045 0.851523
O O15 0.500000 0.632051 0.113633
O O16 0.295916 0.666675 0.998065
O O17 0.500000 0.664305 0.873606
#
# Coordination Sequence:
#
# PCOD8218221 Si02
#       6
#     8   8   8   8   8   8
#     4  10  23  44  68  94 124 158 198 247 304 365
#     4   9  17  28  48  81 116 154 203 251 300 353
#     4  11  23  39  62  90 123 159 200 248 300 361
#     4  11  23  40  63  93 126 163 205 250 303 362
#     4   9  18  33  54  81 116 158 203 251 302 354
#     4  10  18  33  56  82 117 157 203 252 301 356
#
# _framework density 20.400162000000002
#
# number of rings (size 3 to 8) (size 9 to 14) (size 15 to 20)
#    0.000    2.000    1.667    2.000    0.000    5.667 
#    0.000    2.500    0.000    2.000    0.000    0.000 
#    0.000    0.000    0.000    0.000    0.000    0.000 
#
# Total GULP energy -595399.556992 kJ/mol
# GULP energy per Si atom -12404.157437 kJ/mol
# Density = 2.035373 g / cm^3
# Si number density = 20.400162 Si / 1000 Ang^3
#
#
#
# Elastic Constant Matrix: (Units=GPa)
#
#
# Indices 1 2 3 4 5 6 
#
# 1 105.4254 52.5640 56.6363 0.0000 0.0000 0.0000
# 2 52.5640 107.8538 53.0461 0.0000 0.0000 0.0000
# 3 56.6363 53.0461 104.3616 0.0000 0.0000 0.0000
# 4 0.0000 0.0000 0.0000 -2.1756 0.0000 0.0000
# 5 0.0000 0.0000 0.0000 0.0000 30.3381 0.0000
# 6 0.0000 0.0000 0.0000 0.0000 0.0000 31.5740
#
#
#
# Elastic Compliance Matrix: (Units=1/GPa)
#
#
# Indices 1 2 3 4 5 6 
#
# 1 0.014771 -0.004342 -0.005809 0.000000 0.000000 0.000000
# 2 -0.004342 0.013638 -0.004576 0.000000 0.000000 0.000000
# 3 -0.005809 -0.004576 0.015061 0.000000 0.000000 0.000000
# 4 0.000000 0.000000 0.000000 -0.459639 0.000000 0.000000
# 5 0.000000 0.000000 0.000000 0.000000 0.032962 0.000000
# 6 0.000000 0.000000 0.000000 0.000000 0.000000 0.031672
#
#
# Mechanical properties :
#
#
# Convention : Reuss Voigt Hill
#
# Bulk Modulus (GPa) = 71.34679 71.34818 71.34748
# Shear Modulus (GPa) = -15.75254 22.30693 3.27720
#
# Velocity S-wave (km/s) = -2.78182 3.31035 1.26884
# Velocity P-wave (km/s) = 4.97308 7.04709 6.09889
#
# Compressibility (1/GPa) = 0.01401605
#
# Stress axis : x y z
#
# Youngs Moduli (GPa) = 67.70071 73.32208 66.39789
#
# Poissons Ratio (x) = 0.31834 0.38572
# Poissons Ratio (y) = 0.29393 0.30385
# Poissons Ratio (z) = 0.39329 0.33553
#
# Static dielectric constant tensor:
#      x y z
#    x 3.720240 0.000000 0.000000 
#    y 0.000000 3.716970 0.000000 
#    z 0.000000 0.000000 3.711140 
# 
# 
# High freq. dielectric constant tensor:
#      x y z
#    x 1.802350 0.000000 0.000000 
#    y 0.000000 1.796860 0.000000 
#    z 0.000000 0.000000 1.788530 
# 
# From -- ./inp_files/20174.got.cif
#   From: 2010.03.12/outbox.cif.g09.slc.cpg/sg53_11_cif.got.tgz:20174.got - 2010.04.16 14:36:59.
