data_PCOD8218820
_publ_section_title
;
Structure prediction by ZEFSAII (Michael W. Deem and Ramdas Pophale) SiO2 
 PCOD8218820
Probable space group: P M N A
;
_chemical_formula_sum "Si O2"
_cell_formula_units_Z 64
_cell_length_a 9.210519
_cell_length_b 20.079121
_cell_length_c 19.516515
_cell_angle_alpha 90.000000
_cell_angle_beta 90.000000
_cell_angle_gamma 90.000000
_cell_volume 3609.367216
_symmetry_space_group_name_H-M "P M N A"
_symmetry_group_IT_number 53
_symmetry_cell_setting 'orthorhombic'
loop_
_space_group_symop_operation_xyz
x,y,z
1/2-x,-y,1/2+z
x,-y,-z
1/2-x,y,1/2-z
-x,-y,-z
1/2+x,y,1/2-z
-x,y,z
1/2+x,-y,1/2+z
loop_
_atom_site_type_symbol
_atom_site_label
_atom_site_fract_x
_atom_site_fract_y
_atom_site_fract_z
Si Si1 0.829879 0.021602 0.319218
Si Si2 0.163209 0.711739 0.684835
Si Si3 0.339234 0.553310 0.812711
Si Si4 0.330398 0.133903 0.818901
Si Si5 0.667494 0.181865 0.550681
Si Si6 0.667613 0.704197 0.550445
Si Si7 0.165133 0.446676 0.057844
Si Si8 0.169087 0.939052 0.952093
O O1 0.750000 0.045211 0.250000
O O2 0.763069 0.061734 0.382879
O O3 0.000000 0.037506 0.312722
O O4 0.800478 0.943740 0.331960
O O5 0.250000 0.741661 0.750000
O O6 0.160411 0.632613 0.690665
O O7 0.240507 0.732562 0.614228
O O8 0.000000 0.740783 0.685340
O O9 0.250000 0.522715 0.750000
O O10 0.500000 0.523775 0.809411
O O11 0.265928 0.528064 0.881576
O O12 0.250000 0.157805 0.750000
O O13 0.500000 0.149519 0.811170
O O14 0.267563 0.174568 0.882957
O O15 0.500000 0.174575 0.573496
O O16 0.701103 0.253826 0.517808
O O17 0.705163 0.127945 0.492785
O O18 0.500000 0.711744 0.571876
O O19 0.707782 0.627648 0.533167
O O20 0.000000 0.446583 0.084039
O O21 0.192191 0.500000 0.000000
O O22 0.000000 0.944846 0.932096
O O23 0.217321 0.000000 0.000000
#
# Coordination Sequence:
#
# PCOD8218820 Si02
#       8
#     8   8   8   8   8   8   8   8
#     4  10  20  33  51  74 101 131 166 207 247 290
#     4   9  16  27  45  68  94 125 161 199 237 280
#     4   9  16  26  43  68  96 124 156 196 238 281
#     4  10  20  33  52  76 100 127 163 206 248 290
#     4  10  20  34  52  74 101 132 163 200 246 293
#     4   9  18  32  49  71  99 130 164 200 242 293
#     4   9  17  30  49  72  98 128 161 199 244 292
#     4  10  19  32  51  73  99 129 161 199 243 289
#
# _framework density 17.731639000000001
#
# number of rings (size 3 to 8) (size 9 to 14) (size 15 to 20)
#    0.000    2.500    1.250    1.500    0.000    5.500 
#    0.000    0.625    0.000    0.750    0.000    0.000 
#    0.000    0.000    0.000    0.000    0.000    0.000 
#
# Total GULP energy -793648.414355 kJ/mol
# GULP energy per Si atom -12400.756474 kJ/mol
# Density = 1.769128 g / cm^3
# Si number density = 17.731639 Si / 1000 Ang^3
#
#
#
# Elastic Constant Matrix: (Units=GPa)
#
#
# Indices 1 2 3 4 5 6 
#
# 1 122.2852 30.5704 86.7497 0.0000 0.0000 0.0000
# 2 30.5704 51.5115 38.9481 0.0000 0.0000 0.0000
# 3 86.7497 38.9481 134.1325 0.0000 0.0000 0.0000
# 4 0.0000 0.0000 0.0000 3.1603 0.0000 0.0000
# 5 0.0000 0.0000 0.0000 0.0000 41.5132 0.0000
# 6 0.0000 0.0000 0.0000 0.0000 0.0000 13.7927
#
#
#
# Elastic Compliance Matrix: (Units=1/GPa)
#
#
# Indices 1 2 3 4 5 6 
#
# 1 0.015277 -0.002045 -0.009286 0.000000 0.000000 0.000000
# 2 -0.002045 0.025148 -0.005980 0.000000 0.000000 0.000000
# 3 -0.009286 -0.005980 0.015198 0.000000 0.000000 0.000000
# 4 0.000000 0.000000 0.000000 0.316426 0.000000 0.000000
# 5 0.000000 0.000000 0.000000 0.000000 0.024089 0.000000
# 6 0.000000 0.000000 0.000000 0.000000 0.000000 0.072502
#
#
# Mechanical properties :
#
#
# Convention : Reuss Voigt Hill
#
# Bulk Modulus (GPa) = 47.61816 68.94063 58.27940
# Shear Modulus (GPa) = 9.79892 21.80397 15.80144
#
# Velocity S-wave (km/s) = 2.35334 3.51046 2.98844
# Velocity P-wave (km/s) = 5.85641 7.44282 6.69675
#
# Compressibility (1/GPa) = 0.02100039
#
# Stress axis : x y z
#
# Youngs Moduli (GPa) = 65.45996 39.76462 65.80007
#
# Poissons Ratio (x) = 0.08131 0.61104
# Poissons Ratio (y) = 0.13385 0.39347
# Poissons Ratio (z) = 0.60788 0.23779
#
# Static dielectric constant tensor:
#      x y z
#    x 3.405110 0.000000 0.000000 
#    y 0.000000 2.956440 0.000000 
#    z 0.000000 0.000000 3.271750 
# 
# 
# High freq. dielectric constant tensor:
#      x y z
#    x 1.693360 0.000000 0.000000 
#    y 0.000000 1.643630 0.000000 
#    z 0.000000 0.000000 1.690160 
# 
# From -- ./inp_files/27050.got.cif
#   From: 2010.03.12/outbox.cif.g09.slc.cpg/sg53_14_cif.got.tgz:27050.got - 2010.04.16 14:36:59.
