data_PCOD8218594
_publ_section_title
;
Structure prediction by ZEFSAII (Michael W. Deem and Ramdas Pophale) SiO2 
 PCOD8218594
Probable space group: P M N A
;
_chemical_formula_sum "Si O2"
_cell_formula_units_Z 56
_cell_length_a 8.841599
_cell_length_b 20.753279
_cell_length_c 18.216724
_cell_angle_alpha 90.000000
_cell_angle_beta 90.000000
_cell_angle_gamma 90.000000
_cell_volume 3342.626233
_symmetry_space_group_name_H-M "P M N A"
_symmetry_group_IT_number 53
_symmetry_cell_setting 'orthorhombic'
loop_
_space_group_symop_operation_xyz
x,y,z
1/2-x,-y,1/2+z
x,-y,-z
1/2-x,y,1/2-z
-x,-y,-z
1/2+x,y,1/2-z
-x,y,z
1/2+x,-y,1/2+z
loop_
_atom_site_type_symbol
_atom_site_label
_atom_site_fract_x
_atom_site_fract_y
_atom_site_fract_z
Si Si1 0.677353 0.505654 0.172570
Si Si2 0.179294 0.009671 0.174034
Si Si3 0.166626 0.436608 0.048684
Si Si4 0.666490 0.071871 0.470439
Si Si5 0.177674 0.243719 0.827711
Si Si6 0.176491 0.624729 0.094521
Si Si7 0.678024 0.116767 0.893118
O O1 0.750000 0.488451 0.250000
O O2 0.500000 0.508103 0.181930
O O3 0.719964 0.448017 0.116162
O O4 0.732217 0.575220 0.145085
O O5 0.250000 0.033807 0.250000
O O6 0.249540 0.941233 0.152430
O O7 0.000000 0.000688 0.180301
O O8 0.220410 0.065227 0.114212
O O9 0.000000 0.419831 0.080280
O O10 0.157007 0.500000 0.000000
O O11 0.223292 0.381145 0.991905
O O12 0.500000 0.104374 0.475302
O O13 0.782386 0.112565 0.520002
O O14 0.654781 0.000000 0.500000
O O15 0.250000 0.260750 0.750000
O O16 0.212389 0.303003 0.881430
O O17 0.257489 0.182190 0.861541
O O18 0.000000 0.230703 0.818706
O O19 0.000000 0.607396 0.103982
O O20 0.500000 0.114503 0.882555
#
# Coordination Sequence:
#
# PCOD8218594 Si02
#       7
#     8   8   8   8   8   8   8
#     4  11  20  29  45  69  96 124 153 189 231 273
#     4  10  19  31  48  70  96 123 152 189 232 276
#     4   8  15  30  48  66  90 118 150 187 230 277
#     4   8  16  31  48  66  90 120 152 188 231 275
#     4  11  22  35  49  67  93 125 160 192 226 267
#     4   9  19  34  50  67  91 124 156 190 230 273
#     4  11  21  32  47  67  93 125 159 193 228 269
#
# _framework density 16.753295000000001
#
# number of rings (size 3 to 8) (size 9 to 14) (size 15 to 20)
#    0.000    2.286    0.000    6.000    0.000    8.000 
#    0.000    0.000    0.000    0.000    0.000    1.000 
#    0.000    4.571    0.000    0.000    0.000    0.000 
#
# Total GULP energy -694194.816411 kJ/mol
# GULP energy per Si atom -12396.336007 kJ/mol
# Density = 1.671516 g / cm^3
# Si number density = 16.753295 Si / 1000 Ang^3
#
#
#
# Elastic Constant Matrix: (Units=GPa)
#
#
# Indices 1 2 3 4 5 6 
#
# 1 102.9415 16.0175 41.4016 0.0000 0.0000 0.0000
# 2 16.0175 20.3271 5.6105 0.0000 0.0000 0.0000
# 3 41.4016 5.6105 92.2089 0.0000 0.0000 0.0000
# 4 0.0000 0.0000 0.0000 25.9547 0.0000 0.0000
# 5 0.0000 0.0000 0.0000 0.0000 30.0414 0.0000
# 6 0.0000 0.0000 0.0000 0.0000 0.0000 -7.1057
#
#
#
# Elastic Compliance Matrix: (Units=1/GPa)
#
#
# Indices 1 2 3 4 5 6 
#
# 1 0.013292 -0.008977 -0.005422 0.000000 0.000000 0.000000
# 2 -0.008977 0.056099 0.000617 0.000000 0.000000 0.000000
# 3 -0.005422 0.000617 0.013242 0.000000 0.000000 0.000000
# 4 0.000000 0.000000 0.000000 0.038529 0.000000 0.000000
# 5 0.000000 0.000000 0.000000 0.000000 0.033287 0.000000
# 6 0.000000 0.000000 0.000000 0.000000 0.000000 -0.140732
#
#
# Mechanical properties :
#
#
# Convention : Reuss Voigt Hill
#
# Bulk Modulus (GPa) = 18.15898 37.94852 28.05375
# Shear Modulus (GPa) = 83.84248 19.94128 51.89188
#
# Velocity S-wave (km/s) = 7.08195 3.45380 5.57148
# Velocity P-wave (km/s) = 8.81672 6.21334 7.62693
#
# Compressibility (1/GPa) = 0.05506916
#
# Stress axis : x y z
#
# Youngs Moduli (GPa) = 75.23542 17.82569 75.51904
#
# Poissons Ratio (x) = 0.16002 0.40944
# Poissons Ratio (y) = 0.67540 -0.04662
# Poissons Ratio (z) = 0.40790 -0.01101
#
# Static dielectric constant tensor:
#      x y z
#    x 3.222400 0.000000 0.000000 
#    y 0.000000 2.960550 0.000000 
#    z 0.000000 0.000000 3.761450 
# 
# 
# High freq. dielectric constant tensor:
#      x y z
#    x 1.653090 0.000000 0.000000 
#    y 0.000000 1.601960 0.000000 
#    z 0.000000 0.000000 1.654080 
# 
# From -- ./inp_files/26663.got.cif
#   From: 2010.03.12/outbox.cif.g09.slc.cpg/sg53_14_cif.got.tgz:26663.got - 2010.04.16 14:36:59.
