data_PCOD8218433
_publ_section_title
;
Structure prediction by ZEFSAII (Michael W. Deem and Ramdas Pophale) SiO2 
 PCOD8218433
Probable space group: P M N A
;
_chemical_formula_sum "Si O2"
_cell_formula_units_Z 64
_cell_length_a 8.849671
_cell_length_b 20.467050
_cell_length_c 20.684056
_cell_angle_alpha 90.000000
_cell_angle_beta 90.000000
_cell_angle_gamma 90.000000
_cell_volume 3746.433955
_symmetry_space_group_name_H-M "P M N A"
_symmetry_group_IT_number 53
_symmetry_cell_setting 'orthorhombic'
loop_
_space_group_symop_operation_xyz
x,y,z
1/2-x,-y,1/2+z
x,-y,-z
1/2-x,y,1/2-z
-x,-y,-z
1/2+x,y,1/2-z
-x,y,z
1/2+x,-y,1/2+z
loop_
_atom_site_type_symbol
_atom_site_label
_atom_site_fract_x
_atom_site_fract_y
_atom_site_fract_z
Si Si1 0.327865 0.290727 0.339474
Si Si2 0.675622 0.298766 0.027112
Si Si3 0.175380 0.556916 0.543562
Si Si4 0.823808 0.582198 0.687124
Si Si5 0.676543 0.019715 0.185409
Si Si6 0.172811 0.147818 0.144443
Si Si7 0.822775 0.824160 0.003285
Si Si8 0.678454 0.050416 0.944557
O O1 0.500000 0.314880 0.328975
O O2 0.291386 0.289147 0.414837
O O3 0.212197 0.340365 0.305096
O O4 0.306273 0.215980 0.316183
O O5 0.500000 0.287434 0.046275
O O6 0.696945 0.374382 0.005180
O O7 0.732692 0.243188 0.976818
O O8 0.252608 0.500000 0.500000
O O9 0.242845 0.558450 0.617327
O O10 0.000000 0.540842 0.552267
O O11 0.750000 0.546185 0.750000
O O12 0.000000 0.570188 0.690358
O O13 0.750000 0.989746 0.250000
O O14 0.500000 0.015231 0.193482
O O15 0.720470 0.095378 0.177927
O O16 0.731411 0.978837 0.123733
O O17 0.000000 0.123880 0.148718
O O18 0.220352 0.155481 0.069636
O O19 0.765076 0.881287 0.049749
O O20 0.000000 0.812814 0.013120
O O21 0.500000 0.062756 0.948431
O O22 0.730336 0.000000 0.000000
#
# Coordination Sequence:
#
# PCOD8218433 Si02
#       8
#     8   8   8   8   8   8   8   8
#     4   9  17  29  44  64  92 125 162 201 234 276
#     4   9  16  27  46  71  99 128 158 197 242 289
#     4   8  15  29  49  73  98 127 164 201 239 284
#     4  10  19  30  46  67  93 128 163 200 239 281
#     4  11  23  36  50  67  93 125 156 200 248 298
#     4   9  18  31  46  66  92 124 160 195 235 280
#     4  10  19  30  49  74  99 127 159 204 248 288
#     4  10  20  35  53  74  95 121 162 207 250 294
#
# _framework density 17.082910999999999
#
# number of rings (size 3 to 8) (size 9 to 14) (size 15 to 20)
#    0.000    2.500    1.250    3.375    0.000    4.250 
#    0.000    0.000    0.000   13.500    0.000    0.875 
#    0.000    2.000    0.000    0.000    0.000    0.000 
#
# Total GULP energy -793021.601279 kJ/mol
# GULP energy per Si atom -12390.962520 kJ/mol
# Density = 1.704403 g / cm^3
# Si number density = 17.082911 Si / 1000 Ang^3
#
#
#
# Elastic Constant Matrix: (Units=GPa)
#
#
# Indices 1 2 3 4 5 6 
#
# 1 49.4557 30.2066 29.2443 0.0000 0.0000 0.0000
# 2 30.2066 101.8338 53.2069 0.0000 0.0000 0.0000
# 3 29.2443 53.2069 98.5577 0.0000 0.0000 0.0000
# 4 0.0000 0.0000 0.0000 12.6241 0.0000 0.0000
# 5 0.0000 0.0000 0.0000 0.0000 22.6068 0.0000
# 6 0.0000 0.0000 0.0000 0.0000 0.0000 15.2122
#
#
#
# Elastic Compliance Matrix: (Units=1/GPa)
#
#
# Indices 1 2 3 4 5 6 
#
# 1 0.026361 -0.005199 -0.005015 0.000000 0.000000 0.000000
# 2 -0.005199 0.014703 -0.006395 0.000000 0.000000 0.000000
# 3 -0.005015 -0.006395 0.015087 0.000000 0.000000 0.000000
# 4 0.000000 0.000000 0.000000 0.079214 0.000000 0.000000
# 5 0.000000 0.000000 0.000000 0.000000 0.044234 0.000000
# 6 0.000000 0.000000 0.000000 0.000000 0.000000 0.065737
#
#
# Mechanical properties :
#
#
# Convention : Reuss Voigt Hill
#
# Bulk Modulus (GPa) = 43.60555 52.79586 48.20071
# Shear Modulus (GPa) = 17.47033 19.23458 18.35246
#
# Velocity S-wave (km/s) = 3.20140 3.35916 3.28123
# Velocity P-wave (km/s) = 6.26471 6.78366 6.52934
#
# Compressibility (1/GPa) = 0.02293286
#
# Stress axis : x y z
#
# Youngs Moduli (GPa) = 37.93455 68.01144 66.28270
#
# Poissons Ratio (x) = 0.35359 0.33243
# Poissons Ratio (y) = 0.19722 0.42388
# Poissons Ratio (z) = 0.19025 0.43494
#
# Static dielectric constant tensor:
#      x y z
#    x 3.078700 0.000000 0.000000 
#    y 0.000000 3.359610 0.000000 
#    z 0.000000 0.000000 3.234610 
# 
# 
# High freq. dielectric constant tensor:
#      x y z
#    x 1.656950 0.000000 0.000000 
#    y 0.000000 1.642030 0.000000 
#    z 0.000000 0.000000 1.629580 
# 
# From -- ./inp_files/31369.got.cif
#   From: 2010.03.12/outbox.cif.g09.slc.cpg/sg53_16_cif.got.tgz:31369.got - 2010.04.16 14:36:59.
