data_PCOD8218108
_publ_section_title
;
Structure prediction by ZEFSAII (Michael W. Deem and Ramdas Pophale) SiO2 
 PCOD8218108
Probable space group: P M N A
;
_chemical_formula_sum "Si O2"
_cell_formula_units_Z 64
_cell_length_a 9.104643
_cell_length_b 12.009454
_cell_length_c 31.766249
_cell_angle_alpha 90.000000
_cell_angle_beta 90.000000
_cell_angle_gamma 90.000000
_cell_volume 3473.378568
_symmetry_space_group_name_H-M "P M N A"
_symmetry_group_IT_number 53
_symmetry_cell_setting 'orthorhombic'
loop_
_space_group_symop_operation_xyz
x,y,z
1/2-x,-y,1/2+z
x,-y,-z
1/2-x,y,1/2-z
-x,-y,-z
1/2+x,y,1/2-z
-x,y,z
1/2+x,-y,1/2+z
loop_
_atom_site_type_symbol
_atom_site_label
_atom_site_fract_x
_atom_site_fract_y
_atom_site_fract_z
Si Si1 0.669723 0.625771 0.514124
Si Si2 0.673309 0.639286 0.608238
Si Si3 0.329907 0.990437 0.048390
Si Si4 0.671791 0.736581 0.291306
Si Si5 0.825763 0.116244 0.123581
Si Si6 0.674664 0.400374 0.629815
Si Si7 0.169382 0.264395 0.557965
Si Si8 0.672510 0.992676 0.292552
O O1 0.691732 0.500000 0.500000
O O2 0.500000 0.662457 0.509960
O O3 0.732507 0.637032 0.560913
O O4 0.771095 0.709597 0.488281
O O5 0.500000 0.631149 0.606632
O O6 0.721964 0.754611 0.630020
O O7 0.731131 0.528622 0.632285
O O8 0.500000 0.026002 0.049166
O O9 0.307649 0.866193 0.066093
O O10 0.242906 0.069966 0.080425
O O11 0.271260 0.000000 0.000000
O O12 0.750000 0.690606 0.250000
O O13 0.500000 0.721562 0.285236
O O14 0.733266 0.662113 0.329085
O O15 0.714156 0.864262 0.299882
O O16 0.000000 0.102452 0.118994
O O17 0.768514 0.055411 0.165822
O O18 0.500000 0.393186 0.625953
O O19 0.737429 0.337751 0.589767
O O20 0.000000 0.298168 0.561612
O O21 0.750000 0.037929 0.250000
O O22 0.500000 0.011204 0.286630
#
# Coordination Sequence:
#
# PCOD8218108 Si02
#       8
#     8   8   8   8   8   8   8   8
#     4  10  18  32  52  73 100 138 178 213 253 306
#     4   9  18  33  53  76 102 135 174 217 258 297
#     4  10  22  38  52  72 108 146 176 212 266 322
#     4   9  18  32  53  76 100 130 162 203 257 309
#     4  10  20  35  56  80 104 134 181 227 260 307
#     4  10  19  35  55  75 102 136 170 206 255 308
#     4  11  22  33  50  77 104 133 171 217 260 299
#     4   9  18  33  53  79 104 130 169 216 264 317
#
# _framework density 18.425864000000001
#
# number of rings (size 3 to 8) (size 9 to 14) (size 15 to 20)
#    0.000    2.250    1.250    1.875    0.000    3.500 
#    0.000    3.750    0.000    0.000    0.000    0.000 
#    0.000    0.000    0.000    0.000    0.000    0.000 
#
# Total GULP energy -793497.572287 kJ/mol
# GULP energy per Si atom -12398.399567 kJ/mol
# Density = 1.838393 g / cm^3
# Si number density = 18.425864 Si / 1000 Ang^3
#
#
#
# Elastic Constant Matrix: (Units=GPa)
#
#
# Indices 1 2 3 4 5 6 
#
# 1 27.8126 25.9816 26.3588 0.0000 0.0000 0.0000
# 2 25.9816 106.4031 67.0044 0.0000 0.0000 0.0000
# 3 26.3588 67.0044 140.8800 0.0000 0.0000 0.0000
# 4 0.0000 0.0000 0.0000 34.9814 0.0000 0.0000
# 5 0.0000 0.0000 0.0000 0.0000 29.4835 0.0000
# 6 0.0000 0.0000 0.0000 0.0000 0.0000 15.6773
#
#
#
# Elastic Compliance Matrix: (Units=1/GPa)
#
#
# Indices 1 2 3 4 5 6 
#
# 1 0.048886 -0.008818 -0.004953 0.000000 0.000000 0.000000
# 2 -0.008818 0.015007 -0.005488 0.000000 0.000000 0.000000
# 3 -0.004953 -0.005488 0.010635 0.000000 0.000000 0.000000
# 4 0.000000 0.000000 0.000000 0.028587 0.000000 0.000000
# 5 0.000000 0.000000 0.000000 0.000000 0.033917 0.000000
# 6 0.000000 0.000000 0.000000 0.000000 0.000000 0.063786
#
#
# Mechanical properties :
#
#
# Convention : Reuss Voigt Hill
#
# Bulk Modulus (GPa) = 27.76912 57.08727 42.42820
# Shear Modulus (GPa) = 19.89339 26.41185 23.15262
#
# Velocity S-wave (km/s) = 3.28936 3.79015 3.54860
# Velocity P-wave (km/s) = 5.43415 7.08541 6.31399
#
# Compressibility (1/GPa) = 0.03601122
#
# Stress axis : x y z
#
# Youngs Moduli (GPa) = 20.45560 66.63455 94.03002
#
# Poissons Ratio (x) = 0.58761 0.46569
# Poissons Ratio (y) = 0.18038 0.51601
# Poissons Ratio (z) = 0.10131 0.36567
#
# Static dielectric constant tensor:
#      x y z
#    x 3.164270 0.000000 0.000000 
#    y 0.000000 3.634120 0.000000 
#    z 0.000000 0.000000 3.610840 
# 
# 
# High freq. dielectric constant tensor:
#      x y z
#    x 1.692030 0.000000 0.000000 
#    y 0.000000 1.720120 0.000000 
#    z 0.000000 0.000000 1.714420 
# 
# From -- ./inp_files/38292.got.cif
#   From: 2010.03.12/outbox.cif.g09.slc.cpg/sg53_20_cif.got.tgz:38292.got - 2010.04.16 14:36:59.
