data_PCOD8218229
_publ_section_title
;
Structure prediction by ZEFSAII (Michael W. Deem and Ramdas Pophale) SiO2 
 PCOD8218229
Probable space group: P M N A
;
_chemical_formula_sum "Si O2"
_cell_formula_units_Z 56
_cell_length_a 8.909411
_cell_length_b 16.704051
_cell_length_c 20.993926
_cell_angle_alpha 90.000000
_cell_angle_beta 90.000000
_cell_angle_gamma 90.000000
_cell_volume 3124.384418
_symmetry_space_group_name_H-M "P M N A"
_symmetry_group_IT_number 53
_symmetry_cell_setting 'orthorhombic'
loop_
_space_group_symop_operation_xyz
x,y,z
1/2-x,-y,1/2+z
x,-y,-z
1/2-x,y,1/2-z
-x,-y,-z
1/2+x,y,1/2-z
-x,y,z
1/2+x,-y,1/2+z
loop_
_atom_site_type_symbol
_atom_site_label
_atom_site_fract_x
_atom_site_fract_y
_atom_site_fract_z
Si Si1 0.676984 0.877839 0.027292
Si Si2 0.173564 0.699434 0.476901
Si Si3 0.677188 0.455624 0.564575
Si Si4 0.675831 0.543449 0.816926
Si Si5 0.822953 0.031012 0.402560
Si Si6 0.670179 0.290161 0.123112
Si Si7 0.324649 0.147280 0.315959
O O1 0.500000 0.872272 0.019419
O O2 0.738667 0.788368 0.038887
O O3 0.719380 0.937702 0.085234
O O4 0.737178 0.915538 0.961515
O O5 0.273101 0.636883 0.437852
O O6 0.192797 0.679886 0.551329
O O7 0.000000 0.691332 0.456166
O O8 0.731443 0.500000 0.500000
O O9 0.500000 0.462093 0.572514
O O10 0.753332 0.492974 0.626266
O O11 0.750000 0.519027 0.750000
O O12 0.500000 0.524653 0.814042
O O13 0.706598 0.637075 0.829587
O O14 0.737643 0.061705 0.339986
O O15 0.000000 0.040752 0.392804
O O16 0.500000 0.258912 0.132837
O O17 0.783339 0.217502 0.134929
O O18 0.250000 0.170866 0.250000
O O19 0.500000 0.140941 0.306875
#
# Coordination Sequence:
#
# PCOD8218229 Si02
#       7
#     8   8   8   8   8   8   8
#     4   8  15  29  55  81 104 136 172 215 264 315
#     4  10  18  33  57  84 112 144 183 224 273 327
#     4  11  23  37  55  82 115 150 188 232 279 329
#     4  11  23  39  59  82 110 148 189 233 281 335
#     4   9  16  32  54  77 104 137 177 215 258 313
#     4  10  20  35  56  81 111 146 183 222 270 331
#     4  12  24  35  50  74 108 148 184 221 266 319
#
# _framework density 17.923531000000001
#
# number of rings (size 3 to 8) (size 9 to 14) (size 15 to 20)
#    0.000    1.857    2.857    3.429    0.000    3.429 
#    0.000    2.143    0.000    0.857    0.000    4.000 
#    0.000    0.000    0.000    0.000    0.000    0.000 
#
# Total GULP energy -694380.398588 kJ/mol
# GULP energy per Si atom -12399.649975 kJ/mol
# Density = 1.788274 g / cm^3
# Si number density = 17.923531 Si / 1000 Ang^3
#
#
#
# Elastic Constant Matrix: (Units=GPa)
#
#
# Indices 1 2 3 4 5 6 
#
# 1 85.3696 44.5505 42.9266 0.0000 0.0000 0.0000
# 2 44.5505 115.3626 47.6074 0.0000 0.0000 0.0000
# 3 42.9266 47.6074 86.9805 0.0000 0.0000 0.0000
# 4 0.0000 0.0000 0.0000 26.6293 0.0000 0.0000
# 5 0.0000 0.0000 0.0000 0.0000 25.8302 0.0000
# 6 0.0000 0.0000 0.0000 0.0000 0.0000 22.7169
#
#
#
# Elastic Compliance Matrix: (Units=1/GPa)
#
#
# Indices 1 2 3 4 5 6 
#
# 1 0.016886 -0.003981 -0.006155 0.000000 0.000000 0.000000
# 2 -0.003981 0.012136 -0.004678 0.000000 0.000000 0.000000
# 3 -0.006155 -0.004678 0.017095 0.000000 0.000000 0.000000
# 4 0.000000 0.000000 0.000000 0.037553 0.000000 0.000000
# 5 0.000000 0.000000 0.000000 0.000000 0.038714 0.000000
# 6 0.000000 0.000000 0.000000 0.000000 0.000000 0.044020
#
#
# Mechanical properties :
#
#
# Convention : Reuss Voigt Hill
#
# Bulk Modulus (GPa) = 60.64368 61.98683 61.31526
# Shear Modulus (GPa) = 24.81053 25.21051 25.01052
#
# Velocity S-wave (km/s) = 3.72458 3.75448 3.73956
# Velocity P-wave (km/s) = 7.23911 7.31122 7.27526
#
# Compressibility (1/GPa) = 0.01648976
#
# Stress axis : x y z
#
# Youngs Moduli (GPa) = 59.22029 82.39840 58.49833
#
# Poissons Ratio (x) = 0.32804 0.36003
# Poissons Ratio (y) = 0.23577 0.27364
# Poissons Ratio (z) = 0.36448 0.38544
#
# Static dielectric constant tensor:
#      x y z
#    x 3.140840 0.000000 0.000000 
#    y 0.000000 3.508910 0.000000 
#    z 0.000000 0.000000 3.199570 
# 
# 
# High freq. dielectric constant tensor:
#      x y z
#    x 1.679160 0.000000 0.000000 
#    y 0.000000 1.696170 0.000000 
#    z 0.000000 0.000000 1.674160 
# 
# From -- ./inp_files/30796.got.cif
#   From: 2010.03.12/outbox.cif.g09.slc.cpg/sg53_16_cif.got.tgz:30796.got - 2010.04.16 14:36:59.
