data_PCOD8218127
_publ_section_title
;
Structure prediction by ZEFSAII (Michael W. Deem and Ramdas Pophale) SiO2 
 PCOD8218127
Probable space group: P M N A
;
_chemical_formula_sum "Si O2"
_cell_formula_units_Z 48
_cell_length_a 15.524446
_cell_length_b 9.450557
_cell_length_c 16.969246
_cell_angle_alpha 90.000000
_cell_angle_beta 90.000000
_cell_angle_gamma 90.000000
_cell_volume 2489.637188
_symmetry_space_group_name_H-M "P M N A"
_symmetry_group_IT_number 53
_symmetry_cell_setting 'orthorhombic'
loop_
_space_group_symop_operation_xyz
x,y,z
1/2-x,-y,1/2+z
x,-y,-z
1/2-x,y,1/2-z
-x,-y,-z
1/2+x,y,1/2-z
-x,y,z
1/2+x,-y,1/2+z
loop_
_atom_site_type_symbol
_atom_site_label
_atom_site_fract_x
_atom_site_fract_y
_atom_site_fract_z
Si Si1 0.095449 0.668736 0.633967
Si Si2 0.095192 0.010293 0.354299
Si Si3 0.745612 0.510218 0.411718
Si Si4 0.904254 0.017844 0.167201
Si Si5 0.336114 0.302836 0.296147
Si Si6 0.251828 0.820222 0.344153
O O1 0.161555 0.565827 0.590402
O O2 0.097089 0.647944 0.728998
O O3 0.000000 0.628482 0.604804
O O4 0.116782 0.832617 0.613695
O O5 0.093257 0.010074 0.260688
O O6 0.170003 0.903710 0.380640
O O7 0.000000 0.962731 0.385361
O O8 0.709233 0.500000 0.500000
O O9 0.679718 0.435427 0.352530
O O10 0.752311 0.670936 0.385896
O O11 0.839399 0.901783 0.131082
O O12 0.000000 0.993389 0.131564
O O13 0.870444 0.176058 0.148415
O O14 0.250000 0.251699 0.250000
O O15 0.250000 0.803077 0.250000
#
# Coordination Sequence:
#
# PCOD8218127 Si02
#       6
#     8   8   8   8   8   8
#     4   9  17  33  57  80 101 130 174 220 260 313
#     4   8  15  29  53  83 105 124 161 217 271 311
#     4  11  23  35  48  72 110 150 178 207 255 311
#     4   9  16  29  54  81  99 121 165 226 275 307
#     4   9  16  32  55  76  99 134 178 215 256 311
#     4  10  18  32  53  77 104 131 168 217 264 310
#
# _framework density 19.279917000000001
#
# number of rings (size 3 to 8) (size 9 to 14) (size 15 to 20)
#    0.000    2.667    0.000    6.500    0.000    1.000 
#    0.000    8.333    0.000    7.500    0.000    0.000 
#    0.000    0.000    0.000    0.000    0.000    0.000 
#
# Total GULP energy -594968.993508 kJ/mol
# GULP energy per Si atom -12395.187365 kJ/mol
# Density = 1.923604 g / cm^3
# Si number density = 19.279917 Si / 1000 Ang^3
#
#
#
# Elastic Constant Matrix: (Units=GPa)
#
#
# Indices 1 2 3 4 5 6 
#
# 1 111.1075 61.6833 8.9107 0.0000 0.0000 0.0000
# 2 61.6833 130.7001 23.3780 0.0000 0.0000 0.0000
# 3 8.9107 23.3780 38.5753 0.0000 0.0000 0.0000
# 4 0.0000 0.0000 0.0000 -3.3409 0.0000 0.0000
# 5 0.0000 0.0000 0.0000 0.0000 6.8472 0.0000
# 6 0.0000 0.0000 0.0000 0.0000 0.0000 15.8479
#
#
#
# Elastic Compliance Matrix: (Units=1/GPa)
#
#
# Indices 1 2 3 4 5 6 
#
# 1 0.012215 -0.005900 0.000754 0.000000 0.000000 0.000000
# 2 -0.005900 0.011431 -0.005565 0.000000 0.000000 0.000000
# 3 0.000754 -0.005565 0.029122 0.000000 0.000000 0.000000
# 4 0.000000 0.000000 0.000000 -0.299319 0.000000 0.000000
# 5 0.000000 0.000000 0.000000 0.000000 0.146044 0.000000
# 6 0.000000 0.000000 0.000000 0.000000 0.000000 0.063100
#
#
# Mechanical properties :
#
#
# Convention : Reuss Voigt Hill
#
# Bulk Modulus (GPa) = 31.90165 52.03632 41.96899
# Shear Modulus (GPa) = -902.96670 16.29825 -443.33422
#
# Velocity S-wave (km/s) = -21.66477 2.91064 -15.18043
# Velocity P-wave (km/s) = 24.68267 6.19228 16.89512
#
# Compressibility (1/GPa) = 0.03134634
#
# Stress axis : x y z
#
# Youngs Moduli (GPa) = 81.86542 87.48310 34.33884
#
# Poissons Ratio (x) = 0.51613 -0.02588
# Poissons Ratio (y) = 0.48298 0.19108
# Poissons Ratio (z) = -0.06171 0.48681
#
# Static dielectric constant tensor:
#      x y z
#    x 3.887290 0.000000 0.000000 
#    y 0.000000 3.509040 0.000000 
#    z 0.000000 0.000000 3.073200 
# 
# 
# High freq. dielectric constant tensor:
#      x y z
#    x 1.754530 0.000000 0.000000 
#    y 0.000000 1.749610 0.000000 
#    z 0.000000 0.000000 1.698610 
# 
# From -- ./inp_files/28901.got.cif
#   From: 2010.03.12/outbox.cif.g09.slc.cpg/sg53_15_cif.got.tgz:28901.got - 2010.04.16 14:36:59.
