data_PCOD8218660
_publ_section_title
;
Structure prediction by ZEFSAII (Michael W. Deem and Ramdas Pophale) SiO2 
 PCOD8218660
Probable space group: P M N A
;
_chemical_formula_sum "Si O2"
_cell_formula_units_Z 64
_cell_length_a 9.252857
_cell_length_b 21.678923
_cell_length_c 17.795961
_cell_angle_alpha 90.000000
_cell_angle_beta 90.000000
_cell_angle_gamma 90.000000
_cell_volume 3569.726954
_symmetry_space_group_name_H-M "P M N A"
_symmetry_group_IT_number 53
_symmetry_cell_setting 'orthorhombic'
loop_
_space_group_symop_operation_xyz
x,y,z
1/2-x,-y,1/2+z
x,-y,-z
1/2-x,y,1/2-z
-x,-y,-z
1/2+x,y,1/2-z
-x,y,z
1/2+x,-y,1/2+z
loop_
_atom_site_type_symbol
_atom_site_label
_atom_site_fract_x
_atom_site_fract_y
_atom_site_fract_z
Si Si1 0.834104 0.261744 0.111581
Si Si2 0.835887 0.676187 0.045193
Si Si3 0.671138 0.125282 0.414622
Si Si4 0.670586 0.993372 0.672938
Si Si5 0.829513 0.372365 0.323334
Si Si6 0.170675 0.886990 0.081497
Si Si7 0.170409 0.770074 0.172568
Si Si8 0.669524 0.432400 0.020553
O O1 0.785629 0.190791 0.122024
O O2 0.729959 0.303479 0.162321
O O3 0.000000 0.272366 0.137042
O O4 0.814909 0.277275 0.024056
O O5 0.790468 0.712202 0.119917
O O6 0.000000 0.653194 0.049578
O O7 0.738387 0.615777 0.037164
O O8 0.500000 0.119947 0.421934
O O9 0.738640 0.118156 0.498046
O O10 0.729057 0.070906 0.361200
O O11 0.750000 0.007184 0.750000
O O12 0.500000 0.991960 0.687645
O O13 0.713582 0.047044 0.615071
O O14 0.750000 0.400063 0.250000
O O15 0.788954 0.416165 0.393511
O O16 0.000000 0.369342 0.309497
O O17 0.231341 0.832536 0.134454
O O18 0.000000 0.878638 0.075956
O O19 0.250000 0.758596 0.250000
O O20 0.000000 0.774772 0.186717
O O21 0.500000 0.428494 0.008203
O O22 0.729090 0.500000 0.000000
#
# Coordination Sequence:
#
# PCOD8218660 Si02
#       8
#     8   8   8   8   8   8   8   8
#     4   9  16  30  52  74  98 128 164 208 255 298
#     4   9  17  31  51  74 101 131 165 205 246 295
#     4   9  16  29  51  75  94 124 169 213 252 297
#     4  10  20  32  48  69  96 129 166 209 256 303
#     4  10  20  34  53  78 107 136 169 206 247 296
#     4   9  16  30  51  72  94 125 171 215 249 297
#     4  10  19  31  49  74 102 132 166 209 257 302
#     4   9  19  36  57  79 104 136 170 206 249 293
#
# _framework density 17.928540999999999
#
# number of rings (size 3 to 8) (size 9 to 14) (size 15 to 20)
#    0.000    2.625    1.250    1.125    0.000    3.250 
#    0.000    2.500    0.000    6.000    0.000    0.000 
#    0.000    0.000    0.000    0.000    0.000    0.000 
#
# Total GULP energy -793607.978389 kJ/mol
# GULP energy per Si atom -12400.124662 kJ/mol
# Density = 1.788774 g / cm^3
# Si number density = 17.928541 Si / 1000 Ang^3
#
#
#
# Elastic Constant Matrix: (Units=GPa)
#
#
# Indices 1 2 3 4 5 6 
#
# 1 39.8853 35.3374 31.3082 0.0000 0.0000 0.0000
# 2 35.3374 124.2961 33.9249 0.0000 0.0000 0.0000
# 3 31.3082 33.9249 80.6989 0.0000 0.0000 0.0000
# 4 0.0000 0.0000 0.0000 20.2611 0.0000 0.0000
# 5 0.0000 0.0000 0.0000 0.0000 27.8247 0.0000
# 6 0.0000 0.0000 0.0000 0.0000 0.0000 18.0297
#
#
#
# Elastic Compliance Matrix: (Units=1/GPa)
#
#
# Indices 1 2 3 4 5 6 
#
# 1 0.042975 -0.008661 -0.013032 0.000000 0.000000 0.000000
# 2 -0.008661 0.010834 -0.001194 0.000000 0.000000 0.000000
# 3 -0.013032 -0.001194 0.017950 0.000000 0.000000 0.000000
# 4 0.000000 0.000000 0.000000 0.049356 0.000000 0.000000
# 5 0.000000 0.000000 0.000000 0.000000 0.035939 0.000000
# 6 0.000000 0.000000 0.000000 0.000000 0.000000 0.055464
#
#
# Mechanical properties :
#
#
# Convention : Reuss Voigt Hill
#
# Bulk Modulus (GPa) = 38.48486 49.55793 44.02140
# Shear Modulus (GPa) = 18.73000 22.84375 20.78688
#
# Velocity S-wave (km/s) = 3.23569 3.57340 3.40873
# Velocity P-wave (km/s) = 5.95583 6.68787 6.33243
#
# Compressibility (1/GPa) = 0.02598424
#
# Stress axis : x y z
#
# Youngs Moduli (GPa) = 23.26960 92.30602 55.71166
#
# Poissons Ratio (x) = 0.79945 0.72601
# Poissons Ratio (y) = 0.20154 0.06653
# Poissons Ratio (z) = 0.30324 0.11023
#
# Static dielectric constant tensor:
#      x y z
#    x 3.002490 0.000000 0.000000 
#    y 0.000000 3.414380 0.000000 
#    z 0.000000 0.000000 3.341740 
# 
# 
# High freq. dielectric constant tensor:
#      x y z
#    x 1.661600 0.000000 0.000000 
#    y 0.000000 1.695620 0.000000 
#    z 0.000000 0.000000 1.695600 
# 
# From -- ./inp_files/26926.got.cif
#   From: 2010.03.12/outbox.cif.g09.slc.cpg/sg53_14_cif.got.tgz:26926.got - 2010.04.16 14:36:59.
