data_PCOD8218036
_publ_section_title
;
Structure prediction by ZEFSAII (Michael W. Deem and Ramdas Pophale) SiO2 
 PCOD8218036
Probable space group: P M N A
;
_chemical_formula_sum "Si O2"
_cell_formula_units_Z 64
_cell_length_a 9.126888
_cell_length_b 12.569315
_cell_length_c 28.824850
_cell_angle_alpha 90.000000
_cell_angle_beta 90.000000
_cell_angle_gamma 90.000000
_cell_volume 3306.750191
_symmetry_space_group_name_H-M "P M N A"
_symmetry_group_IT_number 53
_symmetry_cell_setting 'orthorhombic'
loop_
_space_group_symop_operation_xyz
x,y,z
1/2-x,-y,1/2+z
x,-y,-z
1/2-x,y,1/2-z
-x,-y,-z
1/2+x,y,1/2-z
-x,y,z
1/2+x,-y,1/2+z
loop_
_atom_site_type_symbol
_atom_site_label
_atom_site_fract_x
_atom_site_fract_y
_atom_site_fract_z
Si Si1 0.169780 0.658091 0.362024
Si Si2 0.331223 0.811889 0.949984
Si Si3 0.665475 0.955745 0.673512
Si Si4 0.164755 0.017150 0.932892
Si Si5 0.829698 0.233971 0.549381
Si Si6 0.328835 0.751208 0.848193
Si Si7 0.670736 0.156436 0.793640
Si Si8 0.173670 0.531399 0.700295
O O1 0.227698 0.672706 0.415399
O O2 0.202307 0.771165 0.338122
O O3 0.241230 0.561660 0.332849
O O4 0.000000 0.629839 0.362867
O O5 0.500000 0.846684 0.946329
O O6 0.284378 0.750573 0.902994
O O7 0.239847 0.919184 0.959931
O O8 0.306026 0.735269 0.995037
O O9 0.500000 0.951946 0.693084
O O10 0.738937 0.840388 0.679558
O O11 0.667448 0.988673 0.620590
O O12 0.760173 0.040014 0.701743
O O13 0.249974 0.124950 0.940133
O O14 0.000000 0.029948 0.951543
O O15 0.000000 0.214792 0.560594
O O16 0.500000 0.775655 0.842438
O O17 0.285008 0.639648 0.825865
O O18 0.750000 0.212804 0.750000
O O19 0.500000 0.145252 0.783457
O O20 0.250000 0.526099 0.750000
O O21 0.000000 0.519630 0.707992
#
# Coordination Sequence:
#
# PCOD8218036 Si02
#       8
#     8   8   8   8   8   8   8   8
#     4   9  19  35  55  79 107 139 175 221 270 316
#     4   9  18  31  50  76 106 144 184 216 258 319
#     4  10  20  34  52  77 108 141 177 217 265 321
#     4  10  19  30  47  74 109 144 179 220 260 305
#     4  10  18  31  51  75 106 144 182 215 257 320
#     4   9  19  36  56  78 108 142 178 224 273 318
#     4  11  21  34  53  76 106 140 173 215 271 329
#     4  10  21  39  61  82 104 135 179 227 274 323
#
# _framework density 19.35435
#
# number of rings (size 3 to 8) (size 9 to 14) (size 15 to 20)
#    0.000    2.250    1.250    1.875    0.000    4.000 
#    0.000    3.125    0.000    3.750    0.000    0.000 
#    0.000    6.000    0.000    0.000    0.000    0.000 
#
# Total GULP energy -793277.342428 kJ/mol
# GULP energy per Si atom -12394.958475 kJ/mol
# Density = 1.931030 g / cm^3
# Si number density = 19.354350 Si / 1000 Ang^3
#
#
#
# Elastic Constant Matrix: (Units=GPa)
#
#
# Indices 1 2 3 4 5 6 
#
# 1 62.5025 31.2284 16.4552 0.0000 0.0000 0.0000
# 2 31.2284 97.3121 43.6755 0.0000 0.0000 0.0000
# 3 16.4552 43.6755 58.0369 0.0000 0.0000 0.0000
# 4 0.0000 0.0000 0.0000 14.8998 0.0000 0.0000
# 5 0.0000 0.0000 0.0000 0.0000 23.7767 0.0000
# 6 0.0000 0.0000 0.0000 0.0000 0.0000 13.2808
#
#
#
# Elastic Compliance Matrix: (Units=1/GPa)
#
#
# Indices 1 2 3 4 5 6 
#
# 1 0.019111 -0.005588 -0.001213 0.000000 0.000000 0.000000
# 2 -0.005588 0.017152 -0.011323 0.000000 0.000000 0.000000
# 3 -0.001213 -0.011323 0.026095 0.000000 0.000000 0.000000
# 4 0.000000 0.000000 0.000000 0.067115 0.000000 0.000000
# 5 0.000000 0.000000 0.000000 0.000000 0.042058 0.000000
# 6 0.000000 0.000000 0.000000 0.000000 0.000000 0.075296
#
#
# Mechanical properties :
#
#
# Convention : Reuss Voigt Hill
#
# Bulk Modulus (GPa) = 38.30064 44.50774 41.40419
# Shear Modulus (GPa) = 17.13629 18.82431 17.98030
#
# Velocity S-wave (km/s) = 2.97879 3.12206 3.05127
# Velocity P-wave (km/s) = 5.62699 6.00354 5.81831
#
# Compressibility (1/GPa) = 0.02610922
#
# Stress axis : x y z
#
# Youngs Moduli (GPa) = 52.32626 58.30394 38.32113
#
# Poissons Ratio (x) = 0.32583 0.04648
# Poissons Ratio (y) = 0.29242 0.43390
# Poissons Ratio (z) = 0.06347 0.66016
#
# Static dielectric constant tensor:
#      x y z
#    x 3.513310 0.000000 0.000000 
#    y 0.000000 3.429160 0.000000 
#    z 0.000000 0.000000 3.959050 
# 
# 
# High freq. dielectric constant tensor:
#      x y z
#    x 1.737200 0.000000 0.000000 
#    y 0.000000 1.728910 0.000000 
#    z 0.000000 0.000000 1.771860 
# 
# From -- ./inp_files/38128.got.cif
#   From: 2010.03.12/outbox.cif.g09.slc.cpg/sg53_20_cif.got.tgz:38128.got - 2010.04.16 14:36:59.
