data_PCOD8218901
_publ_section_title
;
Structure prediction by ZEFSAII (Michael W. Deem and Ramdas Pophale) SiO2 
 PCOD8218901
Probable space group: P M N A
;
_chemical_formula_sum "Si O2"
_cell_formula_units_Z 40
_cell_length_a 8.959162
_cell_length_b 12.528560
_cell_length_c 19.950664
_cell_angle_alpha 90.000000
_cell_angle_beta 90.000000
_cell_angle_gamma 90.000000
_cell_volume 2239.370234
_symmetry_space_group_name_H-M "P M N A"
_symmetry_group_IT_number 53
_symmetry_cell_setting 'orthorhombic'
loop_
_space_group_symop_operation_xyz
x,y,z
1/2-x,-y,1/2+z
x,-y,-z
1/2-x,y,1/2-z
-x,-y,-z
1/2+x,y,1/2-z
-x,y,z
1/2+x,-y,1/2+z
loop_
_atom_site_type_symbol
_atom_site_label
_atom_site_fract_x
_atom_site_fract_y
_atom_site_fract_z
Si Si1 0.326141 0.377282 0.317459
Si Si2 0.675433 0.783804 0.567892
Si Si3 0.835737 0.008577 0.420700
Si Si4 0.675989 0.377834 0.681180
Si Si5 0.823202 0.773681 0.425098
O O1 0.250000 0.334564 0.250000
O O2 0.500000 0.365122 0.305595
O O3 0.273875 0.306540 0.379986
O O4 0.281179 0.499263 0.332181
O O5 0.500000 0.781758 0.553182
O O6 0.764212 0.760117 0.500314
O O7 0.719035 0.899268 0.599447
O O8 0.784008 0.891471 0.395280
O O9 0.000000 0.037161 0.391698
O O10 0.846899 0.000000 0.500000
O O11 0.750000 0.337425 0.750000
O O12 0.500000 0.359930 0.685817
O O13 0.741738 0.312733 0.619776
O O14 0.000000 0.754711 0.425262
#
# Coordination Sequence:
#
# PCOD8218901 Si02
#       5
#     8   8   8   8   8
#     4   9  20  36  53  74 101 133 167 206 252 300
#     4  10  19  32  52  78 104 131 167 209 252 298
#     4   8  16  31  49  71 101 133 164 203 250 297
#     4  10  20  36  55  74 100 133 168 207 252 300
#     4  10  20  34  52  76 104 134 169 207 249 297
#
# _framework density 17.862162999999999
#
# number of rings (size 3 to 8) (size 9 to 14) (size 15 to 20)
#    0.000    2.600    0.000    3.000    0.000    7.600 
#    0.000    5.000    0.000    2.400    0.000    0.000 
#    0.000    0.000    0.000    0.000    0.000    0.000 
#
# Total GULP energy -495922.865938 kJ/mol
# GULP energy per Si atom -12398.071648 kJ/mol
# Density = 1.782151 g / cm^3
# Si number density = 17.862163 Si / 1000 Ang^3
#
#
#
# Elastic Constant Matrix: (Units=GPa)
#
#
# Indices 1 2 3 4 5 6 
#
# 1 78.9427 49.2474 46.8868 0.0000 0.0000 0.0000
# 2 49.2474 104.2483 63.6655 0.0000 0.0000 0.0000
# 3 46.8868 63.6655 90.2015 0.0000 0.0000 0.0000
# 4 0.0000 0.0000 0.0000 1.3634 0.0000 0.0000
# 5 0.0000 0.0000 0.0000 0.0000 28.6499 0.0000
# 6 0.0000 0.0000 0.0000 0.0000 0.0000 18.6466
#
#
#
# Elastic Compliance Matrix: (Units=1/GPa)
#
#
# Indices 1 2 3 4 5 6 
#
# 1 0.019932 -0.005429 -0.006529 0.000000 0.000000 0.000000
# 2 -0.005429 0.018338 -0.010122 0.000000 0.000000 0.000000
# 3 -0.006529 -0.010122 0.021624 0.000000 0.000000 0.000000
# 4 0.000000 0.000000 0.000000 0.733458 0.000000 0.000000
# 5 0.000000 0.000000 0.000000 0.000000 0.034904 0.000000
# 6 0.000000 0.000000 0.000000 0.000000 0.000000 0.053629
#
#
# Mechanical properties :
#
#
# Convention : Reuss Voigt Hill
#
# Bulk Modulus (GPa) = 63.54967 65.88799 64.71883
# Shear Modulus (GPa) = 5.36890 17.30482 11.33686
#
# Velocity S-wave (km/s) = 1.73559 3.11593 2.52203
# Velocity P-wave (km/s) = 6.29852 7.06487 6.69267
#
# Compressibility (1/GPa) = 0.01573572
#
# Stress axis : x y z
#
# Youngs Moduli (GPa) = 50.17127 54.53037 46.24458
#
# Poissons Ratio (x) = 0.29602 0.30193
# Poissons Ratio (y) = 0.27236 0.46808
# Poissons Ratio (z) = 0.32757 0.55194
#
# Static dielectric constant tensor:
#      x y z
#    x 3.363390 0.000000 0.000000 
#    y 0.000000 3.722830 0.000000 
#    z 0.000000 0.000000 3.125620 
# 
# 
# High freq. dielectric constant tensor:
#      x y z
#    x 1.699910 0.000000 0.000000 
#    y 0.000000 1.699040 0.000000 
#    z 0.000000 0.000000 1.667930 
# 
# From -- ./inp_files/19892.got.cif
#   From: 2010.03.12/outbox.cif.g09.slc.cpg/sg53_10_cif.got.tgz:19892.got - 2010.04.16 14:36:59.
