data_PCOD8218329
_publ_section_title
;
Structure prediction by ZEFSAII (Michael W. Deem and Ramdas Pophale) SiO2 
 PCOD8218329
Probable space group: P M N A
;
_chemical_formula_sum "Si O2"
_cell_formula_units_Z 64
_cell_length_a 9.331357
_cell_length_b 23.288351
_cell_length_c 17.523549
_cell_angle_alpha 90.000000
_cell_angle_beta 90.000000
_cell_angle_gamma 90.000000
_cell_volume 3808.076028
_symmetry_space_group_name_H-M "P M N A"
_symmetry_group_IT_number 53
_symmetry_cell_setting 'orthorhombic'
loop_
_space_group_symop_operation_xyz
x,y,z
1/2-x,-y,1/2+z
x,-y,-z
1/2-x,y,1/2-z
-x,-y,-z
1/2+x,y,1/2-z
-x,y,z
1/2+x,-y,1/2+z
loop_
_atom_site_type_symbol
_atom_site_label
_atom_site_fract_x
_atom_site_fract_y
_atom_site_fract_z
Si Si1 0.333725 0.264460 0.020933
Si Si2 0.656077 0.038618 0.925902
Si Si3 0.333531 0.323987 0.179350
Si Si4 0.334266 0.634784 0.455706
Si Si5 0.332960 0.548002 0.328275
Si Si6 0.834705 0.575785 0.887302
Si Si7 0.671409 0.135566 0.026538
Si Si8 0.671783 0.063094 0.171181
O O1 0.500000 0.267049 0.999751
O O2 0.305766 0.283919 0.107158
O O3 0.271808 0.200056 0.014383
O O4 0.252753 0.305990 0.962230
O O5 0.500000 0.056272 0.894216
O O6 0.729139 0.999498 0.859835
O O7 0.735942 0.096606 0.956169
O O8 0.635379 0.000000 0.000000
O O9 0.250000 0.294765 0.250000
O O10 0.500000 0.330471 0.198655
O O11 0.266886 0.386977 0.167087
O O12 0.500000 0.651537 0.453214
O O13 0.285616 0.602233 0.379276
O O14 0.302206 0.591589 0.525266
O O15 0.250000 0.550899 0.250000
O O16 0.500000 0.550411 0.309787
O O17 0.295204 0.490440 0.374799
O O18 0.000000 0.588636 0.866468
O O19 0.500000 0.133128 0.022900
O O20 0.718330 0.111477 0.109499
O O21 0.750000 0.077662 0.250000
O O22 0.500000 0.062586 0.182225
#
# Coordination Sequence:
#
# PCOD8218329 Si02
#       8
#     8   8   8   8   8   8   8   8
#     4   9  18  31  47  66  86 113 153 193 220 250
#     4   7  11  22  42  64  83 109 146 179 205 241
#     4  10  19  29  41  61  90 120 148 179 217 262
#     4   9  18  33  50  67  90 119 148 181 224 271
#     4  10  20  32  48  70  92 114 143 181 226 274
#     4   9  17  31  50  68  87 114 147 181 220 268
#     4   8  14  27  46  65  85 114 153 187 212 249
#     4   9  16  26  43  68  95 119 143 176 218 261
#
# _framework density 16.806387000000001
#
# number of rings (size 3 to 8) (size 9 to 14) (size 15 to 20)
#    0.000    3.125    0.000    2.625    0.000    4.500 
#    0.000    0.625    0.000    8.625    0.000    3.500 
#    0.000    0.000    0.000    0.000    0.000    0.000 
#
# Total GULP energy -793054.653185 kJ/mol
# GULP energy per Si atom -12391.478956 kJ/mol
# Density = 1.676813 g / cm^3
# Si number density = 16.806387 Si / 1000 Ang^3
#
#
#
# Elastic Constant Matrix: (Units=GPa)
#
#
# Indices 1 2 3 4 5 6 
#
# 1 40.5951 38.6656 24.6008 0.0000 0.0000 0.0000
# 2 38.6656 146.2355 53.3920 0.0000 0.0000 0.0000
# 3 24.6008 53.3920 63.5987 0.0000 0.0000 0.0000
# 4 0.0000 0.0000 0.0000 15.7772 0.0000 0.0000
# 5 0.0000 0.0000 0.0000 0.0000 22.1237 0.0000
# 6 0.0000 0.0000 0.0000 0.0000 0.0000 15.6246
#
#
#
# Elastic Compliance Matrix: (Units=1/GPa)
#
#
# Indices 1 2 3 4 5 6 
#
# 1 0.035868 -0.006371 -0.008526 0.000000 0.000000 0.000000
# 2 -0.006371 0.010992 -0.006764 0.000000 0.000000 0.000000
# 3 -0.008526 -0.006764 0.024700 0.000000 0.000000 0.000000
# 4 0.000000 0.000000 0.000000 0.063383 0.000000 0.000000
# 5 0.000000 0.000000 0.000000 0.000000 0.045200 0.000000
# 6 0.000000 0.000000 0.000000 0.000000 0.000000 0.064002
#
#
# Mechanical properties :
#
#
# Convention : Reuss Voigt Hill
#
# Bulk Modulus (GPa) = 35.41174 53.74959 44.58066
# Shear Modulus (GPa) = 16.84185 19.62316 18.23251
#
# Velocity S-wave (km/s) = 3.16905 3.42073 3.29729
# Velocity P-wave (km/s) = 5.87423 6.90311 6.40935
#
# Compressibility (1/GPa) = 0.02823922
#
# Stress axis : x y z
#
# Youngs Moduli (GPa) = 27.87973 90.97221 40.48604
#
# Poissons Ratio (x) = 0.57958 0.34518
# Poissons Ratio (y) = 0.17762 0.27384
# Poissons Ratio (z) = 0.23770 0.61532
#
# Static dielectric constant tensor:
#      x y z
#    x 2.904640 0.000000 0.000000 
#    y 0.000000 3.354090 0.000000 
#    z 0.000000 0.000000 3.160150 
# 
# 
# High freq. dielectric constant tensor:
#      x y z
#    x 1.618300 0.000000 0.000000 
#    y 0.000000 1.644580 0.000000 
#    z 0.000000 0.000000 1.634540 
# 
# From -- ./inp_files/27048.got.cif
#   From: 2010.03.12/outbox.cif.g09.slc.cpg/sg53_14_cif.got.tgz:27048.got - 2010.04.16 14:36:59.
