data_PCOD8218774
_publ_section_title
;
Structure prediction by ZEFSAII (Michael W. Deem and Ramdas Pophale) SiO2 
 PCOD8218774
Probable space group: P M N A
;
_chemical_formula_sum "Si O2"
_cell_formula_units_Z 64
_cell_length_a 9.029997
_cell_length_b 19.513405
_cell_length_c 20.814642
_cell_angle_alpha 90.000000
_cell_angle_beta 90.000000
_cell_angle_gamma 90.000000
_cell_volume 3667.664571
_symmetry_space_group_name_H-M "P M N A"
_symmetry_group_IT_number 53
_symmetry_cell_setting 'orthorhombic'
loop_
_space_group_symop_operation_xyz
x,y,z
1/2-x,-y,1/2+z
x,-y,-z
1/2-x,y,1/2-z
-x,-y,-z
1/2+x,y,1/2-z
-x,y,z
1/2+x,-y,1/2+z
loop_
_atom_site_type_symbol
_atom_site_label
_atom_site_fract_x
_atom_site_fract_y
_atom_site_fract_z
Si Si1 0.673033 0.462667 0.815141
Si Si2 0.325382 0.828363 0.127072
Si Si3 0.670496 0.672872 0.509402
Si Si4 0.671870 0.534633 0.567588
Si Si5 0.171836 0.824935 0.993673
Si Si6 0.823404 0.045350 0.814685
Si Si7 0.671116 0.675235 0.121928
Si Si8 0.672870 0.963845 0.563108
O O1 0.750000 0.487871 0.750000
O O2 0.500000 0.476022 0.808329
O O3 0.730024 0.505941 0.875224
O O4 0.709794 0.382064 0.825169
O O5 0.500000 0.842669 0.133097
O O6 0.235143 0.877645 0.174247
O O7 0.282374 0.750497 0.147189
O O8 0.274148 0.841551 0.054300
O O9 0.500000 0.667517 0.491277
O O10 0.709097 0.616060 0.562951
O O11 0.709897 0.749559 0.534675
O O12 0.750567 0.654772 0.443669
O O13 0.715415 0.500000 0.500000
O O14 0.500000 0.521192 0.583409
O O15 0.205192 0.882141 0.939371
O O16 0.000000 0.829661 0.015579
O O17 0.750000 0.016197 0.750000
O O18 0.000000 0.045635 0.808436
O O19 0.762194 0.996395 0.871805
O O20 0.500000 0.675342 0.104477
O O21 0.500000 0.980145 0.563670
O O22 0.743262 0.000000 0.500000
#
# Coordination Sequence:
#
# PCOD8218774 Si02
#       8
#     8   8   8   8   8   8   8   8
#     4  11  23  37  53  74 102 139 177 214 258 306
#     4  10  19  32  49  74 106 137 169 206 249 297
#     4   9  17  29  51  79 104 133 168 209 252 299
#     4  10  19  33  53  79 108 135 170 214 257 303
#     4   9  16  30  52  77 102 133 173 208 249 298
#     4  11  22  36  52  72 101 135 170 210 253 302
#     4   9  19  33  49  72 104 137 171 208 248 299
#     4   9  16  30  53  77  99 129 170 212 249 293
#
# _framework density 17.449795999999999
#
# number of rings (size 3 to 8) (size 9 to 14) (size 15 to 20)
#    0.000    2.250    2.500    1.125    0.000    2.250 
#    0.000    3.125    0.000    0.750    0.000    1.750 
#    0.000    0.000    0.000    0.000    0.000    0.000 
#
# Total GULP energy -793397.874411 kJ/mol
# GULP energy per Si atom -12396.841788 kJ/mol
# Density = 1.741008 g / cm^3
# Si number density = 17.449796 Si / 1000 Ang^3
#
#
#
# Elastic Constant Matrix: (Units=GPa)
#
#
# Indices 1 2 3 4 5 6 
#
# 1 54.4930 33.5774 41.6786 0.0000 0.0000 0.0000
# 2 33.5774 102.1202 61.0022 0.0000 0.0000 0.0000
# 3 41.6786 61.0022 117.1324 0.0000 0.0000 0.0000
# 4 0.0000 0.0000 0.0000 21.1609 0.0000 0.0000
# 5 0.0000 0.0000 0.0000 0.0000 27.6462 0.0000
# 6 0.0000 0.0000 0.0000 0.0000 0.0000 41.1057
#
#
#
# Elastic Compliance Matrix: (Units=1/GPa)
#
#
# Indices 1 2 3 4 5 6 
#
# 1 0.026554 -0.004481 -0.007115 0.000000 0.000000 0.000000
# 2 -0.004481 0.014971 -0.006202 0.000000 0.000000 0.000000
# 3 -0.007115 -0.006202 0.014299 0.000000 0.000000 0.000000
# 4 0.000000 0.000000 0.000000 0.047257 0.000000 0.000000
# 5 0.000000 0.000000 0.000000 0.000000 0.036171 0.000000
# 6 0.000000 0.000000 0.000000 0.000000 0.000000 0.024328
#
#
# Mechanical properties :
#
#
# Convention : Reuss Voigt Hill
#
# Bulk Modulus (GPa) = 49.43750 60.69578 55.06664
# Shear Modulus (GPa) = 24.28151 27.14837 25.71494
#
# Velocity S-wave (km/s) = 3.73434 3.94864 3.84298
# Velocity P-wave (km/s) = 6.85467 7.45973 7.16359
#
# Compressibility (1/GPa) = 0.02022756
#
# Stress axis : x y z
#
# Youngs Moduli (GPa) = 37.65943 66.79724 69.93434
#
# Poissons Ratio (x) = 0.29931 0.49757
# Poissons Ratio (y) = 0.16875 0.43375
# Poissons Ratio (z) = 0.26794 0.41430
#
# Static dielectric constant tensor:
#      x y z
#    x 3.164580 0.000000 0.000000 
#    y 0.000000 3.657000 0.000000 
#    z 0.000000 0.000000 3.054480 
# 
# 
# High freq. dielectric constant tensor:
#      x y z
#    x 1.666460 0.000000 0.000000 
#    y 0.000000 1.682560 0.000000 
#    z 0.000000 0.000000 1.645010 
# 
# From -- ./inp_files/26899.got.cif
#   From: 2010.03.12/outbox.cif.g09.slc.cpg/sg53_14_cif.got.tgz:26899.got - 2010.04.16 14:36:59.
