data_PCOD8218413
_publ_section_title
;
Structure prediction by ZEFSAII (Michael W. Deem and Ramdas Pophale) SiO2 
 PCOD8218413
Probable space group: P M N A
;
_chemical_formula_sum "Si O2"
_cell_formula_units_Z 64
_cell_length_a 9.323194
_cell_length_b 21.355766
_cell_length_c 19.288562
_cell_angle_alpha 90.000000
_cell_angle_beta 90.000000
_cell_angle_gamma 90.000000
_cell_volume 3840.428873
_symmetry_space_group_name_H-M "P M N A"
_symmetry_group_IT_number 53
_symmetry_cell_setting 'orthorhombic'
loop_
_space_group_symop_operation_xyz
x,y,z
1/2-x,-y,1/2+z
x,-y,-z
1/2-x,y,1/2-z
-x,-y,-z
1/2+x,y,1/2-z
-x,y,z
1/2+x,-y,1/2+z
loop_
_atom_site_type_symbol
_atom_site_label
_atom_site_fract_x
_atom_site_fract_y
_atom_site_fract_z
Si Si1 0.832230 0.392548 0.319667
Si Si2 0.168335 0.065461 0.968547
Si Si3 0.167232 0.534754 0.319334
Si Si4 0.169911 0.351667 0.591371
Si Si5 0.330436 0.892599 0.316101
Si Si6 0.159163 0.777323 0.357454
Si Si7 0.329074 0.690361 0.945078
Si Si8 0.841876 0.821884 0.513837
O O1 0.750000 0.375168 0.250000
O O2 0.801025 0.463852 0.343192
O O3 0.769859 0.347247 0.379072
O O4 0.000000 0.381836 0.306563
O O5 0.212355 0.071266 0.887257
O O6 0.000000 0.073213 0.976367
O O7 0.236879 0.118988 0.016723
O O8 0.222585 0.000000 0.000000
O O9 0.250000 0.551642 0.250000
O O10 0.223897 0.581982 0.378721
O O11 0.000000 0.545120 0.304690
O O12 0.213149 0.294898 0.643954
O O13 0.236509 0.341285 0.514736
O O14 0.000000 0.351222 0.584306
O O15 0.250000 0.924774 0.250000
O O16 0.500000 0.893822 0.303891
O O17 0.274990 0.820882 0.319252
O O18 0.146875 0.795666 0.437058
O O19 0.000000 0.785359 0.323395
O O20 0.500000 0.686020 0.947521
O O21 0.283621 0.763857 0.939397
O O22 0.000000 0.843375 0.539133
#
# Coordination Sequence:
#
# PCOD8218413 Si02
#       8
#     8   8   8   8   8   8   8   8
#     4   9  17  29  45  63  84 112 146 184 226 270
#     4   9  18  32  49  69  93 120 147 176 214 257
#     4   9  17  28  41  58  82 113 147 182 220 264
#     4   8  14  25  42  64  87 111 143 182 220 256
#     4  10  19  30  45  65  90 118 148 181 212 248
#     4   8  14  26  42  60  85 113 139 171 212 255
#     4   8  14  26  45  67  88 110 140 183 226 257
#     4   8  14  26  45  67  88 109 137 174 212 252
#
# _framework density 16.664807
#
# number of rings (size 3 to 8) (size 9 to 14) (size 15 to 20)
#    0.000    3.375    0.000    1.875    0.000    1.750 
#    0.000    5.000    0.000    3.000    0.000    8.750 
#    0.000    0.000    0.000    0.000    0.000    0.000 
#
# Total GULP energy -793074.268032 kJ/mol
# GULP energy per Si atom -12391.785438 kJ/mol
# Density = 1.662688 g / cm^3
# Si number density = 16.664807 Si / 1000 Ang^3
#
#
#
# Elastic Constant Matrix: (Units=GPa)
#
#
# Indices 1 2 3 4 5 6 
#
# 1 39.4705 35.5257 31.7373 0.0000 0.0000 0.0000
# 2 35.5257 128.2865 71.8115 0.0000 0.0000 0.0000
# 3 31.7373 71.8115 90.8210 0.0000 0.0000 0.0000
# 4 0.0000 0.0000 0.0000 22.0148 0.0000 0.0000
# 5 0.0000 0.0000 0.0000 0.0000 19.1663 0.0000
# 6 0.0000 0.0000 0.0000 0.0000 0.0000 17.7872
#
#
#
# Elastic Compliance Matrix: (Units=1/GPa)
#
#
# Indices 1 2 3 4 5 6 
#
# 1 0.037233 -0.005431 -0.008716 0.000000 0.000000 0.000000
# 2 -0.005431 0.014777 -0.009786 0.000000 0.000000 0.000000
# 3 -0.008716 -0.009786 0.021794 0.000000 0.000000 0.000000
# 4 0.000000 0.000000 0.000000 0.045424 0.000000 0.000000
# 5 0.000000 0.000000 0.000000 0.000000 0.052175 0.000000
# 6 0.000000 0.000000 0.000000 0.000000 0.000000 0.056220
#
#
# Mechanical properties :
#
#
# Convention : Reuss Voigt Hill
#
# Bulk Modulus (GPa) = 38.55594 59.63631 49.09612
# Shear Modulus (GPa) = 17.59716 19.76056 18.67886
#
# Velocity S-wave (km/s) = 3.25306 3.44723 3.35155
# Velocity P-wave (km/s) = 6.10706 7.19083 6.67099
#
# Compressibility (1/GPa) = 0.02593634
#
# Stress axis : x y z
#
# Youngs Moduli (GPa) = 26.85823 67.67155 45.88321
#
# Poissons Ratio (x) = 0.36756 0.39993
# Poissons Ratio (y) = 0.14588 0.44902
# Poissons Ratio (z) = 0.23410 0.66225
#
# Static dielectric constant tensor:
#      x y z
#    x 2.912240 0.000000 0.000000 
#    y 0.000000 3.357380 0.000000 
#    z 0.000000 0.000000 3.190030 
# 
# 
# High freq. dielectric constant tensor:
#      x y z
#    x 1.615480 0.000000 0.000000 
#    y 0.000000 1.636670 0.000000 
#    z 0.000000 0.000000 1.623840 
# 
# From -- ./inp_files/27072.got.cif
#   From: 2010.03.12/outbox.cif.g09.slc.cpg/sg53_14_cif.got.tgz:27072.got - 2010.04.16 14:36:59.
