data_PCOD8218461
_publ_section_title
;
Structure prediction by ZEFSAII (Michael W. Deem and Ramdas Pophale) SiO2 
 PCOD8218461
Probable space group: P M N A
;
_chemical_formula_sum "Si O2"
_cell_formula_units_Z 48
_cell_length_a 9.067673
_cell_length_b 15.009342
_cell_length_c 20.498925
_cell_angle_alpha 90.000000
_cell_angle_beta 90.000000
_cell_angle_gamma 90.000000
_cell_volume 2789.899699
_symmetry_space_group_name_H-M "P M N A"
_symmetry_group_IT_number 53
_symmetry_cell_setting 'orthorhombic'
loop_
_space_group_symop_operation_xyz
x,y,z
1/2-x,-y,1/2+z
x,-y,-z
1/2-x,y,1/2-z
-x,-y,-z
1/2+x,y,1/2-z
-x,y,z
1/2+x,-y,1/2+z
loop_
_atom_site_type_symbol
_atom_site_label
_atom_site_fract_x
_atom_site_fract_y
_atom_site_fract_z
Si Si1 0.669266 0.300397 0.150520
Si Si2 0.331496 0.499532 0.186696
Si Si3 0.675007 0.874957 0.686374
Si Si4 0.331515 0.275628 0.476964
Si Si5 0.327188 0.921821 0.543665
Si Si6 0.668477 0.560782 0.439782
O O1 0.500000 0.267482 0.150933
O O2 0.687338 0.393293 0.187323
O O3 0.772780 0.227624 0.184864
O O4 0.722845 0.316343 0.076714
O O5 0.250000 0.538648 0.250000
O O6 0.500000 0.528424 0.190935
O O7 0.267481 0.544338 0.122407
O O8 0.750000 0.921197 0.750000
O O9 0.500000 0.878034 0.694025
O O10 0.728893 0.922588 0.619150
O O11 0.500000 0.280130 0.450344
O O12 0.289298 0.172553 0.490617
O O13 0.315086 0.334669 0.541897
O O14 0.500000 0.938527 0.545912
O O15 0.252147 0.000000 0.500000
O O16 0.722588 0.500000 0.500000
O O17 0.500000 0.536141 0.422738
#
# Coordination Sequence:
#
# PCOD8218461 Si02
#       6
#     8   8   8   8   8   8
#     4  10  19  30  46  70  99 130 161 196 240 290
#     4  11  23  34  47  68  97 133 170 209 249 292
#     4  10  19  30  47  70  98 128 158 194 241 296
#     4   9  17  30  50  74  97 128 164 199 241 289
#     4   8  15  29  50  74  97 123 160 200 238 283
#     4  10  19  32  51  72  98 131 166 202 239 287
#
# _framework density 17.204920000000001
#
# number of rings (size 3 to 8) (size 9 to 14) (size 15 to 20)
#    0.000    2.333    1.667    3.000    0.000    4.333 
#    0.000    0.000    0.000   13.500    0.000    2.333 
#    0.000    0.000    0.000    0.000    0.000    0.000 
#
# Total GULP energy -595020.828173 kJ/mol
# GULP energy per Si atom -12396.267254 kJ/mol
# Density = 1.716576 g / cm^3
# Si number density = 17.204920 Si / 1000 Ang^3
#
#
#
# Elastic Constant Matrix: (Units=GPa)
#
#
# Indices 1 2 3 4 5 6 
#
# 1 76.4560 30.1672 56.7540 0.0000 0.0000 0.0000
# 2 30.1672 72.8171 55.9844 0.0000 0.0000 0.0000
# 3 56.7540 55.9844 138.2083 0.0000 0.0000 0.0000
# 4 0.0000 0.0000 0.0000 21.6806 0.0000 0.0000
# 5 0.0000 0.0000 0.0000 0.0000 30.8124 0.0000
# 6 0.0000 0.0000 0.0000 0.0000 0.0000 12.9435
#
#
#
# Elastic Compliance Matrix: (Units=1/GPa)
#
#
# Indices 1 2 3 4 5 6 
#
# 1 0.019185 -0.002747 -0.006766 0.000000 0.000000 0.000000
# 2 -0.002747 0.020338 -0.007110 0.000000 0.000000 0.000000
# 3 -0.006766 -0.007110 0.012894 0.000000 0.000000 0.000000
# 4 0.000000 0.000000 0.000000 0.046124 0.000000 0.000000
# 5 0.000000 0.000000 0.000000 0.000000 0.032454 0.000000
# 6 0.000000 0.000000 0.000000 0.000000 0.000000 0.077259
#
#
# Mechanical properties :
#
#
# Convention : Reuss Voigt Hill
#
# Bulk Modulus (GPa) = 52.16031 63.69917 57.92974
# Shear Modulus (GPa) = 20.17020 22.72569 21.44795
#
# Velocity S-wave (km/s) = 3.42768 3.63834 3.53458
# Velocity P-wave (km/s) = 6.78588 7.39961 7.09938
#
# Compressibility (1/GPa) = 0.01917166
#
# Stress axis : x y z
#
# Youngs Moduli (GPa) = 52.12294 49.17001 77.55561
#
# Poissons Ratio (x) = 0.13505 0.52472
# Poissons Ratio (y) = 0.14316 0.55145
# Poissons Ratio (z) = 0.35265 0.34962
#
# Static dielectric constant tensor:
#      x y z
#    x 3.169510 0.000000 0.000000 
#    y 0.000000 3.160430 0.000000 
#    z 0.000000 0.000000 3.332350 
# 
# 
# High freq. dielectric constant tensor:
#      x y z
#    x 1.655580 0.000000 0.000000 
#    y 0.000000 1.632980 0.000000 
#    z 0.000000 0.000000 1.662200 
# 
# From -- ./inp_files/30468.got.cif
#   From: 2010.03.12/outbox.cif.g09.slc.cpg/sg53_16_cif.got.tgz:30468.got - 2010.04.16 14:36:59.
