data_PCOD8218565
_publ_section_title
;
Structure prediction by ZEFSAII (Michael W. Deem and Ramdas Pophale) SiO2 
 PCOD8218565
Probable space group: P M N A
;
_chemical_formula_sum "Si O2"
_cell_formula_units_Z 56
_cell_length_a 9.325966
_cell_length_b 20.821083
_cell_length_c 15.096123
_cell_angle_alpha 90.000000
_cell_angle_beta 90.000000
_cell_angle_gamma 90.000000
_cell_volume 2931.315530
_symmetry_space_group_name_H-M "P M N A"
_symmetry_group_IT_number 53
_symmetry_cell_setting 'orthorhombic'
loop_
_space_group_symop_operation_xyz
x,y,z
1/2-x,-y,1/2+z
x,-y,-z
1/2-x,y,1/2-z
-x,-y,-z
1/2+x,y,1/2-z
-x,y,z
1/2+x,-y,1/2+z
loop_
_atom_site_type_symbol
_atom_site_label
_atom_site_fract_x
_atom_site_fract_y
_atom_site_fract_z
Si Si1 0.331769 0.592644 0.509684
Si Si2 0.170972 0.508104 0.153886
Si Si3 0.836588 0.138189 0.088267
Si Si4 0.165805 0.737197 0.008059
Si Si5 0.161259 0.799952 0.336152
Si Si6 0.158004 0.078424 0.558349
Si Si7 0.660680 0.039305 0.174420
O O1 0.500000 0.583248 0.510007
O O2 0.276814 0.554527 0.597189
O O3 0.281184 0.566316 0.412722
O O4 0.285202 0.666483 0.521509
O O5 0.250000 0.512128 0.250000
O O6 0.000000 0.508245 0.172346
O O7 0.815228 0.214563 0.075667
O O8 0.732589 0.109756 0.163297
O O9 0.000000 0.120972 0.110505
O O10 0.791815 0.100267 0.999507
O O11 0.000000 0.738340 0.040198
O O12 0.269505 0.759972 0.084806
O O13 0.250000 0.783771 0.250000
O O14 0.160947 0.876393 0.354754
O O15 0.000000 0.774714 0.322627
O O16 0.000000 0.088183 0.511342
O O17 0.171880 0.003443 0.585529
O O18 0.750000 0.002437 0.250000
O O19 0.500000 0.048933 0.206929
#
# Coordination Sequence:
#
# PCOD8218565 Si02
#       7
#     8   8   8   8   8   8   8
#     4   8  16  33  55  76 104 141 174 204 247 302
#     4   9  17  32  55  81 107 137 171 208 250 295
#     4  10  20  33  51  73  96 125 161 199 242 295
#     4   9  18  34  53  71  96 133 171 203 239 290
#     4  10  19  31  47  70 100 130 164 206 252 302
#     4   9  19  34  51  70  93 124 160 202 251 299
#     4  11  22  35  51  70  94 123 159 205 253 297
#
# _framework density 19.104050000000001
#
# number of rings (size 3 to 8) (size 9 to 14) (size 15 to 20)
#    0.000    2.571    0.000    3.000    0.000    4.571 
#    0.000    5.000    0.000    1.714    0.000    0.000 
#    0.000    0.000    0.000    0.000    0.000    0.000 
#
# Total GULP energy -693798.451531 kJ/mol
# GULP energy per Si atom -12389.258063 kJ/mol
# Density = 1.906057 g / cm^3
# Si number density = 19.104050 Si / 1000 Ang^3
#
#
#
# Elastic Constant Matrix: (Units=GPa)
#
#
# Indices 1 2 3 4 5 6 
#
# 1 93.8699 37.0820 30.8112 0.0000 0.0000 0.0000
# 2 37.0820 122.7263 20.6009 0.0000 0.0000 0.0000
# 3 30.8112 20.6009 84.2573 0.0000 0.0000 0.0000
# 4 0.0000 0.0000 0.0000 18.7182 0.0000 0.0000
# 5 0.0000 0.0000 0.0000 0.0000 32.0788 0.0000
# 6 0.0000 0.0000 0.0000 0.0000 0.0000 13.9375
#
#
#
# Elastic Compliance Matrix: (Units=1/GPa)
#
#
# Indices 1 2 3 4 5 6 
#
# 1 0.013301 -0.003339 -0.004047 0.000000 0.000000 0.000000
# 2 -0.003339 0.009335 -0.001061 0.000000 0.000000 0.000000
# 3 -0.004047 -0.001061 0.013608 0.000000 0.000000 0.000000
# 4 0.000000 0.000000 0.000000 0.053424 0.000000 0.000000
# 5 0.000000 0.000000 0.000000 0.000000 0.031173 0.000000
# 6 0.000000 0.000000 0.000000 0.000000 0.000000 0.071749
#
#
# Mechanical properties :
#
#
# Convention : Reuss Voigt Hill
#
# Bulk Modulus (GPa) = 51.68536 53.09353 52.38944
# Shear Modulus (GPa) = 23.15509 27.10420 25.12964
#
# Velocity S-wave (km/s) = 3.48523 3.77074 3.63079
# Velocity P-wave (km/s) = 6.58097 6.84179 6.71265
#
# Compressibility (1/GPa) = 0.01934784
#
# Stress axis : x y z
#
# Youngs Moduli (GPa) = 75.18400 107.11931 73.48656
#
# Poissons Ratio (x) = 0.35772 0.29742
# Poissons Ratio (y) = 0.25107 0.07799
# Poissons Ratio (z) = 0.30429 0.11369
#
# Static dielectric constant tensor:
#      x y z
#    x 3.431410 0.000000 0.000000 
#    y 0.000000 3.736900 0.000000 
#    z 0.000000 0.000000 3.501190 
# 
# 
# High freq. dielectric constant tensor:
#      x y z
#    x 1.734080 0.000000 0.000000 
#    y 0.000000 1.735770 0.000000 
#    z 0.000000 0.000000 1.734840 
# 
# From -- ./inp_files/20642.got.cif
#   From: 2010.03.12/outbox.cif.g09.slc.cpg/sg53_11_cif.got.tgz:20642.got - 2010.04.16 14:36:59.
