data_PCOD8218096
_publ_section_title
;
Structure prediction by ZEFSAII (Michael W. Deem and Ramdas Pophale) SiO2 
 PCOD8218096
Probable space group: P M N A
;
_chemical_formula_sum "Si O2"
_cell_formula_units_Z 48
_cell_length_a 8.835148
_cell_length_b 15.061069
_cell_length_c 20.439858
_cell_angle_alpha 90.000000
_cell_angle_beta 90.000000
_cell_angle_gamma 90.000000
_cell_volume 2719.865958
_symmetry_space_group_name_H-M "P M N A"
_symmetry_group_IT_number 53
_symmetry_cell_setting 'orthorhombic'
loop_
_space_group_symop_operation_xyz
x,y,z
1/2-x,-y,1/2+z
x,-y,-z
1/2-x,y,1/2-z
-x,-y,-z
1/2+x,y,1/2-z
-x,y,z
1/2+x,-y,1/2+z
loop_
_atom_site_type_symbol
_atom_site_label
_atom_site_fract_x
_atom_site_fract_y
_atom_site_fract_z
Si Si1 0.178877 0.378140 0.185388
Si Si2 0.326310 0.195076 0.158459
Si Si3 0.677321 0.935301 0.058368
Si Si4 0.321392 0.418524 0.458277
Si Si5 0.669765 0.241309 0.011493
Si Si6 0.320799 0.990259 0.685547
O O1 0.250000 0.426025 0.250000
O O2 0.232464 0.276843 0.186833
O O3 0.237614 0.422542 0.117232
O O4 0.000000 0.383815 0.190155
O O5 0.500000 0.201015 0.182382
O O6 0.248182 0.107702 0.184831
O O7 0.317010 0.191906 0.080445
O O8 0.500000 0.950872 0.072519
O O9 0.713489 0.832714 0.041697
O O10 0.773988 0.954320 0.122346
O O11 0.730579 0.000000 0.000000
O O12 0.251556 0.500000 0.500000
O O13 0.500000 0.424577 0.457972
O O14 0.277687 0.326456 0.493276
O O15 0.500000 0.276401 0.000364
O O16 0.250000 0.037495 0.750000
O O17 0.500000 0.986027 0.690480
#
# Coordination Sequence:
#
# PCOD8218096 Si02
#       6
#     8   8   8   8   8   8
#     4  10  19  31  48  73 103 134 166 205 255 312
#     4  10  18  32  50  72 103 138 171 206 256 310
#     4  10  19  36  56  76 105 139 174 215 261 310
#     4   9  19  35  54  76 104 135 170 215 262 305
#     4   9  18  32  54  79 103 134 170 211 259 308
#     4  12  24  35  49  72 103 141 182 222 263 308
#
# _framework density 17.647929000000001
#
# number of rings (size 3 to 8) (size 9 to 14) (size 15 to 20)
#    0.000    2.000    1.667    3.000    0.000    2.667 
#    0.000    0.000    0.000    1.000    0.000    4.667 
#    0.000    0.000    0.000    0.000    0.000    0.000 
#
# Total GULP energy -595115.518197 kJ/mol
# GULP energy per Si atom -12398.239962 kJ/mol
# Density = 1.760776 g / cm^3
# Si number density = 17.647929 Si / 1000 Ang^3
#
#
#
# Elastic Constant Matrix: (Units=GPa)
#
#
# Indices 1 2 3 4 5 6 
#
# 1 52.0322 20.9613 32.2067 0.0000 0.0000 0.0000
# 2 20.9613 68.8433 52.8528 0.0000 0.0000 0.0000
# 3 32.2067 52.8528 118.7924 0.0000 0.0000 0.0000
# 4 0.0000 0.0000 0.0000 21.2860 0.0000 0.0000
# 5 0.0000 0.0000 0.0000 0.0000 28.1030 0.0000
# 6 0.0000 0.0000 0.0000 0.0000 0.0000 21.9908
#
#
#
# Elastic Compliance Matrix: (Units=1/GPa)
#
#
# Indices 1 2 3 4 5 6 
#
# 1 0.023624 -0.003456 -0.004867 0.000000 0.000000 0.000000
# 2 -0.003456 0.022567 -0.009103 0.000000 0.000000 0.000000
# 3 -0.004867 -0.009103 0.013788 0.000000 0.000000 0.000000
# 4 0.000000 0.000000 0.000000 0.046979 0.000000 0.000000
# 5 0.000000 0.000000 0.000000 0.000000 0.035583 0.000000
# 6 0.000000 0.000000 0.000000 0.000000 0.000000 0.045474
#
#
# Mechanical properties :
#
#
# Convention : Reuss Voigt Hill
#
# Bulk Modulus (GPa) = 39.80081 50.18994 44.99538
# Shear Modulus (GPa) = 21.62221 23.18575 22.40398
#
# Velocity S-wave (km/s) = 3.50408 3.62856 3.56686
# Velocity P-wave (km/s) = 6.24284 6.78650 6.52034
#
# Compressibility (1/GPa) = 0.02512511
#
# Stress axis : x y z
#
# Youngs Moduli (GPa) = 42.33005 44.31243 72.52773
#
# Poissons Ratio (x) = 0.15316 0.35300
# Poissons Ratio (y) = 0.14631 0.66025
# Poissons Ratio (z) = 0.20602 0.40339
#
# Static dielectric constant tensor:
#      x y z
#    x 3.234370 0.000000 0.000000 
#    y 0.000000 3.096200 0.000000 
#    z 0.000000 0.000000 3.712270 
# 
# 
# High freq. dielectric constant tensor:
#      x y z
#    x 1.683840 0.000000 0.000000 
#    y 0.000000 1.648220 0.000000 
#    z 0.000000 0.000000 1.690950 
# 
# From -- ./inp_files/26167.got.cif
#   From: 2010.03.12/outbox.cif.g09.slc.cpg/sg53_14_cif.got.tgz:26167.got - 2010.04.16 14:36:59.
