data_PCOD8218713
_publ_section_title
;
Structure prediction by ZEFSAII (Michael W. Deem and Ramdas Pophale) SiO2 
 PCOD8218713
Probable space group: P M N A
;
_chemical_formula_sum "Si O2"
_cell_formula_units_Z 64
_cell_length_a 13.670629
_cell_length_b 18.581862
_cell_length_c 12.647500
_cell_angle_alpha 90.000000
_cell_angle_beta 90.000000
_cell_angle_gamma 90.000000
_cell_volume 3212.790566
_symmetry_space_group_name_H-M "P M N A"
_symmetry_group_IT_number 53
_symmetry_cell_setting 'orthorhombic'
loop_
_space_group_symop_operation_xyz
x,y,z
1/2-x,-y,1/2+z
x,-y,-z
1/2-x,y,1/2-z
-x,-y,-z
1/2+x,y,1/2-z
-x,y,z
1/2+x,-y,1/2+z
loop_
_atom_site_type_symbol
_atom_site_label
_atom_site_fract_x
_atom_site_fract_y
_atom_site_fract_z
Si Si1 0.116596 0.818053 0.015040
Si Si2 0.391260 0.545638 0.604211
Si Si3 0.804993 0.951790 0.905374
Si Si4 0.393238 0.302132 0.883338
Si Si5 0.613927 0.834238 0.245988
Si Si6 0.300652 0.333495 0.501445
Si Si7 0.856046 0.595172 0.209629
Si Si8 0.386692 0.005142 0.809542
O O1 0.156407 0.829960 0.134993
O O2 0.149491 0.741096 0.971745
O O3 0.000000 0.829171 0.006152
O O4 0.174924 0.869955 0.935826
O O5 0.372284 0.500000 0.500000
O O6 0.500000 0.578135 0.609054
O O7 0.314356 0.612307 0.599369
O O8 0.378168 0.490420 0.702773
O O9 0.870832 0.971748 0.805387
O O10 0.688250 0.965216 0.888629
O O11 0.845571 0.000000 0.000000
O O12 0.500000 0.284925 0.936307
O O13 0.346754 0.231389 0.826036
O O14 0.314902 0.327226 0.971441
O O15 0.419964 0.364269 0.797602
O O16 0.500000 0.824454 0.256597
O O17 0.641749 0.910271 0.192858
O O18 0.366721 0.366002 0.596587
O O19 0.750000 0.609623 0.250000
O O20 0.500000 0.993586 0.844708
#
# Coordination Sequence:
#
# PCOD8218713 Si02
#       8
#     8   8   8   8   8   8   8   8
#     4  11  21  34  55  83 113 142 184 239 290 336
#     4   9  17  30  50  75 104 137 175 216 259 312
#     4  11  23  36  58  85 112 151 195 244 290 350
#     4  10  19  31  50  82 116 145 173 216 281 348
#     4   9  18  31  54  81 110 144 179 222 286 347
#     4  10  20  31  51  79 109 142 179 226 275 330
#     4   9  17  30  51  79 111 143 174 219 272 331
#     4  10  22  40  58  81 115 155 196 243 292 351
#
# _framework density 19.920377999999999
#
# number of rings (size 3 to 8) (size 9 to 14) (size 15 to 20)
#    0.000    2.125    2.500    1.125    1.750    1.750 
#    0.000    0.625    2.750   10.125    0.000    0.000 
#    0.000    0.000    0.000    0.000    0.000    0.000 
#
# Total GULP energy -793074.514574 kJ/mol
# GULP energy per Si atom -12391.789290 kJ/mol
# Density = 1.987504 g / cm^3
# Si number density = 19.920378 Si / 1000 Ang^3
#
#
#
# Elastic Constant Matrix: (Units=GPa)
#
#
# Indices 1 2 3 4 5 6 
#
# 1 107.5732 52.9659 15.4504 0.0000 0.0000 0.0000
# 2 52.9659 157.5469 43.4263 0.0000 0.0000 0.0000
# 3 15.4504 43.4263 34.4253 0.0000 0.0000 0.0000
# 4 0.0000 0.0000 0.0000 30.6787 0.0000 0.0000
# 5 0.0000 0.0000 0.0000 0.0000 -9.3194 0.0000
# 6 0.0000 0.0000 0.0000 0.0000 0.0000 30.7086
#
#
#
# Elastic Compliance Matrix: (Units=1/GPa)
#
#
# Indices 1 2 3 4 5 6 
#
# 1 0.011144 -0.003630 -0.000422 0.000000 0.000000 0.000000
# 2 -0.003630 0.010913 -0.012138 0.000000 0.000000 0.000000
# 3 -0.000422 -0.012138 0.044549 0.000000 0.000000 0.000000
# 4 0.000000 0.000000 0.000000 0.032596 0.000000 0.000000
# 5 0.000000 0.000000 0.000000 0.000000 -0.107303 0.000000
# 6 0.000000 0.000000 0.000000 0.000000 0.000000 0.032564
#
#
# Mechanical properties :
#
#
# Convention : Reuss Voigt Hill
#
# Bulk Modulus (GPa) = 29.21714 58.13675 43.67694
# Shear Modulus (GPa) = 73.25782 22.92710 48.09246
#
# Velocity S-wave (km/s) = 6.07084 3.39623 4.91882
# Velocity P-wave (km/s) = 7.98993 6.68035 7.36431
#
# Compressibility (1/GPa) = 0.03422649
#
# Stress axis : x y z
#
# Youngs Moduli (GPa) = 89.73428 91.63100 22.44718
#
# Poissons Ratio (x) = 0.33263 0.00948
# Poissons Ratio (y) = 0.32575 0.27245
# Poissons Ratio (z) = 0.03789 1.11218
#
# Static dielectric constant tensor:
#      x y z
#    x 3.258560 0.000000 0.000000 
#    y 0.000000 3.868870 0.000000 
#    z 0.000000 0.000000 2.611050 
# 
# 
# High freq. dielectric constant tensor:
#      x y z
#    x 1.786440 0.000000 0.000000 
#    y 0.000000 1.780590 0.000000 
#    z 0.000000 0.000000 1.723890 
# 
# From -- ./inp_files/16267.got.cif
#   From: 2010.03.12/outbox.cif.g09.slc.cpg/sg53_9_cif.got.tgz:16267.got - 2010.04.16 14:36:59.
