data_PCOD8218614
_publ_section_title
;
Structure prediction by ZEFSAII (Michael W. Deem and Ramdas Pophale) SiO2 
 PCOD8218614
Probable space group: P M N A
;
_chemical_formula_sum "Si O2"
_cell_formula_units_Z 56
_cell_length_a 9.624087
_cell_length_b 14.955371
_cell_length_c 20.706856
_cell_angle_alpha 90.000000
_cell_angle_beta 90.000000
_cell_angle_gamma 90.000000
_cell_volume 2980.374883
_symmetry_space_group_name_H-M "P M N A"
_symmetry_group_IT_number 53
_symmetry_cell_setting 'orthorhombic'
loop_
_space_group_symop_operation_xyz
x,y,z
1/2-x,-y,1/2+z
x,-y,-z
1/2-x,y,1/2-z
-x,-y,-z
1/2+x,y,1/2-z
-x,y,z
1/2+x,-y,1/2+z
loop_
_atom_site_type_symbol
_atom_site_label
_atom_site_fract_x
_atom_site_fract_y
_atom_site_fract_z
Si Si1 0.346586 0.158654 0.805886
Si Si2 0.337444 0.451625 0.687123
Si Si3 0.834918 0.445655 0.061320
Si Si4 0.655701 0.743838 0.522368
Si Si5 0.834921 0.083194 0.454021
Si Si6 0.653849 0.948540 0.807726
Si Si7 0.652439 0.733374 0.377099
O O1 0.250000 0.200090 0.750000
O O2 0.500000 0.201440 0.803248
O O3 0.268424 0.188610 0.871068
O O4 0.357306 0.053748 0.799705
O O5 0.250000 0.477605 0.750000
O O6 0.500000 0.467912 0.700864
O O7 0.282460 0.512973 0.628479
O O8 0.307858 0.349681 0.667765
O O9 0.788982 0.340812 0.063407
O O10 0.000000 0.451257 0.056653
O O11 0.771052 0.500000 0.000000
O O12 0.500000 0.774243 0.543943
O O13 0.758986 0.827282 0.523829
O O14 0.649357 0.702690 0.450736
O O15 0.787559 0.068919 0.379564
O O16 0.000000 0.096114 0.459131
O O17 0.789284 0.000000 0.500000
O O18 0.750000 0.908622 0.750000
O O19 0.500000 0.906197 0.799810
O O20 0.500000 0.771434 0.357493
#
# Coordination Sequence:
#
# PCOD8218614 Si02
#       7
#     8   8   8   8   8   8   8
#     4  10  19  31  48  71 101 138 178 219 268 329
#     4  10  20  34  54  79 109 144 181 223 272 327
#     4   9  16  34  60  80 103 142 185 222 266 322
#     4  10  20  34  57  85 106 136 188 236 273 319
#     4  10  21  38  57  80 114 151 184 225 284 343
#     4   9  19  35  54  74 100 141 186 226 273 329
#     4  10  19  31  49  76 107 138 175 221 271 327
#
# _framework density 18.789581999999999
#
# number of rings (size 3 to 8) (size 9 to 14) (size 15 to 20)
#    0.000    2.286    1.429    1.714    0.000    4.857 
#    0.000    1.429    0.000    4.286    0.000    0.000 
#    0.000    0.000    0.000    0.000    0.000    0.000 
#
# Total GULP energy -694035.387896 kJ/mol
# GULP energy per Si atom -12393.489070 kJ/mol
# Density = 1.874682 g / cm^3
# Si number density = 18.789582 Si / 1000 Ang^3
#
#
#
# Elastic Constant Matrix: (Units=GPa)
#
#
# Indices 1 2 3 4 5 6 
#
# 1 78.4323 36.8777 43.2897 0.0000 0.0000 0.0000
# 2 36.8777 77.5223 39.8228 0.0000 0.0000 0.0000
# 3 43.2897 39.8228 127.0007 0.0000 0.0000 0.0000
# 4 0.0000 0.0000 0.0000 31.7778 0.0000 0.0000
# 5 0.0000 0.0000 0.0000 0.0000 28.3475 0.0000
# 6 0.0000 0.0000 0.0000 0.0000 0.0000 18.2114
#
#
#
# Elastic Compliance Matrix: (Units=1/GPa)
#
#
# Indices 1 2 3 4 5 6 
#
# 1 0.018075 -0.006477 -0.004130 0.000000 0.000000 0.000000
# 2 -0.006477 0.017697 -0.003342 0.000000 0.000000 0.000000
# 3 -0.004130 -0.003342 0.010330 0.000000 0.000000 0.000000
# 4 0.000000 0.000000 0.000000 0.031469 0.000000 0.000000
# 5 0.000000 0.000000 0.000000 0.000000 0.035277 0.000000
# 6 0.000000 0.000000 0.000000 0.000000 0.000000 0.054911
#
#
# Mechanical properties :
#
#
# Convention : Reuss Voigt Hill
#
# Bulk Modulus (GPa) = 54.93078 58.10396 56.51737
# Shear Modulus (GPa) = 24.78666 26.53167 25.65917
#
# Velocity S-wave (km/s) = 3.63598 3.76179 3.69942
# Velocity P-wave (km/s) = 6.85020 7.06107 6.95644
#
# Compressibility (1/GPa) = 0.01820473
#
# Stress axis : x y z
#
# Youngs Moduli (GPa) = 55.32629 56.50693 96.80960
#
# Poissons Ratio (x) = 0.36597 0.39984
# Poissons Ratio (y) = 0.35832 0.32349
# Poissons Ratio (z) = 0.22851 0.18882
#
# Static dielectric constant tensor:
#      x y z
#    x 3.457300 0.000000 0.000000 
#    y 0.000000 3.207170 0.000000 
#    z 0.000000 0.000000 3.619710 
# 
# 
# High freq. dielectric constant tensor:
#      x y z
#    x 1.712360 0.000000 0.000000 
#    y 0.000000 1.710630 0.000000 
#    z 0.000000 0.000000 1.734960 
# 
# From -- ./inp_files/30817.got.cif
#   From: 2010.03.12/outbox.cif.g09.slc.cpg/sg53_16_cif.got.tgz:30817.got - 2010.04.16 14:36:59.
