data_PCOD8218272
_publ_section_title
;
Structure prediction by ZEFSAII (Michael W. Deem and Ramdas Pophale) SiO2 
 PCOD8218272
Probable space group: P M N A
;
_chemical_formula_sum "Si O2"
_cell_formula_units_Z 64
_cell_length_a 8.873596
_cell_length_b 11.925916
_cell_length_c 30.982748
_cell_angle_alpha 90.000000
_cell_angle_beta 90.000000
_cell_angle_gamma 90.000000
_cell_volume 3278.772870
_symmetry_space_group_name_H-M "P M N A"
_symmetry_group_IT_number 53
_symmetry_cell_setting 'orthorhombic'
loop_
_space_group_symop_operation_xyz
x,y,z
1/2-x,-y,1/2+z
x,-y,-z
1/2-x,y,1/2-z
-x,-y,-z
1/2+x,y,1/2-z
-x,y,z
1/2+x,-y,1/2+z
loop_
_atom_site_type_symbol
_atom_site_label
_atom_site_fract_x
_atom_site_fract_y
_atom_site_fract_z
Si Si1 0.678550 0.363320 0.625268
Si Si2 0.179372 0.520327 0.952183
Si Si3 0.323360 0.490859 0.293199
Si Si4 0.178166 0.017470 0.048974
Si Si5 0.678600 0.749218 0.585789
Si Si6 0.677914 0.016034 0.207237
Si Si7 0.177942 0.758063 0.816740
Si Si8 0.678502 0.122099 0.876317
O O1 0.500000 0.343163 0.626098
O O2 0.728937 0.421923 0.580486
O O3 0.731994 0.441998 0.664727
O O4 0.763540 0.247082 0.630077
O O5 0.247641 0.638605 0.936294
O O6 0.000000 0.526574 0.953328
O O7 0.245020 0.500000 0.000000
O O8 0.250000 0.542377 0.250000
O O9 0.500000 0.503625 0.289097
O O10 0.276242 0.360923 0.296622
O O11 0.235148 0.141456 0.060682
O O12 0.000000 0.003821 0.054833
O O13 0.255775 0.926499 0.079435
O O14 0.229200 0.000000 0.000000
O O15 0.500000 0.739988 0.585091
O O16 0.736080 0.757338 0.634338
O O17 0.750000 0.958656 0.250000
O O18 0.500000 0.010611 0.211250
O O19 0.731949 0.144641 0.207229
O O20 0.734983 0.951554 0.164462
O O21 0.000000 0.781396 0.813433
O O22 0.500000 0.121768 0.879211
#
# Coordination Sequence:
#
# PCOD8218272 Si02
#       8
#     8   8   8   8   8   8   8   8
#     4  10  21  38  59  83 112 147 191 237 280 333
#     4   9  17  30  55  89 118 144 181 233 284 327
#     4  10  21  36  56  84 115 148 186 231 285 342
#     4  10  21  36  61  93 118 149 197 241 280 334
#     4   9  16  30  54  86 120 148 179 230 287 332
#     4  11  24  40  59  84 113 148 193 238 289 346
#     4  10  18  34  59  86 119 151 183 230 290 344
#     4  11  25  42  58  81 117 156 192 235 292 348
#
# _framework density 19.519499
#
# number of rings (size 3 to 8) (size 9 to 14) (size 15 to 20)
#    0.000    2.000    2.500    1.125    1.750    4.250 
#    0.000    2.500    0.000    1.125    0.000    0.000 
#    0.000    0.000    0.000    0.000    0.000    0.000 
#
# Total GULP energy -793657.250598 kJ/mol
# GULP energy per Si atom -12400.894541 kJ/mol
# Density = 1.947507 g / cm^3
# Si number density = 19.519499 Si / 1000 Ang^3
#
#
#
# Elastic Constant Matrix: (Units=GPa)
#
#
# Indices 1 2 3 4 5 6 
#
# 1 34.7366 31.3386 36.1766 0.0000 0.0000 0.0000
# 2 31.3386 115.5510 56.0053 0.0000 0.0000 0.0000
# 3 36.1766 56.0053 169.6333 0.0000 0.0000 0.0000
# 4 0.0000 0.0000 0.0000 20.1589 0.0000 0.0000
# 5 0.0000 0.0000 0.0000 0.0000 23.6963 0.0000
# 6 0.0000 0.0000 0.0000 0.0000 0.0000 12.5867
#
#
#
# Elastic Compliance Matrix: (Units=1/GPa)
#
#
# Indices 1 2 3 4 5 6 
#
# 1 0.043204 -0.008633 -0.006364 0.000000 0.000000 0.000000
# 2 -0.008633 0.012028 -0.002130 0.000000 0.000000 0.000000
# 3 -0.006364 -0.002130 0.007955 0.000000 0.000000 0.000000
# 4 0.000000 0.000000 0.000000 0.049606 0.000000 0.000000
# 5 0.000000 0.000000 0.000000 0.000000 0.042201 0.000000
# 6 0.000000 0.000000 0.000000 0.000000 0.000000 0.079449
#
#
# Mechanical properties :
#
#
# Convention : Reuss Voigt Hill
#
# Bulk Modulus (GPa) = 34.56128 62.99578 48.77853
# Shear Modulus (GPa) = 17.96358 24.38172 21.17265
#
# Velocity S-wave (km/s) = 3.03692 3.53809 3.29704
# Velocity P-wave (km/s) = 5.48102 7.00243 6.28791
#
# Compressibility (1/GPa) = 0.02893412
#
# Stress axis : x y z
#
# Youngs Moduli (GPa) = 23.14596 83.13993 125.70057
#
# Poissons Ratio (x) = 0.71775 0.79991
# Poissons Ratio (y) = 0.19982 0.26774
# Poissons Ratio (z) = 0.14729 0.17708
#
# Static dielectric constant tensor:
#      x y z
#    x 3.135440 0.000000 0.000000 
#    y 0.000000 3.663850 0.000000 
#    z 0.000000 0.000000 3.870620 
# 
# 
# High freq. dielectric constant tensor:
#      x y z
#    x 1.721180 0.000000 0.000000 
#    y 0.000000 1.764870 0.000000 
#    z 0.000000 0.000000 1.780540 
# 
# From -- ./inp_files/38132.got.cif
#   From: 2010.03.12/outbox.cif.g09.slc.cpg/sg53_20_cif.got.tgz:38132.got - 2010.04.16 14:36:59.
