data_PCOD8218909
_publ_section_title
;
Structure prediction by ZEFSAII (Michael W. Deem and Ramdas Pophale) SiO2 
 PCOD8218909
Probable space group: P M N A
;
_chemical_formula_sum "Si O2"
_cell_formula_units_Z 56
_cell_length_a 8.917220
_cell_length_b 18.772986
_cell_length_c 17.072769
_cell_angle_alpha 90.000000
_cell_angle_beta 90.000000
_cell_angle_gamma 90.000000
_cell_volume 2858.030123
_symmetry_space_group_name_H-M "P M N A"
_symmetry_group_IT_number 53
_symmetry_cell_setting 'orthorhombic'
loop_
_space_group_symop_operation_xyz
x,y,z
1/2-x,-y,1/2+z
x,-y,-z
1/2-x,y,1/2-z
-x,-y,-z
1/2+x,y,1/2-z
-x,y,z
1/2+x,-y,1/2+z
loop_
_atom_site_type_symbol
_atom_site_label
_atom_site_fract_x
_atom_site_fract_y
_atom_site_fract_z
Si Si1 0.327189 0.219582 0.903290
Si Si2 0.670942 0.038786 0.424833
Si Si3 0.826711 0.291936 0.431833
Si Si4 0.324269 0.419147 0.510154
Si Si5 0.176081 0.348165 0.828056
Si Si6 0.679490 0.824804 0.665871
Si Si7 0.329447 0.096986 0.669180
O O1 0.500000 0.216502 0.879568
O O2 0.243183 0.269929 0.841424
O O3 0.252873 0.141781 0.898858
O O4 0.302755 0.246188 0.990609
O O5 0.500000 0.053828 0.449838
O O6 0.739062 0.114090 0.395154
O O7 0.750999 0.000000 0.500000
O O8 0.682447 0.986088 0.350982
O O9 0.761613 0.370883 0.446349
O O10 0.736211 0.252351 0.363059
O O11 0.000000 0.298212 0.407545
O O12 0.271211 0.500000 0.500000
O O13 0.500000 0.409563 0.494414
O O14 0.281053 0.397716 0.598497
O O15 0.250000 0.381643 0.750000
O O16 0.000000 0.342621 0.816069
O O17 0.750000 0.841208 0.750000
O O18 0.500000 0.825612 0.672393
O O19 0.250000 0.113440 0.750000
O O20 0.500000 0.122379 0.674870
#
# Coordination Sequence:
#
# PCOD8218909 Si02
#       7
#     8   8   8   8   8   8   8
#     4  10  20  34  52  76 107 140 177 219 263 318
#     4   9  19  35  55  78 103 137 183 232 282 335
#     4  10  21  37  58  84 111 141 180 224 272 327
#     4   9  19  37  60  84 111 146 185 224 271 329
#     4  10  19  32  52  78 108 141 177 217 265 321
#     4  11  22  38  60  83 112 149 191 239 287 338
#     4  11  21  33  50  73 104 138 174 217 267 320
#
# _framework density 19.593916
#
# number of rings (size 3 to 8) (size 9 to 14) (size 15 to 20)
#    0.000    2.000    0.000    3.857    0.000    3.714 
#    0.000    2.857    0.000    6.857    0.000    0.000 
#    0.000    0.000    0.000    0.000    0.000    0.000 
#
# Total GULP energy -694431.026106 kJ/mol
# GULP energy per Si atom -12400.554038 kJ/mol
# Density = 1.954932 g / cm^3
# Si number density = 19.593916 Si / 1000 Ang^3
#
#
#
# Elastic Constant Matrix: (Units=GPa)
#
#
# Indices 1 2 3 4 5 6 
#
# 1 89.4967 41.2373 39.3040 0.0000 0.0000 0.0000
# 2 41.2373 118.5674 40.6411 0.0000 0.0000 0.0000
# 3 39.3040 40.6411 85.1363 0.0000 0.0000 0.0000
# 4 0.0000 0.0000 0.0000 23.8555 0.0000 0.0000
# 5 0.0000 0.0000 0.0000 0.0000 30.5813 0.0000
# 6 0.0000 0.0000 0.0000 0.0000 0.0000 24.1711
#
#
#
# Elastic Compliance Matrix: (Units=1/GPa)
#
#
# Indices 1 2 3 4 5 6 
#
# 1 0.015093 -0.003421 -0.005335 0.000000 0.000000 0.000000
# 2 -0.003421 0.010859 -0.003605 0.000000 0.000000 0.000000
# 3 -0.005335 -0.003605 0.015929 0.000000 0.000000 0.000000
# 4 0.000000 0.000000 0.000000 0.041919 0.000000 0.000000
# 5 0.000000 0.000000 0.000000 0.000000 0.032700 0.000000
# 6 0.000000 0.000000 0.000000 0.000000 0.000000 0.041372
#
#
# Mechanical properties :
#
#
# Convention : Reuss Voigt Hill
#
# Bulk Modulus (GPa) = 58.27084 59.50724 58.88904
# Shear Modulus (GPa) = 26.55167 27.18946 26.87056
#
# Velocity S-wave (km/s) = 3.68516 3.72916 3.70722
# Velocity P-wave (km/s) = 6.92178 6.99845 6.96022
#
# Compressibility (1/GPa) = 0.01716124
#
# Stress axis : x y z
#
# Youngs Moduli (GPa) = 66.25803 92.08748 62.77670
#
# Poissons Ratio (x) = 0.31499 0.33490
# Poissons Ratio (y) = 0.22664 0.22629
# Poissons Ratio (z) = 0.35347 0.33195
#
# Static dielectric constant tensor:
#      x y z
#    x 3.491630 0.000000 0.000000 
#    y 0.000000 3.562070 0.000000 
#    z 0.000000 0.000000 3.528400 
# 
# 
# High freq. dielectric constant tensor:
#      x y z
#    x 1.757050 0.000000 0.000000 
#    y 0.000000 1.756900 0.000000 
#    z 0.000000 0.000000 1.760940 
# 
# From -- ./inp_files/20526.got.cif
#   From: 2010.03.12/outbox.cif.g09.slc.cpg/sg53_11_cif.got.tgz:20526.got - 2010.04.16 14:36:59.
