data_PCOD8218411
_publ_section_title
;
Structure prediction by ZEFSAII (Michael W. Deem and Ramdas Pophale) SiO2 
 PCOD8218411
Probable space group: P M N A
;
_chemical_formula_sum "Si O2"
_cell_formula_units_Z 56
_cell_length_a 14.985091
_cell_length_b 9.713180
_cell_length_c 23.208116
_cell_angle_alpha 90.000000
_cell_angle_beta 90.000000
_cell_angle_gamma 90.000000
_cell_volume 3378.008267
_symmetry_space_group_name_H-M "P M N A"
_symmetry_group_IT_number 53
_symmetry_cell_setting 'orthorhombic'
loop_
_space_group_symop_operation_xyz
x,y,z
1/2-x,-y,1/2+z
x,-y,-z
1/2-x,y,1/2-z
-x,-y,-z
1/2+x,y,1/2-z
-x,y,z
1/2+x,-y,1/2+z
loop_
_atom_site_type_symbol
_atom_site_label
_atom_site_fract_x
_atom_site_fract_y
_atom_site_fract_z
Si Si1 0.657651 0.652618 0.226471
Si Si2 0.156734 0.093230 0.278991
Si Si3 0.097481 0.113143 0.809579
Si Si4 0.396730 0.603620 0.953471
Si Si5 0.600392 0.378593 0.173503
Si Si6 0.598401 0.143730 0.970323
Si Si7 0.786977 0.122500 0.637905
O O1 0.750000 0.591803 0.250000
O O2 0.607756 0.745655 0.273494
O O3 0.599926 0.519795 0.209449
O O4 0.679843 0.744357 0.171511
O O5 0.250000 0.064470 0.250000
O O6 0.142557 0.254792 0.289297
O O7 0.090551 0.018477 0.233846
O O8 0.159308 0.012133 0.339772
O O9 0.179079 0.102608 0.855694
O O10 0.000000 0.118943 0.840886
O O11 0.500000 0.561105 0.946861
O O12 0.352626 0.597983 0.889222
O O13 0.351298 0.500000 0.000000
O O14 0.381160 0.754688 0.977428
O O15 0.500000 0.330048 0.162146
O O16 0.500000 0.178159 0.942105
O O17 0.681795 0.148529 0.927021
O O18 0.592888 0.000000 0.000000
#
# Coordination Sequence:
#
# PCOD8218411 Si02
#       7
#     8   8   8   8   8   8   8
#     4   9  18  30  44  65  92 119 149 182 217 263
#     4   9  18  30  43  63  90 116 144 180 222 269
#     4   9  17  31  48  66  89 116 149 187 225 265
#     4   9  18  29  39  57  86 115 143 175 210 251
#     4  11  19  27  43  65  89 119 149 177 216 263
#     4  10  19  30  45  65  89 116 147 182 217 261
#     4   9  18  31  47  65  87 120 153 183 223 265
#
# _framework density 16.577817
#
# number of rings (size 3 to 8) (size 9 to 14) (size 15 to 20)
#    0.000    2.571    0.000    4.714    0.000    5.714 
#    0.000    0.000    0.000    0.429    0.000    0.000 
#    0.000   15.429    0.000    0.000    0.000    0.000 
#
# Total GULP energy -693768.204502 kJ/mol
# GULP energy per Si atom -12388.717938 kJ/mol
# Density = 1.654008 g / cm^3
# Si number density = 16.577817 Si / 1000 Ang^3
#
#
#
# Elastic Constant Matrix: (Units=GPa)
#
#
# Indices 1 2 3 4 5 6 
#
# 1 72.6238 3.1717 18.6702 0.0000 0.0000 0.0000
# 2 3.1717 95.2106 13.9954 0.0000 0.0000 0.0000
# 3 18.6702 13.9954 59.4585 0.0000 0.0000 0.0000
# 4 0.0000 0.0000 0.0000 15.6993 0.0000 0.0000
# 5 0.0000 0.0000 0.0000 0.0000 19.4162 0.0000
# 6 0.0000 0.0000 0.0000 0.0000 0.0000 19.4334
#
#
#
# Elastic Compliance Matrix: (Units=1/GPa)
#
#
# Indices 1 2 3 4 5 6 
#
# 1 0.014982 0.000199 -0.004751 0.000000 0.000000 0.000000
# 2 0.000199 0.010882 -0.002624 0.000000 0.000000 0.000000
# 3 -0.004751 -0.002624 0.018928 0.000000 0.000000 0.000000
# 4 0.000000 0.000000 0.000000 0.063697 0.000000 0.000000
# 5 0.000000 0.000000 0.000000 0.000000 0.051503 0.000000
# 6 0.000000 0.000000 0.000000 0.000000 0.000000 0.051458
#
#
# Mechanical properties :
#
#
# Convention : Reuss Voigt Hill
#
# Bulk Modulus (GPa) = 32.85120 33.21860 33.03490
# Shear Modulus (GPa) = 21.19094 23.67349 22.43222
#
# Velocity S-wave (km/s) = 3.57917 3.78302 3.68250
# Velocity P-wave (km/s) = 6.07783 6.25804 6.16859
#
# Compressibility (1/GPa) = 0.03044029
#
# Stress axis : x y z
#
# Youngs Moduli (GPa) = 66.74501 91.89401 52.83164
#
# Poissons Ratio (x) = -0.01832 0.25103
# Poissons Ratio (y) = -0.01330 0.13863
# Poissons Ratio (z) = 0.31714 0.24113
#
# Static dielectric constant tensor:
#      x y z
#    x 3.097660 0.000000 0.000000 
#    y 0.000000 3.100320 0.000000 
#    z 0.000000 0.000000 2.933050 
# 
# 
# High freq. dielectric constant tensor:
#      x y z
#    x 1.611450 0.000000 0.000000 
#    y 0.000000 1.650830 0.000000 
#    z 0.000000 0.000000 1.614340 
# 
# From -- ./inp_files/32471.got.cif
#   From: 2010.03.12/outbox.cif.g09.slc.cpg/sg53_17_cif.got.tgz:32471.got - 2010.04.16 14:36:59.
