data_PCOD8218966
_publ_section_title
;
Structure prediction by ZEFSAII (Michael W. Deem and Ramdas Pophale) SiO2 
 PCOD8218966
Probable space group: P M N A
;
_chemical_formula_sum "Si O2"
_cell_formula_units_Z 56
_cell_length_a 9.035923
_cell_length_b 20.777561
_cell_length_c 15.377815
_cell_angle_alpha 90.000000
_cell_angle_beta 90.000000
_cell_angle_gamma 90.000000
_cell_volume 2887.099286
_symmetry_space_group_name_H-M "P M N A"
_symmetry_group_IT_number 53
_symmetry_cell_setting 'orthorhombic'
loop_
_space_group_symop_operation_xyz
x,y,z
1/2-x,-y,1/2+z
x,-y,-z
1/2-x,y,1/2-z
-x,-y,-z
1/2+x,y,1/2-z
-x,y,z
1/2+x,-y,1/2+z
loop_
_atom_site_type_symbol
_atom_site_label
_atom_site_fract_x
_atom_site_fract_y
_atom_site_fract_z
Si Si1 0.826052 0.645145 0.160122
Si Si2 0.329113 0.145475 0.013762
Si Si3 0.171917 0.497621 0.899204
Si Si4 0.173319 0.081720 0.665857
Si Si5 0.325345 0.621274 0.836413
Si Si6 0.665814 0.033898 0.407425
Si Si7 0.172492 0.292996 0.499110
O O1 0.750000 0.665490 0.250000
O O2 0.786403 0.571712 0.138276
O O3 0.000000 0.656026 0.168262
O O4 0.765612 0.690509 0.084190
O O5 0.500000 0.128838 0.029873
O O6 0.235144 0.105064 0.083711
O O7 0.294203 0.220038 0.028298
O O8 0.284569 0.126251 0.915709
O O9 0.271541 0.548231 0.847848
O O10 0.000000 0.514694 0.885284
O O11 0.214899 0.500000 0.000000
O O12 0.250000 0.113828 0.750000
O O13 0.000000 0.077781 0.681175
O O14 0.235641 0.009258 0.656383
O O15 0.250000 0.650617 0.750000
O O16 0.500000 0.622719 0.824170
O O17 0.274471 0.662839 0.919248
O O18 0.500000 0.040012 0.369937
O O19 0.665782 0.000000 0.500000
O O20 0.000000 0.303606 0.520167
#
# Coordination Sequence:
#
# PCOD8218966 Si02
#       7
#     8   8   8   8   8   8   8
#     4  11  23  38  58  83 115 151 188 235 287 345
#     4   9  19  36  56  77 107 146 184 224 273 327
#     4  10  20  37  60  86 114 144 184 235 291 345
#     4  10  19  32  53  80 110 142 177 222 273 325
#     4  11  23  38  60  85 112 147 189 238 290 344
#     4   9  17  31  52  78 105 134 173 216 259 313
#     4  10  22  40  59  82 113 152 196 238 283 339
#
# _framework density 19.396629999999998
#
# number of rings (size 3 to 8) (size 9 to 14) (size 15 to 20)
#    0.000    2.000    1.429    2.143    0.000    6.571 
#    0.000    2.143    0.000    1.714    0.000    0.000 
#    0.000    0.000    0.000    0.000    0.000    0.000 
#
# Total GULP energy -694614.237872 kJ/mol
# GULP energy per Si atom -12403.825676 kJ/mol
# Density = 1.935248 g / cm^3
# Si number density = 19.396630 Si / 1000 Ang^3
#
#
#
# Elastic Constant Matrix: (Units=GPa)
#
#
# Indices 1 2 3 4 5 6 
#
# 1 71.6259 20.2350 23.1173 0.0000 0.0000 0.0000
# 2 20.2350 69.6299 2.7941 0.0000 0.0000 0.0000
# 3 23.1173 2.7941 70.0217 0.0000 0.0000 0.0000
# 4 0.0000 0.0000 0.0000 15.0810 0.0000 0.0000
# 5 0.0000 0.0000 0.0000 0.0000 34.2440 0.0000
# 6 0.0000 0.0000 0.0000 0.0000 0.0000 25.2439
#
#
#
# Elastic Compliance Matrix: (Units=1/GPa)
#
#
# Indices 1 2 3 4 5 6 
#
# 1 0.017056 -0.004738 -0.005442 0.000000 0.000000 0.000000
# 2 -0.004738 0.015701 0.000938 0.000000 0.000000 0.000000
# 3 -0.005442 0.000938 0.016041 0.000000 0.000000 0.000000
# 4 0.000000 0.000000 0.000000 0.066309 0.000000 0.000000
# 5 0.000000 0.000000 0.000000 0.000000 0.029202 0.000000
# 6 0.000000 0.000000 0.000000 0.000000 0.000000 0.039614
#
#
# Mechanical properties :
#
#
# Convention : Reuss Voigt Hill
#
# Bulk Modulus (GPa) = 32.98928 33.73003 33.35966
# Shear Modulus (GPa) = 23.52812 25.92253 24.72533
#
# Velocity S-wave (km/s) = 3.48659 3.65971 3.57420
# Velocity P-wave (km/s) = 5.76655 5.94015 5.85399
#
# Compressibility (1/GPa) = 0.03031287
#
# Stress axis : x y z
#
# Youngs Moduli (GPa) = 58.62878 63.69019 62.34208
#
# Poissons Ratio (x) = 0.30179 0.33927
# Poissons Ratio (y) = 0.27780 -0.05847
# Poissons Ratio (z) = 0.31906 -0.05973
#
# Static dielectric constant tensor:
#      x y z
#    x 3.562700 0.000000 0.000000 
#    y 0.000000 3.449890 0.000000 
#    z 0.000000 0.000000 3.566570 
# 
# 
# High freq. dielectric constant tensor:
#      x y z
#    x 1.759240 0.000000 0.000000 
#    y 0.000000 1.745040 0.000000 
#    z 0.000000 0.000000 1.753950 
# 
# From -- ./inp_files/20597.got.cif
#   From: 2010.03.12/outbox.cif.g09.slc.cpg/sg53_11_cif.got.tgz:20597.got - 2010.04.16 14:36:59.
