data_PCOD8218436
_publ_section_title
;
Structure prediction by ZEFSAII (Michael W. Deem and Ramdas Pophale) SiO2 
 PCOD8218436
Probable space group: P M N A
;
_chemical_formula_sum "Si O2"
_cell_formula_units_Z 64
_cell_length_a 9.221040
_cell_length_b 15.458302
_cell_length_c 28.438505
_cell_angle_alpha 90.000000
_cell_angle_beta 90.000000
_cell_angle_gamma 90.000000
_cell_volume 4053.670604
_symmetry_space_group_name_H-M "P M N A"
_symmetry_group_IT_number 53
_symmetry_cell_setting 'orthorhombic'
loop_
_space_group_symop_operation_xyz
x,y,z
1/2-x,-y,1/2+z
x,-y,-z
1/2-x,y,1/2-z
-x,-y,-z
1/2+x,y,1/2-z
-x,y,z
1/2+x,-y,1/2+z
loop_
_atom_site_type_symbol
_atom_site_label
_atom_site_fract_x
_atom_site_fract_y
_atom_site_fract_z
Si Si1 0.330251 0.821727 0.950347
Si Si2 0.830798 0.174197 0.952731
Si Si3 0.330958 0.336915 0.612117
Si Si4 0.667245 0.411893 0.204726
Si Si5 0.339971 0.009235 0.944338
Si Si6 0.671360 0.388548 0.797399
Si Si7 0.829082 0.503513 0.946747
Si Si8 0.168512 0.346092 0.394396
O O1 0.500000 0.822115 0.963692
O O2 0.287198 0.914299 0.926725
O O3 0.292398 0.749775 0.911733
O O4 0.243918 0.802187 0.998061
O O5 0.798158 0.249518 0.915885
O O6 0.000000 0.162894 0.962412
O O7 0.770236 0.085159 0.930004
O O8 0.500000 0.345135 0.625368
O O9 0.236187 0.334334 0.659355
O O10 0.280129 0.416759 0.579821
O O11 0.750000 0.375647 0.250000
O O12 0.500000 0.404683 0.217059
O O13 0.709519 0.510990 0.193629
O O14 0.711219 0.353114 0.160372
O O15 0.500000 0.031730 0.924287
O O16 0.347001 0.000000 0.000000
O O17 0.750000 0.356316 0.750000
O O18 0.500000 0.372020 0.793355
O O19 0.759232 0.586601 0.923831
O O20 0.000000 0.515587 0.944843
O O21 0.772723 0.500000 0.000000
O O22 0.000000 0.368490 0.401351
#
# Coordination Sequence:
#
# PCOD8218436 Si02
#       8
#     8   8   8   8   8   8   8   8
#     4   9  18  31  47  66  93 125 154 190 231 274
#     4  10  19  30  46  68  94 123 156 194 230 269
#     4  10  20  32  45  65  94 125 156 189 229 273
#     4   9  18  31  47  67  89 114 149 190 229 269
#     4   8  15  29  46  65  89 119 154 190 232 276
#     4  10  19  32  50  69  90 117 153 194 235 275
#     4  10  20  32  44  61  91 128 158 185 220 264
#     4  10  19  32  47  67  91 119 156 191 224 267
#
# _framework density 15.788161000000001
#
# number of rings (size 3 to 8) (size 9 to 14) (size 15 to 20)
#    0.000    2.500    1.250    2.250    0.000    6.000 
#    0.000    0.000    0.000    0.000    0.000    0.875 
#    0.000    4.000    0.000    0.000    0.000    0.000 
#
# Total GULP energy -793545.975249 kJ/mol
# GULP energy per Si atom -12399.155863 kJ/mol
# Density = 1.575223 g / cm^3
# Si number density = 15.788161 Si / 1000 Ang^3
#
#
#
# Elastic Constant Matrix: (Units=GPa)
#
#
# Indices 1 2 3 4 5 6 
#
# 1 52.1468 35.1862 44.8127 0.0000 0.0000 0.0000
# 2 35.1862 103.6873 50.4740 0.0000 0.0000 0.0000
# 3 44.8127 50.4740 104.1070 0.0000 0.0000 0.0000
# 4 0.0000 0.0000 0.0000 0.9854 0.0000 0.0000
# 5 0.0000 0.0000 0.0000 0.0000 23.0944 0.0000
# 6 0.0000 0.0000 0.0000 0.0000 0.0000 24.3040
#
#
#
# Elastic Compliance Matrix: (Units=1/GPa)
#
#
# Indices 1 2 3 4 5 6 
#
# 1 0.032711 -0.005558 -0.011386 0.000000 0.000000 0.000000
# 2 -0.005558 0.013568 -0.004186 0.000000 0.000000 0.000000
# 3 -0.011386 -0.004186 0.016536 0.000000 0.000000 0.000000
# 4 0.000000 0.000000 0.000000 1.014854 0.000000 0.000000
# 5 0.000000 0.000000 0.000000 0.000000 0.043301 0.000000
# 6 0.000000 0.000000 0.000000 0.000000 0.000000 0.041145
#
#
# Mechanical properties :
#
#
# Convention : Reuss Voigt Hill
#
# Bulk Modulus (GPa) = 48.64742 57.87632 53.26187
# Shear Modulus (GPa) = 4.12805 18.30798 11.21801
#
# Velocity S-wave (km/s) = 1.61874 3.40899 2.66847
# Velocity P-wave (km/s) = 5.86287 7.22721 6.58049
#
# Compressibility (1/GPa) = 0.02055608
#
# Stress axis : x y z
#
# Youngs Moduli (GPa) = 30.57033 73.70239 60.47457
#
# Poissons Ratio (x) = 0.40964 0.68856
# Poissons Ratio (y) = 0.16991 0.25313
# Poissons Ratio (z) = 0.34807 0.30850
#
# Static dielectric constant tensor:
#      x y z
#    x 3.019150 0.000000 0.000000 
#    y 0.000000 3.289960 0.000000 
#    z 0.000000 0.000000 3.107880 
# 
# 
# High freq. dielectric constant tensor:
#      x y z
#    x 1.610040 0.000000 0.000000 
#    y 0.000000 1.597530 0.000000 
#    z 0.000000 0.000000 1.586420 
# 
# From -- ./inp_files/38430.got.cif
#   From: 2010.03.12/outbox.cif.g09.slc.cpg/sg53_20_cif.got.tgz:38430.got - 2010.04.16 14:36:59.
