data_PCOD8218582
_publ_section_title
;
Structure prediction by ZEFSAII (Michael W. Deem and Ramdas Pophale) SiO2 
 PCOD8218582
Probable space group: P M N A
;
_chemical_formula_sum "Si O2"
_cell_formula_units_Z 64
_cell_length_a 9.283031
_cell_length_b 22.949849
_cell_length_c 17.728826
_cell_angle_alpha 90.000000
_cell_angle_beta 90.000000
_cell_angle_gamma 90.000000
_cell_volume 3777.022838
_symmetry_space_group_name_H-M "P M N A"
_symmetry_group_IT_number 53
_symmetry_cell_setting 'orthorhombic'
loop_
_space_group_symop_operation_xyz
x,y,z
1/2-x,-y,1/2+z
x,-y,-z
1/2-x,y,1/2-z
-x,-y,-z
1/2+x,y,1/2-z
-x,y,z
1/2+x,-y,1/2+z
loop_
_atom_site_type_symbol
_atom_site_label
_atom_site_fract_x
_atom_site_fract_y
_atom_site_fract_z
Si Si1 0.832612 0.434692 0.018705
Si Si2 0.661991 0.725373 0.885189
Si Si3 0.170236 0.881641 0.175859
Si Si4 0.328321 0.937124 0.477614
Si Si5 0.340695 0.763370 0.394424
Si Si6 0.170033 0.379568 0.177445
Si Si7 0.839841 0.666443 0.452895
Si Si8 0.339210 0.823569 0.555775
O O1 0.796727 0.420686 0.105882
O O2 0.000000 0.424319 0.002437
O O3 0.784425 0.500000 0.000000
O O4 0.746931 0.393419 0.961561
O O5 0.500000 0.729260 0.851566
O O6 0.762221 0.684456 0.834076
O O7 0.732558 0.789925 0.887065
O O8 0.655746 0.699823 0.968527
O O9 0.250000 0.904663 0.250000
O O10 0.213632 0.814204 0.161389
O O11 0.000000 0.887833 0.186346
O O12 0.225786 0.920907 0.106131
O O13 0.500000 0.937300 0.477642
O O14 0.277751 0.888513 0.538631
O O15 0.264133 0.000000 0.500000
O O16 0.500000 0.742168 0.370720
O O17 0.234869 0.707904 0.390584
O O18 0.348513 0.788942 0.477983
O O19 0.250000 0.407806 0.250000
O O20 0.000000 0.373727 0.192087
O O21 0.000000 0.651729 0.424385
O O22 0.500000 0.826434 0.591354
#
# Coordination Sequence:
#
# PCOD8218582 Si02
#       8
#     8   8   8   8   8   8   8   8
#     4   9  18  32  49  68  91 123 160 191 222 268
#     4   9  16  26  41  63  90 115 140 174 220 270
#     4   9  17  28  44  66  90 117 149 189 236 282
#     4   8  14  26  45  67  89 118 160 200 230 271
#     4   8  14  25  40  59  84 112 140 172 216 270
#     4  10  19  31  48  69  93 119 149 188 232 277
#     4   9  16  25  41  66  90 111 139 180 224 259
#     4   8  13  23  41  63  84 108 142 182 221 262
#
# _framework density 16.944562999999999
#
# number of rings (size 3 to 8) (size 9 to 14) (size 15 to 20)
#    0.000    3.250    0.000    2.625    0.000    4.250 
#    0.000    1.875    0.000    3.000    0.000    3.500 
#    0.000    0.000    0.000    0.000    0.000    0.000 
#
# Total GULP energy -793242.095193 kJ/mol
# GULP energy per Si atom -12394.407737 kJ/mol
# Density = 1.690600 g / cm^3
# Si number density = 16.944563 Si / 1000 Ang^3
#
#
#
# Elastic Constant Matrix: (Units=GPa)
#
#
# Indices 1 2 3 4 5 6 
#
# 1 82.7915 54.4506 30.8133 0.0000 0.0000 0.0000
# 2 54.4506 132.8151 40.3334 0.0000 0.0000 0.0000
# 3 30.8133 40.3334 56.3973 0.0000 0.0000 0.0000
# 4 0.0000 0.0000 0.0000 15.3859 0.0000 0.0000
# 5 0.0000 0.0000 0.0000 0.0000 22.3676 0.0000
# 6 0.0000 0.0000 0.0000 0.0000 0.0000 15.4110
#
#
#
# Elastic Compliance Matrix: (Units=1/GPa)
#
#
# Indices 1 2 3 4 5 6 
#
# 1 0.017905 -0.005582 -0.005790 0.000000 0.000000 0.000000
# 2 -0.005582 0.011358 -0.005073 0.000000 0.000000 0.000000
# 3 -0.005790 -0.005073 0.024523 0.000000 0.000000 0.000000
# 4 0.000000 0.000000 0.000000 0.064994 0.000000 0.000000
# 5 0.000000 0.000000 0.000000 0.000000 0.044708 0.000000
# 6 0.000000 0.000000 0.000000 0.000000 0.000000 0.064889
#
#
# Mechanical properties :
#
#
# Convention : Reuss Voigt Hill
#
# Bulk Modulus (GPa) = 47.85853 58.13317 52.99585
# Shear Modulus (GPa) = 18.64046 20.39335 19.51690
#
# Velocity S-wave (km/s) = 3.32035 3.47296 3.39751
# Velocity P-wave (km/s) = 6.55783 7.10382 6.83628
#
# Compressibility (1/GPa) = 0.02089492
#
# Stress axis : x y z
#
# Youngs Moduli (GPa) = 55.85082 88.04036 40.77763
#
# Poissons Ratio (x) = 0.49145 0.23612
# Poissons Ratio (y) = 0.31176 0.20688
# Poissons Ratio (z) = 0.32340 0.44666
#
# Static dielectric constant tensor:
#      x y z
#    x 3.230370 0.000000 0.000000 
#    y 0.000000 3.274410 0.000000 
#    z 0.000000 0.000000 2.910290 
# 
# 
# High freq. dielectric constant tensor:
#      x y z
#    x 1.646820 0.000000 0.000000 
#    y 0.000000 1.640450 0.000000 
#    z 0.000000 0.000000 1.615560 
# 
# From -- ./inp_files/27076.got.cif
#   From: 2010.03.12/outbox.cif.g09.slc.cpg/sg53_14_cif.got.tgz:27076.got - 2010.04.16 14:36:59.
