data_PCOD8218277
_publ_section_title
;
Structure prediction by ZEFSAII (Michael W. Deem and Ramdas Pophale) SiO2 
 PCOD8218277
Probable space group: P M N A
;
_chemical_formula_sum "Si O2"
_cell_formula_units_Z 64
_cell_length_a 19.115129
_cell_length_b 11.457659
_cell_length_c 14.677497
_cell_angle_alpha 90.000000
_cell_angle_beta 90.000000
_cell_angle_gamma 90.000000
_cell_volume 3214.586572
_symmetry_space_group_name_H-M "P M N A"
_symmetry_group_IT_number 53
_symmetry_cell_setting 'orthorhombic'
loop_
_space_group_symop_operation_xyz
x,y,z
1/2-x,-y,1/2+z
x,-y,-z
1/2-x,y,1/2-z
-x,-y,-z
1/2+x,y,1/2-z
-x,y,z
1/2+x,-y,1/2+z
loop_
_atom_site_type_symbol
_atom_site_label
_atom_site_fract_x
_atom_site_fract_y
_atom_site_fract_z
Si Si1 0.807256 0.921275 0.321986
Si Si2 0.420276 0.588300 0.605808
Si Si3 0.580353 0.397541 0.882415
Si Si4 0.207673 0.726255 0.465754
Si Si5 0.920558 0.209193 0.772112
Si Si6 0.355789 0.344047 0.572072
Si Si7 0.578271 0.348515 0.189576
Si Si8 0.704857 0.193822 0.161805
O O1 0.750000 0.876003 0.250000
O O2 0.802418 0.849217 0.415070
O O3 0.882487 0.900337 0.275051
O O4 0.796721 0.055411 0.345489
O O5 0.500000 0.564307 0.576857
O O6 0.380739 0.465937 0.612596
O O7 0.383697 0.671347 0.531113
O O8 0.415885 0.648752 0.702180
O O9 0.500000 0.390034 0.920134
O O10 0.635510 0.349452 0.957879
O O11 0.586993 0.323590 0.790435
O O12 0.601047 0.529813 0.857336
O O13 0.271487 0.654946 0.421238
O O14 0.234210 0.752424 0.568227
O O15 0.886401 0.237099 0.869535
O O16 0.000000 0.171344 0.786780
O O17 0.500000 0.318036 0.158667
O O18 0.626159 0.240965 0.162217
O O19 0.750000 0.235177 0.250000
#
# Coordination Sequence:
#
# PCOD8218277 Si02
#       8
#     8   8   8   8   8   8   8   8
#     4  10  21  41  62  86 113 153 200 255 306 348
#     4  10  20  34  54  88 131 165 192 236 302 376
#     4   9  20  37  59  86 118 153 194 244 299 357
#     4  11  23  38  62  89 117 154 200 255 309 360
#     4  10  18  34  60  90 120 151 194 247 301 354
#     4  11  19  31  56  92 124 158 197 238 299 365
#     4  10  21  39  59  81 119 163 199 242 298 360
#     4  11  25  42  59  82 116 159 206 249 303 367
#
# _framework density 19.909247000000001
#
# number of rings (size 3 to 8) (size 9 to 14) (size 15 to 20)
#    0.000    1.750    2.500    2.625    0.000    4.500 
#    0.000    1.250    0.000    3.750    0.000    4.375 
#    0.000    0.000    0.000    0.000    0.000    0.000 
#
# Total GULP energy -793481.588243 kJ/mol
# GULP energy per Si atom -12398.149816 kJ/mol
# Density = 1.986393 g / cm^3
# Si number density = 19.909247 Si / 1000 Ang^3
#
#
#
# Elastic Constant Matrix: (Units=GPa)
#
#
# Indices 1 2 3 4 5 6 
#
# 1 134.6675 25.4445 29.1396 0.0000 0.0000 0.0000
# 2 25.4445 27.2402 13.0201 0.0000 0.0000 0.0000
# 3 29.1396 13.0201 86.7863 0.0000 0.0000 0.0000
# 4 0.0000 0.0000 0.0000 23.5684 0.0000 0.0000
# 5 0.0000 0.0000 0.0000 0.0000 29.4428 0.0000
# 6 0.0000 0.0000 0.0000 0.0000 0.0000 30.5777
#
#
#
# Elastic Compliance Matrix: (Units=1/GPa)
#
#
# Indices 1 2 3 4 5 6 
#
# 1 0.009318 -0.007765 -0.001964 0.000000 0.000000 0.000000
# 2 -0.007765 0.046017 -0.004297 0.000000 0.000000 0.000000
# 3 -0.001964 -0.004297 0.012826 0.000000 0.000000 0.000000
# 4 0.000000 0.000000 0.000000 0.042430 0.000000 0.000000
# 5 0.000000 0.000000 0.000000 0.000000 0.033964 0.000000
# 6 0.000000 0.000000 0.000000 0.000000 0.000000 0.032704
#
#
# Mechanical properties :
#
#
# Convention : Reuss Voigt Hill
#
# Bulk Modulus (GPa) = 24.93076 42.65584 33.79330
# Shear Modulus (GPa) = 22.86454 28.79042 25.82748
#
# Velocity S-wave (km/s) = 3.39254 3.80687 3.60566
# Velocity P-wave (km/s) = 5.28158 6.38707 5.86045
#
# Compressibility (1/GPa) = 0.04011109
#
# Stress axis : x y z
#
# Youngs Moduli (GPa) = 107.32241 21.73106 77.96384
#
# Poissons Ratio (x) = 0.16874 0.15309
# Poissons Ratio (y) = 0.83335 0.33497
# Poissons Ratio (z) = 0.21074 0.09337
#
# Static dielectric constant tensor:
#      x y z
#    x 3.815740 0.000000 0.000000 
#    y 0.000000 3.270860 0.000000 
#    z 0.000000 0.000000 3.749780 
# 
# 
# High freq. dielectric constant tensor:
#      x y z
#    x 1.786380 0.000000 0.000000 
#    y 0.000000 1.749390 0.000000 
#    z 0.000000 0.000000 1.786840 
# 
# From -- ./inp_files/23902.got.cif
#   From: 2010.03.12/outbox.cif.g09.slc.cpg/sg53_12_cif.got.tgz:23902.got - 2010.04.16 14:36:59.
