data_PCOD8218783
_publ_section_title
;
Structure prediction by ZEFSAII (Michael W. Deem and Ramdas Pophale) SiO2 
 PCOD8218783
Probable space group: P M N A
;
_chemical_formula_sum "Si O2"
_cell_formula_units_Z 64
_cell_length_a 9.471857
_cell_length_b 15.902748
_cell_length_c 22.839512
_cell_angle_alpha 90.000000
_cell_angle_beta 90.000000
_cell_angle_gamma 90.000000
_cell_volume 3440.282689
_symmetry_space_group_name_H-M "P M N A"
_symmetry_group_IT_number 53
_symmetry_cell_setting 'orthorhombic'
loop_
_space_group_symop_operation_xyz
x,y,z
1/2-x,-y,1/2+z
x,-y,-z
1/2-x,y,1/2-z
-x,-y,-z
1/2+x,y,1/2-z
-x,y,z
1/2+x,-y,1/2+z
loop_
_atom_site_type_symbol
_atom_site_label
_atom_site_fract_x
_atom_site_fract_y
_atom_site_fract_z
Si Si1 0.166203 0.031303 0.806256
Si Si2 0.834237 0.553592 0.412084
Si Si3 0.666170 0.674429 0.188718
Si Si4 0.666764 0.380547 0.036204
Si Si5 0.656291 0.159583 0.300940
Si Si6 0.160325 0.221159 0.073995
Si Si7 0.659090 0.152721 0.877705
Si Si8 0.659312 0.097246 0.006533
O O1 0.250000 0.065933 0.750000
O O2 0.205919 0.934435 0.817699
O O3 0.000000 0.047406 0.799013
O O4 0.225726 0.083815 0.860193
O O5 0.777518 0.596777 0.352104
O O6 0.777584 0.597546 0.471198
O O7 0.796016 0.454811 0.417254
O O8 0.000000 0.566773 0.412433
O O9 0.750000 0.675008 0.250000
O O10 0.500000 0.666291 0.202967
O O11 0.698007 0.757782 0.150806
O O12 0.500000 0.362777 0.036518
O O13 0.749064 0.299155 0.054657
O O14 0.750000 0.199778 0.250000
O O15 0.500000 0.153922 0.274983
O O16 0.663492 0.220373 0.356018
O O17 0.000000 0.227583 0.050725
O O18 0.229604 0.135144 0.051841
O O19 0.500000 0.126371 0.858703
O O20 0.668594 0.153899 0.947892
O O21 0.500000 0.102723 0.031774
O O22 0.701909 0.000000 0.000000
#
# Coordination Sequence:
#
# PCOD8218783 Si02
#       8
#     8   8   8   8   8   8   8   8
#     4  10  19  32  50  70  95 131 175 217 256 300
#     4   8  16  34  59  81 101 129 171 219 260 305
#     4  10  20  34  51  74 106 141 175 213 260 315
#     4   9  17  34  61  84 100 130 174 214 259 316
#     4   9  20  36  52  71  97 132 171 210 252 299
#     4  11  22  35  52  79 112 138 165 209 265 317
#     4  10  20  33  50  74 104 136 175 221 261 308
#     4  10  21  36  55  79 106 141 185 228 269 315
#
# _framework density 18.603123
#
# number of rings (size 3 to 8) (size 9 to 14) (size 15 to 20)
#    0.000    2.375    0.000    3.375    0.000    5.750 
#    0.000    4.375    0.000    3.000    0.000    0.000 
#    0.000    0.000    0.000    0.000    0.000    0.000 
#
# Total GULP energy -793366.391986 kJ/mol
# GULP energy per Si atom -12396.349875 kJ/mol
# Density = 1.856078 g / cm^3
# Si number density = 18.603123 Si / 1000 Ang^3
#
#
#
# Elastic Constant Matrix: (Units=GPa)
#
#
# Indices 1 2 3 4 5 6 
#
# 1 80.3093 43.5479 36.8185 0.0000 0.0000 0.0000
# 2 43.5479 92.9390 38.6718 0.0000 0.0000 0.0000
# 3 36.8185 38.6718 85.8820 0.0000 0.0000 0.0000
# 4 0.0000 0.0000 0.0000 31.0489 0.0000 0.0000
# 5 0.0000 0.0000 0.0000 0.0000 29.8197 0.0000
# 6 0.0000 0.0000 0.0000 0.0000 0.0000 13.6538
#
#
#
# Elastic Compliance Matrix: (Units=1/GPa)
#
#
# Indices 1 2 3 4 5 6 
#
# 1 0.018217 -0.006505 -0.004881 0.000000 0.000000 0.000000
# 2 -0.006505 0.015563 -0.004219 0.000000 0.000000 0.000000
# 3 -0.004881 -0.004219 0.015636 0.000000 0.000000 0.000000
# 4 0.000000 0.000000 0.000000 0.032207 0.000000 0.000000
# 5 0.000000 0.000000 0.000000 0.000000 0.033535 0.000000
# 6 0.000000 0.000000 0.000000 0.000000 0.000000 0.073239
#
#
# Mechanical properties :
#
#
# Convention : Reuss Voigt Hill
#
# Bulk Modulus (GPa) = 54.92507 55.24518 55.08513
# Shear Modulus (GPa) = 22.15563 24.24397 23.19980
#
# Velocity S-wave (km/s) = 3.45478 3.61393 3.53525
# Velocity P-wave (km/s) = 6.74557 6.86842 6.80727
#
# Compressibility (1/GPa) = 0.01820662
#
# Stress axis : x y z
#
# Youngs Moduli (GPa) = 54.89462 64.25348 63.95438
#
# Poissons Ratio (x) = 0.41796 0.31214
# Poissons Ratio (y) = 0.35708 0.26984
# Poissons Ratio (z) = 0.26792 0.27110
#
# Static dielectric constant tensor:
#      x y z
#    x 3.331790 0.000000 0.000000 
#    y 0.000000 3.399460 0.000000 
#    z 0.000000 0.000000 3.543780 
# 
# 
# High freq. dielectric constant tensor:
#      x y z
#    x 1.709260 0.000000 0.000000 
#    y 0.000000 1.716110 0.000000 
#    z 0.000000 0.000000 1.719320 
# 
# From -- ./inp_files/34230.got.cif
#   From: 2010.03.12/outbox.cif.g09.slc.cpg/sg53_18_cif.got.tgz:34230.got - 2010.04.16 14:36:59.
