data_PCOD8218547
_publ_section_title
;
Structure prediction by ZEFSAII (Michael W. Deem and Ramdas Pophale) SiO2 
 PCOD8218547
Probable space group: P M N A
;
_chemical_formula_sum "Si O2"
_cell_formula_units_Z 56
_cell_length_a 8.530601
_cell_length_b 12.773868
_cell_length_c 25.655366
_cell_angle_alpha 90.000000
_cell_angle_beta 90.000000
_cell_angle_gamma 90.000000
_cell_volume 2795.633706
_symmetry_space_group_name_H-M "P M N A"
_symmetry_group_IT_number 53
_symmetry_cell_setting 'orthorhombic'
loop_
_space_group_symop_operation_xyz
x,y,z
1/2-x,-y,1/2+z
x,-y,-z
1/2-x,y,1/2-z
-x,-y,-z
1/2+x,y,1/2-z
-x,y,z
1/2+x,-y,1/2+z
loop_
_atom_site_type_symbol
_atom_site_label
_atom_site_fract_x
_atom_site_fract_y
_atom_site_fract_z
Si Si1 0.186492 0.303777 0.492380
Si Si2 0.313577 0.036430 0.157061
Si Si3 0.813835 0.417756 0.391416
Si Si4 0.186132 0.258629 0.304636
Si Si5 0.186659 0.650955 0.392487
Si Si6 0.686989 0.079358 0.042488
Si Si7 0.686415 0.187290 0.805580
O O1 0.242628 0.390440 0.450278
O O2 0.255620 0.324609 0.549981
O O3 0.251133 0.193632 0.471443
O O4 0.000000 0.302706 0.496022
O O5 0.500000 0.034031 0.156530
O O6 0.248797 0.930081 0.183296
O O7 0.252662 0.139576 0.187224
O O8 0.248771 0.042789 0.098326
O O9 0.745972 0.334409 0.349802
O O10 0.756444 0.534395 0.376679
O O11 0.000000 0.411348 0.389915
O O12 0.250000 0.301248 0.250000
O O13 0.000000 0.261525 0.305164
O O14 0.251051 0.734042 0.350186
O O15 0.000000 0.656906 0.394100
O O16 0.500000 0.079744 0.042684
O O17 0.754592 0.000000 0.000000
O O18 0.750000 0.225904 0.750000
O O19 0.500000 0.188970 0.804975
#
# Coordination Sequence:
#
# PCOD8218547 Si02
#       7
#     8   8   8   8   8   8   8
#     4   9  14  23  39  63  93 121 148 182 230 282
#     4   9  16  28  43  63  92 121 150 186 229 274
#     4   9  16  27  42  63  92 123 151 185 231 279
#     4  10  19  31  47  67  92 122 155 190 228 269
#     4   9  17  27  42  65  93 122 151 185 230 278
#     4   9  14  20  35  60  92 123 146 177 228 282
#     4  10  20  33  48  67  93 124 157 192 228 269
#
# _framework density 20.031236
#
# number of rings (size 3 to 8) (size 9 to 14) (size 15 to 20)
#    0.000    2.714    1.429    1.714    0.000    5.714 
#    0.000    0.000    0.000    0.000    0.000    1.000 
#    0.000    4.571    0.000    0.000    0.000    0.000 
#
# Total GULP energy -694147.308026 kJ/mol
# GULP energy per Si atom -12395.487643 kJ/mol
# Density = 1.998564 g / cm^3
# Si number density = 20.031236 Si / 1000 Ang^3
#
#
#
# Elastic Constant Matrix: (Units=GPa)
#
#
# Indices 1 2 3 4 5 6 
#
# 1 2.9037 7.1839 6.8781 0.0000 0.0000 0.0000
# 2 7.1839 154.0974 79.2617 0.0000 0.0000 0.0000
# 3 6.8781 79.2617 180.5618 0.0000 0.0000 0.0000
# 4 0.0000 0.0000 0.0000 31.4693 0.0000 0.0000
# 5 0.0000 0.0000 0.0000 0.0000 17.8915 0.0000
# 6 0.0000 0.0000 0.0000 0.0000 0.0000 5.0677
#
#
#
# Elastic Compliance Matrix: (Units=1/GPa)
#
#
# Indices 1 2 3 4 5 6 
#
# 1 0.400588 -0.013984 -0.009121 0.000000 0.000000 0.000000
# 2 -0.013984 0.008870 -0.003361 0.000000 0.000000 0.000000
# 3 -0.009121 -0.003361 0.007361 0.000000 0.000000 0.000000
# 4 0.000000 0.000000 0.000000 0.031777 0.000000 0.000000
# 5 0.000000 0.000000 0.000000 0.000000 0.055893 0.000000
# 6 0.000000 0.000000 0.000000 0.000000 0.000000 0.197328
#
#
# Mechanical properties :
#
#
# Convention : Reuss Voigt Hill
#
# Bulk Modulus (GPa) = 2.74810 58.24560 30.49685
# Shear Modulus (GPa) = 5.70748 27.16831 16.43790
#
# Velocity S-wave (km/s) = 1.68982 3.68679 2.86774
# Velocity P-wave (km/s) = 2.27644 6.87486 5.12084
#
# Compressibility (1/GPa) = 0.36388737
#
# Stress axis : x y z
#
# Youngs Moduli (GPa) = 2.49633 112.73824 135.84860
#
# Poissons Ratio (x) = 1.57648 1.23909
# Poissons Ratio (y) = 0.03491 0.45660
# Poissons Ratio (z) = 0.02277 0.37892
#
# Static dielectric constant tensor:
#      x y z
#    x 2.734150 0.000000 0.000000 
#    y 0.000000 3.950480 0.000000 
#    z 0.000000 0.000000 3.883050 
# 
# 
# High freq. dielectric constant tensor:
#      x y z
#    x 1.690340 0.000000 0.000000 
#    y 0.000000 1.794070 0.000000 
#    z 0.000000 0.000000 1.797120 
# 
# From -- ./inp_files/31944.got.cif
#   From: 2010.03.12/outbox.cif.g09.slc.cpg/sg53_16_cif.got.tgz:31944.got - 2010.04.16 14:36:59.
