data_PCOD8218779
_publ_section_title
;
Structure prediction by ZEFSAII (Michael W. Deem and Ramdas Pophale) SiO2 
 PCOD8218779
Probable space group: P M N A
;
_chemical_formula_sum "Si O2"
_cell_formula_units_Z 48
_cell_length_a 8.532978
_cell_length_b 9.536958
_cell_length_c 30.805127
_cell_angle_alpha 90.000000
_cell_angle_beta 90.000000
_cell_angle_gamma 90.000000
_cell_volume 2506.879735
_symmetry_space_group_name_H-M "P M N A"
_symmetry_group_IT_number 53
_symmetry_cell_setting 'orthorhombic'
loop_
_space_group_symop_operation_xyz
x,y,z
1/2-x,-y,1/2+z
x,-y,-z
1/2-x,y,1/2-z
-x,-y,-z
1/2+x,y,1/2-z
-x,y,z
1/2+x,-y,1/2+z
loop_
_atom_site_type_symbol
_atom_site_label
_atom_site_fract_x
_atom_site_fract_y
_atom_site_fract_z
Si Si1 0.314407 0.651123 0.703202
Si Si2 0.315168 0.350008 0.796671
Si Si3 0.313711 0.155461 0.374536
Si Si4 0.313203 0.837316 0.371631
Si Si5 0.313389 0.659824 0.547397
Si Si6 0.313946 0.345453 0.548754
O O1 0.250000 0.696027 0.750000
O O2 0.500000 0.645186 0.705259
O O3 0.254101 0.499088 0.688497
O O4 0.253944 0.764644 0.668425
O O5 0.250000 0.305262 0.750000
O O6 0.500000 0.363204 0.793942
O O7 0.264794 0.230999 0.829908
O O8 0.500000 0.158896 0.376296
O O9 0.244100 0.232418 0.417244
O O10 0.252889 0.996699 0.373856
O O11 0.500000 0.827297 0.367634
O O12 0.249229 0.759742 0.414762
O O13 0.500000 0.661470 0.548930
O O14 0.253566 0.502912 0.558546
O O15 0.255570 0.703235 0.499066
O O16 0.500000 0.344052 0.549493
#
# Coordination Sequence:
#
# PCOD8218779 Si02
#       6
#     8   8   8   8   8   8
#     4  10  19  34  54  76  99 128 164 208 252 298
#     4  11  22  37  56  77  98 128 167 210 252 299
#     4   9  18  29  46  73 107 138 168 205 251 300
#     4  10  19  32  49  75 107 139 168 203 250 301
#     4   8  13  24  41  69 102 134 170 210 250 290
#     4   8  14  24  44  70 101 135 169 208 250 290
#
# _framework density 19.147310000000001
#
# number of rings (size 3 to 8) (size 9 to 14) (size 15 to 20)
#    0.000    2.667    0.000    5.000    0.000    4.000 
#    0.000    6.667    0.000    0.000    0.000   12.833 
#    0.000    0.000    0.000    0.000    0.000    0.000 
#
# Total GULP energy -595084.255334 kJ/mol
# GULP energy per Si atom -12397.588653 kJ/mol
# Density = 1.910373 g / cm^3
# Si number density = 19.147310 Si / 1000 Ang^3
#
#
#
# Elastic Constant Matrix: (Units=GPa)
#
#
# Indices 1 2 3 4 5 6 
#
# 1 46.1497 21.9635 26.8602 0.0000 0.0000 0.0000
# 2 21.9635 163.6817 120.0027 0.0000 0.0000 0.0000
# 3 26.8602 120.0027 171.8324 0.0000 0.0000 0.0000
# 4 0.0000 0.0000 0.0000 20.6448 0.0000 0.0000
# 5 0.0000 0.0000 0.0000 0.0000 18.5700 0.0000
# 6 0.0000 0.0000 0.0000 0.0000 0.0000 20.0673
#
#
#
# Elastic Compliance Matrix: (Units=1/GPa)
#
#
# Indices 1 2 3 4 5 6 
#
# 1 0.023911 -0.000959 -0.003068 0.000000 0.000000 0.000000
# 2 -0.000959 0.012558 -0.008620 0.000000 0.000000 0.000000
# 3 -0.003068 -0.008620 0.012319 0.000000 0.000000 0.000000
# 4 0.000000 0.000000 0.000000 0.048438 0.000000 0.000000
# 5 0.000000 0.000000 0.000000 0.000000 0.053850 0.000000
# 6 0.000000 0.000000 0.000000 0.000000 0.000000 0.049832
#
#
# Mechanical properties :
#
#
# Convention : Reuss Voigt Hill
#
# Bulk Modulus (GPa) = 42.56500 79.92405 61.24452
# Shear Modulus (GPa) = 21.36439 26.04559 23.70499
#
# Velocity S-wave (km/s) = 3.34397 3.69219 3.52239
# Velocity P-wave (km/s) = 6.09820 7.74652 6.97125
#
# Compressibility (1/GPa) = 0.02349348
#
# Stress axis : x y z
#
# Youngs Moduli (GPa) = 41.82240 79.63051 81.17407
#
# Poissons Ratio (x) = 0.07640 0.24901
# Poissons Ratio (y) = 0.04013 0.69973
# Poissons Ratio (z) = 0.12829 0.68643
#
# Static dielectric constant tensor:
#      x y z
#    x 2.997320 0.000000 0.000000 
#    y 0.000000 3.676390 0.000000 
#    z 0.000000 0.000000 3.869590 
# 
# 
# High freq. dielectric constant tensor:
#      x y z
#    x 1.694740 0.000000 0.000000 
#    y 0.000000 1.742680 0.000000 
#    z 0.000000 0.000000 1.761960 
# 
# From -- ./inp_files/37779.got.cif
#   From: 2010.03.12/outbox.cif.g09.slc.cpg/sg53_19_cif.got.tgz:37779.got - 2010.04.16 14:36:59.
