data_PCOD8218013
_publ_section_title
;
Structure prediction by ZEFSAII (Michael W. Deem and Ramdas Pophale) SiO2 
 PCOD8218013
Probable space group: P M N A
;
_chemical_formula_sum "Si O2"
_cell_formula_units_Z 48
_cell_length_a 8.636505
_cell_length_b 19.598740
_cell_length_c 14.656217
_cell_angle_alpha 90.000000
_cell_angle_beta 90.000000
_cell_angle_gamma 90.000000
_cell_volume 2480.778943
_symmetry_space_group_name_H-M "P M N A"
_symmetry_group_IT_number 53
_symmetry_cell_setting 'orthorhombic'
loop_
_space_group_symop_operation_xyz
x,y,z
1/2-x,-y,1/2+z
x,-y,-z
1/2-x,y,1/2-z
-x,-y,-z
1/2+x,y,1/2-z
-x,y,z
1/2+x,-y,1/2+z
loop_
_atom_site_type_symbol
_atom_site_label
_atom_site_fract_x
_atom_site_fract_y
_atom_site_fract_z
Si Si1 0.183519 0.638176 0.650092
Si Si2 0.815722 0.105378 0.499995
Si Si3 0.316136 0.499997 0.648795
Si Si4 0.183249 0.742734 0.500004
Si Si5 0.317022 0.999997 0.148925
Si Si6 0.316482 0.638182 0.150093
O O1 0.250000 0.650854 0.750000
O O2 0.252260 0.569338 0.602988
O O3 0.237901 0.702188 0.589697
O O4 0.000000 0.630724 0.654483
O O5 0.743414 0.181465 0.499993
O O6 0.760133 0.066330 0.591751
O O7 0.000000 0.107367 0.499996
O O8 0.760135 0.066327 0.408242
O O9 0.250000 0.499995 0.750000
O O10 0.500000 0.499999 0.646747
O O11 0.252265 0.430654 0.602988
O O12 0.237891 0.702195 0.410303
O O13 0.000000 0.748391 0.500009
O O14 0.250000 0.999993 0.250000
O O15 0.500000 0.999996 0.157566
O O16 0.250000 0.650863 0.250000
O O17 0.500000 0.630726 0.154485
#
# Coordination Sequence:
#
# PCOD8218013 Si02
#       6
#     8   8   8   8   8   8
#     4  10  19  33  51  72  96 128 167 210 251 295
#     4   8  16  33  51  73 103 137 168 197 236 295
#     4  10  18  31  50  71  96 128 164 209 253 297
#     4   9  19  33  51  72 100 135 170 200 240 299
#     4   9  17  31  56  80 102 131 167 203 240 286
#     4  10  19  33  51  72  96 128 167 210 251 295
#
# _framework density 19.348762000000001
#
# number of rings (size 3 to 8) (size 9 to 14) (size 15 to 20)
#    0.000    2.667    0.000    5.500    0.000    2.000 
#    0.000    8.333    0.000    6.000    0.000    0.000 
#    0.000    0.000    0.000    0.000    0.000    0.000 
#
# Total GULP energy -594870.493320 kJ/mol
# GULP energy per Si atom -12393.135277 kJ/mol
# Density = 1.930472 g / cm^3
# Si number density = 19.348762 Si / 1000 Ang^3
#
#
#
# Elastic Constant Matrix: (Units=GPa)
#
#
# Indices 1 2 3 4 5 6 
#
# 1 76.7259 39.9788 30.4681 0.0000 0.0000 0.0000
# 2 39.9788 218.4679 93.2081 0.0000 0.0000 0.0000
# 3 30.4681 93.2081 141.8908 0.0000 0.0000 0.0000
# 4 0.0000 0.0000 0.0000 27.4345 0.0000 0.0000
# 5 0.0000 0.0000 0.0000 0.0000 25.7870 0.0000
# 6 0.0000 0.0000 0.0000 0.0000 0.0000 17.1901
#
#
#
# Elastic Compliance Matrix: (Units=1/GPa)
#
#
# Indices 1 2 3 4 5 6 
#
# 1 0.014782 -0.001877 -0.001941 0.000000 0.000000 0.000000
# 2 -0.001877 0.006598 -0.003931 0.000000 0.000000 0.000000
# 3 -0.001941 -0.003931 0.010047 0.000000 0.000000 0.000000
# 4 0.000000 0.000000 0.000000 0.036450 0.000000 0.000000
# 5 0.000000 0.000000 0.000000 0.000000 0.038779 0.000000
# 6 0.000000 0.000000 0.000000 0.000000 0.000000 0.058173
#
#
# Mechanical properties :
#
#
# Convention : Reuss Voigt Hill
#
# Bulk Modulus (GPa) = 62.78053 84.93273 73.85663
# Shear Modulus (GPa) = 26.93412 32.31097 29.62254
#
# Velocity S-wave (km/s) = 3.73504 4.09090 3.91702
# Velocity P-wave (km/s) = 7.14968 8.14279 7.66234
#
# Compressibility (1/GPa) = 0.01592851
#
# Stress axis : x y z
#
# Youngs Moduli (GPa) = 67.64868 151.56050 99.53277
#
# Poissons Ratio (x) = 0.28446 0.19322
# Poissons Ratio (y) = 0.12697 0.39129
# Poissons Ratio (z) = 0.13132 0.59582
#
# Static dielectric constant tensor:
#      x y z
#    x 3.225680 0.000000 0.000000 
#    y 0.000000 4.380110 0.000000 
#    z 0.000000 0.000000 3.667380 
# 
# 
# High freq. dielectric constant tensor:
#      x y z
#    x 1.725890 0.000000 0.000000 
#    y 0.000000 1.762830 0.000000 
#    z 0.000000 0.000000 1.749480 
# 
# From -- ./inp_files/20342.got.cif
#   From: 2010.03.12/outbox.cif.g09.slc.cpg/sg53_11_cif.got.tgz:20342.got - 2010.04.16 14:36:59.
