data_PCOD8218861
_publ_section_title
;
Structure prediction by ZEFSAII (Michael W. Deem and Ramdas Pophale) SiO2 
 PCOD8218861
Probable space group: P M N A
;
_chemical_formula_sum "Si O2"
_cell_formula_units_Z 64
_cell_length_a 8.869955
_cell_length_b 17.912531
_cell_length_c 19.775127
_cell_angle_alpha 90.000000
_cell_angle_beta 90.000000
_cell_angle_gamma 90.000000
_cell_volume 3141.938304
_symmetry_space_group_name_H-M "P M N A"
_symmetry_group_IT_number 53
_symmetry_cell_setting 'orthorhombic'
loop_
_space_group_symop_operation_xyz
x,y,z
1/2-x,-y,1/2+z
x,-y,-z
1/2-x,y,1/2-z
-x,-y,-z
1/2+x,y,1/2-z
-x,y,z
1/2+x,-y,1/2+z
loop_
_atom_site_type_symbol
_atom_site_label
_atom_site_fract_x
_atom_site_fract_y
_atom_site_fract_z
Si Si1 0.320470 0.867181 0.823024
Si Si2 0.179129 0.074752 0.040444
Si Si3 0.667329 0.304656 0.159217
Si Si4 0.327117 0.796067 0.447785
Si Si5 0.836229 0.332791 0.492946
Si Si6 0.675112 0.552742 0.685202
Si Si7 0.319934 0.710718 0.320753
Si Si8 0.327285 0.431577 0.889076
O O1 0.250000 0.890756 0.750000
O O2 0.500000 0.878068 0.820218
O O3 0.255275 0.917594 0.884862
O O4 0.276092 0.780784 0.838180
O O5 0.000000 0.081775 0.052111
O O6 0.250057 0.136848 0.989512
O O7 0.221516 0.000000 0.000000
O O8 0.500000 0.310141 0.192085
O O9 0.788229 0.358852 0.193839
O O10 0.659912 0.342385 0.086194
O O11 0.500000 0.817276 0.444789
O O12 0.301553 0.721217 0.490179
O O13 0.269922 0.778288 0.371734
O O14 0.812259 0.411401 0.531347
O O15 0.000000 0.299499 0.516963
O O16 0.750000 0.511951 0.750000
O O17 0.500000 0.540063 0.684666
O O18 0.746131 0.511360 0.620365
O O19 0.250000 0.734895 0.250000
O O20 0.500000 0.703387 0.317345
O O21 0.252359 0.632275 0.344525
O O22 0.500000 0.438318 0.865796
#
# Coordination Sequence:
#
# PCOD8218861 Si02
#       8
#     8   8   8   8   8   8   8   8
#     4  11  23  40  65  94 126 161 202 248 294 353
#     4  10  21  39  64  93 125 161 197 238 291 352
#     4  10  21  38  59  85 115 148 191 242 295 350
#     4   9  18  33  55  82 114 150 190 236 285 341
#     4   9  18  34  57  83 110 144 186 234 287 346
#     4  12  25  39  54  74 105 146 193 244 298 355
#     4  10  19  32  51  78 109 145 192 242 293 347
#     4  10  20  35  55  77 107 147 189 238 295 350
#
# _framework density 20.369592000000001
#
# number of rings (size 3 to 8) (size 9 to 14) (size 15 to 20)
#    0.000    1.875    1.250    3.000    0.000    4.250 
#    0.000    3.125    0.000    1.500    0.000    0.000 
#    0.000    0.000    0.000    0.000    0.000    0.000 
#
# Total GULP energy -792870.250612 kJ/mol
# GULP energy per Si atom -12388.597666 kJ/mol
# Density = 2.032323 g / cm^3
# Si number density = 20.369592 Si / 1000 Ang^3
#
#
#
# Elastic Constant Matrix: (Units=GPa)
#
#
# Indices 1 2 3 4 5 6 
#
# 1 96.3885 34.3838 49.1232 0.0000 0.0000 0.0000
# 2 34.3838 86.2811 41.7138 0.0000 0.0000 0.0000
# 3 49.1232 41.7138 117.8573 0.0000 0.0000 0.0000
# 4 0.0000 0.0000 0.0000 21.2012 0.0000 0.0000
# 5 0.0000 0.0000 0.0000 0.0000 28.4909 0.0000
# 6 0.0000 0.0000 0.0000 0.0000 0.0000 24.2335
#
#
#
# Elastic Compliance Matrix: (Units=1/GPa)
#
#
# Indices 1 2 3 4 5 6 
#
# 1 0.013913 -0.003307 -0.004629 0.000000 0.000000 0.000000
# 2 -0.003307 0.014769 -0.003849 0.000000 0.000000 0.000000
# 3 -0.004629 -0.003849 0.011776 0.000000 0.000000 0.000000
# 4 0.000000 0.000000 0.000000 0.047167 0.000000 0.000000
# 5 0.000000 0.000000 0.000000 0.000000 0.035099 0.000000
# 6 0.000000 0.000000 0.000000 0.000000 0.000000 0.041265
#
#
# Mechanical properties :
#
#
# Convention : Reuss Voigt Hill
#
# Bulk Modulus (GPa) = 59.20821 61.21872 60.21347
# Shear Modulus (GPa) = 25.88153 26.47217 26.17685
#
# Velocity S-wave (km/s) = 3.56841 3.60890 3.58871
# Velocity P-wave (km/s) = 6.79030 6.89092 6.84079
#
# Compressibility (1/GPa) = 0.01688955
#
# Stress axis : x y z
#
# Youngs Moduli (GPa) = 71.87404 67.71135 84.91608
#
# Poissons Ratio (x) = 0.22390 0.39305
# Poissons Ratio (y) = 0.23767 0.32683
# Poissons Ratio (z) = 0.33268 0.26061
#
# Static dielectric constant tensor:
#      x y z
#    x 3.742860 0.000000 0.000000 
#    y 0.000000 3.520510 0.000000 
#    z 0.000000 0.000000 4.007540 
# 
# 
# High freq. dielectric constant tensor:
#      x y z
#    x 1.793670 0.000000 0.000000 
#    y 0.000000 1.768370 0.000000 
#    z 0.000000 0.000000 1.810360 
# 
# From -- ./inp_files/31247.got.cif
#   From: 2010.03.12/outbox.cif.g09.slc.cpg/sg53_16_cif.got.tgz:31247.got - 2010.04.16 14:36:59.
