data_PCOD8218489
_publ_section_title
;
Structure prediction by ZEFSAII (Michael W. Deem and Ramdas Pophale) SiO2 
 PCOD8218489
Probable space group: P M N A
;
_chemical_formula_sum "Si O2"
_cell_formula_units_Z 64
_cell_length_a 9.355587
_cell_length_b 15.202843
_cell_length_c 23.846236
_cell_angle_alpha 90.000000
_cell_angle_beta 90.000000
_cell_angle_gamma 90.000000
_cell_volume 3391.686401
_symmetry_space_group_name_H-M "P M N A"
_symmetry_group_IT_number 53
_symmetry_cell_setting 'orthorhombic'
loop_
_space_group_symop_operation_xyz
x,y,z
1/2-x,-y,1/2+z
x,-y,-z
1/2-x,y,1/2-z
-x,-y,-z
1/2+x,y,1/2-z
-x,y,z
1/2+x,-y,1/2+z
loop_
_atom_site_type_symbol
_atom_site_label
_atom_site_fract_x
_atom_site_fract_y
_atom_site_fract_z
Si Si1 0.662687 0.878199 0.588473
Si Si2 0.336750 0.867793 0.019341
Si Si3 0.833786 0.540976 0.807537
Si Si4 0.162845 0.936962 0.122108
Si Si5 0.333390 0.318555 0.398254
Si Si6 0.664260 0.221022 0.695119
Si Si7 0.166814 0.621628 0.115009
Si Si8 0.335278 0.337821 0.991339
O O1 0.500000 0.872898 0.566938
O O2 0.759411 0.903972 0.535788
O O3 0.706500 0.783718 0.614332
O O4 0.680269 0.957819 0.633747
O O5 0.500000 0.897634 0.015874
O O6 0.268170 0.910744 0.073206
O O7 0.320203 0.763841 0.023482
O O8 0.750000 0.542774 0.750000
O O9 0.793441 0.628046 0.842590
O O10 0.788893 0.455864 0.843014
O O11 0.000000 0.538187 0.792780
O O12 0.200336 0.879526 0.177116
O O13 0.000000 0.914833 0.103941
O O14 0.500000 0.330430 0.413420
O O15 0.242430 0.357187 0.449834
O O16 0.750000 0.247218 0.750000
O O17 0.500000 0.233324 0.711095
O O18 0.705864 0.285912 0.644355
O O19 0.257777 0.608889 0.058337
O O20 0.000000 0.616823 0.099042
O O21 0.500000 0.367808 0.995745
#
# Coordination Sequence:
#
# PCOD8218489 Si02
#       8
#     8   8   8   8   8   8   8   8
#     4   9  18  32  52  74 101 138 178 215 254 308
#     4  10  19  30  47  76 110 139 169 211 261 311
#     4  10  22  39  60  83 105 137 182 225 269 318
#     4  10  19  32  50  73 100 137 180 214 254 310
#     4   9  19  37  57  78 108 144 180 221 266 318
#     4  10  21  35  52  73 102 138 176 219 264 314
#     4  10  20  36  57  80 107 140 176 216 266 325
#     4  10  20  33  53  83 114 144 175 214 268 323
#
# _framework density 18.869668000000001
#
# number of rings (size 3 to 8) (size 9 to 14) (size 15 to 20)
#    0.000    2.250    1.250    1.500    0.000    5.500 
#    0.000    3.125    0.000    0.000    0.000    0.000 
#    0.000    0.000    0.000    0.000    0.000    0.000 
#
# Total GULP energy -793557.243338 kJ/mol
# GULP energy per Si atom -12399.331927 kJ/mol
# Density = 1.882672 g / cm^3
# Si number density = 18.869668 Si / 1000 Ang^3
#
#
#
# Elastic Constant Matrix: (Units=GPa)
#
#
# Indices 1 2 3 4 5 6 
#
# 1 73.6920 33.2918 40.0345 0.0000 0.0000 0.0000
# 2 33.2918 69.7100 39.8166 0.0000 0.0000 0.0000
# 3 40.0345 39.8166 70.4748 0.0000 0.0000 0.0000
# 4 0.0000 0.0000 0.0000 22.2626 0.0000 0.0000
# 5 0.0000 0.0000 0.0000 0.0000 29.7411 0.0000
# 6 0.0000 0.0000 0.0000 0.0000 0.0000 17.8454
#
#
#
# Elastic Compliance Matrix: (Units=1/GPa)
#
#
# Indices 1 2 3 4 5 6 
#
# 1 0.020603 -0.004657 -0.009072 0.000000 0.000000 0.000000
# 2 -0.004657 0.022233 -0.009915 0.000000 0.000000 0.000000
# 3 -0.009072 -0.009915 0.024945 0.000000 0.000000 0.000000
# 4 0.000000 0.000000 0.000000 0.044918 0.000000 0.000000
# 5 0.000000 0.000000 0.000000 0.000000 0.033623 0.000000
# 6 0.000000 0.000000 0.000000 0.000000 0.000000 0.056037
#
#
# Mechanical properties :
#
#
# Convention : Reuss Voigt Hill
#
# Bulk Modulus (GPa) = 48.80331 48.90697 48.85514
# Shear Modulus (GPa) = 19.49469 20.68542 20.09006
#
# Velocity S-wave (km/s) = 3.21771 3.31452 3.26647
# Velocity P-wave (km/s) = 6.30273 6.37359 6.33826
#
# Compressibility (1/GPa) = 0.02049042
#
# Stress axis : x y z
#
# Youngs Moduli (GPa) = 48.53688 44.97863 40.08798
#
# Poissons Ratio (x) = 0.20949 0.36370
# Poissons Ratio (y) = 0.22606 0.39748
# Poissons Ratio (z) = 0.44035 0.44597
#
# Static dielectric constant tensor:
#      x y z
#    x 3.461950 0.000000 0.000000 
#    y 0.000000 3.715040 0.000000 
#    z 0.000000 0.000000 3.169260 
# 
# 
# High freq. dielectric constant tensor:
#      x y z
#    x 1.730680 0.000000 0.000000 
#    y 0.000000 1.744190 0.000000 
#    z 0.000000 0.000000 1.707180 
# 
# From -- ./inp_files/34220.got.cif
#   From: 2010.03.12/outbox.cif.g09.slc.cpg/sg53_18_cif.got.tgz:34220.got - 2010.04.16 14:36:59.
