data_PCOD8218828
_publ_section_title
;
Structure prediction by ZEFSAII (Michael W. Deem and Ramdas Pophale) SiO2 
 PCOD8218828
Probable space group: P M N A
;
_chemical_formula_sum "Si O2"
_cell_formula_units_Z 48
_cell_length_a 17.974012
_cell_length_b 27.361439
_cell_length_c 5.154448
_cell_angle_alpha 90.000000
_cell_angle_beta 90.000000
_cell_angle_gamma 90.000000
_cell_volume 2534.930893
_symmetry_space_group_name_H-M "P M N A"
_symmetry_group_IT_number 53
_symmetry_cell_setting 'orthorhombic'
loop_
_space_group_symop_operation_xyz
x,y,z
1/2-x,-y,1/2+z
x,-y,-z
1/2-x,y,1/2-z
-x,-y,-z
1/2+x,y,1/2-z
-x,y,z
1/2+x,-y,1/2+z
loop_
_atom_site_type_symbol
_atom_site_label
_atom_site_fract_x
_atom_site_fract_y
_atom_site_fract_z
Si Si1 0.085117 0.863709 0.616340
Si Si2 0.415002 0.803178 0.399124
Si Si3 0.411741 0.470980 0.251731
Si Si4 0.798115 0.943606 0.502501
Si Si5 0.588086 0.696041 0.315580
Si Si6 0.087934 0.637652 0.678483
O O1 0.092042 0.827130 0.379198
O O2 0.127311 0.912503 0.530250
O O3 0.000000 0.879235 0.670366
O O4 0.120497 0.836843 0.871424
O O5 0.500000 0.795534 0.486925
O O6 0.376898 0.749991 0.363106
O O7 0.378572 0.500000 0.500000
O O8 0.500000 0.467469 0.283224
O O9 0.378308 0.416645 0.213455
O O10 0.386989 0.500000 0.000000
O O11 0.750000 0.930861 0.750000
O O12 0.822598 0.000000 0.500000
O O13 0.750000 0.929593 0.250000
O O14 0.500000 0.701322 0.277573
O O15 0.610647 0.665381 0.563779
O O16 0.621814 0.667724 0.065571
O O17 0.000000 0.633644 0.639019
#
# Coordination Sequence:
#
# PCOD8218828 Si02
#       6
#     8   8   8   8   8   8
#     4  10  19  32  51  74  98 125 159 197 240 287
#     4   9  17  28  43  65  91 116 144 186 238 285
#     4   9  15  21  27  36  53  79 117 168 220 264
#     4  10  21  37  55  75 101 132 163 196 237 283
#     4   9  15  23  34  49  71  97 127 166 218 278
#     4   9  15  21  30  43  60  89 127 166 217 277
#
# _framework density 18.935427000000001
#
# number of rings (size 3 to 8) (size 9 to 14) (size 15 to 20)
#    0.000    2.667    0.000    3.000    0.000    8.333 
#    0.000    0.000    0.000    6.000    0.000    0.000 
#    0.000    0.000    0.000    0.000    0.000    0.000 
#
# Total GULP energy -594908.245656 kJ/mol
# GULP energy per Si atom -12393.921785 kJ/mol
# Density = 1.889233 g / cm^3
# Si number density = 18.935427 Si / 1000 Ang^3
#
#
#
# Elastic Constant Matrix: (Units=GPa)
#
#
# Indices 1 2 3 4 5 6 
#
# 1 24.0382 37.3342 20.8282 0.0000 0.0000 0.0000
# 2 37.3342 143.8019 56.0134 0.0000 0.0000 0.0000
# 3 20.8282 56.0134 142.5376 0.0000 0.0000 0.0000
# 4 0.0000 0.0000 0.0000 33.0981 0.0000 0.0000
# 5 0.0000 0.0000 0.0000 0.0000 5.7381 0.0000
# 6 0.0000 0.0000 0.0000 0.0000 0.0000 1.7302
#
#
#
# Elastic Compliance Matrix: (Units=1/GPa)
#
#
# Indices 1 2 3 4 5 6 
#
# 1 0.071336 -0.017074 -0.003714 0.000000 0.000000 0.000000
# 2 -0.017074 0.012297 -0.002338 0.000000 0.000000 0.000000
# 3 -0.003714 -0.002338 0.008477 0.000000 0.000000 0.000000
# 4 0.000000 0.000000 0.000000 0.030213 0.000000 0.000000
# 5 0.000000 0.000000 0.000000 0.000000 0.174274 0.000000
# 6 0.000000 0.000000 0.000000 0.000000 0.000000 0.577963
#
#
# Mechanical properties :
#
#
# Convention : Reuss Voigt Hill
#
# Bulk Modulus (GPa) = 21.80586 59.85881 40.83234
# Shear Modulus (GPa) = 5.34131 21.19340 13.26736
#
# Velocity S-wave (km/s) = 1.68135 3.34914 2.64988
# Velocity P-wave (km/s) = 3.91282 6.82908 5.56536
#
# Compressibility (1/GPa) = 0.04585923
#
# Stress axis : x y z
#
# Youngs Moduli (GPa) = 14.01809 81.31900 117.96506
#
# Poissons Ratio (x) = 1.38841 0.43818
# Poissons Ratio (y) = 0.23934 0.27576
# Poissons Ratio (z) = 0.05207 0.19009
#
# Static dielectric constant tensor:
#      x y z
#    x 2.679570 0.000000 0.000000 
#    y 0.000000 3.791920 0.000000 
#    z 0.000000 0.000000 3.683300 
# 
# 
# High freq. dielectric constant tensor:
#      x y z
#    x 1.644280 0.000000 0.000000 
#    y 0.000000 1.754890 0.000000 
#    z 0.000000 0.000000 1.760090 
# 
# From -- ./inp_files/2223.got.cif
#   From: 2010.03.12/outbox.cif.g09.slc.cpg/sg53_2_cif.got.tgz:2223.got - 2010.04.16 14:36:59.
