data_PCOD8218533
_publ_section_title
;
Structure prediction by ZEFSAII (Michael W. Deem and Ramdas Pophale) SiO2 
 PCOD8218533
Probable space group: P M N A
;
_chemical_formula_sum "Si O2"
_cell_formula_units_Z 64
_cell_length_a 8.870086
_cell_length_b 15.667125
_cell_length_c 28.654277
_cell_angle_alpha 90.000000
_cell_angle_beta 90.000000
_cell_angle_gamma 90.000000
_cell_volume 3982.048946
_symmetry_space_group_name_H-M "P M N A"
_symmetry_group_IT_number 53
_symmetry_cell_setting 'orthorhombic'
loop_
_space_group_symop_operation_xyz
x,y,z
1/2-x,-y,1/2+z
x,-y,-z
1/2-x,y,1/2-z
-x,-y,-z
1/2+x,y,1/2-z
-x,y,z
1/2+x,-y,1/2+z
loop_
_atom_site_type_symbol
_atom_site_label
_atom_site_fract_x
_atom_site_fract_y
_atom_site_fract_z
Si Si1 0.820937 0.496548 0.799280
Si Si2 0.177865 0.182960 0.800612
Si Si3 0.173688 0.001225 0.201026
Si Si4 0.321962 0.587599 0.946296
Si Si5 0.821915 0.186331 0.198902
Si Si6 0.179587 0.656317 0.651227
Si Si7 0.321827 0.395740 0.951717
Si Si8 0.822559 0.337211 0.862401
O O1 0.750000 0.470264 0.750000
O O2 0.751578 0.586173 0.815035
O O3 0.773597 0.423485 0.835888
O O4 0.000000 0.505135 0.794505
O O5 0.250000 0.194076 0.750000
O O6 0.242807 0.255453 0.834767
O O7 0.000000 0.194983 0.794598
O O8 0.218926 0.089114 0.823380
O O9 0.250000 0.004935 0.250000
O O10 0.210264 0.091812 0.175905
O O11 0.000000 0.997718 0.212535
O O12 0.500000 0.580379 0.946197
O O13 0.265312 0.641532 0.902044
O O14 0.259623 0.491332 0.942557
O O15 0.272188 0.630850 0.995469
O O16 0.750000 0.195132 0.250000
O O17 0.741253 0.251411 0.164421
O O18 0.000000 0.205475 0.202392
O O19 0.000000 0.652483 0.656271
O O20 0.500000 0.390004 0.945420
O O21 0.245901 0.333587 0.914238
O O22 0.000000 0.331033 0.866945
#
# Coordination Sequence:
#
# PCOD8218533 Si02
#       8
#     8   8   8   8   8   8   8   8
#     4  11  22  33  43  60  90 125 156 183 212 253
#     4   9  17  30  46  66  92 121 152 185 220 263
#     4   8  15  28  46  64  86 116 148 184 224 261
#     4   8  16  30  49  68  85 111 149 189 225 265
#     4  10  19  31  46  67  92 119 151 186 223 265
#     4  11  20  32  48  66  88 118 151 184 223 265
#     4   9  16  31  51  67  85 113 150 187 223 269
#     4  10  20  31  44  67  95 119 147 184 225 262
#
# _framework density 16.072127999999999
#
# number of rings (size 3 to 8) (size 9 to 14) (size 15 to 20)
#    0.000    2.500    1.250    2.625    0.000    1.500 
#    0.000    2.500    0.000    0.000    0.000    0.875 
#    0.000    7.000    0.000    0.000    0.000    0.000 
#
# Total GULP energy -792993.611809 kJ/mol
# GULP energy per Si atom -12390.525185 kJ/mol
# Density = 1.603555 g / cm^3
# Si number density = 16.072128 Si / 1000 Ang^3
#
#
#
# Elastic Constant Matrix: (Units=GPa)
#
#
# Indices 1 2 3 4 5 6 
#
# 1 39.4919 26.5543 25.7640 0.0000 0.0000 0.0000
# 2 26.5543 106.7404 44.3560 0.0000 0.0000 0.0000
# 3 25.7640 44.3560 101.8446 0.0000 0.0000 0.0000
# 4 0.0000 0.0000 0.0000 13.3467 0.0000 0.0000
# 5 0.0000 0.0000 0.0000 0.0000 21.9503 0.0000
# 6 0.0000 0.0000 0.0000 0.0000 0.0000 15.8786
#
#
#
# Elastic Compliance Matrix: (Units=1/GPa)
#
#
# Indices 1 2 3 4 5 6 
#
# 1 0.033020 -0.005791 -0.005831 0.000000 0.000000 0.000000
# 2 -0.005791 0.012455 -0.003959 0.000000 0.000000 0.000000
# 3 -0.005831 -0.003959 0.013018 0.000000 0.000000 0.000000
# 4 0.000000 0.000000 0.000000 0.074925 0.000000 0.000000
# 5 0.000000 0.000000 0.000000 0.000000 0.045557 0.000000
# 6 0.000000 0.000000 0.000000 0.000000 0.000000 0.062978
#
#
# Mechanical properties :
#
#
# Convention : Reuss Voigt Hill
#
# Bulk Modulus (GPa) = 36.59032 49.04727 42.81879
# Shear Modulus (GPa) = 17.71635 20.32864 19.02250
#
# Velocity S-wave (km/s) = 3.32370 3.56031 3.44404
# Velocity P-wave (km/s) = 6.12740 6.89089 6.52033
#
# Compressibility (1/GPa) = 0.02732963
#
# Stress axis : x y z
#
# Youngs Moduli (GPa) = 30.28489 80.29205 76.81526
#
# Poissons Ratio (x) = 0.46501 0.44789
# Poissons Ratio (y) = 0.17539 0.30413
# Poissons Ratio (z) = 0.17658 0.31789
#
# Static dielectric constant tensor:
#      x y z
#    x 2.605970 0.000000 0.000000 
#    y 0.000000 3.481070 0.000000 
#    z 0.000000 0.000000 3.140020 
# 
# 
# High freq. dielectric constant tensor:
#      x y z
#    x 1.614440 0.000000 0.000000 
#    y 0.000000 1.613930 0.000000 
#    z 0.000000 0.000000 1.596810 
# 
# From -- ./inp_files/38480.got.cif
#   From: 2010.03.12/outbox.cif.g09.slc.cpg/sg53_20_cif.got.tgz:38480.got - 2010.04.16 14:36:59.
