data_PCOD8218561
_publ_section_title
;
Structure prediction by ZEFSAII (Michael W. Deem and Ramdas Pophale) SiO2 
 PCOD8218561
Probable space group: P M N A
;
_chemical_formula_sum "Si O2"
_cell_formula_units_Z 64
_cell_length_a 9.110190
_cell_length_b 20.564546
_cell_length_c 20.153298
_cell_angle_alpha 90.000000
_cell_angle_beta 90.000000
_cell_angle_gamma 90.000000
_cell_volume 3775.658335
_symmetry_space_group_name_H-M "P M N A"
_symmetry_group_IT_number 53
_symmetry_cell_setting 'orthorhombic'
loop_
_space_group_symop_operation_xyz
x,y,z
1/2-x,-y,1/2+z
x,-y,-z
1/2-x,y,1/2-z
-x,-y,-z
1/2+x,y,1/2-z
-x,y,z
1/2+x,-y,1/2+z
loop_
_atom_site_type_symbol
_atom_site_label
_atom_site_fract_x
_atom_site_fract_y
_atom_site_fract_z
Si Si1 0.335311 0.353107 0.149941
Si Si2 0.672463 0.941821 0.547598
Si Si3 0.826432 0.478948 0.184581
Si Si4 0.333106 0.073146 0.186306
Si Si5 0.668027 0.321902 0.996452
Si Si6 0.828645 0.455408 0.563300
Si Si7 0.331345 0.199763 0.479375
Si Si8 0.662875 0.786351 0.850129
O O1 0.500000 0.382111 0.159302
O O2 0.217756 0.403122 0.178564
O O3 0.303628 0.341011 0.072489
O O4 0.319623 0.283144 0.187522
O O5 0.500000 0.944677 0.564521
O O6 0.758651 0.947081 0.617022
O O7 0.709990 0.875729 0.506268
O O8 0.722751 0.000000 0.500000
O O9 0.750000 0.508408 0.250000
O O10 0.771095 0.519806 0.122576
O O11 0.000000 0.484443 0.190657
O O12 0.250000 0.042180 0.250000
O O13 0.500000 0.047421 0.185661
O O14 0.328837 0.151404 0.197516
O O15 0.500000 0.309564 0.981411
O O16 0.747440 0.253999 0.976793
O O17 0.723423 0.381794 0.951559
O O18 0.797684 0.500000 0.500000
O O19 0.000000 0.459125 0.582680
O O20 0.500000 0.213288 0.492065
O O21 0.293332 0.209183 0.402523
O O22 0.500000 0.785697 0.885310
#
# Coordination Sequence:
#
# PCOD8218561 Si02
#       8
#     8   8   8   8   8   8   8   8
#     4   9  16  31  49  67  93 128 165 198 240 287
#     4   9  18  33  51  72 101 137 171 204 245 291
#     4  12  25  37  49  68  96 128 164 208 254 302
#     4  10  19  31  47  69  97 130 169 208 245 288
#     4   9  17  30  51  73  97 128 158 197 247 295
#     4  10  19  36  57  74  95 127 164 203 250 300
#     4   9  16  26  44  71 100 126 158 201 241 282
#     4   8  16  29  44  62  90 128 164 197 235 282
#
# _framework density 16.950686999999999
#
# number of rings (size 3 to 8) (size 9 to 14) (size 15 to 20)
#    0.000    2.500    1.250    2.625    0.000    4.500 
#    0.000    1.250    0.000    0.000    0.000    0.875 
#    0.000    6.000    0.000    0.000    0.000    0.000 
#
# Total GULP energy -793026.814143 kJ/mol
# GULP energy per Si atom -12391.043971 kJ/mol
# Density = 1.691211 g / cm^3
# Si number density = 16.950687 Si / 1000 Ang^3
#
#
#
# Elastic Constant Matrix: (Units=GPa)
#
#
# Indices 1 2 3 4 5 6 
#
# 1 93.4129 52.5739 51.1253 0.0000 0.0000 0.0000
# 2 52.5739 103.9691 42.9383 0.0000 0.0000 0.0000
# 3 51.1253 42.9383 73.8833 0.0000 0.0000 0.0000
# 4 0.0000 0.0000 0.0000 11.4929 0.0000 0.0000
# 5 0.0000 0.0000 0.0000 0.0000 21.7953 0.0000
# 6 0.0000 0.0000 0.0000 0.0000 0.0000 23.7454
#
#
#
# Elastic Compliance Matrix: (Units=1/GPa)
#
#
# Indices 1 2 3 4 5 6 
#
# 1 0.019447 -0.005627 -0.010187 0.000000 0.000000 0.000000
# 2 -0.005627 0.014284 -0.004408 0.000000 0.000000 0.000000
# 3 -0.010187 -0.004408 0.023146 0.000000 0.000000 0.000000
# 4 0.000000 0.000000 0.000000 0.087010 0.000000 0.000000
# 5 0.000000 0.000000 0.000000 0.000000 0.045881 0.000000
# 6 0.000000 0.000000 0.000000 0.000000 0.000000 0.042113
#
#
# Mechanical properties :
#
#
# Convention : Reuss Voigt Hill
#
# Bulk Modulus (GPa) = 60.84979 62.72669 61.78824
# Shear Modulus (GPa) = 17.99840 19.71525 18.85683
#
# Velocity S-wave (km/s) = 3.26208 3.41412 3.33896
# Velocity P-wave (km/s) = 7.08267 7.25447 7.16909
#
# Compressibility (1/GPa) = 0.01643391
#
# Stress axis : x y z
#
# Youngs Moduli (GPa) = 51.42080 70.00907 43.20483
#
# Poissons Ratio (x) = 0.39393 0.44013
# Poissons Ratio (y) = 0.28933 0.19043
# Poissons Ratio (z) = 0.52382 0.30858
#
# Static dielectric constant tensor:
#      x y z
#    x 3.203550 0.000000 0.000000 
#    y 0.000000 3.399250 0.000000 
#    z 0.000000 0.000000 2.867880 
# 
# 
# High freq. dielectric constant tensor:
#      x y z
#    x 1.658550 0.000000 0.000000 
#    y 0.000000 1.645740 0.000000 
#    z 0.000000 0.000000 1.612640 
# 
# From -- ./inp_files/31352.got.cif
#   From: 2010.03.12/outbox.cif.g09.slc.cpg/sg53_16_cif.got.tgz:31352.got - 2010.04.16 14:36:59.
