data_PCOD8218497
_publ_section_title
;
Structure prediction by ZEFSAII (Michael W. Deem and Ramdas Pophale) SiO2 
 PCOD8218497
Probable space group: P M N A
;
_chemical_formula_sum "Si O2"
_cell_formula_units_Z 36
_cell_length_a 19.138165
_cell_length_b 11.437558
_cell_length_c 9.160813
_cell_angle_alpha 90.000000
_cell_angle_beta 90.000000
_cell_angle_gamma 90.000000
_cell_volume 2005.245830
_symmetry_space_group_name_H-M "P M N A"
_symmetry_group_IT_number 53
_symmetry_cell_setting 'orthorhombic'
loop_
_space_group_symop_operation_xyz
x,y,z
1/2-x,-y,1/2+z
x,-y,-z
1/2-x,y,1/2-z
-x,-y,-z
1/2+x,y,1/2-z
-x,y,z
1/2+x,-y,1/2+z
loop_
_atom_site_type_symbol
_atom_site_label
_atom_site_fract_x
_atom_site_fract_y
_atom_site_fract_z
Si Si1 0.080195 0.819820 0.215179
Si Si2 0.647145 0.000000 0.500000
Si Si3 0.919028 0.365960 0.018584
Si Si4 0.421748 0.135641 0.026806
Si Si5 0.674577 0.202614 0.294393
O O1 0.101878 0.930295 0.117881
O O2 0.113183 0.811454 0.377611
O O3 0.000000 0.843008 0.245771
O O4 0.094745 0.697547 0.135330
O O5 0.690590 0.903855 0.591849
O O6 0.869452 0.308615 0.138568
O O7 0.000000 0.351625 0.066424
O O8 0.897900 0.500000 0.000000
O O9 0.500000 0.186281 0.061497
O O10 0.368943 0.159121 0.156976
O O11 0.428470 0.000000 0.000000
O O12 0.750000 0.252444 0.250000
#
# Coordination Sequence:
#
# PCOD8218497 Si02
#       5
#     8   4   8   8   8
#     4   9  17  30  53  81 106 136 178 226 273 321
#     4  10  19  30  48  74 109 148 174 212 266 336
#     4   9  19  39  62  81 105 144 196 240 274 321
#     4  10  19  33  53  80 112 142 178 226 276 328
#     4  11  23  35  53  80 115 148 183 222 279 338
#
# _framework density 17.952911
#
# number of rings (size 3 to 8) (size 9 to 14) (size 15 to 20)
#    0.000    2.222    2.222    1.000    1.556    1.778 
#    0.000    6.667    0.000    5.333    0.000    0.000 
#    0.000    0.000    0.000    0.000    0.000    0.000 
#
# Total GULP energy -446116.896844 kJ/mol
# GULP energy per Si atom -12392.136023 kJ/mol
# Density = 1.791205 g / cm^3
# Si number density = 17.952911 Si / 1000 Ang^3
#
#
#
# Elastic Constant Matrix: (Units=GPa)
#
#
# Indices 1 2 3 4 5 6 
#
# 1 85.3278 40.0046 56.8853 0.0000 0.0000 0.0000
# 2 40.0046 111.5274 41.4832 0.0000 0.0000 0.0000
# 3 56.8853 41.4832 123.1400 0.0000 0.0000 0.0000
# 4 0.0000 0.0000 0.0000 18.3510 0.0000 0.0000
# 5 0.0000 0.0000 0.0000 0.0000 10.6638 0.0000
# 6 0.0000 0.0000 0.0000 0.0000 0.0000 3.0345
#
#
#
# Elastic Compliance Matrix: (Units=1/GPa)
#
#
# Indices 1 2 3 4 5 6 
#
# 1 0.018316 -0.003913 -0.007143 0.000000 0.000000 0.000000
# 2 -0.003913 0.011087 -0.001927 0.000000 0.000000 0.000000
# 3 -0.007143 -0.001927 0.012070 0.000000 0.000000 0.000000
# 4 0.000000 0.000000 0.000000 0.054493 0.000000 0.000000
# 5 0.000000 0.000000 0.000000 0.000000 0.093775 0.000000
# 6 0.000000 0.000000 0.000000 0.000000 0.000000 0.329539
#
#
# Mechanical properties :
#
#
# Convention : Reuss Voigt Hill
#
# Bulk Modulus (GPa) = 64.49054 66.30460 65.39757
# Shear Modulus (GPa) = 9.08405 18.51802 13.80104
#
# Velocity S-wave (km/s) = 2.25187 3.21515 2.77562
# Velocity P-wave (km/s) = 6.53921 7.12710 6.83947
#
# Compressibility (1/GPa) = 0.01550615
#
# Stress axis : x y z
#
# Youngs Moduli (GPa) = 54.59675 90.19684 82.85106
#
# Poissons Ratio (x) = 0.35295 0.59181
# Poissons Ratio (y) = 0.21364 0.15968
# Poissons Ratio (z) = 0.38999 0.17383
#
# Static dielectric constant tensor:
#      x y z
#    x 3.150920 0.000000 0.000000 
#    y 0.000000 3.147940 0.000000 
#    z 0.000000 0.000000 2.819820 
# 
# 
# High freq. dielectric constant tensor:
#      x y z
#    x 1.673900 0.000000 0.000000 
#    y 0.000000 1.675510 0.000000 
#    z 0.000000 0.000000 1.713150 
# 
# From -- ./inp_files/10691.got.cif
#   From: 2010.03.12/outbox.cif.g09.slc.cpg/sg53_6_cif.got.tgz:10691.got - 2010.04.16 14:36:59.
