data_PCOD8218338
_publ_section_title
;
Structure prediction by ZEFSAII (Michael W. Deem and Ramdas Pophale) SiO2 
 PCOD8218338
Probable space group: P M N A
;
_chemical_formula_sum "Si O2"
_cell_formula_units_Z 64
_cell_length_a 9.350086
_cell_length_b 13.815272
_cell_length_c 29.610162
_cell_angle_alpha 90.000000
_cell_angle_beta 90.000000
_cell_angle_gamma 90.000000
_cell_volume 3824.862513
_symmetry_space_group_name_H-M "P M N A"
_symmetry_group_IT_number 53
_symmetry_cell_setting 'orthorhombic'
loop_
_space_group_symop_operation_xyz
x,y,z
1/2-x,-y,1/2+z
x,-y,-z
1/2-x,y,1/2-z
-x,-y,-z
1/2+x,y,1/2-z
-x,y,z
1/2+x,-y,1/2+z
loop_
_atom_site_type_symbol
_atom_site_label
_atom_site_fract_x
_atom_site_fract_y
_atom_site_fract_z
Si Si1 0.833970 0.995713 0.448808
Si Si2 0.837154 0.683307 0.991301
Si Si3 0.161959 0.612449 0.370292
Si Si4 0.336883 0.779622 0.069232
Si Si5 0.164025 0.448538 0.434751
Si Si6 0.664510 0.496684 0.704314
Si Si7 0.162173 0.657854 0.861619
Si Si8 0.341558 0.164116 0.410904
O O1 0.800919 0.892925 0.425625
O O2 0.000000 0.020022 0.451043
O O3 0.770663 0.000000 0.500000
O O4 0.766504 0.076144 0.416279
O O5 0.771382 0.734237 0.034217
O O6 0.000000 0.656619 0.002064
O O7 0.754885 0.583158 0.978732
O O8 0.821184 0.757127 0.950023
O O9 0.182986 0.726266 0.382170
O O10 0.186201 0.559803 0.419243
O O11 0.273814 0.577857 0.332839
O O12 0.000000 0.591375 0.353100
O O13 0.500000 0.767365 0.051747
O O14 0.214208 0.388345 0.391460
O O15 0.000000 0.425110 0.445970
O O16 0.750000 0.483394 0.750000
O O17 0.500000 0.468559 0.712575
O O18 0.678223 0.608875 0.687789
O O19 0.183095 0.775170 0.863790
O O20 0.000000 0.634424 0.880040
O O21 0.500000 0.119082 0.412207
#
# Coordination Sequence:
#
# PCOD8218338 Si02
#       8
#     8   8   8   8   8   8   8   8
#     4  10  19  30  45  66  90 121 165 210 248 279
#     4  10  19  29  42  62  88 122 162 200 240 282
#     4   9  19  34  49  67  93 125 159 194 237 284
#     4  10  20  33  46  62  90 125 163 207 243 277
#     4   9  16  27  44  63  86 119 158 195 231 277
#     4  10  19  33  55  79 104 126 150 184 227 283
#     4   8  16  30  46  69  97 124 150 185 231 279
#     4   9  17  29  45  64  90 123 159 197 239 280
#
# _framework density 16.732627000000001
#
# number of rings (size 3 to 8) (size 9 to 14) (size 15 to 20)
#    0.000    2.625    1.250    1.875    0.000    4.750 
#    0.000    2.500    0.000    0.000    0.000    0.875 
#    0.000    4.000    0.000    0.000    0.000    0.000 
#
# Total GULP energy -793047.162386 kJ/mol
# GULP energy per Si atom -12391.361912 kJ/mol
# Density = 1.669454 g / cm^3
# Si number density = 16.732627 Si / 1000 Ang^3
#
#
#
# Elastic Constant Matrix: (Units=GPa)
#
#
# Indices 1 2 3 4 5 6 
#
# 1 91.0481 49.0780 28.7945 0.0000 0.0000 0.0000
# 2 49.0780 102.3089 36.7201 0.0000 0.0000 0.0000
# 3 28.7945 36.7201 49.3651 0.0000 0.0000 0.0000
# 4 0.0000 0.0000 0.0000 13.8611 0.0000 0.0000
# 5 0.0000 0.0000 0.0000 0.0000 18.8997 0.0000
# 6 0.0000 0.0000 0.0000 0.0000 0.0000 20.7662
#
#
#
# Elastic Compliance Matrix: (Units=1/GPa)
#
#
# Indices 1 2 3 4 5 6 
#
# 1 0.015613 -0.005758 -0.004824 0.000000 0.000000 0.000000
# 2 -0.005758 0.015458 -0.008140 0.000000 0.000000 0.000000
# 3 -0.004824 -0.008140 0.029125 0.000000 0.000000 0.000000
# 4 0.000000 0.000000 0.000000 0.072144 0.000000 0.000000
# 5 0.000000 0.000000 0.000000 0.000000 0.052911 0.000000
# 6 0.000000 0.000000 0.000000 0.000000 0.000000 0.048155
#
#
# Mechanical properties :
#
#
# Convention : Reuss Voigt Hill
#
# Bulk Modulus (GPa) = 43.94978 52.43414 48.19196
# Shear Modulus (GPa) = 17.95763 19.24738 18.60251
#
# Velocity S-wave (km/s) = 3.27954 3.39527 3.33791
# Velocity P-wave (km/s) = 6.37679 6.83922 6.61205
#
# Compressibility (1/GPa) = 0.02275324
#
# Stress axis : x y z
#
# Youngs Moduli (GPa) = 64.05116 64.69157 34.33423
#
# Poissons Ratio (x) = 0.37250 0.16561
# Poissons Ratio (y) = 0.36882 0.27947
# Poissons Ratio (z) = 0.30895 0.52657
#
# Static dielectric constant tensor:
#      x y z
#    x 3.227190 0.000000 0.000000 
#    y 0.000000 3.265510 0.000000 
#    z 0.000000 0.000000 2.863430 
# 
# 
# High freq. dielectric constant tensor:
#      x y z
#    x 1.655650 0.000000 0.000000 
#    y 0.000000 1.637260 0.000000 
#    z 0.000000 0.000000 1.598350 
# 
# From -- ./inp_files/38414.got.cif
#   From: 2010.03.12/outbox.cif.g09.slc.cpg/sg53_20_cif.got.tgz:38414.got - 2010.04.16 14:36:59.
