data_PCOD8218266
_publ_section_title
;
Structure prediction by ZEFSAII (Michael W. Deem and Ramdas Pophale) SiO2 
 PCOD8218266
Probable space group: P M N A
;
_chemical_formula_sum "Si O2"
_cell_formula_units_Z 40
_cell_length_a 8.511581
_cell_length_b 7.837217
_cell_length_c 29.302590
_cell_angle_alpha 90.000000
_cell_angle_beta 90.000000
_cell_angle_gamma 90.000000
_cell_volume 1954.691016
_symmetry_space_group_name_H-M "P M N A"
_symmetry_group_IT_number 53
_symmetry_cell_setting 'orthorhombic'
loop_
_space_group_symop_operation_xyz
x,y,z
1/2-x,-y,1/2+z
x,-y,-z
1/2-x,y,1/2-z
-x,-y,-z
1/2+x,y,1/2-z
-x,y,z
1/2+x,-y,1/2+z
loop_
_atom_site_type_symbol
_atom_site_label
_atom_site_fract_x
_atom_site_fract_y
_atom_site_fract_z
Si Si1 0.182027 0.173612 0.547973
Si Si2 0.683364 0.805453 0.544908
Si Si3 0.684294 0.691789 0.362988
Si Si4 0.686086 0.997861 0.699593
Si Si5 0.684281 0.313937 0.358887
O O1 0.223475 0.262998 0.499574
O O2 0.223850 0.298548 0.589322
O O3 0.000000 0.123015 0.549007
O O4 0.288552 0.005960 0.552715
O O5 0.500000 0.770607 0.537363
O O6 0.749653 0.709351 0.589718
O O7 0.500000 0.711318 0.372887
O O8 0.722750 0.505296 0.341580
O O9 0.744839 0.836421 0.328335
O O10 0.750000 0.011415 0.750000
O O11 0.500000 0.993613 0.701590
O O12 0.756214 0.826969 0.675646
O O13 0.500000 0.278729 0.360944
#
# Coordination Sequence:
#
# PCOD8218266 Si02
#       5
#     8   8   8   8   8
#     4  11  21  33  52  84 120 151 187 230 281 330
#     4  10  18  34  58  82 111 152 197 230 271 331
#     4  10  20  38  61  82 111 149 191 231 269 331
#     4  10  21  39  60  84 111 143 183 231 284 335
#     4   9  19  36  60  86 108 143 193 233 269 326
#
# _framework density 20.463592999999999
#
# number of rings (size 3 to 8) (size 9 to 14) (size 15 to 20)
#    0.000    2.000    2.000    3.600    0.000    2.400 
#    0.000    7.000    0.000    0.000    0.000    0.000 
#    0.000    0.000    0.000    0.000    0.000    0.000 
#
# Total GULP energy -495953.423389 kJ/mol
# GULP energy per Si atom -12398.835585 kJ/mol
# Density = 2.041702 g / cm^3
# Si number density = 20.463593 Si / 1000 Ang^3
#
#
#
# Elastic Constant Matrix: (Units=GPa)
#
#
# Indices 1 2 3 4 5 6 
#
# 1 39.6536 19.2023 25.6469 0.0000 0.0000 0.0000
# 2 19.2023 141.2537 81.6729 0.0000 0.0000 0.0000
# 3 25.6469 81.6729 160.6792 0.0000 0.0000 0.0000
# 4 0.0000 0.0000 0.0000 16.5592 0.0000 0.0000
# 5 0.0000 0.0000 0.0000 0.0000 31.4256 0.0000
# 6 0.0000 0.0000 0.0000 0.0000 0.0000 4.0433
#
#
#
# Elastic Compliance Matrix: (Units=1/GPa)
#
#
# Indices 1 2 3 4 5 6 
#
# 1 0.028426 -0.001757 -0.003644 0.000000 0.000000 0.000000
# 2 -0.001757 0.010135 -0.004871 0.000000 0.000000 0.000000
# 3 -0.003644 -0.004871 0.009281 0.000000 0.000000 0.000000
# 4 0.000000 0.000000 0.000000 0.060389 0.000000 0.000000
# 5 0.000000 0.000000 0.000000 0.000000 0.031821 0.000000
# 6 0.000000 0.000000 0.000000 0.000000 0.000000 0.247326
#
#
# Mechanical properties :
#
#
# Convention : Reuss Voigt Hill
#
# Bulk Modulus (GPa) = 36.63347 66.07009 51.35178
# Shear Modulus (GPa) = 11.98976 24.74321 18.36649
#
# Velocity S-wave (km/s) = 2.42318 3.48103 2.99911
# Velocity P-wave (km/s) = 5.07639 6.96516 6.09439
#
# Compressibility (1/GPa) = 0.02729744
#
# Stress axis : x y z
#
# Youngs Moduli (GPa) = 35.17877 98.67024 107.74546
#
# Poissons Ratio (x) = 0.17340 0.39262
# Poissons Ratio (y) = 0.06182 0.52483
# Poissons Ratio (z) = 0.12819 0.48062
#
# Static dielectric constant tensor:
#      x y z
#    x 3.342220 0.000000 0.000000 
#    y 0.000000 3.725390 0.000000 
#    z 0.000000 0.000000 3.991880 
# 
# 
# High freq. dielectric constant tensor:
#      x y z
#    x 1.769470 0.000000 0.000000 
#    y 0.000000 1.795890 0.000000 
#    z 0.000000 0.000000 1.801560 
# 
# From -- ./inp_files/36035.got.cif
#   From: 2010.03.12/outbox.cif.g09.slc.cpg/sg53_19_cif.got.tgz:36035.got - 2010.04.16 14:36:59.
