data_PCOD8218904
_publ_section_title
;
Structure prediction by ZEFSAII (Michael W. Deem and Ramdas Pophale) SiO2 
 PCOD8218904
Probable space group: P M N A
;
_chemical_formula_sum "Si O2"
_cell_formula_units_Z 48
_cell_length_a 9.254418
_cell_length_b 11.252594
_cell_length_c 22.980707
_cell_angle_alpha 90.000000
_cell_angle_beta 90.000000
_cell_angle_gamma 90.000000
_cell_volume 2393.123695
_symmetry_space_group_name_H-M "P M N A"
_symmetry_group_IT_number 53
_symmetry_cell_setting 'orthorhombic'
loop_
_space_group_symop_operation_xyz
x,y,z
1/2-x,-y,1/2+z
x,-y,-z
1/2-x,y,1/2-z
-x,-y,-z
1/2+x,y,1/2-z
-x,y,z
1/2+x,-y,1/2+z
loop_
_atom_site_type_symbol
_atom_site_label
_atom_site_fract_x
_atom_site_fract_y
_atom_site_fract_z
Si Si1 0.667154 0.797631 0.100114
Si Si2 0.161604 0.573395 0.888316
Si Si3 0.162428 0.200007 0.193353
Si Si4 0.831597 0.285247 0.475917
Si Si5 0.172688 0.351886 0.811890
Si Si6 0.165949 0.068773 0.395985
O O1 0.500000 0.775141 0.116915
O O2 0.768639 0.764438 0.154602
O O3 0.691441 0.934809 0.082816
O O4 0.712412 0.720282 0.043697
O O5 0.165729 0.686170 0.847067
O O6 0.254653 0.601962 0.945821
O O7 0.222859 0.462763 0.851655
O O8 0.000000 0.544973 0.909353
O O9 0.250000 0.235154 0.250000
O O10 0.237777 0.089526 0.161249
O O11 0.000000 0.163011 0.209941
O O12 0.786707 0.159568 0.446791
O O13 0.000000 0.307231 0.468599
O O14 0.250000 0.362812 0.750000
O O15 0.000000 0.345923 0.803302
O O16 0.000000 0.090719 0.378646
#
# Coordination Sequence:
#
# PCOD8218904 Si02
#       6
#     8   8   8   8   8   8
#     4  10  21  37  57  82 112 145 181 220 263 316
#     4   9  20  37  56  80 109 140 176 223 275 323
#     4  10  19  32  52  78 106 137 178 226 275 324
#     4   9  18  34  59  87 111 139 177 221 268 318
#     4  11  24  41  59  79 107 145 186 225 268 318
#     4   9  18  34  55  79 109 144 180 220 267 317
#
# _framework density 20.057466999999999
#
# number of rings (size 3 to 8) (size 9 to 14) (size 15 to 20)
#    0.000    2.333    0.000    2.000    0.000    6.667 
#    0.000    3.333    0.000    5.000    0.000    0.000 
#    0.000    0.000    0.000    0.000    0.000    0.000 
#
# Total GULP energy -595215.098003 kJ/mol
# GULP energy per Si atom -12400.314542 kJ/mol
# Density = 2.001181 g / cm^3
# Si number density = 20.057467 Si / 1000 Ang^3
#
#
#
# Elastic Constant Matrix: (Units=GPa)
#
#
# Indices 1 2 3 4 5 6 
#
# 1 84.1241 24.7999 41.0861 0.0000 0.0000 0.0000
# 2 24.7999 58.9002 28.4243 0.0000 0.0000 0.0000
# 3 41.0861 28.4243 74.9316 0.0000 0.0000 0.0000
# 4 0.0000 0.0000 0.0000 21.9800 0.0000 0.0000
# 5 0.0000 0.0000 0.0000 0.0000 34.0222 0.0000
# 6 0.0000 0.0000 0.0000 0.0000 0.0000 24.9027
#
#
#
# Elastic Compliance Matrix: (Units=1/GPa)
#
#
# Indices 1 2 3 4 5 6 
#
# 1 0.016714 -0.003201 -0.007950 0.000000 0.000000 0.000000
# 2 -0.003201 0.021395 -0.006361 0.000000 0.000000 0.000000
# 3 -0.007950 -0.006361 0.020118 0.000000 0.000000 0.000000
# 4 0.000000 0.000000 0.000000 0.045496 0.000000 0.000000
# 5 0.000000 0.000000 0.000000 0.000000 0.029393 0.000000
# 6 0.000000 0.000000 0.000000 0.000000 0.000000 0.040156
#
#
# Mechanical properties :
#
#
# Convention : Reuss Voigt Hill
#
# Bulk Modulus (GPa) = 43.09823 45.17514 44.13669
# Shear Modulus (GPa) = 23.14502 24.42403 23.78452
#
# Velocity S-wave (km/s) = 3.40065 3.49335 3.44731
# Velocity P-wave (km/s) = 6.07892 6.23242 6.15615
#
# Compressibility (1/GPa) = 0.02320281
#
# Stress axis : x y z
#
# Youngs Moduli (GPa) = 59.83148 46.73942 49.70751
#
# Poissons Ratio (x) = 0.14959 0.39518
# Poissons Ratio (y) = 0.19150 0.31619
# Poissons Ratio (z) = 0.47567 0.29731
#
# Static dielectric constant tensor:
#      x y z
#    x 3.724900 0.000000 0.000000 
#    y 0.000000 3.550380 0.000000 
#    z 0.000000 0.000000 3.654610 
# 
# 
# High freq. dielectric constant tensor:
#      x y z
#    x 1.777810 0.000000 0.000000 
#    y 0.000000 1.778170 0.000000 
#    z 0.000000 0.000000 1.784480 
# 
# From -- ./inp_files/33909.got.cif
#   From: 2010.03.12/outbox.cif.g09.slc.cpg/sg53_17_cif.got.tgz:33909.got - 2010.04.16 14:36:59.
