data_PCOD8218551
_publ_section_title
;
Structure prediction by ZEFSAII (Michael W. Deem and Ramdas Pophale) SiO2 
 PCOD8218551
Probable space group: P M N A
;
_chemical_formula_sum "Si O2"
_cell_formula_units_Z 48
_cell_length_a 9.031565
_cell_length_b 15.842726
_cell_length_c 18.649416
_cell_angle_alpha 90.000000
_cell_angle_beta 90.000000
_cell_angle_gamma 90.000000
_cell_volume 2668.444408
_symmetry_space_group_name_H-M "P M N A"
_symmetry_group_IT_number 53
_symmetry_cell_setting 'orthorhombic'
loop_
_space_group_symop_operation_xyz
x,y,z
1/2-x,-y,1/2+z
x,-y,-z
1/2-x,y,1/2-z
-x,-y,-z
1/2+x,y,1/2-z
-x,y,z
1/2+x,-y,1/2+z
loop_
_atom_site_type_symbol
_atom_site_label
_atom_site_fract_x
_atom_site_fract_y
_atom_site_fract_z
Si Si1 0.330242 0.755381 0.468747
Si Si2 0.174652 0.662257 0.673937
Si Si3 0.172649 0.834283 0.596202
Si Si4 0.671519 0.831355 0.321046
Si Si5 0.325681 0.976577 0.677152
Si Si6 0.329052 0.418280 0.457794
O O1 0.500000 0.784048 0.482564
O O2 0.220436 0.810976 0.516181
O O3 0.285083 0.770441 0.386404
O O4 0.308423 0.657554 0.486170
O O5 0.250000 0.643651 0.750000
O O6 0.213646 0.757558 0.649773
O O7 0.236421 0.596903 0.614745
O O8 0.000000 0.648603 0.680832
O O9 0.263811 0.917794 0.614667
O O10 0.000000 0.854760 0.598136
O O11 0.750000 0.796965 0.250000
O O12 0.500000 0.828717 0.303871
O O13 0.719745 0.927129 0.339812
O O14 0.250000 0.945417 0.750000
O O15 0.500000 0.964164 0.684022
O O16 0.268951 0.500000 0.500000
O O17 0.500000 0.429579 0.435291
#
# Coordination Sequence:
#
# PCOD8218551 Si02
#       6
#     8   8   8   8   8   8
#     4   9  18  34  53  72  97 129 163 200 246 297
#     4  10  20  33  51  75 103 133 165 201 243 293
#     4  10  20  32  48  73 101 130 165 203 245 291
#     4   9  19  34  51  70  94 128 167 205 244 287
#     4  10  19  31  47  68  96 130 167 204 243 286
#     4   9  18  34  56  78 101 130 163 201 247 298
#
# _framework density 17.988009000000002
#
# number of rings (size 3 to 8) (size 9 to 14) (size 15 to 20)
#    0.000    2.500    0.000    2.000    0.000    5.667 
#    0.000    4.167    0.000    2.000    0.000    0.000 
#    0.000    0.000    0.000    0.000    0.000    0.000 
#
# Total GULP energy -595293.350282 kJ/mol
# GULP energy per Si atom -12401.944798 kJ/mol
# Density = 1.794707 g / cm^3
# Si number density = 17.988009 Si / 1000 Ang^3
#
#
#
# Elastic Constant Matrix: (Units=GPa)
#
#
# Indices 1 2 3 4 5 6 
#
# 1 71.4326 34.3664 55.1889 0.0000 0.0000 0.0000
# 2 34.3664 69.3130 62.4304 0.0000 0.0000 0.0000
# 3 55.1889 62.4304 142.5406 0.0000 0.0000 0.0000
# 4 0.0000 0.0000 0.0000 26.6636 0.0000 0.0000
# 5 0.0000 0.0000 0.0000 0.0000 34.9627 0.0000
# 6 0.0000 0.0000 0.0000 0.0000 0.0000 21.1639
#
#
#
# Elastic Compliance Matrix: (Units=1/GPa)
#
#
# Indices 1 2 3 4 5 6 
#
# 1 0.021014 -0.005104 -0.005900 0.000000 0.000000 0.000000
# 2 -0.005104 0.025067 -0.009003 0.000000 0.000000 0.000000
# 3 -0.005900 -0.009003 0.013243 0.000000 0.000000 0.000000
# 4 0.000000 0.000000 0.000000 0.037504 0.000000 0.000000
# 5 0.000000 0.000000 0.000000 0.000000 0.028602 0.000000
# 6 0.000000 0.000000 0.000000 0.000000 0.000000 0.047250
#
#
# Mechanical properties :
#
#
# Convention : Reuss Voigt Hill
#
# Bulk Modulus (GPa) = 51.78984 65.25084 58.52034
# Shear Modulus (GPa) = 22.81746 25.31141 24.06443
#
# Velocity S-wave (km/s) = 3.56544 3.75524 3.66157
# Velocity P-wave (km/s) = 6.76784 7.42670 7.10491
#
# Compressibility (1/GPa) = 0.01930881
#
# Stress axis : x y z
#
# Youngs Moduli (GPa) = 47.58822 39.89361 75.51136
#
# Poissons Ratio (x) = 0.20363 0.44555
# Poissons Ratio (y) = 0.24290 0.67979
# Poissons Ratio (z) = 0.28079 0.35914
#
# Static dielectric constant tensor:
#      x y z
#    x 3.333970 0.000000 0.000000 
#    y 0.000000 3.261330 0.000000 
#    z 0.000000 0.000000 3.298550 
# 
# 
# High freq. dielectric constant tensor:
#      x y z
#    x 1.699870 0.000000 0.000000 
#    y 0.000000 1.680960 0.000000 
#    z 0.000000 0.000000 1.695450 
# 
# From -- ./inp_files/20138.got.cif
#   From: 2010.03.12/outbox.cif.g09.slc.cpg/sg53_11_cif.got.tgz:20138.got - 2010.04.16 14:36:59.
