data_PCOD8218306
_publ_section_title
;
Structure prediction by ZEFSAII (Michael W. Deem and Ramdas Pophale) SiO2 
 PCOD8218306
Probable space group: P M N A
;
_chemical_formula_sum "Si O2"
_cell_formula_units_Z 56
_cell_length_a 14.219363
_cell_length_b 12.111985
_cell_length_c 14.924515
_cell_angle_alpha 90.000000
_cell_angle_beta 90.000000
_cell_angle_gamma 90.000000
_cell_volume 2570.370288
_symmetry_space_group_name_H-M "P M N A"
_symmetry_group_IT_number 53
_symmetry_cell_setting 'orthorhombic'
loop_
_space_group_symop_operation_xyz
x,y,z
1/2-x,-y,1/2+z
x,-y,-z
1/2-x,y,1/2-z
-x,-y,-z
1/2+x,y,1/2-z
-x,y,z
1/2+x,-y,1/2+z
loop_
_atom_site_type_symbol
_atom_site_label
_atom_site_fract_x
_atom_site_fract_y
_atom_site_fract_z
Si Si1 0.343791 0.356880 0.197308
Si Si2 0.893707 0.164927 0.175250
Si Si3 0.251857 0.742678 0.964692
Si Si4 0.891447 0.797294 0.392501
Si Si5 0.859040 0.404458 0.727353
Si Si6 0.610265 0.080193 0.720790
Si Si7 0.103278 0.722652 0.102423
O O1 0.250000 0.377728 0.250000
O O2 0.396043 0.252722 0.242859
O O3 0.317807 0.337869 0.093386
O O4 0.399421 0.472660 0.205322
O O5 0.817125 0.188030 0.099313
O O6 0.000000 0.158684 0.135732
O O7 0.860695 0.046437 0.211494
O O8 0.325843 0.816849 0.020564
O O9 0.180546 0.677649 0.031563
O O10 0.883086 0.670918 0.358434
O O11 0.848295 0.876455 0.315041
O O12 0.000000 0.824400 0.417237
O O13 0.750000 0.401019 0.750000
O O14 0.911464 0.360903 0.815459
O O15 0.500000 0.097499 0.728154
O O16 0.642346 0.158233 0.637974
O O17 0.000000 0.734151 0.056400
#
# Coordination Sequence:
#
# PCOD8218306 Si02
#       7
#     8   8   8   8   8   8   8
#     4   9  22  40  57  82 126 170 206 248 304 370
#     4  10  21  42  64  86 126 170 205 248 311 378
#     4  11  22  40  58  99 126 159 206 257 315 359
#     4  10  21  39  63  93 125 159 206 259 310 362
#     4  10  18  38  62  85 123 168 207 254 303 367
#     4   8  18  38  62  88 123 163 203 253 306 366
#     4  10  20  37  64  97 126 155 204 262 313 364
#
# _framework density 21.786745
#
# number of rings (size 3 to 8) (size 9 to 14) (size 15 to 20)
#    0.000    2.286    1.429    1.714    0.000    2.857 
#   12.857    2.857    0.000    6.000    0.000    0.000 
#    0.000    0.000    0.000    0.000    0.000    0.000 
#
# Total GULP energy -693894.227308 kJ/mol
# GULP energy per Si atom -12390.968345 kJ/mol
# Density = 2.173716 g / cm^3
# Si number density = 21.786745 Si / 1000 Ang^3
#
#
#
# Elastic Constant Matrix: (Units=GPa)
#
#
# Indices 1 2 3 4 5 6 
#
# 1 88.3793 6.0590 42.9689 0.0000 0.0000 0.0000
# 2 6.0590 144.9579 50.3138 0.0000 0.0000 0.0000
# 3 42.9689 50.3138 117.2627 0.0000 0.0000 0.0000
# 4 0.0000 0.0000 0.0000 -3.9275 0.0000 0.0000
# 5 0.0000 0.0000 0.0000 0.0000 31.4503 0.0000
# 6 0.0000 0.0000 0.0000 0.0000 0.0000 -6.6221
#
#
#
# Elastic Compliance Matrix: (Units=1/GPa)
#
#
# Indices 1 2 3 4 5 6 
#
# 1 0.014007 0.001405 -0.005736 0.000000 0.000000 0.000000
# 2 0.001405 0.008247 -0.004053 0.000000 0.000000 0.000000
# 3 -0.005736 -0.004053 0.012369 0.000000 0.000000 0.000000
# 4 0.000000 0.000000 0.000000 -0.254616 0.000000 0.000000
# 5 0.000000 0.000000 0.000000 0.000000 0.031796 0.000000
# 6 0.000000 0.000000 0.000000 0.000000 0.000000 -0.151010
#
#
# Mechanical properties :
#
#
# Convention : Reuss Voigt Hill
#
# Bulk Modulus (GPa) = 56.00604 61.03146 58.51875
# Shear Modulus (GPa) = -15.79835 20.93071 2.56618
#
# Velocity S-wave (km/s) = -2.69576 3.10289 1.08647
# Velocity P-wave (km/s) = 4.00909 6.39619 5.33779
#
# Compressibility (1/GPa) = 0.01785522
#
# Stress axis : x y z
#
# Youngs Moduli (GPa) = 71.39231 121.26056 80.84887
#
# Poissons Ratio (x) = -0.17041 0.46372
# Poissons Ratio (y) = -0.10033 0.32771
# Poissons Ratio (z) = 0.40948 0.49151
#
# Static dielectric constant tensor:
#      x y z
#    x 3.938200 0.000000 0.000000 
#    y 0.000000 4.052840 0.000000 
#    z 0.000000 0.000000 11.239790 
# 
# 
# High freq. dielectric constant tensor:
#      x y z
#    x 1.868360 0.000000 0.000000 
#    y 0.000000 1.835140 0.000000 
#    z 0.000000 0.000000 1.842990 
# 
# From -- ./inp_files/22806.got.cif
#   From: 2010.03.12/outbox.cif.g09.slc.cpg/sg53_12_cif.got.tgz:22806.got - 2010.04.16 14:36:59.
