data_PCOD8218511
_publ_section_title
;
Structure prediction by ZEFSAII (Michael W. Deem and Ramdas Pophale) SiO2 
 PCOD8218511
Probable space group: P M N A
;
_chemical_formula_sum "Si O2"
_cell_formula_units_Z 64
_cell_length_a 8.957590
_cell_length_b 12.332006
_cell_length_c 28.127266
_cell_angle_alpha 90.000000
_cell_angle_beta 90.000000
_cell_angle_gamma 90.000000
_cell_volume 3107.079947
_symmetry_space_group_name_H-M "P M N A"
_symmetry_group_IT_number 53
_symmetry_cell_setting 'orthorhombic'
loop_
_space_group_symop_operation_xyz
x,y,z
1/2-x,-y,1/2+z
x,-y,-z
1/2-x,y,1/2-z
-x,-y,-z
1/2+x,y,1/2-z
-x,y,z
1/2+x,-y,1/2+z
loop_
_atom_site_type_symbol
_atom_site_label
_atom_site_fract_x
_atom_site_fract_y
_atom_site_fract_z
Si Si1 0.170745 0.628013 0.365338
Si Si2 0.328152 0.813061 0.946028
Si Si3 0.667956 0.969229 0.675842
Si Si4 0.165452 0.024669 0.933669
Si Si5 0.828094 0.245797 0.546908
Si Si6 0.323101 0.754782 0.841197
Si Si7 0.671119 0.182299 0.794261
Si Si8 0.322741 0.542534 0.699887
O O1 0.219166 0.650559 0.420463
O O2 0.188619 0.744575 0.340614
O O3 0.279490 0.541501 0.341585
O O4 0.000000 0.585181 0.361498
O O5 0.500000 0.844824 0.939658
O O6 0.273778 0.757333 0.897072
O O7 0.246134 0.925124 0.960759
O O8 0.302557 0.730462 0.990512
O O9 0.500000 0.951075 0.695452
O O10 0.769779 0.863678 0.685184
O O11 0.663353 0.991525 0.620588
O O12 0.743839 0.069072 0.701820
O O13 0.243756 0.138833 0.937811
O O14 0.000000 0.035236 0.954711
O O15 0.000000 0.221839 0.557834
O O16 0.500000 0.739370 0.835290
O O17 0.236994 0.658873 0.815415
O O18 0.750000 0.244351 0.750000
O O19 0.500000 0.159370 0.782437
O O20 0.250000 0.507229 0.750000
O O21 0.500000 0.544890 0.705751
#
# Coordination Sequence:
#
# PCOD8218511 Si02
#       8
#     8   8   8   8   8   8   8   8
#     4  10  22  40  62  88 119 155 199 248 295 349
#     4   9  19  34  56  85 119 161 203 243 288 342
#     4  10  20  35  55  83 119 156 194 238 292 352
#     4  10  19  30  49  80 120 161 199 241 287 339
#     4  10  19  34  56  84 119 160 204 243 285 343
#     4  10  21  40  64  89 120 155 198 248 297 349
#     4  11  22  36  56  83 115 153 192 239 297 358
#     4  12  26  45  69  92 115 148 195 248 304 362
#
# _framework density 20.598120000000002
#
# number of rings (size 3 to 8) (size 9 to 14) (size 15 to 20)
#    0.000    1.750    1.250    3.375    0.000    6.500 
#    0.000    3.125    0.000    3.750    0.000    0.000 
#    0.000    0.000    0.000    0.000    0.000    0.000 
#
# Total GULP energy -793468.199439 kJ/mol
# GULP energy per Si atom -12397.940616 kJ/mol
# Density = 2.055124 g / cm^3
# Si number density = 20.598120 Si / 1000 Ang^3
#
#
#
# Elastic Constant Matrix: (Units=GPa)
#
#
# Indices 1 2 3 4 5 6 
#
# 1 102.6180 23.5120 16.6326 0.0000 0.0000 0.0000
# 2 23.5120 56.1459 8.2080 0.0000 0.0000 0.0000
# 3 16.6326 8.2080 29.5733 0.0000 0.0000 0.0000
# 4 0.0000 0.0000 0.0000 13.8151 0.0000 0.0000
# 5 0.0000 0.0000 0.0000 0.0000 17.7568 0.0000
# 6 0.0000 0.0000 0.0000 0.0000 0.0000 35.0593
#
#
#
# Elastic Compliance Matrix: (Units=1/GPa)
#
#
# Indices 1 2 3 4 5 6 
#
# 1 0.011543 -0.004049 -0.005368 0.000000 0.000000 0.000000
# 2 -0.004049 0.019984 -0.003269 0.000000 0.000000 0.000000
# 3 -0.005368 -0.003269 0.037741 0.000000 0.000000 0.000000
# 4 0.000000 0.000000 0.000000 0.072384 0.000000 0.000000
# 5 0.000000 0.000000 0.000000 0.000000 0.056317 0.000000
# 6 0.000000 0.000000 0.000000 0.000000 0.000000 0.028523
#
#
# Mechanical properties :
#
#
# Convention : Reuss Voigt Hill
#
# Bulk Modulus (GPa) = 22.78167 31.67138 27.22653
# Shear Modulus (GPa) = 18.76201 22.65855 20.71028
#
# Velocity S-wave (km/s) = 3.02132 3.32027 3.17432
# Velocity P-wave (km/s) = 4.82237 5.48709 5.16543
#
# Compressibility (1/GPa) = 0.04389493
#
# Stress axis : x y z
#
# Youngs Moduli (GPa) = 86.63539 50.03946 26.49655
#
# Poissons Ratio (x) = 0.20260 0.14223
# Poissons Ratio (y) = 0.35078 0.08663
# Poissons Ratio (z) = 0.46506 0.16360
#
# Static dielectric constant tensor:
#      x y z
#    x 3.925990 0.000000 0.000000 
#    y 0.000000 3.520020 0.000000 
#    z 0.000000 0.000000 4.074770 
# 
# 
# High freq. dielectric constant tensor:
#      x y z
#    x 1.807580 0.000000 0.000000 
#    y 0.000000 1.781560 0.000000 
#    z 0.000000 0.000000 1.821900 
# 
# From -- ./inp_files/38129.got.cif
#   From: 2010.03.12/outbox.cif.g09.slc.cpg/sg53_20_cif.got.tgz:38129.got - 2010.04.16 14:36:59.
