data_PCOD8218062
_publ_section_title
;
Structure prediction by ZEFSAII (Michael W. Deem and Ramdas Pophale) SiO2 
 PCOD8218062
Probable space group: P M N A
;
_chemical_formula_sum "Si O2"
_cell_formula_units_Z 40
_cell_length_a 8.591975
_cell_length_b 26.081280
_cell_length_c 9.137576
_cell_angle_alpha 90.000000
_cell_angle_beta 90.000000
_cell_angle_gamma 90.000000
_cell_volume 2047.636717
_symmetry_space_group_name_H-M "P M N A"
_symmetry_group_IT_number 53
_symmetry_cell_setting 'orthorhombic'
loop_
_space_group_symop_operation_xyz
x,y,z
1/2-x,-y,1/2+z
x,-y,-z
1/2-x,y,1/2-z
-x,-y,-z
1/2+x,y,1/2-z
-x,y,z
1/2+x,-y,1/2+z
loop_
_atom_site_type_symbol
_atom_site_label
_atom_site_fract_x
_atom_site_fract_y
_atom_site_fract_z
Si Si1 0.683637 0.950315 0.089327
Si Si2 0.183988 0.742204 0.412185
Si Si3 0.315514 0.351513 0.410589
Si Si4 0.316393 0.548656 0.411252
Si Si5 0.315601 0.152812 0.587293
O O1 0.750000 0.957765 0.250000
O O2 0.500000 0.943456 0.096080
O O3 0.756822 0.899659 0.010121
O O4 0.735416 0.000000 0.000000
O O5 0.250000 0.732720 0.250000
O O6 0.238052 0.698242 0.520480
O O7 0.245541 0.795522 0.483576
O O8 0.000000 0.743531 0.401058
O O9 0.250000 0.360427 0.250000
O O10 0.500000 0.344683 0.406105
O O11 0.263485 0.399977 0.506750
O O12 0.249196 0.500000 0.500000
O O13 0.250000 0.548903 0.250000
O O14 0.500000 0.545005 0.400362
O O15 0.250000 0.150066 0.750000
O O16 0.500000 0.155965 0.585429
#
# Coordination Sequence:
#
# PCOD8218062 Si02
#       5
#     8   8   8   8   8
#     4  10  20  34  53  78 108 142 181 224 273 328
#     4  11  21  36  58  83 111 143 184 231 279 331
#     4  11  23  39  58  83 115 150 189 230 279 334
#     4  10  22  39  60  87 117 150 189 232 278 330
#     4  10  18  31  53  79 107 140 181 226 275 329
#
# _framework density 19.534714999999998
#
# number of rings (size 3 to 8) (size 9 to 14) (size 15 to 20)
#    0.000    1.600    0.000    8.400    0.000    5.200 
#    0.000    1.000    0.000    2.400    0.000    0.000 
#    0.000    0.000    0.000    0.000    0.000    0.000 
#
# Total GULP energy -495999.063582 kJ/mol
# GULP energy per Si atom -12399.976590 kJ/mol
# Density = 1.949025 g / cm^3
# Si number density = 19.534715 Si / 1000 Ang^3
#
#
#
# Elastic Constant Matrix: (Units=GPa)
#
#
# Indices 1 2 3 4 5 6 
#
# 1 122.9980 73.1499 41.1249 0.0000 0.0000 0.0000
# 2 73.1499 207.2587 80.0438 0.0000 0.0000 0.0000
# 3 41.1249 80.0438 110.3626 0.0000 0.0000 0.0000
# 4 0.0000 0.0000 0.0000 37.1321 0.0000 0.0000
# 5 0.0000 0.0000 0.0000 0.0000 29.3713 0.0000
# 6 0.0000 0.0000 0.0000 0.0000 0.0000 268.2323
#
#
#
# Elastic Compliance Matrix: (Units=1/GPa)
#
#
# Indices 1 2 3 4 5 6 
#
# 1 0.010516 -0.003053 -0.001704 0.000000 0.000000 0.000000
# 2 -0.003053 0.007589 -0.004366 0.000000 0.000000 0.000000
# 3 -0.001704 -0.004366 0.012863 0.000000 0.000000 0.000000
# 4 0.000000 0.000000 0.000000 0.026931 0.000000 0.000000
# 5 0.000000 0.000000 0.000000 0.000000 0.034047 0.000000
# 6 0.000000 0.000000 0.000000 0.000000 0.000000 0.003728
#
#
# Mechanical properties :
#
#
# Convention : Reuss Voigt Hill
#
# Bulk Modulus (GPa) = 78.61517 92.13963 85.37740
# Shear Modulus (GPa) = 42.31531 83.36718 62.84125
#
# Velocity S-wave (km/s) = 4.65925 6.53981 5.67793
# Velocity P-wave (km/s) = 8.32322 10.21249 9.31587
#
# Compressibility (1/GPa) = 0.01272019
#
# Stress axis : x y z
#
# Youngs Moduli (GPa) = 95.09427 131.77340 77.74396
#
# Poissons Ratio (x) = 0.40235 0.13248
# Poissons Ratio (y) = 0.29036 0.33945
# Poissons Ratio (z) = 0.16204 0.57535
#
# Static dielectric constant tensor:
#      x y z
#    x 3.650840 0.000000 0.000000 
#    y 0.000000 4.494300 0.000000 
#    z 0.000000 0.000000 3.428530 
# 
# 
# High freq. dielectric constant tensor:
#      x y z
#    x 1.774890 0.000000 0.000000 
#    y 0.000000 1.791760 0.000000 
#    z 0.000000 0.000000 1.732170 
# 
# From -- ./inp_files/6295.got.cif
#   From: 2010.03.12/outbox.cif.g09.slc.cpg/sg53_4_cif.got.tgz:6295.got - 2010.04.16 14:36:59.
