data_PCOD8218574
_publ_section_title
;
Structure prediction by ZEFSAII (Michael W. Deem and Ramdas Pophale) SiO2 
 PCOD8218574
Probable space group: P M N A
;
_chemical_formula_sum "Si O2"
_cell_formula_units_Z 56
_cell_length_a 9.034869
_cell_length_b 13.778560
_cell_length_c 23.896583
_cell_angle_alpha 90.000000
_cell_angle_beta 90.000000
_cell_angle_gamma 90.000000
_cell_volume 2974.825508
_symmetry_space_group_name_H-M "P M N A"
_symmetry_group_IT_number 53
_symmetry_cell_setting 'orthorhombic'
loop_
_space_group_symop_operation_xyz
x,y,z
1/2-x,-y,1/2+z
x,-y,-z
1/2-x,y,1/2-z
-x,-y,-z
1/2+x,y,1/2-z
-x,y,z
1/2+x,-y,1/2+z
loop_
_atom_site_type_symbol
_atom_site_label
_atom_site_fract_x
_atom_site_fract_y
_atom_site_fract_z
Si Si1 0.671310 0.178848 0.869600
Si Si2 0.673001 0.288183 0.978822
Si Si3 0.169836 0.656320 0.194449
Si Si4 0.675550 0.226823 0.191733
Si Si5 0.168092 0.453206 0.916148
Si Si6 0.327674 0.678359 0.588084
Si Si7 0.671128 0.992485 0.806082
O O1 0.500000 0.203442 0.858916
O O2 0.712693 0.204218 0.933726
O O3 0.764919 0.242231 0.826596
O O4 0.707005 0.065793 0.857279
O O5 0.500000 0.291102 0.992715
O O6 0.721043 0.392566 0.954717
O O7 0.761603 0.262622 0.035369
O O8 0.250000 0.619294 0.250000
O O9 0.192966 0.572446 0.148720
O O10 0.000000 0.674433 0.208643
O O11 0.750000 0.258110 0.250000
O O12 0.500000 0.241355 0.195907
O O13 0.740498 0.294618 0.143816
O O14 0.720649 0.115868 0.176872
O O15 0.200903 0.565708 0.924605
O O16 0.000000 0.427417 0.934343
O O17 0.500000 0.702790 0.595670
O O18 0.750000 0.028961 0.750000
O O19 0.500000 0.992941 0.791219
#
# Coordination Sequence:
#
# PCOD8218574 Si02
#       7
#     8   8   8   8   8   8   8
#     4   9  18  33  52  76 105 136 170 207 252 306
#     4  10  20  34  54  80 107 135 171 214 257 306
#     4  10  19  31  47  71 103 135 168 207 254 305
#     4  10  21  38  58  80 105 133 170 214 258 304
#     4   9  20  36  52  72 101 138 176 215 259 306
#     4  11  22  37  56  76 102 138 176 214 258 305
#     4   9  18  33  54  78 104 135 169 208 254 305
#
# _framework density 18.824635000000001
#
# number of rings (size 3 to 8) (size 9 to 14) (size 15 to 20)
#    0.000    2.286    0.000    2.571    0.000    6.857 
#    0.000    2.143    0.000    4.286    0.000    0.000 
#    0.000    0.000    0.000    0.000    0.000    0.000 
#
# Total GULP energy -694495.596969 kJ/mol
# GULP energy per Si atom -12401.707089 kJ/mol
# Density = 1.878179 g / cm^3
# Si number density = 18.824635 Si / 1000 Ang^3
#
#
#
# Elastic Constant Matrix: (Units=GPa)
#
#
# Indices 1 2 3 4 5 6 
#
# 1 86.1457 21.5635 50.0758 0.0000 0.0000 0.0000
# 2 21.5635 35.5748 18.8395 0.0000 0.0000 0.0000
# 3 50.0758 18.8395 113.6438 0.0000 0.0000 0.0000
# 4 0.0000 0.0000 0.0000 20.7061 0.0000 0.0000
# 5 0.0000 0.0000 0.0000 0.0000 36.8804 0.0000
# 6 0.0000 0.0000 0.0000 0.0000 0.0000 22.8304
#
#
#
# Elastic Compliance Matrix: (Units=1/GPa)
#
#
# Indices 1 2 3 4 5 6 
#
# 1 0.017047 -0.006967 -0.006357 0.000000 0.000000 0.000000
# 2 -0.006967 0.033662 -0.002511 0.000000 0.000000 0.000000
# 3 -0.006357 -0.002511 0.012017 0.000000 0.000000 0.000000
# 4 0.000000 0.000000 0.000000 0.048295 0.000000 0.000000
# 5 0.000000 0.000000 0.000000 0.000000 0.027115 0.000000
# 6 0.000000 0.000000 0.000000 0.000000 0.000000 0.043801
#
#
# Mechanical properties :
#
#
# Convention : Reuss Voigt Hill
#
# Bulk Modulus (GPa) = 32.19793 46.25798 39.22796
# Shear Modulus (GPa) = 22.32564 25.74241 24.03402
#
# Velocity S-wave (km/s) = 3.44754 3.70196 3.57702
# Velocity P-wave (km/s) = 5.74358 6.54975 6.15986
#
# Compressibility (1/GPa) = 0.03105790
#
# Stress axis : x y z
#
# Youngs Moduli (GPa) = 58.66056 29.70694 83.21794
#
# Poissons Ratio (x) = 0.20696 0.52899
# Poissons Ratio (y) = 0.40867 0.20893
# Poissons Ratio (z) = 0.37289 0.07458
#
# Static dielectric constant tensor:
#      x y z
#    x 3.528360 0.000000 0.000000 
#    y 0.000000 3.368380 0.000000 
#    z 0.000000 0.000000 3.519090 
# 
# 
# High freq. dielectric constant tensor:
#      x y z
#    x 1.739080 0.000000 0.000000 
#    y 0.000000 1.713600 0.000000 
#    z 0.000000 0.000000 1.735030 
# 
# From -- ./inp_files/30751.got.cif
#   From: 2010.03.12/outbox.cif.g09.slc.cpg/sg53_16_cif.got.tgz:30751.got - 2010.04.16 14:36:59.
