data_PCOD8218992
_publ_section_title
;
Structure prediction by ZEFSAII (Michael W. Deem and Ramdas Pophale) SiO2 
 PCOD8218992
Probable space group: P M N A
;
_chemical_formula_sum "Si O2"
_cell_formula_units_Z 64
_cell_length_a 8.828889
_cell_length_b 20.733831
_cell_length_c 19.478770
_cell_angle_alpha 90.000000
_cell_angle_beta 90.000000
_cell_angle_gamma 90.000000
_cell_volume 3565.719209
_symmetry_space_group_name_H-M "P M N A"
_symmetry_group_IT_number 53
_symmetry_cell_setting 'orthorhombic'
loop_
_space_group_symop_operation_xyz
x,y,z
1/2-x,-y,1/2+z
x,-y,-z
1/2-x,y,1/2-z
-x,-y,-z
1/2+x,y,1/2-z
-x,y,z
1/2+x,-y,1/2+z
loop_
_atom_site_type_symbol
_atom_site_label
_atom_site_fract_x
_atom_site_fract_y
_atom_site_fract_z
Si Si1 0.821539 0.123791 0.680808
Si Si2 0.678456 0.060904 0.045821
Si Si3 0.820943 0.625229 0.180462
Si Si4 0.824410 0.487154 0.317647
Si Si5 0.322422 0.681877 0.461980
Si Si6 0.825195 0.564448 0.536426
Si Si7 0.179919 0.015075 0.179235
Si Si8 0.324090 0.814400 0.039191
O O1 0.750000 0.154111 0.750000
O O2 0.786323 0.172089 0.618823
O O3 0.000000 0.111848 0.689960
O O4 0.743631 0.055953 0.664419
O O5 0.500000 0.058715 0.060584
O O6 0.768326 0.061098 0.117375
O O7 0.728590 0.125345 0.006436
O O8 0.727693 0.000000 0.000000
O O9 0.750000 0.655009 0.250000
O O10 0.757819 0.554175 0.166571
O O11 0.770731 0.669114 0.116399
O O12 0.000000 0.621779 0.188401
O O13 0.750000 0.454641 0.250000
O O14 0.802086 0.439763 0.381746
O O15 0.000000 0.501633 0.303817
O O16 0.500000 0.681098 0.468689
O O17 0.261714 0.627298 0.512361
O O18 0.262900 0.751180 0.485934
O O19 0.759828 0.500000 0.500000
O O20 0.000000 0.572081 0.515763
O O21 0.250000 0.042373 0.250000
O O22 0.000000 0.013210 0.184982
O O23 0.500000 0.801526 0.028759
#
# Coordination Sequence:
#
# PCOD8218992 Si02
#       8
#     8   8   8   8   8   8   8   8
#     4  10  19  34  53  78 109 148 188 226 271 322
#     4  10  19  37  60  82 110 143 185 230 278 330
#     4  10  20  33  50  75 107 145 182 220 265 314
#     4  10  19  32  54  82 109 139 175 222 269 318
#     4  11  24  37  53  79 112 145 183 231 273 318
#     4  10  20  36  58  81 107 143 184 223 270 327
#     4  11  21  33  54  84 114 145 181 227 277 326
#     4  10  22  38  57  77 108 151 185 222 275 333
#
# _framework density 17.948692000000001
#
# number of rings (size 3 to 8) (size 9 to 14) (size 15 to 20)
#    0.000    1.750    2.500    4.125    0.000    5.000 
#    0.000    2.500    0.000    0.750    0.000    3.500 
#    0.000    0.000    0.000    0.000    0.000    0.000 
#
# Total GULP energy -793722.642763 kJ/mol
# GULP energy per Si atom -12401.916293 kJ/mol
# Density = 1.790784 g / cm^3
# Si number density = 17.948692 Si / 1000 Ang^3
#
#
#
# Elastic Constant Matrix: (Units=GPa)
#
#
# Indices 1 2 3 4 5 6 
#
# 1 81.7249 38.4038 50.2255 0.0000 0.0000 0.0000
# 2 38.4038 109.3120 60.1654 0.0000 0.0000 0.0000
# 3 50.2255 60.1654 112.5923 0.0000 0.0000 0.0000
# 4 0.0000 0.0000 0.0000 21.3268 0.0000 0.0000
# 5 0.0000 0.0000 0.0000 0.0000 32.4644 0.0000
# 6 0.0000 0.0000 0.0000 0.0000 0.0000 14.3706
#
#
#
# Elastic Compliance Matrix: (Units=1/GPa)
#
#
# Indices 1 2 3 4 5 6 
#
# 1 0.017365 -0.002603 -0.006355 0.000000 0.000000 0.000000
# 2 -0.002603 0.013350 -0.005973 0.000000 0.000000 0.000000
# 3 -0.006355 -0.005973 0.014908 0.000000 0.000000 0.000000
# 4 0.000000 0.000000 0.000000 0.046889 0.000000 0.000000
# 5 0.000000 0.000000 0.000000 0.000000 0.030803 0.000000
# 6 0.000000 0.000000 0.000000 0.000000 0.000000 0.069586
#
#
# Mechanical properties :
#
#
# Convention : Reuss Voigt Hill
#
# Bulk Modulus (GPa) = 63.44571 66.80207 65.12389
# Shear Modulus (GPa) = 21.92814 23.95467 22.94141
#
# Velocity S-wave (km/s) = 3.49909 3.65721 3.57902
# Velocity P-wave (km/s) = 7.19375 7.42514 7.31036
#
# Compressibility (1/GPa) = 0.01576151
#
# Stress axis : x y z
#
# Youngs Moduli (GPa) = 57.58685 74.90698 67.07685
#
# Poissons Ratio (x) = 0.19496 0.42630
# Poissons Ratio (y) = 0.14988 0.40063
# Poissons Ratio (z) = 0.36599 0.44740
#
# Static dielectric constant tensor:
#      x y z
#    x 3.334960 0.000000 0.000000 
#    y 0.000000 3.065110 0.000000 
#    z 0.000000 0.000000 3.486750 
# 
# 
# High freq. dielectric constant tensor:
#      x y z
#    x 1.702360 0.000000 0.000000 
#    y 0.000000 1.665830 0.000000 
#    z 0.000000 0.000000 1.702520 
# 
# From -- ./inp_files/31204.got.cif
#   From: 2010.03.12/outbox.cif.g09.slc.cpg/sg53_16_cif.got.tgz:31204.got - 2010.04.16 14:36:59.
