data_PCOD8218309
_publ_section_title
;
Structure prediction by ZEFSAII (Michael W. Deem and Ramdas Pophale) SiO2 
 PCOD8218309
Probable space group: P M N A
;
_chemical_formula_sum "Si O2"
_cell_formula_units_Z 64
_cell_length_a 25.141958
_cell_length_b 16.941206
_cell_length_c 9.888158
_cell_angle_alpha 90.000000
_cell_angle_beta 90.000000
_cell_angle_gamma 90.000000
_cell_volume 4211.713465
_symmetry_space_group_name_H-M "P M N A"
_symmetry_group_IT_number 53
_symmetry_cell_setting 'orthorhombic'
loop_
_space_group_symop_operation_xyz
x,y,z
1/2-x,-y,1/2+z
x,-y,-z
1/2-x,y,1/2-z
-x,-y,-z
1/2+x,y,1/2-z
-x,y,z
1/2+x,-y,1/2+z
loop_
_atom_site_type_symbol
_atom_site_label
_atom_site_fract_x
_atom_site_fract_y
_atom_site_fract_z
Si Si1 0.059786 0.984410 0.853569
Si Si2 0.938668 0.731559 0.325361
Si Si3 0.102924 0.899674 0.349946
Si Si4 0.438663 0.289148 0.130181
Si Si5 0.701801 0.010408 0.148948
Si Si6 0.112341 0.874283 0.652082
Si Si7 0.063005 0.577081 0.831243
Si Si8 0.936790 0.403830 0.867976
O O1 0.061515 0.057838 0.749604
O O2 0.000000 0.961414 0.885453
O O3 0.084458 0.908362 0.783805
O O4 0.087988 0.000000 0.000000
O O5 0.899699 0.806933 0.315341
O O6 0.936048 0.690690 0.472118
O O7 0.914725 0.668326 0.220564
O O8 0.000000 0.755924 0.293642
O O9 0.160039 0.939695 0.319623
O O10 0.088334 0.909063 0.509994
O O11 0.500000 0.266736 0.169994
O O12 0.397059 0.218937 0.160872
O O13 0.417085 0.364521 0.213442
O O14 0.750000 0.004292 0.250000
O O15 0.673755 0.096929 0.159430
O O16 0.725802 0.000000 0.000000
O O17 0.084774 0.487815 0.809999
O O18 0.000000 0.574068 0.829451
O O19 0.082338 0.608486 0.977632
O O20 0.000000 0.403913 0.858926
#
# Coordination Sequence:
#
# PCOD8218309 Si02
#       8
#     8   8   8   8   8   8   8   8
#     4  10  19  27  37  57  82 106 134 166 196 229
#     4   9  16  25  39  59  81 106 137 169 195 224
#     4   9  18  31  44  58  78 106 136 164 201 247
#     4   9  16  25  39  59  81 106 137 169 195 224
#     4   9  18  32  48  62  77 100 130 166 207 250
#     4   9  18  31  44  58  78 106 136 164 201 247
#     4   8  14  24  36  51  76 111 143 166 192 226
#     4   8  14  24  36  51  76 111 143 166 192 226
#
# _framework density 15.195715999999999
#
# number of rings (size 3 to 8) (size 9 to 14) (size 15 to 20)
#    0.000    3.125    0.000    2.625    0.000    5.500 
#    0.000    5.000    0.000    0.000    0.000    0.000 
#    0.000    1.000    0.000    2.250    0.000    4.000 
#
# Total GULP energy -792875.166262 kJ/mol
# GULP energy per Si atom -12388.674473 kJ/mol
# Density = 1.516113 g / cm^3
# Si number density = 15.195716 Si / 1000 Ang^3
#
#
#
# Elastic Constant Matrix: (Units=GPa)
#
#
# Indices 1 2 3 4 5 6 
#
# 1 39.4677 14.2504 19.2171 0.0000 0.0000 0.0000
# 2 14.2504 68.6459 21.0578 0.0000 0.0000 0.0000
# 3 19.2171 21.0578 66.3433 0.0000 0.0000 0.0000
# 4 0.0000 0.0000 0.0000 28.9323 0.0000 0.0000
# 5 0.0000 0.0000 0.0000 0.0000 18.1002 0.0000
# 6 0.0000 0.0000 0.0000 0.0000 0.0000 8.3724
#
#
#
# Elastic Compliance Matrix: (Units=1/GPa)
#
#
# Indices 1 2 3 4 5 6 
#
# 1 0.030461 -0.004007 -0.007552 0.000000 0.000000 0.000000
# 2 -0.004007 0.016666 -0.004129 0.000000 0.000000 0.000000
# 3 -0.007552 -0.004129 0.018571 0.000000 0.000000 0.000000
# 4 0.000000 0.000000 0.000000 0.034563 0.000000 0.000000
# 5 0.000000 0.000000 0.000000 0.000000 0.055248 0.000000
# 6 0.000000 0.000000 0.000000 0.000000 0.000000 0.119440
#
#
# Mechanical properties :
#
#
# Convention : Reuss Voigt Hill
#
# Bulk Modulus (GPa) = 29.13532 31.50083 30.31808
# Shear Modulus (GPa) = 15.73488 19.07642 17.40565
#
# Velocity S-wave (km/s) = 3.22138 3.54698 3.38809
# Velocity P-wave (km/s) = 5.74903 6.12779 5.94143
#
# Compressibility (1/GPa) = 0.03432260
#
# Stress axis : x y z
#
# Youngs Moduli (GPa) = 32.82903 60.00239 53.84696
#
# Poissons Ratio (x) = 0.24043 0.40663
# Poissons Ratio (y) = 0.13154 0.22235
# Poissons Ratio (z) = 0.24791 0.24776
#
# Static dielectric constant tensor:
#      x y z
#    x 2.420880 0.000000 0.000000 
#    y 0.000000 3.096350 0.000000 
#    z 0.000000 0.000000 3.194670 
# 
# 
# High freq. dielectric constant tensor:
#      x y z
#    x 1.515720 0.000000 0.000000 
#    y 0.000000 1.579230 0.000000 
#    z 0.000000 0.000000 1.597100 
# 
# From -- ./inp_files/12608.got.cif
#   From: 2010.03.12/outbox.cif.g09.slc.cpg/sg53_7_cif.got.tgz:12608.got - 2010.04.16 14:36:59.
