data_PCOD8218538
_publ_section_title
;
Structure prediction by ZEFSAII (Michael W. Deem and Ramdas Pophale) SiO2 
 PCOD8218538
Probable space group: P M N A
;
_chemical_formula_sum "Si O2"
_cell_formula_units_Z 56
_cell_length_a 19.806021
_cell_length_b 9.455056
_cell_length_c 16.303823
_cell_angle_alpha 90.000000
_cell_angle_beta 90.000000
_cell_angle_gamma 90.000000
_cell_volume 3053.168636
_symmetry_space_group_name_H-M "P M N A"
_symmetry_group_IT_number 53
_symmetry_cell_setting 'orthorhombic'
loop_
_space_group_symop_operation_xyz
x,y,z
1/2-x,-y,1/2+z
x,-y,-z
1/2-x,y,1/2-z
-x,-y,-z
1/2+x,y,1/2-z
-x,y,z
1/2+x,-y,1/2+z
loop_
_atom_site_type_symbol
_atom_site_label
_atom_site_fract_x
_atom_site_fract_y
_atom_site_fract_z
Si Si1 0.164113 0.678488 0.668842
Si Si2 0.324499 0.149335 0.485587
Si Si3 0.679330 0.949975 0.918131
Si Si4 0.183256 0.361801 0.146781
Si Si5 0.830989 0.764266 0.326700
Si Si6 0.079527 0.448259 0.589941
Si Si7 0.815073 0.319860 0.848734
O O1 0.139503 0.823858 0.626296
O O2 0.236163 0.632687 0.631441
O O3 0.168196 0.705542 0.765360
O O4 0.107554 0.560867 0.654618
O O5 0.251109 0.106811 0.450723
O O6 0.354545 0.259659 0.419020
O O7 0.327073 0.226287 0.572076
O O8 0.364613 0.000000 0.500000
O O9 0.687096 0.075978 0.852288
O O10 0.638768 0.000000 0.000000
O O11 0.155411 0.521924 0.139027
O O12 0.888889 0.704062 0.387014
O O13 0.765212 0.665823 0.335399
O O14 0.851077 0.754802 0.230148
O O15 0.101996 0.500000 0.500000
O O16 0.000000 0.435496 0.598049
#
# Coordination Sequence:
#
# PCOD8218538 Si02
#       7
#     8   8   8   8   8   8   8
#     4  10  19  33  51  74 105 135 185 214 270 315
#     4  10  20  30  45  80 113 142 164 202 273 326
#     4  10  19  31  46  75 104 150 168 210 264 324
#     4  10  19  31  51  79 106 143 170 220 268 326
#     4  11  20  33  52  76 108 142 184 213 271 318
#     4  11  23  37  55  76 103 144 192 233 262 305
#     4  11  19  31  51  79 109 143 170 220 266 331
#
# _framework density 18.341601000000001
#
# number of rings (size 3 to 8) (size 9 to 14) (size 15 to 20)
#    0.000    1.571    5.714    2.143    4.000    1.143 
#    0.000    0.714    0.000    2.571    0.000    2.000 
#    0.000    1.143    0.000    0.000    0.000    0.000 
#
# Total GULP energy -693972.890123 kJ/mol
# GULP energy per Si atom -12392.373038 kJ/mol
# Density = 1.829985 g / cm^3
# Si number density = 18.341601 Si / 1000 Ang^3
#
#
#
# Elastic Constant Matrix: (Units=GPa)
#
#
# Indices 1 2 3 4 5 6 
#
# 1 27.6717 -3.1188 13.8960 0.0000 0.0000 0.0000
# 2 -3.1188 122.0004 64.1626 0.0000 0.0000 0.0000
# 3 13.8960 64.1626 129.5845 0.0000 0.0000 0.0000
# 4 0.0000 0.0000 0.0000 46.4181 0.0000 0.0000
# 5 0.0000 0.0000 0.0000 0.0000 12.6694 0.0000
# 6 0.0000 0.0000 0.0000 0.0000 0.0000 8.0764
#
#
#
# Elastic Compliance Matrix: (Units=1/GPa)
#
#
# Indices 1 2 3 4 5 6 
#
# 1 0.039883 0.004420 -0.006465 0.000000 0.000000 0.000000
# 2 0.004420 0.011572 -0.006204 0.000000 0.000000 0.000000
# 3 -0.006465 -0.006204 0.011482 0.000000 0.000000 0.000000
# 4 0.000000 0.000000 0.000000 0.021543 0.000000 0.000000
# 5 0.000000 0.000000 0.000000 0.000000 0.078930 0.000000
# 6 0.000000 0.000000 0.000000 0.000000 0.000000 0.123818
#
#
# Mechanical properties :
#
#
# Convention : Reuss Voigt Hill
#
# Bulk Modulus (GPa) = 21.53386 47.68180 34.60783
# Shear Modulus (GPa) = 15.66381 27.05390 21.35885
#
# Velocity S-wave (km/s) = 2.92551 3.84474 3.41618
# Velocity P-wave (km/s) = 4.81429 6.76479 5.87110
#
# Compressibility (1/GPa) = 0.04643850
#
# Stress axis : x y z
#
# Youngs Moduli (GPa) = 25.07347 86.41188 87.09197
#
# Poissons Ratio (x) = -0.38192 0.56307
# Poissons Ratio (y) = -0.11082 0.54032
# Poissons Ratio (z) = 0.16211 0.53610
#
# Static dielectric constant tensor:
#      x y z
#    x 2.660700 0.000000 0.000000 
#    y 0.000000 3.811030 0.000000 
#    z 0.000000 0.000000 3.764990 
# 
# 
# High freq. dielectric constant tensor:
#      x y z
#    x 1.613670 0.000000 0.000000 
#    y 0.000000 1.733020 0.000000 
#    z 0.000000 0.000000 1.732740 
# 
# From -- ./inp_files/24339.got.cif
#   From: 2010.03.12/outbox.cif.g09.slc.cpg/sg53_13_cif.got.tgz:24339.got - 2010.04.16 14:36:59.
