data_PCOD8218074
_publ_section_title
;
Structure prediction by ZEFSAII (Michael W. Deem and Ramdas Pophale) SiO2 
 PCOD8218074
Probable space group: P M N A
;
_chemical_formula_sum "Si O2"
_cell_formula_units_Z 36
_cell_length_a 7.559758
_cell_length_b 14.758198
_cell_length_c 18.818586
_cell_angle_alpha 90.000000
_cell_angle_beta 90.000000
_cell_angle_gamma 90.000000
_cell_volume 2099.559632
_symmetry_space_group_name_H-M "P M N A"
_symmetry_group_IT_number 53
_symmetry_cell_setting 'orthorhombic'
loop_
_space_group_symop_operation_xyz
x,y,z
1/2-x,-y,1/2+z
x,-y,-z
1/2-x,y,1/2-z
-x,-y,-z
1/2+x,y,1/2-z
-x,y,z
1/2+x,-y,1/2+z
loop_
_atom_site_type_symbol
_atom_site_label
_atom_site_fract_x
_atom_site_fract_y
_atom_site_fract_z
Si Si1 0.799349 0.999053 0.172907
Si Si2 0.801363 0.804661 0.871711
Si Si3 0.500000 0.223011 0.022618
Si Si4 0.000000 0.426103 0.438803
Si Si5 0.203551 0.392871 0.171656
Si Si6 0.000000 0.062602 0.569616
O O1 0.750000 0.959631 0.250000
O O2 0.772412 0.107581 0.177028
O O3 0.000000 0.973332 0.153196
O O4 0.675870 0.955377 0.114033
O O5 0.757415 0.714825 0.826355
O O6 0.000000 0.800059 0.901942
O O7 0.674389 0.812383 0.938516
O O8 0.500000 0.170419 0.947738
O O9 0.500000 0.331560 0.017951
O O10 0.000000 0.500000 0.500000
O O11 0.827068 0.437575 0.388808
O O12 0.250000 0.431113 0.250000
O O13 0.000000 0.415284 0.152936
O O14 0.000000 0.000000 0.500000
#
# Coordination Sequence:
#
# PCOD8218074 Si02
#       6
#     8   8   4   4   8   4
#     4  11  21  33  51  77 110 149 189 230 265 312
#     4   9  18  29  48  79 113 140 173 211 271 325
#     4  10  20  36  54  76 110 143 174 223 272 323
#     4  10  22  38  58  82 113 142 177 223 289 326
#     4  10  18  31  53  84 113 143 173 217 269 339
#     4  12  22  36  54  78 111 147 186 217 270 319
#
# _framework density 17.146452
#
# number of rings (size 3 to 8) (size 9 to 14) (size 15 to 20)
#    0.000    1.778    4.444    0.667    0.000    1.778 
#    0.000    0.000    0.000    1.333    0.000    0.000 
#    0.000    0.000    0.000    0.000    0.000    0.000 
#
# Total GULP energy -446313.169866 kJ/mol
# GULP energy per Si atom -12397.588052 kJ/mol
# Density = 1.710743 g / cm^3
# Si number density = 17.146452 Si / 1000 Ang^3
#
#
#
# Elastic Constant Matrix: (Units=GPa)
#
#
# Indices 1 2 3 4 5 6 
#
# 1 132.4589 39.4720 70.4099 0.0000 0.0000 0.0000
# 2 39.4720 56.3065 52.5767 0.0000 0.0000 0.0000
# 3 70.4099 52.5767 128.5108 0.0000 0.0000 0.0000
# 4 0.0000 0.0000 0.0000 26.5180 0.0000 0.0000
# 5 0.0000 0.0000 0.0000 0.0000 23.3110 0.0000
# 6 0.0000 0.0000 0.0000 0.0000 0.0000 18.9828
#
#
#
# Elastic Compliance Matrix: (Units=1/GPa)
#
#
# Indices 1 2 3 4 5 6 
#
# 1 0.011036 -0.003383 -0.004663 0.000000 0.000000 0.000000
# 2 -0.003383 0.029776 -0.010329 0.000000 0.000000 0.000000
# 3 -0.004663 -0.010329 0.014562 0.000000 0.000000 0.000000
# 4 0.000000 0.000000 0.000000 0.037710 0.000000 0.000000
# 5 0.000000 0.000000 0.000000 0.000000 0.042898 0.000000
# 6 0.000000 0.000000 0.000000 0.000000 0.000000 0.052679
#
#
# Mechanical properties :
#
#
# Convention : Reuss Voigt Hill
#
# Bulk Modulus (GPa) = 53.68942 71.35482 62.52212
# Shear Modulus (GPa) = 21.58735 24.08354 22.83544
#
# Velocity S-wave (km/s) = 3.55209 3.75184 3.65333
# Velocity P-wave (km/s) = 6.94286 7.77648 7.37146
#
# Compressibility (1/GPa) = 0.01862564
#
# Stress axis : x y z
#
# Youngs Moduli (GPa) = 90.61266 33.58444 68.67345
#
# Poissons Ratio (x) = 0.11361 0.32019
# Poissons Ratio (y) = 0.30652 0.70930
# Poissons Ratio (z) = 0.42249 0.34688
#
# Static dielectric constant tensor:
#      x y z
#    x 3.461680 0.000000 0.000000 
#    y 0.000000 2.884400 0.000000 
#    z 0.000000 0.000000 3.024330 
# 
# 
# High freq. dielectric constant tensor:
#      x y z
#    x 1.685810 0.000000 0.000000 
#    y 0.000000 1.614740 0.000000 
#    z 0.000000 0.000000 1.648660 
# 
# From -- ./inp_files/19800.got.cif
#   From: 2010.03.12/outbox.cif.g09.slc.cpg/sg53_10_cif.got.tgz:19800.got - 2010.04.16 14:36:59.
