data_PCOD8218910
_publ_section_title
;
Structure prediction by ZEFSAII (Michael W. Deem and Ramdas Pophale) SiO2 
 PCOD8218910
Probable space group: P M N A
;
_chemical_formula_sum "Si O2"
_cell_formula_units_Z 64
_cell_length_a 17.957231
_cell_length_b 19.804901
_cell_length_c 9.408571
_cell_angle_alpha 90.000000
_cell_angle_beta 90.000000
_cell_angle_gamma 90.000000
_cell_volume 3346.075313
_symmetry_space_group_name_H-M "P M N A"
_symmetry_group_IT_number 53
_symmetry_cell_setting 'orthorhombic'
loop_
_space_group_symop_operation_xyz
x,y,z
1/2-x,-y,1/2+z
x,-y,-z
1/2-x,y,1/2-z
-x,-y,-z
1/2+x,y,1/2-z
-x,y,z
1/2+x,-y,1/2+z
loop_
_atom_site_type_symbol
_atom_site_label
_atom_site_fract_x
_atom_site_fract_y
_atom_site_fract_z
Si Si1 0.586001 0.281404 0.599948
Si Si2 0.162864 0.809546 0.895768
Si Si3 0.084991 0.075598 0.950426
Si Si4 0.332061 0.794350 0.923482
Si Si5 0.084921 0.840609 0.312355
Si Si6 0.337964 0.604001 0.248322
Si Si7 0.082907 0.479452 0.335912
Si Si8 0.588219 0.344757 0.038495
O O1 0.500000 0.300373 0.600120
O O2 0.607171 0.249501 0.447466
O O3 0.605538 0.225908 0.720725
O O4 0.631583 0.350623 0.622346
O O5 0.144106 0.880585 0.965653
O O6 0.244236 0.784872 0.945750
O O7 0.154551 0.826592 0.730177
O O8 0.000000 0.096913 0.988192
O O9 0.097446 0.091275 0.781856
O O10 0.100623 0.000000 0.000000
O O11 0.374830 0.724103 0.915336
O O12 0.363611 0.842650 0.047788
O O13 0.000000 0.836118 0.364302
O O14 0.250000 0.608449 0.250000
O O15 0.361978 0.524927 0.260676
O O16 0.373580 0.633401 0.106764
O O17 0.086345 0.500000 0.500000
O O18 0.103755 0.399719 0.335866
O O19 0.000000 0.490982 0.275496
O O20 0.500000 0.336402 0.011164
#
# Coordination Sequence:
#
# PCOD8218910 Si02
#       8
#     8   8   8   8   8   8   8   8
#     4  10  19  32  52  78 109 145 188 239 292 348
#     4  10  23  37  52  83 119 154 187 239 304 355
#     4   9  19  39  63  85 116 157 194 230 281 348
#     4  11  21  36  54  84 117 148 190 243 297 352
#     4   9  18  32  57  87 110 143 194 240 279 337
#     4  11  19  29  50  82 110 141 184 241 300 353
#     4   8  16  31  50  73 100 135 186 237 281 337
#     4  10  19  34  58  81 106 145 194 248 295 348
#
# _framework density 19.126885000000001
#
# number of rings (size 3 to 8) (size 9 to 14) (size 15 to 20)
#    0.000    2.250    1.250    4.125    0.000    3.500 
#    2.250    3.125    0.000    2.250    0.000    2.625 
#    0.000    0.000    0.000    0.000    0.000    0.000 
#
# Total GULP energy -793249.924797 kJ/mol
# GULP energy per Si atom -12394.530075 kJ/mol
# Density = 1.908335 g / cm^3
# Si number density = 19.126885 Si / 1000 Ang^3
#
#
#
# Elastic Constant Matrix: (Units=GPa)
#
#
# Indices 1 2 3 4 5 6 
#
# 1 124.5468 60.4577 46.0841 0.0000 0.0000 0.0000
# 2 60.4577 110.0000 40.5741 0.0000 0.0000 0.0000
# 3 46.0841 40.5741 83.5290 0.0000 0.0000 0.0000
# 4 0.0000 0.0000 0.0000 26.9975 0.0000 0.0000
# 5 0.0000 0.0000 0.0000 0.0000 26.9188 0.0000
# 6 0.0000 0.0000 0.0000 0.0000 0.0000 3.3594
#
#
#
# Elastic Compliance Matrix: (Units=1/GPa)
#
#
# Indices 1 2 3 4 5 6 
#
# 1 0.012038 -0.005076 -0.004176 0.000000 0.000000 0.000000
# 2 -0.005076 0.013216 -0.003619 0.000000 0.000000 0.000000
# 3 -0.004176 -0.003619 0.016034 0.000000 0.000000 0.000000
# 4 0.000000 0.000000 0.000000 0.037040 0.000000 0.000000
# 5 0.000000 0.000000 0.000000 0.000000 0.037149 0.000000
# 6 0.000000 0.000000 0.000000 0.000000 0.000000 0.297669
#
#
# Mechanical properties :
#
#
# Convention : Reuss Voigt Hill
#
# Bulk Modulus (GPa) = 64.32665 68.03417 66.18041
# Shear Modulus (GPa) = 11.25950 22.85249 17.05599
#
# Velocity S-wave (km/s) = 2.42889 3.46031 2.98942
# Velocity P-wave (km/s) = 6.44752 7.18416 6.82579
#
# Compressibility (1/GPa) = 0.01554566
#
# Stress axis : x y z
#
# Youngs Moduli (GPa) = 83.06790 75.66758 62.36851
#
# Poissons Ratio (x) = 0.38410 0.26045
# Poissons Ratio (y) = 0.42166 0.22571
# Poissons Ratio (z) = 0.34689 0.27384
#
# Static dielectric constant tensor:
#      x y z
#    x 3.622110 0.000000 0.000000 
#    y 0.000000 3.648360 0.000000 
#    z 0.000000 0.000000 3.366200 
# 
# 
# High freq. dielectric constant tensor:
#      x y z
#    x 1.748140 0.000000 0.000000 
#    y 0.000000 1.733190 0.000000 
#    z 0.000000 0.000000 1.721760 
# 
# From -- ./inp_files/10208.got.cif
#   From: 2010.03.12/outbox.cif.g09.slc.cpg/sg53_6_cif.got.tgz:10208.got - 2010.04.16 14:36:59.
