data_PCOD8218693
_publ_section_title
;
Structure prediction by ZEFSAII (Michael W. Deem and Ramdas Pophale) SiO2 
 PCOD8218693
Probable space group: P M N A
;
_chemical_formula_sum "Si O2"
_cell_formula_units_Z 64
_cell_length_a 9.621977
_cell_length_b 13.731151
_cell_length_c 27.654363
_cell_angle_alpha 90.000000
_cell_angle_beta 90.000000
_cell_angle_gamma 90.000000
_cell_volume 3653.717091
_symmetry_space_group_name_H-M "P M N A"
_symmetry_group_IT_number 53
_symmetry_cell_setting 'orthorhombic'
loop_
_space_group_symop_operation_xyz
x,y,z
1/2-x,-y,1/2+z
x,-y,-z
1/2-x,y,1/2-z
-x,-y,-z
1/2+x,y,1/2-z
-x,y,z
1/2+x,-y,1/2+z
loop_
_atom_site_type_symbol
_atom_site_label
_atom_site_fract_x
_atom_site_fract_y
_atom_site_fract_z
Si Si1 0.836408 0.713450 0.062711
Si Si2 0.838417 0.560320 0.143398
Si Si3 0.658595 0.775510 0.795146
Si Si4 0.646750 0.720979 0.287807
Si Si5 0.346798 0.877800 0.368389
Si Si6 0.840287 0.378155 0.374783
Si Si7 0.338205 0.390040 0.013485
Si Si8 0.835801 0.002227 0.702101
O O1 0.788792 0.629094 0.099680
O O2 0.800274 0.823933 0.081659
O O3 0.000000 0.706703 0.051688
O O4 0.749065 0.691925 0.014641
O O5 0.807510 0.614465 0.194133
O O6 0.751620 0.463155 0.146798
O O7 0.000000 0.534781 0.137616
O O8 0.750000 0.738879 0.750000
O O9 0.500000 0.757273 0.779983
O O10 0.696516 0.718854 0.844448
O O11 0.685667 0.888355 0.806115
O O12 0.750000 0.768998 0.250000
O O13 0.500000 0.713762 0.260432
O O14 0.630744 0.786611 0.334158
O O15 0.500000 0.929570 0.373940
O O16 0.229757 0.948709 0.346156
O O17 0.806182 0.364369 0.431012
O O18 0.000000 0.407816 0.368012
O O19 0.500000 0.377872 0.000610
O O20 0.289338 0.500000 0.000000
O O21 0.750000 0.035914 0.750000
O O22 0.000000 0.029657 0.707667
#
# Coordination Sequence:
#
# PCOD8218693 Si02
#       8
#     8   8   8   8   8   8   8   8
#     4   9  18  32  49  71 101 133 163 200 247 295
#     4   9  18  31  45  64  92 126 162 198 236 286
#     4   9  20  37  54  73 100 131 165 206 251 297
#     4   9  18  30  42  61  92 126 158 192 234 286
#     4   9  18  32  49  71  99 128 161 202 248 296
#     4  10  20  34  51  72  99 130 163 205 251 291
#     4  10  19  31  50  76 102 129 168 212 248 290
#     4  10  19  32  52  76  98 126 165 207 252 301
#
# _framework density 17.516408999999999
#
# number of rings (size 3 to 8) (size 9 to 14) (size 15 to 20)
#    0.000    2.625    1.250    2.250    0.000    4.750 
#    0.000    5.000    0.000    0.750    0.000    5.250 
#    0.000    0.000    0.000    0.000    0.000    0.000 
#
# Total GULP energy -793130.257758 kJ/mol
# GULP energy per Si atom -12392.660277 kJ/mol
# Density = 1.747654 g / cm^3
# Si number density = 17.516409 Si / 1000 Ang^3
#
#
#
# Elastic Constant Matrix: (Units=GPa)
#
#
# Indices 1 2 3 4 5 6 
#
# 1 73.9922 39.0144 43.8361 0.0000 0.0000 0.0000
# 2 39.0144 68.7473 39.7669 0.0000 0.0000 0.0000
# 3 43.8361 39.7669 85.6194 0.0000 0.0000 0.0000
# 4 0.0000 0.0000 0.0000 27.5674 0.0000 0.0000
# 5 0.0000 0.0000 0.0000 0.0000 24.5381 0.0000
# 6 0.0000 0.0000 0.0000 0.0000 0.0000 22.7909
#
#
#
# Elastic Compliance Matrix: (Units=1/GPa)
#
#
# Indices 1 2 3 4 5 6 
#
# 1 0.022408 -0.008314 -0.007611 0.000000 0.000000 0.000000
# 2 -0.008314 0.022974 -0.006414 0.000000 0.000000 0.000000
# 3 -0.007611 -0.006414 0.018555 0.000000 0.000000 0.000000
# 4 0.000000 0.000000 0.000000 0.036275 0.000000 0.000000
# 5 0.000000 0.000000 0.000000 0.000000 0.040753 0.000000
# 6 0.000000 0.000000 0.000000 0.000000 0.000000 0.043877
#
#
# Mechanical properties :
#
#
# Convention : Reuss Voigt Hill
#
# Bulk Modulus (GPa) = 51.92225 52.62155 52.27190
# Shear Modulus (GPa) = 21.19177 22.02870 21.61023
#
# Velocity S-wave (km/s) = 3.48203 3.55012 3.51624
# Velocity P-wave (km/s) = 6.77292 6.84916 6.81114
#
# Compressibility (1/GPa) = 0.01925957
#
# Stress axis : x y z
#
# Youngs Moduli (GPa) = 44.62732 43.52656 53.89250
#
# Poissons Ratio (x) = 0.36188 0.41018
# Poissons Ratio (y) = 0.37103 0.34567
# Poissons Ratio (z) = 0.33966 0.27918
#
# Static dielectric constant tensor:
#      x y z
#    x 3.430130 0.000000 0.000000 
#    y 0.000000 3.150810 0.000000 
#    z 0.000000 0.000000 3.213400 
# 
# 
# High freq. dielectric constant tensor:
#      x y z
#    x 1.680550 0.000000 0.000000 
#    y 0.000000 1.660990 0.000000 
#    z 0.000000 0.000000 1.661380 
# 
# From -- ./inp_files/38237.got.cif
#   From: 2010.03.12/outbox.cif.g09.slc.cpg/sg53_20_cif.got.tgz:38237.got - 2010.04.16 14:36:59.
