data_PCOD8218428
_publ_section_title
;
Structure prediction by ZEFSAII (Michael W. Deem and Ramdas Pophale) SiO2 
 PCOD8218428
Probable space group: P M N A
;
_chemical_formula_sum "Si O2"
_cell_formula_units_Z 64
_cell_length_a 9.260537
_cell_length_b 19.774365
_cell_length_c 19.920796
_cell_angle_alpha 90.000000
_cell_angle_beta 90.000000
_cell_angle_gamma 90.000000
_cell_volume 3647.920840
_symmetry_space_group_name_H-M "P M N A"
_symmetry_group_IT_number 53
_symmetry_cell_setting 'orthorhombic'
loop_
_space_group_symop_operation_xyz
x,y,z
1/2-x,-y,1/2+z
x,-y,-z
1/2-x,y,1/2-z
-x,-y,-z
1/2+x,y,1/2-z
-x,y,z
1/2+x,-y,1/2+z
loop_
_atom_site_type_symbol
_atom_site_label
_atom_site_fract_x
_atom_site_fract_y
_atom_site_fract_z
Si Si1 0.670054 0.195776 0.059563
Si Si2 0.334153 0.264638 0.681977
Si Si3 0.670340 0.344982 0.032740
Si Si4 0.335318 0.608916 0.402872
Si Si5 0.168970 0.164011 0.588488
Si Si6 0.840091 0.515388 0.578722
Si Si7 0.333453 0.955175 0.184792
Si Si8 0.670761 0.890661 0.817170
O O1 0.500000 0.191924 0.065997
O O2 0.721594 0.273858 0.064170
O O3 0.735362 0.153623 0.121593
O O4 0.717522 0.161901 0.989242
O O5 0.250000 0.250811 0.750000
O O6 0.500000 0.242346 0.691446
O O7 0.323994 0.343612 0.662359
O O8 0.262957 0.221215 0.623451
O O9 0.500000 0.344679 0.016309
O O10 0.706892 0.405602 0.085494
O O11 0.750746 0.355356 0.962850
O O12 0.500000 0.598193 0.425382
O O13 0.268790 0.535476 0.383842
O O14 0.203135 0.091087 0.620690
O O15 0.000000 0.183021 0.595293
O O16 0.839764 0.500000 0.500000
O O17 0.000000 0.504172 0.608937
O O18 0.250000 0.927682 0.250000
O O19 0.500000 0.950724 0.203957
O O20 0.288426 0.031609 0.166942
O O21 0.750000 0.865831 0.750000
O O22 0.500000 0.881257 0.807688
#
# Coordination Sequence:
#
# PCOD8218428 Si02
#       8
#     8   8   8   8   8   8   8   8
#     4   9  17  30  52  76 100 130 163 204 250 294
#     4  11  23  35  48  69  98 135 173 208 248 297
#     4   9  16  29  48  71  97 126 159 195 240 293
#     4  10  19  30  45  68  96 124 159 204 246 284
#     4  10  19  32  51  74  99 130 165 206 253 296
#     4   8  15  26  44  68  92 122 158 192 232 285
#     4   9  18  31  49  72  98 130 168 205 243 289
#     4   9  18  34  53  74  99 128 164 204 246 299
#
# _framework density 17.544241
#
# number of rings (size 3 to 8) (size 9 to 14) (size 15 to 20)
#    0.000    2.625    1.250    1.875    0.000    5.750 
#    0.000    3.750    0.000    0.750    0.000    7.875 
#    0.000    0.000    0.000    0.000    0.000    0.000 
#
# Total GULP energy -793397.385970 kJ/mol
# GULP energy per Si atom -12396.834156 kJ/mol
# Density = 1.750431 g / cm^3
# Si number density = 17.544241 Si / 1000 Ang^3
#
#
#
# Elastic Constant Matrix: (Units=GPa)
#
#
# Indices 1 2 3 4 5 6 
#
# 1 62.9417 38.0369 38.1413 0.0000 0.0000 0.0000
# 2 38.0369 122.6706 66.4082 0.0000 0.0000 0.0000
# 3 38.1413 66.4082 106.6496 0.0000 0.0000 0.0000
# 4 0.0000 0.0000 0.0000 18.5113 0.0000 0.0000
# 5 0.0000 0.0000 0.0000 0.0000 19.9591 0.0000
# 6 0.0000 0.0000 0.0000 0.0000 0.0000 18.6824
#
#
#
# Elastic Compliance Matrix: (Units=1/GPa)
#
#
# Indices 1 2 3 4 5 6 
#
# 1 0.021372 -0.003755 -0.005305 0.000000 0.000000 0.000000
# 2 -0.003755 0.012957 -0.006725 0.000000 0.000000 0.000000
# 3 -0.005305 -0.006725 0.015461 0.000000 0.000000 0.000000
# 4 0.000000 0.000000 0.000000 0.054021 0.000000 0.000000
# 5 0.000000 0.000000 0.000000 0.000000 0.050103 0.000000
# 6 0.000000 0.000000 0.000000 0.000000 0.000000 0.053526
#
#
# Mechanical properties :
#
#
# Convention : Reuss Voigt Hill
#
# Bulk Modulus (GPa) = 54.88555 64.15942 59.52249
# Shear Modulus (GPa) = 20.40125 21.40891 20.90508
#
# Velocity S-wave (km/s) = 3.41375 3.49704 3.45565
# Velocity P-wave (km/s) = 6.84765 7.27703 7.06560
#
# Compressibility (1/GPa) = 0.01821973
#
# Stress axis : x y z
#
# Youngs Moduli (GPa) = 46.79096 77.17944 64.67745
#
# Poissons Ratio (x) = 0.28979 0.34312
# Poissons Ratio (y) = 0.17569 0.43496
# Poissons Ratio (z) = 0.24823 0.51904
#
# Static dielectric constant tensor:
#      x y z
#    x 3.181940 0.000000 0.000000 
#    y 0.000000 3.725850 0.000000 
#    z 0.000000 0.000000 3.091800 
# 
# 
# High freq. dielectric constant tensor:
#      x y z
#    x 1.665180 0.000000 0.000000 
#    y 0.000000 1.689840 0.000000 
#    z 0.000000 0.000000 1.645820 
# 
# From -- ./inp_files/27046.got.cif
#   From: 2010.03.12/outbox.cif.g09.slc.cpg/sg53_14_cif.got.tgz:27046.got - 2010.04.16 14:36:59.
