data_PCOD8218238
_publ_section_title
;
Structure prediction by ZEFSAII (Michael W. Deem and Ramdas Pophale) SiO2 
 PCOD8218238
Probable space group: P M N A
;
_chemical_formula_sum "Si O2"
_cell_formula_units_Z 64
_cell_length_a 8.813598
_cell_length_b 20.065717
_cell_length_c 19.752432
_cell_angle_alpha 90.000000
_cell_angle_beta 90.000000
_cell_angle_gamma 90.000000
_cell_volume 3493.240576
_symmetry_space_group_name_H-M "P M N A"
_symmetry_group_IT_number 53
_symmetry_cell_setting 'orthorhombic'
loop_
_space_group_symop_operation_xyz
x,y,z
1/2-x,-y,1/2+z
x,-y,-z
1/2-x,y,1/2-z
-x,-y,-z
1/2+x,y,1/2-z
-x,y,z
1/2+x,-y,1/2+z
loop_
_atom_site_type_symbol
_atom_site_label
_atom_site_fract_x
_atom_site_fract_y
_atom_site_fract_z
Si Si1 0.676526 0.304454 0.594104
Si Si2 0.824319 0.516661 0.921887
Si Si3 0.819804 0.337933 0.054860
Si Si4 0.676684 0.022365 0.924285
Si Si5 0.320787 0.921553 0.678123
Si Si6 0.678199 0.413730 0.821714
Si Si7 0.823562 0.842364 0.056837
Si Si8 0.819989 0.802172 0.908848
O O1 0.500000 0.322372 0.601858
O O2 0.739955 0.331506 0.522186
O O3 0.766523 0.341080 0.653838
O O4 0.702794 0.225050 0.599950
O O5 0.768141 0.593084 0.910639
O O6 0.723156 0.469917 0.875632
O O7 0.000000 0.507249 0.901762
O O8 0.798927 0.500000 0.000000
O O9 0.760777 0.274355 0.098995
O O10 0.000000 0.335701 0.049846
O O11 0.500000 0.013085 0.908555
O O12 0.723746 0.098828 0.911376
O O13 0.773818 0.978460 0.873512
O O14 0.718480 0.000000 0.000000
O O15 0.250000 0.937077 0.750000
O O16 0.500000 0.921166 0.685008
O O17 0.259469 0.849643 0.651129
O O18 0.750000 0.432108 0.750000
O O19 0.500000 0.412521 0.813211
O O20 0.000000 0.862767 0.057656
O O21 0.764302 0.831129 0.980497
O O22 0.000000 0.802037 0.909482
#
# Coordination Sequence:
#
# PCOD8218238 Si02
#       8
#     8   8   8   8   8   8   8   8
#     4   9  17  34  58  84 111 141 182 227 277 335
#     4  10  18  33  59  86 114 149 187 230 281 336
#     4   8  14  28  54  84 111 140 178 222 272 329
#     4  11  22  35  54  83 118 150 186 233 282 332
#     4  11  22  37  57  79 111 149 191 233 282 341
#     4  12  25  39  56  79 114 153 193 235 283 341
#     4   9  17  32  58  86 110 140 184 230 275 331
#     4   8  15  29  52  81 108 141 181 223 269 329
#
# _framework density 18.321097000000002
#
# number of rings (size 3 to 8) (size 9 to 14) (size 15 to 20)
#    0.000    2.250    2.500    3.375    0.000    1.250 
#    0.000    1.250    0.000    6.000    0.000    0.000 
#    0.000    0.000    0.000    0.000    0.000    0.000 
#
# Total GULP energy -793423.376142 kJ/mol
# GULP energy per Si atom -12397.240252 kJ/mol
# Density = 1.827940 g / cm^3
# Si number density = 18.321097 Si / 1000 Ang^3
#
#
#
# Elastic Constant Matrix: (Units=GPa)
#
#
# Indices 1 2 3 4 5 6 
#
# 1 70.3972 38.2169 35.9026 0.0000 0.0000 0.0000
# 2 38.2169 132.8558 43.6795 0.0000 0.0000 0.0000
# 3 35.9026 43.6795 80.0843 0.0000 0.0000 0.0000
# 4 0.0000 0.0000 0.0000 17.8294 0.0000 0.0000
# 5 0.0000 0.0000 0.0000 0.0000 19.9493 0.0000
# 6 0.0000 0.0000 0.0000 0.0000 0.0000 21.7396
#
#
#
# Elastic Compliance Matrix: (Units=1/GPa)
#
#
# Indices 1 2 3 4 5 6 
#
# 1 0.019563 -0.003344 -0.006947 0.000000 0.000000 0.000000
# 2 -0.003344 0.009743 -0.003815 0.000000 0.000000 0.000000
# 3 -0.006947 -0.003815 0.017682 0.000000 0.000000 0.000000
# 4 0.000000 0.000000 0.000000 0.056087 0.000000 0.000000
# 5 0.000000 0.000000 0.000000 0.000000 0.050127 0.000000
# 6 0.000000 0.000000 0.000000 0.000000 0.000000 0.045999
#
#
# Mechanical properties :
#
#
# Convention : Reuss Voigt Hill
#
# Bulk Modulus (GPa) = 53.25558 57.65949 55.45754
# Shear Modulus (GPa) = 21.39760 22.93955 22.16858
#
# Velocity S-wave (km/s) = 3.42119 3.54232 3.48228
# Velocity P-wave (km/s) = 6.68858 6.94771 6.81938
#
# Compressibility (1/GPa) = 0.01877737
#
# Stress axis : x y z
#
# Youngs Moduli (GPa) = 51.11675 102.63715 56.55495
#
# Poissons Ratio (x) = 0.34318 0.39287
# Poissons Ratio (y) = 0.17091 0.21576
# Poissons Ratio (z) = 0.35509 0.39157
#
# Static dielectric constant tensor:
#      x y z
#    x 3.080310 0.000000 0.000000 
#    y 0.000000 3.854620 0.000000 
#    z 0.000000 0.000000 3.354600 
# 
# 
# High freq. dielectric constant tensor:
#      x y z
#    x 1.684160 0.000000 0.000000 
#    y 0.000000 1.729740 0.000000 
#    z 0.000000 0.000000 1.682810 
# 
# From -- ./inp_files/26753.got.cif
#   From: 2010.03.12/outbox.cif.g09.slc.cpg/sg53_14_cif.got.tgz:26753.got - 2010.04.16 14:36:59.
