data_PCOD8218218
_publ_section_title
;
Structure prediction by ZEFSAII (Michael W. Deem and Ramdas Pophale) SiO2 
 PCOD8218218
Probable space group: P M N A
;
_chemical_formula_sum "Si O2"
_cell_formula_units_Z 64
_cell_length_a 8.813756
_cell_length_b 19.885610
_cell_length_c 20.782715
_cell_angle_alpha 90.000000
_cell_angle_beta 90.000000
_cell_angle_gamma 90.000000
_cell_volume 3642.522332
_symmetry_space_group_name_H-M "P M N A"
_symmetry_group_IT_number 53
_symmetry_cell_setting 'orthorhombic'
loop_
_space_group_symop_operation_xyz
x,y,z
1/2-x,-y,1/2+z
x,-y,-z
1/2-x,y,1/2-z
-x,-y,-z
1/2+x,y,1/2-z
-x,y,z
1/2+x,-y,1/2+z
loop_
_atom_site_type_symbol
_atom_site_label
_atom_site_fract_x
_atom_site_fract_y
_atom_site_fract_z
Si Si1 0.321027 0.328214 0.130858
Si Si2 0.320316 0.325688 0.984390
Si Si3 0.177979 0.464269 0.567090
Si Si4 0.678746 0.542822 0.683978
Si Si5 0.680080 0.042515 0.184022
Si Si6 0.321022 0.179111 0.127062
Si Si7 0.680695 0.820424 0.016798
Si Si8 0.680603 0.039598 0.937727
O O1 0.500000 0.342457 0.136997
O O2 0.231457 0.380330 0.174943
O O3 0.278353 0.252719 0.154805
O O4 0.264211 0.337186 0.057422
O O5 0.500000 0.325808 0.987651
O O6 0.266556 0.386528 0.938645
O O7 0.262773 0.252969 0.957395
O O8 0.217210 0.500000 0.500000
O O9 0.269478 0.497029 0.624804
O O10 0.000000 0.470692 0.582263
O O11 0.750000 0.514463 0.750000
O O12 0.500000 0.539932 0.689831
O O13 0.750000 0.015433 0.250000
O O14 0.500000 0.039542 0.188321
O O15 0.740213 0.118836 0.171832
O O16 0.742205 0.994741 0.127094
O O17 0.500000 0.172586 0.121391
O O18 0.254795 0.169812 0.055274
O O19 0.500000 0.820900 0.014986
O O20 0.738607 0.882660 0.060349
O O21 0.500000 0.036343 0.938610
O O22 0.743751 0.000000 0.000000
#
# Coordination Sequence:
#
# PCOD8218218 Si02
#       8
#     8   8   8   8   8   8   8   8
#     4   9  16  31  51  73 100 132 165 198 241 295
#     4   8  14  25  47  75 101 127 156 197 247 297
#     4  10  18  33  56  79 102 131 167 205 249 300
#     4  12  25  38  52  73 102 136 171 209 251 297
#     4  10  19  30  44  68  98 130 162 201 246 288
#     4   8  14  25  45  70  97 126 161 200 238 282
#     4   8  12  21  41  72  99 120 156 204 244 278
#     4   9  14  23  43  70  96 122 162 210 243 270
#
# _framework density 17.570242
#
# number of rings (size 3 to 8) (size 9 to 14) (size 15 to 20)
#    0.000    2.750    2.500    2.625    0.000    0.750 
#    0.000    1.875    0.000    1.125    0.000    3.500 
#    0.000    0.000    0.000    0.000    0.000    0.000 
#
# Total GULP energy -793070.903569 kJ/mol
# GULP energy per Si atom -12391.732868 kJ/mol
# Density = 1.753025 g / cm^3
# Si number density = 17.570242 Si / 1000 Ang^3
#
#
#
# Elastic Constant Matrix: (Units=GPa)
#
#
# Indices 1 2 3 4 5 6 
#
# 1 43.0978 27.4117 32.8246 0.0000 0.0000 0.0000
# 2 27.4117 138.4484 66.1959 0.0000 0.0000 0.0000
# 3 32.8246 66.1959 111.4223 0.0000 0.0000 0.0000
# 4 0.0000 0.0000 0.0000 22.2862 0.0000 0.0000
# 5 0.0000 0.0000 0.0000 0.0000 20.6044 0.0000
# 6 0.0000 0.0000 0.0000 0.0000 0.0000 -15.8399
#
#
#
# Elastic Compliance Matrix: (Units=1/GPa)
#
#
# Indices 1 2 3 4 5 6 
#
# 1 0.030491 -0.002433 -0.007537 0.000000 0.000000 0.000000
# 2 -0.002433 0.010283 -0.005392 0.000000 0.000000 0.000000
# 3 -0.007537 -0.005392 0.014399 0.000000 0.000000 0.000000
# 4 0.000000 0.000000 0.000000 0.044871 0.000000 0.000000
# 5 0.000000 0.000000 0.000000 0.000000 0.048533 0.000000
# 6 0.000000 0.000000 0.000000 0.000000 0.000000 -0.063132
#
#
# Mechanical properties :
#
#
# Convention : Reuss Voigt Hill
#
# Bulk Modulus (GPa) = 40.90362 60.64811 50.77586
# Shear Modulus (GPa) = 40.21902 16.51255 28.36578
#
# Velocity S-wave (km/s) = 4.78958 3.06894 4.02235
# Velocity P-wave (km/s) = 7.34285 6.86661 7.10872
#
# Compressibility (1/GPa) = 0.02444772
#
# Stress axis : x y z
#
# Youngs Moduli (GPa) = 32.79644 97.24944 69.45087
#
# Poissons Ratio (x) = 0.23665 0.52344
# Poissons Ratio (y) = 0.07981 0.37449
# Poissons Ratio (z) = 0.24718 0.52438
#
# Static dielectric constant tensor:
#      x y z
#    x 2.704560 0.000000 0.000000 
#    y 0.000000 3.884860 0.000000 
#    z 0.000000 0.000000 3.155010 
# 
# 
# High freq. dielectric constant tensor:
#      x y z
#    x 1.623770 0.000000 0.000000 
#    y 0.000000 1.693350 0.000000 
#    z 0.000000 0.000000 1.655550 
# 
# From -- ./inp_files/31365.got.cif
#   From: 2010.03.12/outbox.cif.g09.slc.cpg/sg53_16_cif.got.tgz:31365.got - 2010.04.16 14:36:59.
