data_PCOD8218600
_publ_section_title
;
Structure prediction by ZEFSAII (Michael W. Deem and Ramdas Pophale) SiO2 
 PCOD8218600
Probable space group: P M N A
;
_chemical_formula_sum "Si O2"
_cell_formula_units_Z 48
_cell_length_a 8.990204
_cell_length_b 18.295097
_cell_length_c 16.864943
_cell_angle_alpha 90.000000
_cell_angle_beta 90.000000
_cell_angle_gamma 90.000000
_cell_volume 2773.889398
_symmetry_space_group_name_H-M "P M N A"
_symmetry_group_IT_number 53
_symmetry_cell_setting 'orthorhombic'
loop_
_space_group_symop_operation_xyz
x,y,z
1/2-x,-y,1/2+z
x,-y,-z
1/2-x,y,1/2-z
-x,-y,-z
1/2+x,y,1/2-z
-x,y,z
1/2+x,-y,1/2+z
loop_
_atom_site_type_symbol
_atom_site_label
_atom_site_fract_x
_atom_site_fract_y
_atom_site_fract_z
Si Si1 0.324918 0.332501 0.965475
Si Si2 0.173376 0.165573 0.521252
Si Si3 0.332569 0.051693 0.424285
Si Si4 0.663742 0.547154 0.920875
Si Si5 0.825672 0.934187 0.330559
Si Si6 0.324332 0.428549 0.667003
O O1 0.500000 0.340374 0.945517
O O2 0.274701 0.249000 0.972724
O O3 0.231214 0.368679 0.895356
O O4 0.288413 0.371662 0.050149
O O5 0.259727 0.128924 0.447847
O O6 0.213307 0.126420 0.603800
O O7 0.000000 0.158416 0.502444
O O8 0.500000 0.065100 0.394276
O O9 0.328716 0.000000 0.500000
O O10 0.239411 0.013332 0.354552
O O11 0.500000 0.548616 0.880576
O O12 0.778992 0.511008 0.859580
O O13 0.656344 0.500000 0.000000
O O14 0.750000 0.906721 0.250000
O O15 0.000000 0.942649 0.317538
O O16 0.250000 0.408874 0.750000
O O17 0.500000 0.424344 0.674935
#
# Coordination Sequence:
#
# PCOD8218600 Si02
#       6
#     8   8   8   8   8   8
#     4   9  18  33  51  72  99 128 157 192 237 285
#     4   9  18  32  50  72  98 128 158 191 235 285
#     4   9  17  30  48  69  93 123 161 199 233 275
#     4   8  15  30  50  69  92 123 158 194 232 277
#     4  10  19  31  48  70  97 127 160 196 236 281
#     4  11  21  32  48  70  97 127 161 198 237 282
#
# _framework density 17.304221999999999
#
# number of rings (size 3 to 8) (size 9 to 14) (size 15 to 20)
#    0.000    2.667    0.000    3.500    0.000    7.000 
#    0.000    1.667    0.000    1.000    0.000    4.667 
#    0.000    0.000    0.000    0.000    0.000    0.000 
#
# Total GULP energy -595097.855274 kJ/mol
# GULP energy per Si atom -12397.871985 kJ/mol
# Density = 1.726484 g / cm^3
# Si number density = 17.304222 Si / 1000 Ang^3
#
#
#
# Elastic Constant Matrix: (Units=GPa)
#
#
# Indices 1 2 3 4 5 6 
#
# 1 92.7747 51.4920 19.1381 0.0000 0.0000 0.0000
# 2 51.4920 130.7238 39.8365 0.0000 0.0000 0.0000
# 3 19.1381 39.8365 19.7058 0.0000 0.0000 0.0000
# 4 0.0000 0.0000 0.0000 15.8231 0.0000 0.0000
# 5 0.0000 0.0000 0.0000 0.0000 30.1291 0.0000
# 6 0.0000 0.0000 0.0000 0.0000 0.0000 19.1164
#
#
#
# Elastic Compliance Matrix: (Units=1/GPa)
#
#
# Indices 1 2 3 4 5 6 
#
# 1 0.014100 -0.003597 -0.006423 0.000000 0.000000 0.000000
# 2 -0.003597 0.020841 -0.038638 0.000000 0.000000 0.000000
# 3 -0.006423 -0.038638 0.135093 0.000000 0.000000 0.000000
# 4 0.000000 0.000000 0.000000 0.063199 0.000000 0.000000
# 5 0.000000 0.000000 0.000000 0.000000 0.033191 0.000000
# 6 0.000000 0.000000 0.000000 0.000000 0.000000 0.052311
#
#
# Mechanical properties :
#
#
# Convention : Reuss Voigt Hill
#
# Bulk Modulus (GPa) = 13.75157 51.57083 32.66120
# Shear Modulus (GPa) = 11.35616 21.86289 16.60953
#
# Velocity S-wave (km/s) = 2.56455 3.55835 3.10151
# Velocity P-wave (km/s) = 4.09065 6.83737 5.63396
#
# Compressibility (1/GPa) = 0.07271895
#
# Stress axis : x y z
#
# Youngs Moduli (GPa) = 70.92208 47.98252 7.40229
#
# Poissons Ratio (x) = 0.17258 0.04754
# Poissons Ratio (y) = 0.25508 0.28601
# Poissons Ratio (z) = 0.45552 1.85395
#
# Static dielectric constant tensor:
#      x y z
#    x 3.256720 0.000000 0.000000 
#    y 0.000000 3.415580 0.000000 
#    z 0.000000 0.000000 3.098430 
# 
# 
# High freq. dielectric constant tensor:
#      x y z
#    x 1.672370 0.000000 0.000000 
#    y 0.000000 1.658840 0.000000 
#    z 0.000000 0.000000 1.644250 
# 
# From -- ./inp_files/20149.got.cif
#   From: 2010.03.12/outbox.cif.g09.slc.cpg/sg53_11_cif.got.tgz:20149.got - 2010.04.16 14:36:59.
