data_PCOD8218862
_publ_section_title
;
Structure prediction by ZEFSAII (Michael W. Deem and Ramdas Pophale) SiO2 
 PCOD8218862
Probable space group: P M N A
;
_chemical_formula_sum "Si O2"
_cell_formula_units_Z 48
_cell_length_a 18.104319
_cell_length_b 15.636148
_cell_length_c 8.552328
_cell_angle_alpha 90.000000
_cell_angle_beta 90.000000
_cell_angle_gamma 90.000000
_cell_volume 2421.008501
_symmetry_space_group_name_H-M "P M N A"
_symmetry_group_IT_number 53
_symmetry_cell_setting 'orthorhombic'
loop_
_space_group_symop_operation_xyz
x,y,z
1/2-x,-y,1/2+z
x,-y,-z
1/2-x,y,1/2-z
-x,-y,-z
1/2+x,y,1/2-z
-x,y,z
1/2+x,-y,1/2+z
loop_
_atom_site_type_symbol
_atom_site_label
_atom_site_fract_x
_atom_site_fract_y
_atom_site_fract_z
Si Si1 0.081199 0.013828 0.681588
Si Si2 0.830649 0.495764 0.185735
Si Si3 0.835281 0.828501 0.206559
Si Si4 0.587100 0.150793 0.380260
Si Si5 0.582636 0.340318 0.700611
Si Si6 0.918672 0.664836 0.828008
O O1 0.138012 0.090124 0.698149
O O2 0.000000 0.038473 0.748453
O O3 0.074893 0.000000 0.500000
O O4 0.108833 0.929186 0.772312
O O5 0.750000 0.507380 0.250000
O O6 0.879226 0.572244 0.258168
O O7 0.862112 0.404097 0.243309
O O8 0.830869 0.500000 0.000000
O O9 0.750000 0.817165 0.250000
O O10 0.874237 0.741921 0.266758
O O11 0.856656 0.848227 0.026425
O O12 0.500000 0.148463 0.432906
O O13 0.601219 0.237658 0.279294
O O14 0.500000 0.338338 0.768697
O O15 0.582381 0.337480 0.514644
O O16 0.000000 0.639694 0.766854
#
# Coordination Sequence:
#
# PCOD8218862 Si02
#       6
#     8   8   8   8   8   8
#     4  10  21  37  56  79 107 142 184 225 265 314
#     4  10  19  32  51  78 110 139 169 212 265 315
#     4  11  21  33  52  81 111 139 174 220 274 325
#     4   9  18  36  60  80 103 140 184 224 263 315
#     4   9  17  32  55  78 101 136 183 224 255 302
#     4   8  15  30  54  80 101 133 183 224 253 299
#
# _framework density 19.826447999999999
#
# number of rings (size 3 to 8) (size 9 to 14) (size 15 to 20)
#    0.000    2.500    0.000    4.000    0.000    4.667 
#    0.000    7.500    0.000    4.000    0.000    0.000 
#    0.000    0.000    0.000    0.000    0.000    0.000 
#
# Total GULP energy -594903.525138 kJ/mol
# GULP energy per Si atom -12393.823440 kJ/mol
# Density = 1.978132 g / cm^3
# Si number density = 19.826448 Si / 1000 Ang^3
#
#
#
# Elastic Constant Matrix: (Units=GPa)
#
#
# Indices 1 2 3 4 5 6 
#
# 1 159.0849 90.7490 27.8291 0.0000 0.0000 0.0000
# 2 90.7490 176.0468 28.6188 0.0000 0.0000 0.0000
# 3 27.8291 28.6188 36.0773 0.0000 0.0000 0.0000
# 4 0.0000 0.0000 0.0000 5.6022 0.0000 0.0000
# 5 0.0000 0.0000 0.0000 0.0000 15.4058 0.0000
# 6 0.0000 0.0000 0.0000 0.0000 0.0000 11.9004
#
#
#
# Elastic Compliance Matrix: (Units=1/GPa)
#
#
# Indices 1 2 3 4 5 6 
#
# 1 0.009358 -0.004191 -0.003894 0.000000 0.000000 0.000000
# 2 -0.004191 0.008398 -0.003429 0.000000 0.000000 0.000000
# 3 -0.003894 -0.003429 0.033442 0.000000 0.000000 0.000000
# 4 0.000000 0.000000 0.000000 0.178500 0.000000 0.000000
# 5 0.000000 0.000000 0.000000 0.000000 0.064911 0.000000
# 6 0.000000 0.000000 0.000000 0.000000 0.000000 0.084031
#
#
# Mechanical properties :
#
#
# Convention : Reuss Voigt Hill
#
# Bulk Modulus (GPa) = 35.49853 73.95585 54.72719
# Shear Modulus (GPa) = 12.16375 21.51582 16.83979
#
# Velocity S-wave (km/s) = 2.47960 3.29782 2.91754
# Velocity P-wave (km/s) = 5.11287 7.20302 6.24599
#
# Compressibility (1/GPa) = 0.02817018
#
# Stress axis : x y z
#
# Youngs Moduli (GPa) = 106.86387 119.07572 29.90230
#
# Poissons Ratio (x) = 0.49901 0.11644
# Poissons Ratio (y) = 0.44784 0.10254
# Poissons Ratio (z) = 0.41612 0.40834
#
# Static dielectric constant tensor:
#      x y z
#    x 3.522990 0.000000 0.000000 
#    y 0.000000 4.090880 0.000000 
#    z 0.000000 0.000000 3.097630 
# 
# 
# High freq. dielectric constant tensor:
#      x y z
#    x 1.767090 0.000000 0.000000 
#    y 0.000000 1.799540 0.000000 
#    z 0.000000 0.000000 1.725280 
# 
# From -- ./inp_files/9911.got.cif
#   From: 2010.03.12/outbox.cif.g09.slc.cpg/sg53_5_cif.got.tgz:9911.got - 2010.04.16 14:36:59.
