data_PCOD8218911
_publ_section_title
;
Structure prediction by ZEFSAII (Michael W. Deem and Ramdas Pophale) SiO2 
 PCOD8218911
Probable space group: P M N A
;
_chemical_formula_sum "Si O2"
_cell_formula_units_Z 56
_cell_length_a 8.876732
_cell_length_b 15.799365
_cell_length_c 20.025185
_cell_angle_alpha 90.000000
_cell_angle_beta 90.000000
_cell_angle_gamma 90.000000
_cell_volume 2808.466691
_symmetry_space_group_name_H-M "P M N A"
_symmetry_group_IT_number 53
_symmetry_cell_setting 'orthorhombic'
loop_
_space_group_symop_operation_xyz
x,y,z
1/2-x,-y,1/2+z
x,-y,-z
1/2-x,y,1/2-z
-x,-y,-z
1/2+x,y,1/2-z
-x,y,z
1/2+x,-y,1/2+z
loop_
_atom_site_type_symbol
_atom_site_label
_atom_site_fract_x
_atom_site_fract_y
_atom_site_fract_z
Si Si1 0.677745 0.651457 0.318601
Si Si2 0.823671 0.322127 0.416877
Si Si3 0.323027 0.802827 0.682327
Si Si4 0.179287 0.072375 0.951583
Si Si5 0.177762 0.471434 0.318385
Si Si6 0.323533 0.997113 0.683700
Si Si7 0.323160 0.737019 0.456334
O O1 0.750000 0.687743 0.250000
O O2 0.500000 0.641498 0.308092
O O3 0.748433 0.560841 0.336078
O O4 0.715954 0.713687 0.379892
O O5 0.739280 0.245269 0.381445
O O6 0.784140 0.409474 0.379697
O O7 0.764787 0.325325 0.493142
O O8 0.000000 0.304446 0.415669
O O9 0.250000 0.766072 0.750000
O O10 0.500000 0.789674 0.687073
O O11 0.276282 0.900023 0.672419
O O12 0.238226 0.052142 0.877515
O O13 0.231906 0.166778 0.970690
O O14 0.000000 0.067519 0.953672
O O15 0.247286 0.000000 0.000000
O O16 0.250000 0.434857 0.250000
O O17 0.000000 0.482057 0.307889
O O18 0.250000 0.035065 0.750000
O O19 0.500000 0.005630 0.691501
O O20 0.500000 0.726737 0.469548
#
# Coordination Sequence:
#
# PCOD8218911 Si02
#       7
#     8   8   8   8   8   8   8
#     4  10  21  38  60  84 110 141 180 225 272 323
#     4  11  23  36  53  80 112 145 182 225 272 324
#     4  10  19  32  52  78 110 147 184 224 271 324
#     4   9  17  33  56  78 103 139 182 222 263 315
#     4  10  21  37  58  83 110 143 181 219 265 320
#     4   9  18  32  52  77 104 137 177 222 270 321
#     4  10  22  38  57  82 109 143 185 225 271 326
#
# _framework density 19.939705
#
# number of rings (size 3 to 8) (size 9 to 14) (size 15 to 20)
#    0.000    2.143    0.000    3.857    0.000    8.571 
#    0.000    3.571    0.000    1.714    0.000    0.000 
#    0.000    0.000    0.000    0.000    0.000    0.000 
#
# Total GULP energy -694438.597627 kJ/mol
# GULP energy per Si atom -12400.689243 kJ/mol
# Density = 1.989432 g / cm^3
# Si number density = 19.939705 Si / 1000 Ang^3
#
#
#
# Elastic Constant Matrix: (Units=GPa)
#
#
# Indices 1 2 3 4 5 6 
#
# 1 66.1402 36.1055 39.0844 0.0000 0.0000 0.0000
# 2 36.1055 85.0118 59.3713 0.0000 0.0000 0.0000
# 3 39.0844 59.3713 137.9742 0.0000 0.0000 0.0000
# 4 0.0000 0.0000 0.0000 36.3755 0.0000 0.0000
# 5 0.0000 0.0000 0.0000 0.0000 37.0099 0.0000
# 6 0.0000 0.0000 0.0000 0.0000 0.0000 17.8494
#
#
#
# Elastic Compliance Matrix: (Units=1/GPa)
#
#
# Indices 1 2 3 4 5 6 
#
# 1 0.020486 -0.006645 -0.002944 0.000000 0.000000 0.000000
# 2 -0.006645 0.018972 -0.006282 0.000000 0.000000 0.000000
# 3 -0.002944 -0.006282 0.010785 0.000000 0.000000 0.000000
# 4 0.000000 0.000000 0.000000 0.027491 0.000000 0.000000
# 5 0.000000 0.000000 0.000000 0.000000 0.027020 0.000000
# 6 0.000000 0.000000 0.000000 0.000000 0.000000 0.056024
#
#
# Mechanical properties :
#
#
# Convention : Reuss Voigt Hill
#
# Bulk Modulus (GPa) = 54.04637 62.02764 58.03700
# Shear Modulus (GPa) = 25.16526 28.55130 26.85828
#
# Velocity S-wave (km/s) = 3.55641 3.78813 3.67410
# Velocity P-wave (km/s) = 6.63535 7.09284 6.86790
#
# Compressibility (1/GPa) = 0.01850263
#
# Stress axis : x y z
#
# Youngs Moduli (GPa) = 48.81278 52.70880 92.72416
#
# Poissons Ratio (x) = 0.35024 0.27298
# Poissons Ratio (y) = 0.32435 0.58245
# Poissons Ratio (z) = 0.14370 0.33109
#
# Static dielectric constant tensor:
#      x y z
#    x 3.506310 0.000000 0.000000 
#    y 0.000000 3.598440 0.000000 
#    z 0.000000 0.000000 3.894260 
# 
# 
# High freq. dielectric constant tensor:
#      x y z
#    x 1.764270 0.000000 0.000000 
#    y 0.000000 1.771210 0.000000 
#    z 0.000000 0.000000 1.789880 
# 
# From -- ./inp_files/30790.got.cif
#   From: 2010.03.12/outbox.cif.g09.slc.cpg/sg53_16_cif.got.tgz:30790.got - 2010.04.16 14:36:59.
