data_PCOD8218918
_publ_section_title
;
Structure prediction by ZEFSAII (Michael W. Deem and Ramdas Pophale) SiO2 
 PCOD8218918
Probable space group: P M N A
;
_chemical_formula_sum "Si O2"
_cell_formula_units_Z 56
_cell_length_a 14.753551
_cell_length_b 8.712179
_cell_length_c 21.399331
_cell_angle_alpha 90.000000
_cell_angle_beta 90.000000
_cell_angle_gamma 90.000000
_cell_volume 2750.575362
_symmetry_space_group_name_H-M "P M N A"
_symmetry_group_IT_number 53
_symmetry_cell_setting 'orthorhombic'
loop_
_space_group_symop_operation_xyz
x,y,z
1/2-x,-y,1/2+z
x,-y,-z
1/2-x,y,1/2-z
-x,-y,-z
1/2+x,y,1/2-z
-x,y,z
1/2+x,-y,1/2+z
loop_
_atom_site_type_symbol
_atom_site_label
_atom_site_fract_x
_atom_site_fract_y
_atom_site_fract_z
Si Si1 0.603300 0.837774 0.649711
Si Si2 0.162712 0.678843 0.382952
Si Si3 0.726130 0.662368 0.890936
Si Si4 0.401620 0.630268 0.249704
Si Si5 0.709264 0.887663 0.313026
Si Si6 0.898852 0.698888 0.722535
Si Si7 0.397375 0.820972 0.992532
O O1 0.500000 0.823096 0.623310
O O2 0.668751 0.717522 0.613398
O O3 0.603571 0.827609 0.724930
O O4 0.642307 0.009967 0.644693
O O5 0.220686 0.522550 0.396360
O O6 0.096140 0.647244 0.325349
O O7 0.220366 0.828721 0.364489
O O8 0.104792 0.728730 0.442464
O O9 0.675470 0.730574 0.830044
O O10 0.677263 0.741382 0.949218
O O11 0.500000 0.672188 0.276035
O O12 0.332139 0.731492 0.286691
O O13 0.375909 0.454069 0.262609
O O14 0.750000 0.970620 0.250000
O O15 0.000000 0.687799 0.692275
O O16 0.500000 0.804442 0.965670
O O17 0.372760 0.000000 0.000000
#
# Coordination Sequence:
#
# PCOD8218918 Si02
#       7
#     8   8   8   8   8   8   8
#     4  11  22  35  54  80 112 149 189 232 281 334
#     4  10  21  36  57  82 110 148 188 229 278 328
#     4  11  21  37  59  81 113 149 189 234 276 326
#     4   9  17  31  52  80 114 146 182 225 270 329
#     4  10  19  32  52  79 111 148 186 228 280 330
#     4   9  18  32  53  83 114 147 184 225 277 333
#     4  11  24  40  60  87 117 147 179 220 274 334
#
# _framework density 20.359376999999999
#
# number of rings (size 3 to 8) (size 9 to 14) (size 15 to 20)
#    0.000    1.857    0.000    4.714    0.000    5.714 
#    0.000    3.571    0.000    6.429    0.000    0.000 
#    0.000    0.000    0.000    0.000    0.000    0.000 
#
# Total GULP energy -693944.874693 kJ/mol
# GULP energy per Si atom -12391.872762 kJ/mol
# Density = 2.031304 g / cm^3
# Si number density = 20.359377 Si / 1000 Ang^3
#
#
#
# Elastic Constant Matrix: (Units=GPa)
#
#
# Indices 1 2 3 4 5 6 
#
# 1 99.0061 24.0493 14.7590 0.0000 0.0000 0.0000
# 2 24.0493 77.1850 9.6679 0.0000 0.0000 0.0000
# 3 14.7590 9.6679 46.0546 0.0000 0.0000 0.0000
# 4 0.0000 0.0000 0.0000 11.6132 0.0000 0.0000
# 5 0.0000 0.0000 0.0000 0.0000 25.0096 0.0000
# 6 0.0000 0.0000 0.0000 0.0000 0.0000 12.2433
#
#
#
# Elastic Compliance Matrix: (Units=1/GPa)
#
#
# Indices 1 2 3 4 5 6 
#
# 1 0.011308 -0.003152 -0.002962 0.000000 0.000000 0.000000
# 2 -0.003152 0.014184 -0.001967 0.000000 0.000000 0.000000
# 3 -0.002962 -0.001967 0.023076 0.000000 0.000000 0.000000
# 4 0.000000 0.000000 0.000000 0.086109 0.000000 0.000000
# 5 0.000000 0.000000 0.000000 0.000000 0.039985 0.000000
# 6 0.000000 0.000000 0.000000 0.000000 0.000000 0.081677
#
#
# Mechanical properties :
#
#
# Convention : Reuss Voigt Hill
#
# Bulk Modulus (GPa) = 30.86004 35.46644 33.16324
# Shear Modulus (GPa) = 17.64893 21.35786 19.50340
#
# Velocity S-wave (km/s) = 2.94746 3.24241 3.09844
# Velocity P-wave (km/s) = 5.17435 5.61031 5.39674
#
# Compressibility (1/GPa) = 0.03240437
#
# Stress axis : x y z
#
# Youngs Moduli (GPa) = 88.43587 70.49953 43.33582
#
# Poissons Ratio (x) = 0.22223 0.12836
# Poissons Ratio (y) = 0.27877 0.08526
# Poissons Ratio (z) = 0.26195 0.13870
#
# Static dielectric constant tensor:
#      x y z
#    x 3.724110 0.000000 0.000000 
#    y 0.000000 3.753650 0.000000 
#    z 0.000000 0.000000 3.396400 
# 
# 
# High freq. dielectric constant tensor:
#      x y z
#    x 1.796330 0.000000 0.000000 
#    y 0.000000 1.807250 0.000000 
#    z 0.000000 0.000000 1.759690 
# 
# From -- ./inp_files/32449.got.cif
#   From: 2010.03.12/outbox.cif.g09.slc.cpg/sg53_17_cif.got.tgz:32449.got - 2010.04.16 14:36:59.
