data_PCOD8218832
_publ_section_title
;
Structure prediction by ZEFSAII (Michael W. Deem and Ramdas Pophale) SiO2 
 PCOD8218832
Probable space group: P M N A
;
_chemical_formula_sum "Si O2"
_cell_formula_units_Z 64
_cell_length_a 9.213016
_cell_length_b 20.853381
_cell_length_c 18.101847
_cell_angle_alpha 90.000000
_cell_angle_beta 90.000000
_cell_angle_gamma 90.000000
_cell_volume 3477.772694
_symmetry_space_group_name_H-M "P M N A"
_symmetry_group_IT_number 53
_symmetry_cell_setting 'orthorhombic'
loop_
_space_group_symop_operation_xyz
x,y,z
1/2-x,-y,1/2+z
x,-y,-z
1/2-x,y,1/2-z
-x,-y,-z
1/2+x,y,1/2-z
-x,y,z
1/2+x,-y,1/2+z
loop_
_atom_site_type_symbol
_atom_site_label
_atom_site_fract_x
_atom_site_fract_y
_atom_site_fract_z
Si Si1 0.828761 0.625824 0.174973
Si Si2 0.829221 0.381454 0.173085
Si Si3 0.167834 0.732356 0.411430
Si Si4 0.831992 0.266650 0.064771
Si Si5 0.334243 0.125772 0.425557
Si Si6 0.334239 0.126824 0.925843
Si Si7 0.839207 0.008701 0.411804
Si Si8 0.329747 0.501914 0.418051
O O1 0.750000 0.605821 0.250000
O O2 0.761991 0.691647 0.145496
O O3 0.793598 0.570574 0.116296
O O4 0.000000 0.634056 0.188457
O O5 0.750000 0.372899 0.250000
O O6 0.789820 0.320621 0.123091
O O7 0.766564 0.444897 0.132591
O O8 0.000000 0.386863 0.187874
O O9 0.229407 0.725036 0.493979
O O10 0.180665 0.806111 0.382101
O O11 0.000000 0.709950 0.411207
O O12 0.807693 0.197731 0.105861
O O13 0.000000 0.273280 0.038911
O O14 0.500000 0.106446 0.425132
O O15 0.279723 0.128981 0.508716
O O16 0.256942 0.067709 0.380955
O O17 0.500000 0.120474 0.957025
O O18 0.300371 0.062123 0.877522
O O19 0.000000 0.028612 0.389038
O O20 0.821195 0.000000 0.500000
O O21 0.259706 0.500000 0.500000
O O22 0.500000 0.489880 0.424782
#
# Coordination Sequence:
#
# PCOD8218832 Si02
#       8
#     8   8   8   8   8   8   8   8
#     4  11  22  36  54  76 104 135 167 203 245 294
#     4  10  20  35  54  75 101 133 168 204 243 288
#     4  10  19  32  51  74  99 129 168 211 251 294
#     4   9  18  32  49  70  99 134 168 205 251 300
#     4   9  15  22  36  61  90 120 157 200 243 288
#     4   8  15  26  39  58  88 124 158 195 241 293
#     4   8  13  22  35  54  85 123 156 189 238 294
#     4   9  18  34  57  80 101 130 165 199 240 291
#
# _framework density 18.402583
#
# number of rings (size 3 to 8) (size 9 to 14) (size 15 to 20)
#    0.000    2.750    0.000    3.000    0.000    5.750 
#    0.000    0.625    0.000    2.625    0.000    0.875 
#    0.000    4.000    0.000    0.000    0.000    0.000 
#
# Total GULP energy -793006.005358 kJ/mol
# GULP energy per Si atom -12390.718834 kJ/mol
# Density = 1.836070 g / cm^3
# Si number density = 18.402583 Si / 1000 Ang^3
#
#
#
# Elastic Constant Matrix: (Units=GPa)
#
#
# Indices 1 2 3 4 5 6 
#
# 1 80.6250 52.3909 30.5771 0.0000 0.0000 0.0000
# 2 52.3909 129.8468 25.0665 0.0000 0.0000 0.0000
# 3 30.5771 25.0665 60.8576 0.0000 0.0000 0.0000
# 4 0.0000 0.0000 0.0000 5.2556 0.0000 0.0000
# 5 0.0000 0.0000 0.0000 0.0000 20.6807 0.0000
# 6 0.0000 0.0000 0.0000 0.0000 0.0000 26.4166
#
#
#
# Elastic Compliance Matrix: (Units=1/GPa)
#
#
# Indices 1 2 3 4 5 6 
#
# 1 0.019227 -0.006402 -0.007023 0.000000 0.000000 0.000000
# 2 -0.006402 0.010498 -0.001108 0.000000 0.000000 0.000000
# 3 -0.007023 -0.001108 0.020417 0.000000 0.000000 0.000000
# 4 0.000000 0.000000 0.000000 0.190274 0.000000 0.000000
# 5 0.000000 0.000000 0.000000 0.000000 0.048354 0.000000
# 6 0.000000 0.000000 0.000000 0.000000 0.000000 0.037855
#
#
# Mechanical properties :
#
#
# Convention : Reuss Voigt Hill
#
# Bulk Modulus (GPa) = 47.44692 54.15540 50.80116
# Shear Modulus (GPa) = 13.78492 21.35691 17.57092
#
# Velocity S-wave (km/s) = 2.73989 3.41036 3.09335
# Velocity P-wave (km/s) = 5.98733 6.70817 6.35797
#
# Compressibility (1/GPa) = 0.02107618
#
# Stress axis : x y z
#
# Youngs Moduli (GPa) = 52.01112 95.25436 48.97924
#
# Poissons Ratio (x) = 0.60980 0.34400
# Poissons Ratio (y) = 0.33296 0.05425
# Poissons Ratio (z) = 0.36529 0.10550
#
# Static dielectric constant tensor:
#      x y z
#    x 3.337510 0.000000 0.000000 
#    y 0.000000 4.074850 0.000000 
#    z 0.000000 0.000000 2.917590 
# 
# 
# High freq. dielectric constant tensor:
#      x y z
#    x 1.706240 0.000000 0.000000 
#    y 0.000000 1.745850 0.000000 
#    z 0.000000 0.000000 1.654210 
# 
# From -- ./inp_files/26975.got.cif
#   From: 2010.03.12/outbox.cif.g09.slc.cpg/sg53_14_cif.got.tgz:26975.got - 2010.04.16 14:36:59.
