data_PCOD8218307
_publ_section_title
;
Structure prediction by ZEFSAII (Michael W. Deem and Ramdas Pophale) SiO2 
 PCOD8218307
Probable space group: P M N A
;
_chemical_formula_sum "Si O2"
_cell_formula_units_Z 44
_cell_length_a 10.083146
_cell_length_b 14.921361
_cell_length_c 14.342501
_cell_angle_alpha 90.000000
_cell_angle_beta 90.000000
_cell_angle_gamma 90.000000
_cell_volume 2157.890396
_symmetry_space_group_name_H-M "P M N A"
_symmetry_group_IT_number 53
_symmetry_cell_setting 'orthorhombic'
loop_
_space_group_symop_operation_xyz
x,y,z
1/2-x,-y,1/2+z
x,-y,-z
1/2-x,y,1/2-z
-x,-y,-z
1/2+x,y,1/2-z
-x,y,z
1/2+x,-y,1/2+z
loop_
_atom_site_type_symbol
_atom_site_label
_atom_site_fract_x
_atom_site_fract_y
_atom_site_fract_z
Si Si1 0.648762 0.063367 0.829348
Si Si2 0.250000 0.478776 0.750000
Si Si3 0.352226 0.307192 0.676952
Si Si4 0.500000 0.356257 0.967454
Si Si5 0.156464 0.143976 0.335634
Si Si6 0.000000 0.535724 0.649119
Si Si7 0.716062 0.786873 0.031682
O O1 0.750000 0.094494 0.750000
O O2 0.500000 0.075669 0.789873
O O3 0.667794 0.120427 0.922914
O O4 0.673581 0.960587 0.857188
O O5 0.311499 0.413048 0.669268
O O6 0.365937 0.542856 0.789603
O O7 0.250000 0.259421 0.750000
O O8 0.500000 0.301145 0.718150
O O9 0.350919 0.250960 0.579236
O O10 0.500000 0.440499 0.900691
O O11 0.624320 0.296388 0.942019
O O12 0.500000 0.383256 0.076234
O O13 0.250000 0.172760 0.250000
O O14 0.219468 0.198878 0.421445
O O15 0.000000 0.168297 0.320041
#
# Coordination Sequence:
#
# PCOD8218307 Si02
#       7
#     8   4   8   4   8   4   8
#     4  10  21  36  59  91 120 154 199 246 299 362
#     4  10  18  38  62  88 116 156 190 244 300 360
#     4  10  21  34  60  95 125 152 195 248 306 358
#     4  11  22  38  57  92 114 161 196 244 297 372
#     4  10  22  40  59  81 119 166 208 251 297 353
#     4  11  22  38  64  85 124 151 200 246 306 364
#     4  12  21  36  63  87 121 157 206 246 302 354
#
# _framework density 20.390286
#
# number of rings (size 3 to 8) (size 9 to 14) (size 15 to 20)
#    0.545    0.909    4.545    1.091    1.273    4.364 
#    1.636    0.000    2.000    7.636    0.000    0.000 
#    0.000    0.000    0.000    0.000    0.000    0.000 
#
# Total GULP energy -545251.564237 kJ/mol
# GULP energy per Si atom -12392.081005 kJ/mol
# Density = 2.034388 g / cm^3
# Si number density = 20.390286 Si / 1000 Ang^3
#
#
#
# Elastic Constant Matrix: (Units=GPa)
#
#
# Indices 1 2 3 4 5 6 
#
# 1 130.7307 5.8009 44.6328 0.0000 0.0000 0.0000
# 2 5.8009 16.8139 3.0774 0.0000 0.0000 0.0000
# 3 44.6328 3.0774 91.5503 0.0000 0.0000 0.0000
# 4 0.0000 0.0000 0.0000 32.5618 0.0000 0.0000
# 5 0.0000 0.0000 0.0000 0.0000 32.5376 0.0000
# 6 0.0000 0.0000 0.0000 0.0000 0.0000 -2.4865
#
#
#
# Elastic Compliance Matrix: (Units=1/GPa)
#
#
# Indices 1 2 3 4 5 6 
#
# 1 0.009271 -0.002386 -0.004440 0.000000 0.000000 0.000000
# 2 -0.002386 0.060457 -0.000869 0.000000 0.000000 0.000000
# 3 -0.004440 -0.000869 0.013117 0.000000 0.000000 0.000000
# 4 0.000000 0.000000 0.000000 0.030711 0.000000 0.000000
# 5 0.000000 0.000000 0.000000 0.000000 0.030734 0.000000
# 6 0.000000 0.000000 0.000000 0.000000 0.000000 -0.402165
#
#
# Mechanical properties :
#
#
# Convention : Reuss Voigt Hill
#
# Bulk Modulus (GPa) = 14.82465 38.45745 26.64105
# Shear Modulus (GPa) = -22.72702 24.89483 1.08391
#
# Velocity S-wave (km/s) = -3.34218 3.49795 0.72989
# Velocity P-wave (km/s) = 2.75815 5.93429 3.71541
#
# Compressibility (1/GPa) = 0.06745524
#
# Stress axis : x y z
#
# Youngs Moduli (GPa) = 107.86445 16.54072 76.23952
#
# Poissons Ratio (x) = 0.03947 0.33847
# Poissons Ratio (y) = 0.25736 0.06625
# Poissons Ratio (z) = 0.47887 0.01437
#
# Static dielectric constant tensor:
#      x y z
#    x 3.713870 0.000000 0.000000 
#    y 0.000000 3.599780 0.000000 
#    z 0.000000 0.000000 3.533130 
# 
# 
# High freq. dielectric constant tensor:
#      x y z
#    x 1.793510 0.000000 0.000000 
#    y 0.000000 1.792640 0.000000 
#    z 0.000000 0.000000 1.778080 
# 
# From -- ./inp_files/14879.got.cif
#   From: 2010.03.12/outbox.cif.g09.slc.cpg/sg53_8_cif.got.tgz:14879.got - 2010.04.16 14:36:59.
