data_PCOD8218972
_publ_section_title
;
Structure prediction by ZEFSAII (Michael W. Deem and Ramdas Pophale) SiO2 
 PCOD8218972
Probable space group: P M N A
;
_chemical_formula_sum "Si O2"
_cell_formula_units_Z 64
_cell_length_a 8.763710
_cell_length_b 21.005721
_cell_length_c 18.467836
_cell_angle_alpha 90.000000
_cell_angle_beta 90.000000
_cell_angle_gamma 90.000000
_cell_volume 3399.707865
_symmetry_space_group_name_H-M "P M N A"
_symmetry_group_IT_number 53
_symmetry_cell_setting 'orthorhombic'
loop_
_space_group_symop_operation_xyz
x,y,z
1/2-x,-y,1/2+z
x,-y,-z
1/2-x,y,1/2-z
-x,-y,-z
1/2+x,y,1/2-z
-x,y,z
1/2+x,-y,1/2+z
loop_
_atom_site_type_symbol
_atom_site_label
_atom_site_fract_x
_atom_site_fract_y
_atom_site_fract_z
Si Si1 0.824126 0.503962 0.915280
Si Si2 0.178032 0.936378 0.461250
Si Si3 0.179884 0.611133 0.674469
Si Si4 0.179216 0.620378 0.172058
Si Si5 0.819091 0.253448 0.173628
Si Si6 0.678131 0.805888 0.961500
Si Si7 0.680282 0.749260 0.401937
Si Si8 0.321427 0.121201 0.673447
O O1 0.716562 0.559656 0.886412
O O2 0.773613 0.437555 0.879679
O O3 0.000000 0.519663 0.897030
O O4 0.796128 0.500000 0.000000
O O5 0.215590 0.877217 0.513171
O O6 0.264459 0.929703 0.385275
O O7 0.000000 0.940624 0.443747
O O8 0.237903 0.000000 0.500000
O O9 0.250000 0.586638 0.750000
O O10 0.254817 0.677645 0.651513
O O11 0.000000 0.620330 0.682904
O O12 0.250000 0.608985 0.250000
O O13 0.241047 0.685329 0.136169
O O14 0.000000 0.625408 0.182034
O O15 0.750000 0.230891 0.250000
O O16 0.768988 0.203349 0.112925
O O17 0.000000 0.256620 0.179851
O O18 0.500000 0.794689 0.948180
O O19 0.736092 0.755555 0.021156
O O20 0.500000 0.747536 0.416506
O O21 0.727819 0.807781 0.350332
O O22 0.250000 0.103992 0.750000
O O23 0.500000 0.115250 0.680837
#
# Coordination Sequence:
#
# PCOD8218972 Si02
#       8
#     8   8   8   8   8   8   8   8
#     4  10  22  38  55  78 108 146 186 227 279 332
#     4   9  19  37  59  82 113 152 189 226 272 325
#     4  11  22  38  59  82 107 140 184 230 282 335
#     4  10  21  36  54  77 106 142 182 223 272 329
#     4  11  22  38  60  84 112 144 183 230 282 335
#     4  10  20  35  57  86 115 144 181 225 273 325
#     4   9  19  34  53  80 110 145 184 223 273 330
#     4  10  19  32  53  81 113 146 187 232 275 326
#
# _framework density 18.825147999999999
#
# number of rings (size 3 to 8) (size 9 to 14) (size 15 to 20)
#    0.000    2.000    0.000    4.500    1.750    3.500 
#    0.000    0.625    0.000    0.000    0.000    0.000 
#    0.000    0.000    0.000    0.000    0.000    0.000 
#
# Total GULP energy -793910.822211 kJ/mol
# GULP energy per Si atom -12404.856597 kJ/mol
# Density = 1.878230 g / cm^3
# Si number density = 18.825148 Si / 1000 Ang^3
#
#
#
# Elastic Constant Matrix: (Units=GPa)
#
#
# Indices 1 2 3 4 5 6 
#
# 1 92.6559 36.3190 57.1770 0.0000 0.0000 0.0000
# 2 36.3190 94.8262 74.7846 0.0000 0.0000 0.0000
# 3 57.1770 74.7846 151.7381 0.0000 0.0000 0.0000
# 4 0.0000 0.0000 0.0000 10.3674 0.0000 0.0000
# 5 0.0000 0.0000 0.0000 0.0000 35.9548 0.0000
# 6 0.0000 0.0000 0.0000 0.0000 0.0000 24.7309
#
#
#
# Elastic Compliance Matrix: (Units=1/GPa)
#
#
# Indices 1 2 3 4 5 6 
#
# 1 0.014292 -0.002007 -0.004396 0.000000 0.000000 0.000000
# 2 -0.002007 0.017533 -0.007885 0.000000 0.000000 0.000000
# 3 -0.004396 -0.007885 0.012133 0.000000 0.000000 0.000000
# 4 0.000000 0.000000 0.000000 0.096456 0.000000 0.000000
# 5 0.000000 0.000000 0.000000 0.000000 0.027813 0.000000
# 6 0.000000 0.000000 0.000000 0.000000 0.000000 0.040435
#
#
# Mechanical properties :
#
#
# Convention : Reuss Voigt Hill
#
# Bulk Modulus (GPa) = 65.01215 75.08682 70.04949
# Shear Modulus (GPa) = 20.63004 25.60660 23.11832
#
# Velocity S-wave (km/s) = 3.31399 3.69214 3.50816
# Velocity P-wave (km/s) = 7.01806 7.62554 7.32810
#
# Compressibility (1/GPa) = 0.01538174
#
# Stress axis : x y z
#
# Youngs Moduli (GPa) = 69.96809 57.03681 82.41979
#
# Poissons Ratio (x) = 0.11446 0.36236
# Poissons Ratio (y) = 0.14041 0.64986
# Poissons Ratio (z) = 0.30761 0.44972
#
# Static dielectric constant tensor:
#      x y z
#    x 3.426760 0.000000 0.000000 
#    y 0.000000 3.459800 0.000000 
#    z 0.000000 0.000000 3.538090 
# 
# 
# High freq. dielectric constant tensor:
#      x y z
#    x 1.733870 0.000000 0.000000 
#    y 0.000000 1.723130 0.000000 
#    z 0.000000 0.000000 1.739200 
# 
# From -- ./inp_files/26799.got.cif
#   From: 2010.03.12/outbox.cif.g09.slc.cpg/sg53_14_cif.got.tgz:26799.got - 2010.04.16 14:36:59.
