data_PCOD8218355
_publ_section_title
;
Structure prediction by ZEFSAII (Michael W. Deem and Ramdas Pophale) SiO2 
 PCOD8218355
Probable space group: P M N A
;
_chemical_formula_sum "Si O2"
_cell_formula_units_Z 56
_cell_length_a 9.159225
_cell_length_b 14.514771
_cell_length_c 26.647277
_cell_angle_alpha 90.000000
_cell_angle_beta 90.000000
_cell_angle_gamma 90.000000
_cell_volume 3542.597017
_symmetry_space_group_name_H-M "P M N A"
_symmetry_group_IT_number 53
_symmetry_cell_setting 'orthorhombic'
loop_
_space_group_symop_operation_xyz
x,y,z
1/2-x,-y,1/2+z
x,-y,-z
1/2-x,y,1/2-z
-x,-y,-z
1/2+x,y,1/2-z
-x,y,z
1/2+x,-y,1/2+z
loop_
_atom_site_type_symbol
_atom_site_label
_atom_site_fract_x
_atom_site_fract_y
_atom_site_fract_z
Si Si1 0.328173 0.121046 0.197336
Si Si2 0.673232 0.376924 0.541039
Si Si3 0.834516 0.140538 0.045746
Si Si4 0.172147 0.573317 0.929491
Si Si5 0.670264 0.729156 0.883163
Si Si6 0.332623 0.987621 0.374452
Si Si7 0.172099 0.178534 0.935357
O O1 0.250000 0.130088 0.250000
O O2 0.500000 0.107886 0.204627
O O3 0.290628 0.214748 0.167352
O O4 0.268016 0.031382 0.168369
O O5 0.500000 0.374119 0.541098
O O6 0.724495 0.466370 0.572675
O O7 0.722486 0.385002 0.483111
O O8 0.737578 0.282811 0.565721
O O9 0.724691 0.213179 0.069550
O O10 0.000000 0.180188 0.049895
O O11 0.822925 0.043484 0.073583
O O12 0.788347 0.129224 0.987940
O O13 0.250361 0.629674 0.884585
O O14 0.000000 0.580867 0.921692
O O15 0.500000 0.712433 0.887875
O O16 0.500000 0.985566 0.354936
O O17 0.271799 0.885407 0.389129
O O18 0.000000 0.183838 0.929436
#
# Coordination Sequence:
#
# PCOD8218355 Si02
#       7
#     8   8   8   8   8   8   8
#     4  10  21  36  51  67  88 112 142 183 230 279
#     4   8  14  23  40  64  89 120 159 192 210 235
#     4   9  15  25  41  61  87 121 156 183 208 250
#     4   9  15  26  43  62  86 121 159 188 214 249
#     4  10  19  29  43  65  91 116 144 184 232 273
#     4   9  17  27  44  68  90 115 148 184 223 262
#     4   9  14  23  41  65  91 120 155 189 211 243
#
# _framework density 15.807613
#
# number of rings (size 3 to 8) (size 9 to 14) (size 15 to 20)
#    0.000    2.857    1.429    2.143    0.000    3.429 
#    0.000    2.143    0.000    3.429    0.000    1.000 
#    0.000    2.286    0.000    0.000    0.000    0.000 
#
# Total GULP energy -693897.868054 kJ/mol
# GULP energy per Si atom -12391.033358 kJ/mol
# Density = 1.577163 g / cm^3
# Si number density = 15.807613 Si / 1000 Ang^3
#
#
#
# Elastic Constant Matrix: (Units=GPa)
#
#
# Indices 1 2 3 4 5 6 
#
# 1 50.7902 40.9082 40.3322 0.0000 0.0000 0.0000
# 2 40.9082 125.6026 55.6023 0.0000 0.0000 0.0000
# 3 40.3322 55.6023 79.7485 0.0000 0.0000 0.0000
# 4 0.0000 0.0000 0.0000 15.2183 0.0000 0.0000
# 5 0.0000 0.0000 0.0000 0.0000 17.4053 0.0000
# 6 0.0000 0.0000 0.0000 0.0000 0.0000 14.1986
#
#
#
# Elastic Compliance Matrix: (Units=1/GPa)
#
#
# Indices 1 2 3 4 5 6 
#
# 1 0.035076 -0.005165 -0.014138 0.000000 0.000000 0.000000
# 2 -0.005165 0.012277 -0.005947 0.000000 0.000000 0.000000
# 3 -0.014138 -0.005947 0.023836 0.000000 0.000000 0.000000
# 4 0.000000 0.000000 0.000000 0.065710 0.000000 0.000000
# 5 0.000000 0.000000 0.000000 0.000000 0.057454 0.000000
# 6 0.000000 0.000000 0.000000 0.000000 0.000000 0.070429
#
#
# Mechanical properties :
#
#
# Convention : Reuss Voigt Hill
#
# Bulk Modulus (GPa) = 48.33803 58.86965 53.60384
# Shear Modulus (GPa) = 15.51928 17.31768 16.41848
#
# Velocity S-wave (km/s) = 3.13670 3.31347 3.22630
# Velocity P-wave (km/s) = 6.61543 7.20839 6.91827
#
# Compressibility (1/GPa) = 0.02068764
#
# Stress axis : x y z
#
# Youngs Moduli (GPa) = 28.50933 81.45497 41.95314
#
# Poissons Ratio (x) = 0.42075 0.59314
# Poissons Ratio (y) = 0.14726 0.24950
# Poissons Ratio (z) = 0.40307 0.48443
#
# Static dielectric constant tensor:
#      x y z
#    x 2.780790 0.000000 0.000000 
#    y 0.000000 3.522160 0.000000 
#    z 0.000000 0.000000 2.731940 
# 
# 
# High freq. dielectric constant tensor:
#      x y z
#    x 1.580270 0.000000 0.000000 
#    y 0.000000 1.614950 0.000000 
#    z 0.000000 0.000000 1.565170 
# 
# From -- ./inp_files/38326.got.cif
#   From: 2010.03.12/outbox.cif.g09.slc.cpg/sg53_20_cif.got.tgz:38326.got - 2010.04.16 14:36:59.
