data_PCOD8218886
_publ_section_title
;
Structure prediction by ZEFSAII (Michael W. Deem and Ramdas Pophale) SiO2 
 PCOD8218886
Probable space group: P M N A
;
_chemical_formula_sum "Si O2"
_cell_formula_units_Z 64
_cell_length_a 9.613102
_cell_length_b 14.932940
_cell_length_c 24.482635
_cell_angle_alpha 90.000000
_cell_angle_beta 90.000000
_cell_angle_gamma 90.000000
_cell_volume 3514.528168
_symmetry_space_group_name_H-M "P M N A"
_symmetry_group_IT_number 53
_symmetry_cell_setting 'orthorhombic'
loop_
_space_group_symop_operation_xyz
x,y,z
1/2-x,-y,1/2+z
x,-y,-z
1/2-x,y,1/2-z
-x,-y,-z
1/2+x,y,1/2-z
-x,y,z
1/2+x,-y,1/2+z
loop_
_atom_site_type_symbol
_atom_site_label
_atom_site_fract_x
_atom_site_fract_y
_atom_site_fract_z
Si Si1 0.838763 0.784436 0.196867
Si Si2 0.342721 0.467046 0.439315
Si Si3 0.847849 0.242938 0.526516
Si Si4 0.155051 0.696997 0.594575
Si Si5 0.338428 0.987504 0.303249
Si Si6 0.654524 0.901552 0.498803
Si Si7 0.654652 0.152525 0.377048
Si Si8 0.156337 0.343999 0.900979
O O1 0.750000 0.762082 0.250000
O O2 0.793956 0.710445 0.152224
O O3 0.000000 0.773378 0.212122
O O4 0.807392 0.885941 0.175950
O O5 0.297839 0.500000 0.500000
O O6 0.500000 0.427362 0.442823
O O7 0.238531 0.394528 0.414508
O O8 0.339470 0.548579 0.395370
O O9 0.865263 0.253501 0.462426
O O10 0.756820 0.154927 0.539862
O O11 0.763038 0.326284 0.549961
O O12 0.000000 0.234760 0.554145
O O13 0.239532 0.764815 0.634838
O O14 0.000000 0.677269 0.618838
O O15 0.250000 0.009968 0.250000
O O16 0.500000 0.996879 0.288031
O O17 0.294482 0.059920 0.349136
O O18 0.500000 0.903016 0.472044
O O19 0.646371 0.860728 0.558589
O O20 0.718522 0.000000 0.500000
O O21 0.500000 0.178029 0.355399
O O22 0.000000 0.312872 0.917087
#
# Coordination Sequence:
#
# PCOD8218886 Si02
#       8
#     8   8   8   8   8   8   8   8
#     4   9  19  35  55  77 104 133 167 211 256 306
#     4  10  19  32  52  77 102 134 176 216 254 301
#     4  10  20  31  44  68 102 135 167 207 252 298
#     4  10  20  33  49  71 104 139 169 208 257 303
#     4   9  18  33  54  78 102 130 167 210 257 305
#     4   9  18  30  47  67  93 133 174 206 242 295
#     4   9  18  32  50  73  99 131 169 208 250 300
#     4  10  20  33  53  76 100 134 174 213 254 305
#
# _framework density 18.210127
#
# number of rings (size 3 to 8) (size 9 to 14) (size 15 to 20)
#    0.000    2.500    1.250    0.750    1.750    3.000 
#    0.000    0.000    0.000    0.750    0.000    1.750 
#    0.000    0.000    0.000    0.000    0.000    0.000 
#
# Total GULP energy -793182.548370 kJ/mol
# GULP energy per Si atom -12393.477318 kJ/mol
# Density = 1.816868 g / cm^3
# Si number density = 18.210127 Si / 1000 Ang^3
#
#
#
# Elastic Constant Matrix: (Units=GPa)
#
#
# Indices 1 2 3 4 5 6 
#
# 1 101.1456 57.7683 21.1349 0.0000 0.0000 0.0000
# 2 57.7683 116.5028 25.1254 0.0000 0.0000 0.0000
# 3 21.1349 25.1254 36.7678 0.0000 0.0000 0.0000
# 4 0.0000 0.0000 0.0000 25.3414 0.0000 0.0000
# 5 0.0000 0.0000 0.0000 0.0000 20.8323 0.0000
# 6 0.0000 0.0000 0.0000 0.0000 0.0000 9.5458
#
#
#
# Elastic Compliance Matrix: (Units=1/GPa)
#
#
# Indices 1 2 3 4 5 6 
#
# 1 0.014265 -0.006222 -0.003948 0.000000 0.000000 0.000000
# 2 -0.006222 0.012781 -0.005157 0.000000 0.000000 0.000000
# 3 -0.003948 -0.005157 0.032991 0.000000 0.000000 0.000000
# 4 0.000000 0.000000 0.000000 0.039461 0.000000 0.000000
# 5 0.000000 0.000000 0.000000 0.000000 0.048002 0.000000
# 6 0.000000 0.000000 0.000000 0.000000 0.000000 0.104758
#
#
# Mechanical properties :
#
#
# Convention : Reuss Voigt Hill
#
# Bulk Modulus (GPa) = 34.03365 51.38592 42.70979
# Shear Modulus (GPa) = 17.08183 21.16974 19.12578
#
# Velocity S-wave (km/s) = 3.06607 3.41328 3.24432
# Velocity P-wave (km/s) = 5.59145 6.61918 6.12690
#
# Compressibility (1/GPa) = 0.02938269
#
# Stress axis : x y z
#
# Youngs Moduli (GPa) = 70.09965 78.24134 30.31085
#
# Poissons Ratio (x) = 0.48682 0.11967
# Poissons Ratio (y) = 0.43616 0.15632
# Poissons Ratio (z) = 0.27677 0.40352
#
# Static dielectric constant tensor:
#      x y z
#    x 3.704930 0.000000 0.000000 
#    y 0.000000 3.422010 0.000000 
#    z 0.000000 0.000000 2.945690 
# 
# 
# High freq. dielectric constant tensor:
#      x y z
#    x 1.711370 0.000000 0.000000 
#    y 0.000000 1.709170 0.000000 
#    z 0.000000 0.000000 1.655700 
# 
# From -- ./inp_files/34335.got.cif
#   From: 2010.03.12/outbox.cif.g09.slc.cpg/sg53_18_cif.got.tgz:34335.got - 2010.04.16 14:36:59.
