data_PCOD8218711
_publ_section_title
;
Structure prediction by ZEFSAII (Michael W. Deem and Ramdas Pophale) SiO2 
 PCOD8218711
Probable space group: P M N A
;
_chemical_formula_sum "Si O2"
_cell_formula_units_Z 56
_cell_length_a 14.418771
_cell_length_b 9.084128
_cell_length_c 22.187202
_cell_angle_alpha 90.000000
_cell_angle_beta 90.000000
_cell_angle_gamma 90.000000
_cell_volume 2906.123235
_symmetry_space_group_name_H-M "P M N A"
_symmetry_group_IT_number 53
_symmetry_cell_setting 'orthorhombic'
loop_
_space_group_symop_operation_xyz
x,y,z
1/2-x,-y,1/2+z
x,-y,-z
1/2-x,y,1/2-z
-x,-y,-z
1/2+x,y,1/2-z
-x,y,z
1/2+x,-y,1/2+z
loop_
_atom_site_type_symbol
_atom_site_label
_atom_site_fract_x
_atom_site_fract_y
_atom_site_fract_z
Si Si1 0.896443 0.140040 0.711441
Si Si2 0.606819 0.180852 0.218977
Si Si3 0.397153 0.660828 0.659451
Si Si4 0.607840 0.826293 0.993973
Si Si5 0.175011 0.629576 0.201929
Si Si6 0.821909 0.332000 0.608370
Si Si7 0.197994 0.334712 0.385862
O O1 0.866654 0.221343 0.772152
O O2 0.890471 0.246850 0.653832
O O3 0.000000 0.091289 0.721757
O O4 0.847416 0.980695 0.705430
O O5 0.500000 0.194906 0.197676
O O6 0.616408 0.215075 0.289774
O O7 0.667480 0.297284 0.181783
O O8 0.500000 0.680365 0.629015
O O9 0.398463 0.499619 0.691082
O O10 0.311521 0.669452 0.611772
O O11 0.500000 0.777337 0.998325
O O12 0.652560 0.782746 0.930511
O O13 0.670192 0.746613 0.044237
O O14 0.616715 0.000000 0.000000
O O15 0.250000 0.568012 0.250000
O O16 0.219998 0.677539 0.137997
O O17 0.844242 0.504524 0.599122
#
# Coordination Sequence:
#
# PCOD8218711 Si02
#       7
#     8   8   8   8   8   8   8
#     4  10  19  31  50  79 114 145 176 215 261 316
#     4  10  20  32  50  81 115 147 179 215 266 320
#     4  10  20  35  55  78 107 141 180 223 265 313
#     4  11  24  40  58  81 108 139 174 214 265 322
#     4   9  18  32  52  78 106 141 180 218 263 311
#     4  10  21  35  52  77 106 139 179 217 260 313
#     4  11  22  36  56  79 107 141 181 222 266 315
#
# _framework density 19.269656999999999
#
# number of rings (size 3 to 8) (size 9 to 14) (size 15 to 20)
#    0.000    1.857    0.000    5.571    0.000   10.857 
#    0.000    0.000    0.000    8.143    0.000    0.000 
#    0.000    0.000    0.000    0.000    0.000    0.000 
#
# Total GULP energy -694001.191505 kJ/mol
# GULP energy per Si atom -12392.878420 kJ/mol
# Density = 1.922580 g / cm^3
# Si number density = 19.269657 Si / 1000 Ang^3
#
#
#
# Elastic Constant Matrix: (Units=GPa)
#
#
# Indices 1 2 3 4 5 6 
#
# 1 80.5684 33.8874 24.7478 0.0000 0.0000 0.0000
# 2 33.8874 111.8599 29.2915 0.0000 0.0000 0.0000
# 3 24.7478 29.2915 63.0986 0.0000 0.0000 0.0000
# 4 0.0000 0.0000 0.0000 30.2777 0.0000 0.0000
# 5 0.0000 0.0000 0.0000 0.0000 20.5251 0.0000
# 6 0.0000 0.0000 0.0000 0.0000 0.0000 24.3482
#
#
#
# Elastic Compliance Matrix: (Units=1/GPa)
#
#
# Indices 1 2 3 4 5 6 
#
# 1 0.015208 -0.003467 -0.004355 0.000000 0.000000 0.000000
# 2 -0.003467 0.010967 -0.003731 0.000000 0.000000 0.000000
# 3 -0.004355 -0.003731 0.019289 0.000000 0.000000 0.000000
# 4 0.000000 0.000000 0.000000 0.033028 0.000000 0.000000
# 5 0.000000 0.000000 0.000000 0.000000 0.048721 0.000000
# 6 0.000000 0.000000 0.000000 0.000000 0.000000 0.041071
#
#
# Mechanical properties :
#
#
# Convention : Reuss Voigt Hill
#
# Bulk Modulus (GPa) = 44.72959 47.93113 46.33036
# Shear Modulus (GPa) = 25.14565 26.20356 25.67461
#
# Velocity S-wave (km/s) = 3.61631 3.69159 3.65415
# Velocity P-wave (km/s) = 6.37964 6.56494 6.47295
#
# Compressibility (1/GPa) = 0.02235657
#
# Stress axis : x y z
#
# Youngs Moduli (GPa) = 65.75621 91.18213 51.84399
#
# Poissons Ratio (x) = 0.31609 0.22580
# Poissons Ratio (y) = 0.22795 0.19345
# Poissons Ratio (z) = 0.28639 0.34024
#
# Static dielectric constant tensor:
#      x y z
#    x 3.543160 0.000000 0.000000 
#    y 0.000000 3.702540 0.000000 
#    z 0.000000 0.000000 3.287120 
# 
# 
# High freq. dielectric constant tensor:
#      x y z
#    x 1.741650 0.000000 0.000000 
#    y 0.000000 1.768270 0.000000 
#    z 0.000000 0.000000 1.719030 
# 
# From -- ./inp_files/32407.got.cif
#   From: 2010.03.12/outbox.cif.g09.slc.cpg/sg53_17_cif.got.tgz:32407.got - 2010.04.16 14:36:59.
