data_PCOD8218983
_publ_section_title
;
Structure prediction by ZEFSAII (Michael W. Deem and Ramdas Pophale) SiO2 
 PCOD8218983
Probable space group: P M N A
;
_chemical_formula_sum "Si O2"
_cell_formula_units_Z 52
_cell_length_a 28.104142
_cell_length_b 9.576728
_cell_length_c 11.102739
_cell_angle_alpha 90.000000
_cell_angle_beta 90.000000
_cell_angle_gamma 90.000000
_cell_volume 2988.254722
_symmetry_space_group_name_H-M "P M N A"
_symmetry_group_IT_number 53
_symmetry_cell_setting 'orthorhombic'
loop_
_space_group_symop_operation_xyz
x,y,z
1/2-x,-y,1/2+z
x,-y,-z
1/2-x,y,1/2-z
-x,-y,-z
1/2+x,y,1/2-z
-x,y,z
1/2+x,-y,1/2+z
loop_
_atom_site_type_symbol
_atom_site_label
_atom_site_fract_x
_atom_site_fract_y
_atom_site_fract_z
Si Si1 0.052449 0.462203 0.804033
Si Si2 0.796071 0.330069 0.899289
Si Si3 0.645962 0.211403 0.390303
Si Si4 0.948344 0.275373 0.020663
Si Si5 0.778615 0.980575 0.134179
Si Si6 0.150058 0.539885 0.724169
Si Si7 0.711704 0.500000 0.000000
O O1 0.055765 0.588771 0.896593
O O2 0.096732 0.473384 0.710738
O O3 0.000000 0.462710 0.739629
O O4 0.058062 0.320123 0.881288
O O5 0.790273 0.179761 0.836379
O O6 0.817553 0.441432 0.807831
O O7 0.830077 0.315961 0.013635
O O8 0.744200 0.377984 0.944615
O O9 0.593239 0.170377 0.437739
O O10 0.645175 0.301514 0.269391
O O11 0.672561 0.066441 0.371619
O O12 0.000000 0.203283 0.038306
O O13 0.750000 0.040226 0.250000
O O14 0.753902 0.000000 0.000000
O O15 0.176274 0.561263 0.598924
#
# Coordination Sequence:
#
# PCOD8218983 Si02
#       7
#     8   8   8   8   8   8   4
#     4   8  14  26  47  73 100 129 162 203 252 306
#     4  11  21  36  50  70 102 136 166 208 254 300
#     4  10  19  32  54  77  99 130 166 212 251 294
#     4   8  13  25  48  77 100 123 159 203 257 304
#     4  10  23  36  52  71 103 139 173 207 253 305
#     4  11  20  33  52  74 103 130 176 207 253 296
#     4  12  24  30  51  76 103 138 174 214 250 298
#
# _framework density 17.401461000000001
#
# number of rings (size 3 to 8) (size 9 to 14) (size 15 to 20)
#    0.000    2.154    3.077    2.308    4.308    0.000 
#    0.000    0.385    0.000    5.077    0.000    0.000 
#    0.000    0.615    0.000    0.308    0.000    0.000 
#
# Total GULP energy -644282.641626 kJ/mol
# GULP energy per Si atom -12390.050800 kJ/mol
# Density = 1.736185 g / cm^3
# Si number density = 17.401461 Si / 1000 Ang^3
#
#
#
# Elastic Constant Matrix: (Units=GPa)
#
#
# Indices 1 2 3 4 5 6 
#
# 1 156.2975 29.9396 54.6128 0.0000 0.0000 0.0000
# 2 29.9396 64.3325 15.3086 0.0000 0.0000 0.0000
# 3 54.6128 15.3086 59.0136 0.0000 0.0000 0.0000
# 4 0.0000 0.0000 0.0000 11.5747 0.0000 0.0000
# 5 0.0000 0.0000 0.0000 0.0000 4.8663 0.0000
# 6 0.0000 0.0000 0.0000 0.0000 0.0000 12.9707
#
#
#
# Elastic Compliance Matrix: (Units=1/GPa)
#
#
# Indices 1 2 3 4 5 6 
#
# 1 0.009839 -0.002571 -0.008438 0.000000 0.000000 0.000000
# 2 -0.002571 0.017239 -0.002093 0.000000 0.000000 0.000000
# 3 -0.008438 -0.002093 0.025297 0.000000 0.000000 0.000000
# 4 0.000000 0.000000 0.000000 0.086395 0.000000 0.000000
# 5 0.000000 0.000000 0.000000 0.000000 0.205495 0.000000
# 6 0.000000 0.000000 0.000000 0.000000 0.000000 0.077097
#
#
# Mechanical properties :
#
#
# Convention : Reuss Voigt Hill
#
# Bulk Modulus (GPa) = 38.21021 53.26282 45.73651
# Shear Modulus (GPa) = 10.95796 17.86785 14.41291
#
# Velocity S-wave (km/s) = 2.51213 3.20785 2.88107
# Velocity P-wave (km/s) = 5.51545 6.66297 6.11618
#
# Compressibility (1/GPa) = 0.02617102
#
# Stress axis : x y z
#
# Youngs Moduli (GPa) = 101.63588 58.00906 39.53005
#
# Poissons Ratio (x) = 0.14914 0.33357
# Poissons Ratio (y) = 0.26130 0.08272
# Poissons Ratio (z) = 0.85764 0.12139
#
# Static dielectric constant tensor:
#      x y z
#    x 3.670670 0.000000 0.000000 
#    y 0.000000 2.945840 0.000000 
#    z 0.000000 0.000000 3.123150 
# 
# 
# High freq. dielectric constant tensor:
#      x y z
#    x 1.682240 0.000000 0.000000 
#    y 0.000000 1.649550 0.000000 
#    z 0.000000 0.000000 1.639730 
# 
# From -- ./inp_files/18759.got.cif
#   From: 2010.03.12/outbox.cif.g09.slc.cpg/sg53_10_cif.got.tgz:18759.got - 2010.04.16 14:36:59.
