data_PCOD8218735
_publ_section_title
;
Structure prediction by ZEFSAII (Michael W. Deem and Ramdas Pophale) SiO2 
 PCOD8218735
Probable space group: P M N A
;
_chemical_formula_sum "Si O2"
_cell_formula_units_Z 56
_cell_length_a 14.333532
_cell_length_b 13.900041
_cell_length_c 15.817570
_cell_angle_alpha 90.000000
_cell_angle_beta 90.000000
_cell_angle_gamma 90.000000
_cell_volume 3151.440172
_symmetry_space_group_name_H-M "P M N A"
_symmetry_group_IT_number 53
_symmetry_cell_setting 'orthorhombic'
loop_
_space_group_symop_operation_xyz
x,y,z
1/2-x,-y,1/2+z
x,-y,-z
1/2-x,y,1/2-z
-x,-y,-z
1/2+x,y,1/2-z
-x,y,z
1/2+x,-y,1/2+z
loop_
_atom_site_type_symbol
_atom_site_label
_atom_site_fract_x
_atom_site_fract_y
_atom_site_fract_z
Si Si1 0.272115 0.207242 0.129281
Si Si2 0.770464 0.898819 0.459694
Si Si3 0.107176 0.402166 0.602213
Si Si4 0.894821 0.135341 0.234472
Si Si5 0.609255 0.386257 0.094954
Si Si6 0.394470 0.791912 0.167489
Si Si7 0.158660 0.068921 0.803039
O O1 0.346287 0.133900 0.172820
O O2 0.171254 0.202175 0.175201
O O3 0.320285 0.311549 0.139022
O O4 0.254302 0.179363 0.032426
O O5 0.853370 0.866858 0.398893
O O6 0.677904 0.908242 0.401553
O O7 0.798153 0.000000 0.500000
O O8 0.119678 0.373453 0.505056
O O9 0.148687 0.508049 0.621726
O O10 0.152044 0.315214 0.658934
O O11 0.000000 0.414493 0.625200
O O12 0.000000 0.178159 0.237357
O O13 0.904960 0.025922 0.200925
O O14 0.500000 0.369554 0.120600
O O15 0.500000 0.779293 0.139713
O O16 0.386616 0.835048 0.262003
O O17 0.250000 0.042412 0.750000
#
# Coordination Sequence:
#
# PCOD8218735 Si02
#       7
#     8   8   8   8   8   8   8
#     4  11  20  35  55  80 104 139 181 223 270 320
#     4  11  20  33  53  74 105 144 183 225 258 315
#     4   8  15  28  49  81 112 139 171 216 276 329
#     4  11  22  37  55  76 108 146 178 220 273 324
#     4   9  16  29  52  81 113 139 172 223 272 323
#     4  10  19  31  52  81 112 142 175 220 274 324
#     4  10  19  35  49  71 110 145 174 216 265 318
#
# _framework density 17.769653999999999
#
# number of rings (size 3 to 8) (size 9 to 14) (size 15 to 20)
#    0.000    2.000    4.286    2.571    0.000    0.857 
#    0.000    2.143    9.429    0.000    0.000    2.000 
#    0.000    0.000    0.000    0.429    0.000    0.000 
#
# Total GULP energy -693809.866159 kJ/mol
# GULP energy per Si atom -12389.461896 kJ/mol
# Density = 1.772921 g / cm^3
# Si number density = 17.769654 Si / 1000 Ang^3
#
#
#
# Elastic Constant Matrix: (Units=GPa)
#
#
# Indices 1 2 3 4 5 6 
#
# 1 78.6803 28.5727 29.2655 0.0000 0.0000 0.0000
# 2 28.5727 139.7568 44.1089 0.0000 0.0000 0.0000
# 3 29.2655 44.1089 87.1456 0.0000 0.0000 0.0000
# 4 0.0000 0.0000 0.0000 27.5224 0.0000 0.0000
# 5 0.0000 0.0000 0.0000 0.0000 16.3309 0.0000
# 6 0.0000 0.0000 0.0000 0.0000 0.0000 24.0134
#
#
#
# Elastic Compliance Matrix: (Units=1/GPa)
#
#
# Indices 1 2 3 4 5 6 
#
# 1 0.014872 -0.001743 -0.004112 0.000000 0.000000 0.000000
# 2 -0.001743 0.008720 -0.003828 0.000000 0.000000 0.000000
# 3 -0.004112 -0.003828 0.014794 0.000000 0.000000 0.000000
# 4 0.000000 0.000000 0.000000 0.036334 0.000000 0.000000
# 5 0.000000 0.000000 0.000000 0.000000 0.061234 0.000000
# 6 0.000000 0.000000 0.000000 0.000000 0.000000 0.041643
#
#
# Mechanical properties :
#
#
# Convention : Reuss Voigt Hill
#
# Bulk Modulus (GPa) = 52.57881 56.60853 54.59367
# Shear Modulus (GPa) = 24.59380 27.14903 25.87141
#
# Velocity S-wave (km/s) = 3.72430 3.91299 3.81981
# Velocity P-wave (km/s) = 6.93882 7.23473 7.08832
#
# Compressibility (1/GPa) = 0.01901907
#
# Stress axis : x y z
#
# Youngs Moduli (GPa) = 67.24000 114.68110 67.59591
#
# Poissons Ratio (x) = 0.19985 0.27798
# Poissons Ratio (y) = 0.11717 0.25878
# Poissons Ratio (z) = 0.27651 0.43904
#
# Static dielectric constant tensor:
#      x y z
#    x 3.046780 0.000000 0.000000 
#    y 0.000000 3.583970 0.000000 
#    z 0.000000 0.000000 3.355380 
# 
# 
# High freq. dielectric constant tensor:
#      x y z
#    x 1.654930 0.000000 0.000000 
#    y 0.000000 1.693220 0.000000 
#    z 0.000000 0.000000 1.672640 
# 
# From -- ./inp_files/22954.got.cif
#   From: 2010.03.12/outbox.cif.g09.slc.cpg/sg53_12_cif.got.tgz:22954.got - 2010.04.16 14:36:59.
