data_PCOD8218647
_publ_section_title
;
Structure prediction by ZEFSAII (Michael W. Deem and Ramdas Pophale) SiO2 
 PCOD8218647
Probable space group: P M N A
;
_chemical_formula_sum "Si O2"
_cell_formula_units_Z 48
_cell_length_a 30.222320
_cell_length_b 5.109095
_cell_length_c 17.317807
_cell_angle_alpha 90.000000
_cell_angle_beta 90.000000
_cell_angle_gamma 90.000000
_cell_volume 2674.020135
_symmetry_space_group_name_H-M "P M N A"
_symmetry_group_IT_number 53
_symmetry_cell_setting 'orthorhombic'
loop_
_space_group_symop_operation_xyz
x,y,z
1/2-x,-y,1/2+z
x,-y,-z
1/2-x,y,1/2-z
-x,-y,-z
1/2+x,y,1/2-z
-x,y,z
1/2+x,-y,1/2+z
loop_
_atom_site_type_symbol
_atom_site_label
_atom_site_fract_x
_atom_site_fract_y
_atom_site_fract_z
Si Si1 0.766787 0.556558 0.869875
Si Si2 0.314486 0.931373 0.417245
Si Si3 0.317916 0.442697 0.214755
Si Si4 0.449049 0.038157 0.180539
Si Si5 0.051029 0.523904 0.415378
Si Si6 0.865611 0.071069 0.762886
O O1 0.786208 0.335690 0.927246
O O2 0.713339 0.542100 0.861398
O O3 0.787998 0.489996 0.787938
O O4 0.779338 0.846162 0.895997
O O5 0.336660 0.000000 0.500000
O O6 0.353604 0.909741 0.353781
O O7 0.338323 0.155867 0.220771
O O8 0.355631 0.664946 0.214477
O O9 0.500000 0.055819 0.208932
O O10 0.430146 0.306040 0.143378
O O11 0.418302 0.979745 0.255126
O O12 0.442700 0.814376 0.116521
O O13 0.073840 0.500000 0.500000
O O14 0.000000 0.446917 0.424649
#
# Coordination Sequence:
#
# PCOD8218647 Si02
#       6
#     8   8   8   8   8   8
#     4   9  17  30  49  70  90 116 152 193 237 286
#     4  10  19  31  49  72  97 127 164 202 237 277
#     4   9  17  30  49  70  90 116 152 193 237 286
#     4  10  19  31  49  72  97 127 164 202 237 277
#     4   9  17  30  49  70  90 116 152 193 237 286
#     4  10  19  31  49  72  97 127 164 202 237 277
#
# _framework density 17.950500000000002
#
# number of rings (size 3 to 8) (size 9 to 14) (size 15 to 20)
#    0.000    2.500    0.000    3.000    0.000    6.000 
#    0.000    0.000    0.000   20.500    0.000    0.000 
#    0.000   12.000    0.000    0.000    0.000    2.000 
#
# Total GULP energy -594951.077601 kJ/mol
# GULP energy per Si atom -12394.814117 kJ/mol
# Density = 1.790964 g / cm^3
# Si number density = 17.950500 Si / 1000 Ang^3
#
#
#
# Elastic Constant Matrix: (Units=GPa)
#
#
# Indices 1 2 3 4 5 6 
#
# 1 67.1541 8.5197 32.6364 0.0000 0.0000 0.0000
# 2 8.5197 97.9140 6.9267 0.0000 0.0000 0.0000
# 3 32.6364 6.9267 60.8814 0.0000 0.0000 0.0000
# 4 0.0000 0.0000 0.0000 19.3540 0.0000 0.0000
# 5 0.0000 0.0000 0.0000 0.0000 14.8325 0.0000
# 6 0.0000 0.0000 0.0000 0.0000 0.0000 18.2731
#
#
#
# Elastic Compliance Matrix: (Units=1/GPa)
#
#
# Indices 1 2 3 4 5 6 
#
# 1 0.020234 -0.001001 -0.010733 0.000000 0.000000 0.000000
# 2 -0.001001 0.010345 -0.000640 0.000000 0.000000 0.000000
# 3 -0.010733 -0.000640 0.022252 0.000000 0.000000 0.000000
# 4 0.000000 0.000000 0.000000 0.051669 0.000000 0.000000
# 5 0.000000 0.000000 0.000000 0.000000 0.067419 0.000000
# 6 0.000000 0.000000 0.000000 0.000000 0.000000 0.054725
#
#
# Mechanical properties :
#
#
# Convention : Reuss Voigt Hill
#
# Bulk Modulus (GPa) = 35.60946 35.79054 35.70000
# Shear Modulus (GPa) = 19.17507 22.34970 20.76239
#
# Velocity S-wave (km/s) = 3.27191 3.53239 3.40464
# Velocity P-wave (km/s) = 5.84418 6.05134 5.94867
#
# Compressibility (1/GPa) = 0.02808243
#
# Stress axis : x y z
#
# Youngs Moduli (GPa) = 49.42099 96.66068 44.94021
#
# Poissons Ratio (x) = 0.09679 0.48234
# Poissons Ratio (y) = 0.04949 0.02877
# Poissons Ratio (z) = 0.53043 0.06189
#
# Static dielectric constant tensor:
#      x y z
#    x 3.210680 0.000000 0.000000 
#    y 0.000000 3.471860 0.000000 
#    z 0.000000 0.000000 3.207900 
# 
# 
# High freq. dielectric constant tensor:
#      x y z
#    x 1.666140 0.000000 0.000000 
#    y 0.000000 1.719780 0.000000 
#    z 0.000000 0.000000 1.664930 
# 
# From -- ./inp_files/25094.got.cif
#   From: 2010.03.12/outbox.cif.g09.slc.cpg/sg53_13_cif.got.tgz:25094.got - 2010.04.16 14:36:59.
