data_PCOD8218371
_publ_section_title
;
Structure prediction by ZEFSAII (Michael W. Deem and Ramdas Pophale) SiO2 
 PCOD8218371
Probable space group: P M N A
;
_chemical_formula_sum "Si O2"
_cell_formula_units_Z 48
_cell_length_a 9.500048
_cell_length_b 11.716905
_cell_length_c 25.585258
_cell_angle_alpha 90.000000
_cell_angle_beta 90.000000
_cell_angle_gamma 90.000000
_cell_volume 2847.924745
_symmetry_space_group_name_H-M "P M N A"
_symmetry_group_IT_number 53
_symmetry_cell_setting 'orthorhombic'
loop_
_space_group_symop_operation_xyz
x,y,z
1/2-x,-y,1/2+z
x,-y,-z
1/2-x,y,1/2-z
-x,-y,-z
1/2+x,y,1/2-z
-x,y,z
1/2+x,-y,1/2+z
loop_
_atom_site_type_symbol
_atom_site_label
_atom_site_fract_x
_atom_site_fract_y
_atom_site_fract_z
Si Si1 0.341824 0.670441 0.958769
Si Si2 0.332484 0.335804 0.302656
Si Si3 0.663746 0.497021 0.870892
Si Si4 0.160292 0.275996 0.573126
Si Si5 0.161404 0.945451 0.054423
Si Si6 0.658876 0.173367 0.395150
O O1 0.500000 0.707860 0.946052
O O2 0.302941 0.558234 0.926010
O O3 0.246965 0.776674 0.942753
O O4 0.320176 0.649924 0.020232
O O5 0.250000 0.308219 0.250000
O O6 0.500000 0.351420 0.293514
O O7 0.267280 0.451931 0.326959
O O8 0.296601 0.227064 0.339503
O O9 0.500000 0.513973 0.854461
O O10 0.697945 0.362752 0.879443
O O11 0.255989 0.164923 0.573774
O O12 0.000000 0.233953 0.578539
O O13 0.000000 0.909225 0.046019
O O14 0.177127 0.036662 0.101968
O O15 0.218924 0.000000 0.000000
O O16 0.500000 0.209825 0.406760
#
# Coordination Sequence:
#
# PCOD8218371 Si02
#       6
#     8   8   8   8   8   8
#     4   9  16  27  45  68  97 132 165 199 238 282
#     4  10  20  35  56  77  96 120 157 205 255 301
#     4   9  18  32  48  70 100 130 162 201 246 292
#     4  10  19  29  45  70 101 135 169 201 235 283
#     4  10  19  31  47  67  99 139 172 202 239 287
#     4   9  18  32  48  70  98 129 165 203 243 289
#
# _framework density 16.854378000000001
#
# number of rings (size 3 to 8) (size 9 to 14) (size 15 to 20)
#    0.000    2.500    1.667    1.000    0.000    4.333 
#    0.000    0.000    0.000    6.000    0.000    4.667 
#    0.000    0.000    0.000    0.000    0.000    0.000 
#
# Total GULP energy -594908.625577 kJ/mol
# GULP energy per Si atom -12393.929700 kJ/mol
# Density = 1.681602 g / cm^3
# Si number density = 16.854378 Si / 1000 Ang^3
#
#
#
# Elastic Constant Matrix: (Units=GPa)
#
#
# Indices 1 2 3 4 5 6 
#
# 1 68.4354 43.7249 34.6430 0.0000 0.0000 0.0000
# 2 43.7249 93.7593 35.4531 0.0000 0.0000 0.0000
# 3 34.6430 35.4531 69.8414 0.0000 0.0000 0.0000
# 4 0.0000 0.0000 0.0000 16.4003 0.0000 0.0000
# 5 0.0000 0.0000 0.0000 0.0000 18.2112 0.0000
# 6 0.0000 0.0000 0.0000 0.0000 0.0000 32.3845
#
#
#
# Elastic Compliance Matrix: (Units=1/GPa)
#
#
# Indices 1 2 3 4 5 6 
#
# 1 0.023678 -0.008169 -0.007598 0.000000 0.000000 0.000000
# 2 -0.008169 0.016018 -0.004079 0.000000 0.000000 0.000000
# 3 -0.007598 -0.004079 0.020157 0.000000 0.000000 0.000000
# 4 0.000000 0.000000 0.000000 0.060974 0.000000 0.000000
# 5 0.000000 0.000000 0.000000 0.000000 0.054911 0.000000
# 6 0.000000 0.000000 0.000000 0.000000 0.000000 0.030879
#
#
# Mechanical properties :
#
#
# Convention : Reuss Voigt Hill
#
# Bulk Modulus (GPa) = 49.60051 51.07533 50.33792
# Shear Modulus (GPa) = 19.76048 21.28021 20.52035
#
# Velocity S-wave (km/s) = 3.42778 3.55715 3.49307
# Velocity P-wave (km/s) = 6.72005 6.87319 6.79705
#
# Compressibility (1/GPa) = 0.02016108
#
# Stress axis : x y z
#
# Youngs Moduli (GPa) = 42.23315 62.43100 49.60954
#
# Poissons Ratio (x) = 0.51002 0.37693
# Poissons Ratio (y) = 0.34502 0.20235
# Poissons Ratio (z) = 0.32089 0.25464
#
# Static dielectric constant tensor:
#      x y z
#    x 3.209150 0.000000 0.000000 
#    y 0.000000 3.157230 0.000000 
#    z 0.000000 0.000000 3.015290 
# 
# 
# High freq. dielectric constant tensor:
#      x y z
#    x 1.652540 0.000000 0.000000 
#    y 0.000000 1.642710 0.000000 
#    z 0.000000 0.000000 1.621540 
# 
# From -- ./inp_files/33837.got.cif
#   From: 2010.03.12/outbox.cif.g09.slc.cpg/sg53_17_cif.got.tgz:33837.got - 2010.04.16 14:36:59.
