data_PCOD8218160
_publ_section_title
;
Structure prediction by ZEFSAII (Michael W. Deem and Ramdas Pophale) SiO2 
 PCOD8218160
Probable space group: P M N A
;
_chemical_formula_sum "Si O2"
_cell_formula_units_Z 48
_cell_length_a 9.458861
_cell_length_b 9.915679
_cell_length_c 29.865718
_cell_angle_alpha 90.000000
_cell_angle_beta 90.000000
_cell_angle_gamma 90.000000
_cell_volume 2801.136434
_symmetry_space_group_name_H-M "P M N A"
_symmetry_group_IT_number 53
_symmetry_cell_setting 'orthorhombic'
loop_
_space_group_symop_operation_xyz
x,y,z
1/2-x,-y,1/2+z
x,-y,-z
1/2-x,y,1/2-z
-x,-y,-z
1/2+x,y,1/2-z
-x,y,z
1/2+x,-y,1/2+z
loop_
_atom_site_type_symbol
_atom_site_label
_atom_site_fract_x
_atom_site_fract_y
_atom_site_fract_z
Si Si1 0.664524 0.635594 0.527403
Si Si2 0.160678 0.856705 0.476504
Si Si3 0.333015 0.015212 0.886542
Si Si4 0.157113 0.028664 0.710106
Si Si5 0.656073 0.707405 0.790005
Si Si6 0.332015 0.711520 0.890115
O O1 0.686992 0.500000 0.500000
O O2 0.500000 0.665730 0.536180
O O3 0.730061 0.756006 0.498578
O O4 0.746313 0.620085 0.574646
O O5 0.000000 0.800007 0.479753
O O6 0.167752 0.000000 0.500000
O O7 0.207702 0.877954 0.424804
O O8 0.500000 0.999985 0.881064
O O9 0.275060 0.067335 0.838364
O O10 0.278648 0.865051 0.898430
O O11 0.250000 0.091448 0.750000
O O12 0.152936 0.867937 0.713011
O O13 0.000000 0.088675 0.715506
O O14 0.750000 0.645282 0.750000
O O15 0.500000 0.648575 0.782592
O O16 0.709426 0.665152 0.839667
O O17 0.500000 0.696613 0.898302
#
# Coordination Sequence:
#
# PCOD8218160 Si02
#       6
#     8   8   8   8   8   8
#     4  11  24  37  47  67 101 134 162 201 252 296
#     4  10  18  32  55  75  92 121 163 204 242 285
#     4   8  14  26  45  69  93 118 151 197 241 275
#     4   8  13  22  36  57  90 123 148 178 224 277
#     4   8  14  23  39  63  92 122 152 189 233 282
#     4   9  16  30  49  68  92 126 165 200 235 282
#
# _framework density 17.135902000000002
#
# number of rings (size 3 to 8) (size 9 to 14) (size 15 to 20)
#    0.000    3.000    1.667    2.500    0.000    2.333 
#    0.000    3.333    0.000    0.000    0.000    1.167 
#    0.000    2.667    0.000    0.000    0.000    0.000 
#
# Total GULP energy -594816.987561 kJ/mol
# GULP energy per Si atom -12392.020574 kJ/mol
# Density = 1.709690 g / cm^3
# Si number density = 17.135902 Si / 1000 Ang^3
#
#
#
# Elastic Constant Matrix: (Units=GPa)
#
#
# Indices 1 2 3 4 5 6 
#
# 1 84.5571 27.9711 73.7502 0.0000 0.0000 0.0000
# 2 27.9711 29.3178 31.2838 0.0000 0.0000 0.0000
# 3 73.7502 31.2838 170.6020 0.0000 0.0000 0.0000
# 4 0.0000 0.0000 0.0000 13.3146 0.0000 0.0000
# 5 0.0000 0.0000 0.0000 0.0000 32.0964 0.0000
# 6 0.0000 0.0000 0.0000 0.0000 0.0000 14.7002
#
#
#
# Elastic Compliance Matrix: (Units=1/GPa)
#
#
# Indices 1 2 3 4 5 6 
#
# 1 0.022819 -0.013980 -0.007301 0.000000 0.000000 0.000000
# 2 -0.013980 0.050972 -0.003303 0.000000 0.000000 0.000000
# 3 -0.007301 -0.003303 0.009623 0.000000 0.000000 0.000000
# 4 0.000000 0.000000 0.000000 0.075106 0.000000 0.000000
# 5 0.000000 0.000000 0.000000 0.000000 0.031156 0.000000
# 6 0.000000 0.000000 0.000000 0.000000 0.000000 0.068026
#
#
# Mechanical properties :
#
#
# Convention : Reuss Voigt Hill
#
# Bulk Modulus (GPa) = 29.20102 61.16520 45.18311
# Shear Modulus (GPa) = 15.70918 22.12035 18.91476
#
# Velocity S-wave (km/s) = 3.03106 3.59678 3.32597
# Velocity P-wave (km/s) = 5.41549 7.28153 6.41671
#
# Compressibility (1/GPa) = 0.03424538
#
# Stress axis : x y z
#
# Youngs Moduli (GPa) = 43.82402 19.61872 103.91332
#
# Poissons Ratio (x) = 0.27427 0.75864
# Poissons Ratio (y) = 0.61266 0.34326
# Poissons Ratio (z) = 0.31995 0.06481
#
# Static dielectric constant tensor:
#      x y z
#    x 3.177360 0.000000 0.000000 
#    y 0.000000 3.554100 0.000000 
#    z 0.000000 0.000000 4.552930 
# 
# 
# High freq. dielectric constant tensor:
#      x y z
#    x 1.641080 0.000000 0.000000 
#    y 0.000000 1.594270 0.000000 
#    z 0.000000 0.000000 1.687810 
# 
# From -- ./inp_files/37896.got.cif
#   From: 2010.03.12/outbox.cif.g09.slc.cpg/sg53_19_cif.got.tgz:37896.got - 2010.04.16 14:36:59.
