data_PCOD8218615
_publ_section_title
;
Structure prediction by ZEFSAII (Michael W. Deem and Ramdas Pophale) SiO2 
 PCOD8218615
Probable space group: P M N A
;
_chemical_formula_sum "Si O2"
_cell_formula_units_Z 64
_cell_length_a 8.754747
_cell_length_b 12.441822
_cell_length_c 31.467630
_cell_angle_alpha 90.000000
_cell_angle_beta 90.000000
_cell_angle_gamma 90.000000
_cell_volume 3427.611718
_symmetry_space_group_name_H-M "P M N A"
_symmetry_group_IT_number 53
_symmetry_cell_setting 'orthorhombic'
loop_
_space_group_symop_operation_xyz
x,y,z
1/2-x,-y,1/2+z
x,-y,-z
1/2-x,y,1/2-z
-x,-y,-z
1/2+x,y,1/2-z
-x,y,z
1/2+x,-y,1/2+z
loop_
_atom_site_type_symbol
_atom_site_label
_atom_site_fract_x
_atom_site_fract_y
_atom_site_fract_z
Si Si1 0.680574 0.852891 0.861721
Si Si2 0.673602 0.304521 0.979302
Si Si3 0.818005 0.304465 0.614708
Si Si4 0.168057 0.902411 0.028217
Si Si5 0.822369 0.695445 0.795768
Si Si6 0.182239 0.673281 0.572956
Si Si7 0.176948 0.485781 0.138051
Si Si8 0.329306 0.922514 0.375249
O O1 0.500000 0.859684 0.860915
O O2 0.737900 0.790438 0.820357
O O3 0.734361 0.785589 0.904074
O O4 0.743677 0.973613 0.856759
O O5 0.500000 0.341720 0.979218
O O6 0.746142 0.335993 0.933192
O O7 0.691911 0.176785 0.979825
O O8 0.747152 0.342370 0.024387
O O9 0.757761 0.398905 0.645190
O O10 0.756237 0.190974 0.632641
O O11 0.000000 0.297884 0.614282
O O12 0.162651 0.946130 0.075385
O O13 0.000000 0.853670 0.016274
O O14 0.214793 0.000000 0.000000
O O15 0.750000 0.682290 0.750000
O O16 0.796867 0.582279 0.819438
O O17 0.000000 0.724689 0.792588
O O18 0.246438 0.572484 0.598119
O O19 0.000000 0.668449 0.572384
O O20 0.000000 0.502996 0.128045
O O21 0.500000 0.914799 0.355588
#
# Coordination Sequence:
#
# PCOD8218615 Si02
#       8
#     8   8   8   8   8   8   8   8
#     4  10  19  32  53  80 108 138 172 209 256 312
#     4   9  18  30  44  65  94 132 179 225 263 300
#     4  10  20  34  51  71 100 141 186 225 261 305
#     4   9  17  27  40  61  91 129 172 217 262 304
#     4  10  21  38  61  87 111 133 160 200 252 310
#     4   9  18  32  49  71 101 137 177 222 268 311
#     4  10  21  36  54  77 104 134 170 213 261 312
#     4  10  19  31  48  71 102 138 175 215 258 303
#
# _framework density 18.671893000000001
#
# number of rings (size 3 to 8) (size 9 to 14) (size 15 to 20)
#    0.000    2.375    0.000    2.625    0.000    4.250 
#    0.000    2.500    0.000    0.750    0.000    3.500 
#    0.000    0.000    0.000    0.000    0.000    0.000 
#
# Total GULP energy -792883.941216 kJ/mol
# GULP energy per Si atom -12388.811581 kJ/mol
# Density = 1.862939 g / cm^3
# Si number density = 18.671893 Si / 1000 Ang^3
#
#
#
# Elastic Constant Matrix: (Units=GPa)
#
#
# Indices 1 2 3 4 5 6 
#
# 1 50.0366 37.7681 18.2766 0.0000 0.0000 0.0000
# 2 37.7681 129.0731 31.4913 0.0000 0.0000 0.0000
# 3 18.2766 31.4913 55.8224 0.0000 0.0000 0.0000
# 4 0.0000 0.0000 0.0000 14.9449 0.0000 0.0000
# 5 0.0000 0.0000 0.0000 0.0000 20.9432 0.0000
# 6 0.0000 0.0000 0.0000 0.0000 0.0000 29.6274
#
#
#
# Elastic Compliance Matrix: (Units=1/GPa)
#
#
# Indices 1 2 3 4 5 6 
#
# 1 0.026824 -0.006617 -0.005050 0.000000 0.000000 0.000000
# 2 -0.006617 0.010616 -0.003823 0.000000 0.000000 0.000000
# 3 -0.005050 -0.003823 0.021724 0.000000 0.000000 0.000000
# 4 0.000000 0.000000 0.000000 0.066912 0.000000 0.000000
# 5 0.000000 0.000000 0.000000 0.000000 0.047748 0.000000
# 6 0.000000 0.000000 0.000000 0.000000 0.000000 0.033753
#
#
# Mechanical properties :
#
#
# Convention : Reuss Voigt Hill
#
# Bulk Modulus (GPa) = 35.47858 45.55600 40.51729
# Shear Modulus (GPa) = 20.16522 22.92949 21.54736
#
# Velocity S-wave (km/s) = 3.28987 3.50812 3.40074
# Velocity P-wave (km/s) = 5.78561 6.39221 6.09646
#
# Compressibility (1/GPa) = 0.02818602
#
# Stress axis : x y z
#
# Youngs Moduli (GPa) = 37.27940 94.19370 46.03277
#
# Poissons Ratio (x) = 0.62329 0.23244
# Poissons Ratio (y) = 0.24668 0.17596
# Poissons Ratio (z) = 0.18824 0.36006
#
# Static dielectric constant tensor:
#      x y z
#    x 3.486570 0.000000 0.000000 
#    y 0.000000 3.338760 0.000000 
#    z 0.000000 0.000000 3.292350 
# 
# 
# High freq. dielectric constant tensor:
#      x y z
#    x 1.726520 0.000000 0.000000 
#    y 0.000000 1.723780 0.000000 
#    z 0.000000 0.000000 1.696980 
# 
# From -- ./inp_files/38105.got.cif
#   From: 2010.03.12/outbox.cif.g09.slc.cpg/sg53_20_cif.got.tgz:38105.got - 2010.04.16 14:36:59.
