data_PCOD8218394
_publ_section_title
;
Structure prediction by ZEFSAII (Michael W. Deem and Ramdas Pophale) SiO2 
 PCOD8218394
Probable space group: P M N A
;
_chemical_formula_sum "Si O2"
_cell_formula_units_Z 64
_cell_length_a 8.849628
_cell_length_b 26.310764
_cell_length_c 18.328503
_cell_angle_alpha 90.000000
_cell_angle_beta 90.000000
_cell_angle_gamma 90.000000
_cell_volume 4267.617322
_symmetry_space_group_name_H-M "P M N A"
_symmetry_group_IT_number 53
_symmetry_cell_setting 'orthorhombic'
loop_
_space_group_symop_operation_xyz
x,y,z
1/2-x,-y,1/2+z
x,-y,-z
1/2-x,y,1/2-z
-x,-y,-z
1/2+x,y,1/2-z
-x,y,z
1/2+x,-y,1/2+z
loop_
_atom_site_type_symbol
_atom_site_label
_atom_site_fract_x
_atom_site_fract_y
_atom_site_fract_z
Si Si1 0.321904 0.899338 0.911898
Si Si2 0.820885 0.506137 0.672986
Si Si3 0.832854 0.951358 0.448587
Si Si4 0.177872 0.400038 0.090454
Si Si5 0.333957 0.554040 0.038156
Si Si6 0.679228 0.311581 0.172970
Si Si7 0.822242 0.008465 0.172105
Si Si8 0.323877 0.803201 0.824767
O O1 0.500000 0.910194 0.902446
O O2 0.235730 0.938302 0.859525
O O3 0.277694 0.842046 0.889024
O O4 0.275804 0.906054 0.997454
O O5 0.750000 0.492048 0.750000
O O6 0.748775 0.557901 0.643306
O O7 0.781265 0.457884 0.620909
O O8 0.000000 0.514545 0.678444
O O9 0.000000 0.939304 0.417156
O O10 0.840675 0.000000 0.500000
O O11 0.720552 0.961410 0.381372
O O12 0.248910 0.345779 0.109886
O O13 0.000000 0.399230 0.101551
O O14 0.216064 0.410735 0.005298
O O15 0.500000 0.580101 0.037012
O O16 0.346379 0.500000 0.000000
O O17 0.750000 0.328286 0.250000
O O18 0.500000 0.319121 0.176008
O O19 0.727144 0.253718 0.154055
O O20 0.750000 0.997471 0.250000
O O21 0.000000 0.011051 0.180627
O O22 0.250000 0.821914 0.750000
O O23 0.500000 0.804265 0.810176
#
# Coordination Sequence:
#
# PCOD8218394 Si02
#       8
#     8   8   8   8   8   8   8   8
#     4   9  17  30  45  61  82 108 138 169 206 246
#     4  10  19  30  44  62  85 111 139 170 204 243
#     4   8  15  28  43  58  80 107 133 166 204 242
#     4  11  20  29  43  61  82 110 143 174 206 243
#     4   8  16  30  44  59  81 108 136 168 205 243
#     4  10  19  31  44  59  82 109 140 175 208 241
#     4  11  20  28  40  59  83 110 141 171 202 241
#     4   9  18  30  44  61  81 108 139 172 206 241
#
# _framework density 14.996658999999999
#
# number of rings (size 3 to 8) (size 9 to 14) (size 15 to 20)
#    0.000    2.500    0.000    5.250    0.000    7.000 
#    0.000    0.000    0.000    0.000    0.000    0.000 
#    0.000    1.000    0.000    6.250    0.000    3.875 
#
# Total GULP energy -793315.451489 kJ/mol
# GULP energy per Si atom -12395.553930 kJ/mol
# Density = 1.496253 g / cm^3
# Si number density = 14.996659 Si / 1000 Ang^3
#
#
#
# Elastic Constant Matrix: (Units=GPa)
#
#
# Indices 1 2 3 4 5 6 
#
# 1 87.1189 36.1288 49.3352 0.0000 0.0000 0.0000
# 2 36.1288 73.8479 50.6736 0.0000 0.0000 0.0000
# 3 49.3352 50.6736 107.5019 0.0000 0.0000 0.0000
# 4 0.0000 0.0000 0.0000 24.4467 0.0000 0.0000
# 5 0.0000 0.0000 0.0000 0.0000 24.3683 0.0000
# 6 0.0000 0.0000 0.0000 0.0000 0.0000 1.8168
#
#
#
# Elastic Compliance Matrix: (Units=1/GPa)
#
#
# Indices 1 2 3 4 5 6 
#
# 1 0.016350 -0.004213 -0.005518 0.000000 0.000000 0.000000
# 2 -0.004213 0.021101 -0.008013 0.000000 0.000000 0.000000
# 3 -0.005518 -0.008013 0.015611 0.000000 0.000000 0.000000
# 4 0.000000 0.000000 0.000000 0.040905 0.000000 0.000000
# 5 0.000000 0.000000 0.000000 0.000000 0.041037 0.000000
# 6 0.000000 0.000000 0.000000 0.000000 0.000000 0.550422
#
#
# Mechanical properties :
#
#
# Convention : Reuss Voigt Hill
#
# Bulk Modulus (GPa) = 56.89752 60.08266 58.49009
# Shear Modulus (GPa) = 6.87973 18.94842 12.91408
#
# Velocity S-wave (km/s) = 2.14417 3.55844 2.93769
# Velocity P-wave (km/s) = 6.64473 7.55211 7.11290
#
# Compressibility (1/GPa) = 0.01757546
#
# Stress axis : x y z
#
# Youngs Moduli (GPa) = 61.16069 47.39145 64.05544
#
# Poissons Ratio (x) = 0.19966 0.35344
# Poissons Ratio (y) = 0.25767 0.51327
# Poissons Ratio (z) = 0.33747 0.37975
#
# Static dielectric constant tensor:
#      x y z
#    x 2.940140 0.000000 0.000000 
#    y 0.000000 2.905090 0.000000 
#    z 0.000000 0.000000 3.186810 
# 
# 
# High freq. dielectric constant tensor:
#      x y z
#    x 1.582370 0.000000 0.000000 
#    y 0.000000 1.540150 0.000000 
#    z 0.000000 0.000000 1.565080 
# 
# From -- ./inp_files/27092.got.cif
#   From: 2010.03.12/outbox.cif.g09.slc.cpg/sg53_14_cif.got.tgz:27092.got - 2010.04.16 14:36:59.
