data_PCOD8218718
_publ_section_title
;
Structure prediction by ZEFSAII (Michael W. Deem and Ramdas Pophale) SiO2 
 PCOD8218718
Probable space group: P M N A
;
_chemical_formula_sum "Si O2"
_cell_formula_units_Z 48
_cell_length_a 9.071280
_cell_length_b 9.535359
_cell_length_c 30.336799
_cell_angle_alpha 90.000000
_cell_angle_beta 90.000000
_cell_angle_gamma 90.000000
_cell_volume 2624.069752
_symmetry_space_group_name_H-M "P M N A"
_symmetry_group_IT_number 53
_symmetry_cell_setting 'orthorhombic'
loop_
_space_group_symop_operation_xyz
x,y,z
1/2-x,-y,1/2+z
x,-y,-z
1/2-x,y,1/2-z
-x,-y,-z
1/2+x,y,1/2-z
-x,y,z
1/2+x,-y,1/2+z
loop_
_atom_site_type_symbol
_atom_site_label
_atom_site_fract_x
_atom_site_fract_y
_atom_site_fract_z
Si Si1 0.829573 0.312103 0.387816
Si Si2 0.828058 0.207913 0.933157
Si Si3 0.172835 0.420970 0.856354
Si Si4 0.827493 0.655680 0.511209
Si Si5 0.669038 0.003271 0.873186
Si Si6 0.827217 0.210453 0.704444
O O1 0.728854 0.420821 0.361435
O O2 0.785071 0.307884 0.438976
O O3 0.797458 0.160642 0.366828
O O4 0.000000 0.356818 0.382784
O O5 0.788615 0.337004 0.900910
O O6 0.000000 0.190873 0.940345
O O7 0.767448 0.064133 0.912621
O O8 0.754239 0.233157 0.980277
O O9 0.257234 0.351821 0.815350
O O10 0.000000 0.419756 0.846129
O O11 0.770752 0.500000 0.500000
O O12 0.000000 0.669475 0.501953
O O13 0.500000 0.028151 0.886833
O O14 0.706315 0.079503 0.827417
O O15 0.750000 0.172639 0.750000
O O16 0.000000 0.234865 0.711589
#
# Coordination Sequence:
#
# PCOD8218718 Si02
#       6
#     8   8   8   8   8   8
#     4  10  20  35  54  78 108 144 184 226 270 317
#     4  10  20  33  51  75 106 143 183 226 268 314
#     4  10  20  34  54  80 108 139 175 217 265 315
#     4  10  19  31  51  76 104 143 190 232 269 312
#     4   9  20  37  56  77 106 143 179 217 268 326
#     4  10  20  37  61  84 105 133 171 214 261 320
#
# _framework density 18.292197000000002
#
# number of rings (size 3 to 8) (size 9 to 14) (size 15 to 20)
#    0.000    2.167    1.667    1.500    0.000    4.333 
#    0.000    4.167    0.000    2.000    0.000    0.000 
#    0.000    0.000    0.000    0.000    0.000    0.000 
#
# Total GULP energy -595442.038960 kJ/mol
# GULP energy per Si atom -12405.042478 kJ/mol
# Density = 1.825056 g / cm^3
# Si number density = 18.292197 Si / 1000 Ang^3
#
#
#
# Elastic Constant Matrix: (Units=GPa)
#
#
# Indices 1 2 3 4 5 6 
#
# 1 78.3412 45.2757 45.8794 0.0000 0.0000 0.0000
# 2 45.2757 104.5914 45.4609 0.0000 0.0000 0.0000
# 3 45.8794 45.4609 94.3969 0.0000 0.0000 0.0000
# 4 0.0000 0.0000 0.0000 20.5805 0.0000 0.0000
# 5 0.0000 0.0000 0.0000 0.0000 32.4507 0.0000
# 6 0.0000 0.0000 0.0000 0.0000 0.0000 25.9273
#
#
#
# Elastic Compliance Matrix: (Units=1/GPa)
#
#
# Indices 1 2 3 4 5 6 
#
# 1 0.020184 -0.005658 -0.007085 0.000000 0.000000 0.000000
# 2 -0.005658 0.013678 -0.003838 0.000000 0.000000 0.000000
# 3 -0.007085 -0.003838 0.015885 0.000000 0.000000 0.000000
# 4 0.000000 0.000000 0.000000 0.048590 0.000000 0.000000
# 5 0.000000 0.000000 0.000000 0.000000 0.030816 0.000000
# 6 0.000000 0.000000 0.000000 0.000000 0.000000 0.038569
#
#
# Mechanical properties :
#
#
# Convention : Reuss Voigt Hill
#
# Bulk Modulus (GPa) = 60.28999 61.17348 60.73174
# Shear Modulus (GPa) = 24.22347 25.17259 24.69803
#
# Velocity S-wave (km/s) = 3.64297 3.71366 3.67849
# Velocity P-wave (km/s) = 7.12222 7.20440 7.16342
#
# Compressibility (1/GPa) = 0.01658650
#
# Stress axis : x y z
#
# Youngs Moduli (GPa) = 49.54505 73.10972 62.95148
#
# Poissons Ratio (x) = 0.41362 0.44602
# Poissons Ratio (y) = 0.28030 0.24158
# Poissons Ratio (z) = 0.35103 0.28056
#
# Static dielectric constant tensor:
#      x y z
#    x 3.337690 0.000000 0.000000 
#    y 0.000000 3.326070 0.000000 
#    z 0.000000 0.000000 3.241740 
# 
# 
# High freq. dielectric constant tensor:
#      x y z
#    x 1.712480 0.000000 0.000000 
#    y 0.000000 1.704940 0.000000 
#    z 0.000000 0.000000 1.697190 
# 
# From -- ./inp_files/37664.got.cif
#   From: 2010.03.12/outbox.cif.g09.slc.cpg/sg53_19_cif.got.tgz:37664.got - 2010.04.16 14:36:59.
