data_PCOD8218018
_publ_section_title
;
Structure prediction by ZEFSAII (Michael W. Deem and Ramdas Pophale) SiO2 
 PCOD8218018
Probable space group: P M N A
;
_chemical_formula_sum "Si O2"
_cell_formula_units_Z 64
_cell_length_a 8.686890
_cell_length_b 16.814704
_cell_length_c 23.982095
_cell_angle_alpha 90.000000
_cell_angle_beta 90.000000
_cell_angle_gamma 90.000000
_cell_volume 3503.004278
_symmetry_space_group_name_H-M "P M N A"
_symmetry_group_IT_number 53
_symmetry_cell_setting 'orthorhombic'
loop_
_space_group_symop_operation_xyz
x,y,z
1/2-x,-y,1/2+z
x,-y,-z
1/2-x,y,1/2-z
-x,-y,-z
1/2+x,y,1/2-z
-x,y,z
1/2+x,-y,1/2+z
loop_
_atom_site_type_symbol
_atom_site_label
_atom_site_fract_x
_atom_site_fract_y
_atom_site_fract_z
Si Si1 0.681635 0.925565 0.688646
Si Si2 0.325934 0.210327 0.117731
Si Si3 0.182256 0.312925 0.028475
Si Si4 0.326985 0.365248 0.192338
Si Si5 0.316977 0.751133 0.311344
Si Si6 0.818329 0.539238 0.898911
Si Si7 0.816723 0.086937 0.688420
Si Si8 0.817550 0.637177 0.090912
O O1 0.750000 0.906926 0.750000
O O2 0.500000 0.934483 0.695417
O O3 0.719732 0.856670 0.644961
O O4 0.752723 0.005896 0.660977
O O5 0.500000 0.178480 0.111233
O O6 0.261000 0.236516 0.057362
O O7 0.319006 0.286053 0.156834
O O8 0.239725 0.396058 0.056033
O O9 0.000000 0.304169 0.035629
O O10 0.235497 0.314541 0.964052
O O11 0.250000 0.343975 0.250000
O O12 0.500000 0.394282 0.201922
O O13 0.235782 0.436206 0.162601
O O14 0.250000 0.733491 0.250000
O O15 0.500000 0.757772 0.306972
O O16 0.249810 0.832450 0.338795
O O17 0.262230 0.681394 0.352997
O O18 0.748330 0.452086 0.911690
O O19 0.000000 0.534882 0.899968
O O20 0.750000 0.086201 0.750000
O O21 0.000000 0.087825 0.687543
O O22 0.000000 0.631794 0.090606
#
# Coordination Sequence:
#
# PCOD8218018 Si02
#       8
#     8   8   8   8   8   8   8   8
#     4  11  20  31  50  77 105 134 167 202 243 290
#     4  10  20  33  48  71 102 134 168 206 247 291
#     4   9  17  32  53  74  97 129 169 209 250 295
#     4  10  20  32  46  66  97 134 168 202 245 295
#     4  10  19  33  51  73 102 131 162 201 247 297
#     4   9  17  31  51  73  97 127 166 210 252 294
#     4  10  18  31  50  73 101 131 163 199 243 292
#     4   9  18  32  53  77  98 126 166 209 250 297
#
# _framework density 18.270033000000002
#
# number of rings (size 3 to 8) (size 9 to 14) (size 15 to 20)
#    0.000    2.250    0.000    5.625    0.000    4.500 
#    0.000    4.375    0.000    3.750    0.000    5.250 
#    0.000    0.000    0.000    0.000    0.000    0.000 
#
# Total GULP energy -793377.683195 kJ/mol
# GULP energy per Si atom -12396.526300 kJ/mol
# Density = 1.822845 g / cm^3
# Si number density = 18.270033 Si / 1000 Ang^3
#
#
#
# Elastic Constant Matrix: (Units=GPa)
#
#
# Indices 1 2 3 4 5 6 
#
# 1 72.9234 38.5659 31.2497 0.0000 0.0000 0.0000
# 2 38.5659 95.5151 38.0509 0.0000 0.0000 0.0000
# 3 31.2497 38.0509 87.3728 0.0000 0.0000 0.0000
# 4 0.0000 0.0000 0.0000 17.9958 0.0000 0.0000
# 5 0.0000 0.0000 0.0000 0.0000 22.0578 0.0000
# 6 0.0000 0.0000 0.0000 0.0000 0.0000 22.3522
#
#
#
# Elastic Compliance Matrix: (Units=1/GPa)
#
#
# Indices 1 2 3 4 5 6 
#
# 1 0.018568 -0.005870 -0.004085 0.000000 0.000000 0.000000
# 2 -0.005870 0.014523 -0.004225 0.000000 0.000000 0.000000
# 3 -0.004085 -0.004225 0.014746 0.000000 0.000000 0.000000
# 4 0.000000 0.000000 0.000000 0.055569 0.000000 0.000000
# 5 0.000000 0.000000 0.000000 0.000000 0.045335 0.000000
# 6 0.000000 0.000000 0.000000 0.000000 0.000000 0.044738
#
#
# Mechanical properties :
#
#
# Convention : Reuss Voigt Hill
#
# Bulk Modulus (GPa) = 51.34180 52.39379 51.86780
# Shear Modulus (GPa) = 21.89803 22.34413 22.12108
#
# Velocity S-wave (km/s) = 3.46580 3.50093 3.48341
# Velocity P-wave (km/s) = 6.64668 6.71429 6.68057
#
# Compressibility (1/GPa) = 0.01947731
#
# Stress axis : x y z
#
# Youngs Moduli (GPa) = 53.85710 68.85706 67.81392
#
# Poissons Ratio (x) = 0.40418 0.27699
# Poissons Ratio (y) = 0.31613 0.28654
# Poissons Ratio (z) = 0.21998 0.29094
#
# Static dielectric constant tensor:
#      x y z
#    x 3.388550 0.000000 0.000000 
#    y 0.000000 3.937130 0.000000 
#    z 0.000000 0.000000 3.278520 
# 
# 
# High freq. dielectric constant tensor:
#      x y z
#    x 1.705080 0.000000 0.000000 
#    y 0.000000 1.709050 0.000000 
#    z 0.000000 0.000000 1.685150 
# 
# From -- ./inp_files/34227.got.cif
#   From: 2010.03.12/outbox.cif.g09.slc.cpg/sg53_18_cif.got.tgz:34227.got - 2010.04.16 14:36:59.
