data_PCOD8218253
_publ_section_title
;
Structure prediction by ZEFSAII (Michael W. Deem and Ramdas Pophale) SiO2 
 PCOD8218253
Probable space group: P M N A
;
_chemical_formula_sum "Si O2"
_cell_formula_units_Z 56
_cell_length_a 17.539046
_cell_length_b 16.587561
_cell_length_c 10.084903
_cell_angle_alpha 90.000000
_cell_angle_beta 90.000000
_cell_angle_gamma 90.000000
_cell_volume 2934.000783
_symmetry_space_group_name_H-M "P M N A"
_symmetry_group_IT_number 53
_symmetry_cell_setting 'orthorhombic'
loop_
_space_group_symop_operation_xyz
x,y,z
1/2-x,-y,1/2+z
x,-y,-z
1/2-x,y,1/2-z
-x,-y,-z
1/2+x,y,1/2-z
-x,y,z
1/2+x,-y,1/2+z
loop_
_atom_site_type_symbol
_atom_site_label
_atom_site_fract_x
_atom_site_fract_y
_atom_site_fract_z
Si Si1 0.659568 0.856359 0.256344
Si Si2 0.840050 0.179108 0.246068
Si Si3 0.909875 0.986007 0.850063
Si Si4 0.662673 0.261313 0.516688
Si Si5 0.339751 0.566481 0.397884
Si Si6 0.842078 0.568570 0.401889
Si Si7 0.156905 0.255860 0.520487
O O1 0.750000 0.868535 0.250000
O O2 0.632491 0.808734 0.387198
O O3 0.628415 0.806464 0.131264
O O4 0.619499 0.942664 0.255956
O O5 0.750000 0.163378 0.250000
O O6 0.879856 0.094955 0.216793
O O7 0.870649 0.220122 0.380338
O O8 0.862872 0.242303 0.132205
O O9 0.000000 0.983744 0.851038
O O10 0.878303 0.000000 0.000000
O O11 0.627289 0.346866 0.558352
O O12 0.753014 0.264165 0.528027
O O13 0.372248 0.500000 0.500000
O O14 0.368424 0.548723 0.248449
O O15 0.248893 0.568745 0.405308
O O16 0.874618 0.500000 0.500000
O O17 0.876001 0.654648 0.450618
#
# Coordination Sequence:
#
# PCOD8218253 Si02
#       7
#     8   8   8   8   8   8   8
#     4  10  18  34  55  73 100 138 175 210 251 304
#     4  10  20  34  52  77 102 134 178 214 252 306
#     4  11  23  38  55  77 105 133 168 215 266 315
#     4   9  16  29  47  68 101 136 176 210 241 302
#     4   9  16  24  38  63  98 140 170 199 248 302
#     4   9  16  25  37  62 101 137 168 202 252 303
#     4   9  18  29  47  71  98 135 172 214 252 292
#
# _framework density 19.086566000000001
#
# number of rings (size 3 to 8) (size 9 to 14) (size 15 to 20)
#    0.000    2.429    2.857    0.429    2.000    0.571 
#    0.000    1.429    0.000    0.000    0.000    0.000 
#    0.000    6.857    0.000    0.000    0.000    0.000 
#
# Total GULP energy -694276.434496 kJ/mol
# GULP energy per Si atom -12397.793473 kJ/mol
# Density = 1.904312 g / cm^3
# Si number density = 19.086566 Si / 1000 Ang^3
#
#
#
# Elastic Constant Matrix: (Units=GPa)
#
#
# Indices 1 2 3 4 5 6 
#
# 1 16.8801 21.8800 21.6676 0.0000 0.0000 0.0000
# 2 21.8800 163.4833 87.6604 0.0000 0.0000 0.0000
# 3 21.6676 87.6604 174.4746 0.0000 0.0000 0.0000
# 4 0.0000 0.0000 0.0000 24.5426 0.0000 0.0000
# 5 0.0000 0.0000 0.0000 0.0000 8.3171 0.0000
# 6 0.0000 0.0000 0.0000 0.0000 0.0000 -3.5732
#
#
#
# Elastic Compliance Matrix: (Units=1/GPa)
#
#
# Indices 1 2 3 4 5 6 
#
# 1 0.075888 -0.006985 -0.005915 0.000000 0.000000 0.000000
# 2 -0.006985 0.009015 -0.003662 0.000000 0.000000 0.000000
# 3 -0.005915 -0.003662 0.008306 0.000000 0.000000 0.000000
# 4 0.000000 0.000000 0.000000 0.040746 0.000000 0.000000
# 5 0.000000 0.000000 0.000000 0.000000 0.120235 0.000000
# 6 0.000000 0.000000 0.000000 0.000000 0.000000 -0.279863
#
#
# Mechanical properties :
#
#
# Convention : Reuss Voigt Hill
#
# Bulk Modulus (GPa) = 16.64304 68.58376 42.61340
# Shear Modulus (GPa) = 181.95957 20.76597 101.36277
#
# Velocity S-wave (km/s) = 9.77450 3.30205 7.29535
# Velocity P-wave (km/s) = 11.66732 7.10978 9.66115
#
# Compressibility (1/GPa) = 0.06008517
#
# Stress axis : x y z
#
# Youngs Moduli (GPa) = 13.17737 110.92286 120.39549
#
# Poissons Ratio (x) = 0.77479 0.71213
# Poissons Ratio (y) = 0.09204 0.44090
# Poissons Ratio (z) = 0.07794 0.40621
#
# Static dielectric constant tensor:
#      x y z
#    x 2.775100 0.000000 0.000000 
#    y 0.000000 3.698690 0.000000 
#    z 0.000000 0.000000 3.776440 
# 
# 
# High freq. dielectric constant tensor:
#      x y z
#    x 1.667300 0.000000 0.000000 
#    y 0.000000 1.757620 0.000000 
#    z 0.000000 0.000000 1.756200 
# 
# From -- ./inp_files/11165.got.cif
#   From: 2010.03.12/outbox.cif.g09.slc.cpg/sg53_6_cif.got.tgz:11165.got - 2010.04.16 14:36:59.
