data_PCOD8218269
_publ_section_title
;
Structure prediction by ZEFSAII (Michael W. Deem and Ramdas Pophale) SiO2 
 PCOD8218269
Probable space group: P M N A
;
_chemical_formula_sum "Si O2"
_cell_formula_units_Z 40
_cell_length_a 25.517316
_cell_length_b 8.637458
_cell_length_c 8.921651
_cell_angle_alpha 90.000000
_cell_angle_beta 90.000000
_cell_angle_gamma 90.000000
_cell_volume 1966.374216
_symmetry_space_group_name_H-M "P M N A"
_symmetry_group_IT_number 53
_symmetry_cell_setting 'orthorhombic'
loop_
_space_group_symop_operation_xyz
x,y,z
1/2-x,-y,1/2+z
x,-y,-z
1/2-x,y,1/2-z
-x,-y,-z
1/2+x,y,1/2-z
-x,y,z
1/2+x,-y,1/2+z
loop_
_atom_site_type_symbol
_atom_site_label
_atom_site_fract_x
_atom_site_fract_y
_atom_site_fract_z
Si Si1 0.614351 0.815265 0.519179
Si Si2 0.000000 0.839071 0.914797
Si Si3 0.396660 0.234044 0.804657
Si Si4 0.000000 0.053620 0.667402
Si Si5 0.366017 0.500000 0.000000
Si Si6 0.807344 0.738255 0.708846
Si Si7 0.169349 0.000000 0.500000
O O1 0.555142 0.750608 0.554435
O O2 0.630878 0.742079 0.358169
O O3 0.654938 0.762986 0.647402
O O4 0.614706 0.000000 0.500000
O O5 0.000000 0.884241 0.740554
O O6 0.000000 0.000000 0.000000
O O7 0.452621 0.158839 0.777090
O O8 0.402154 0.397567 0.889999
O O9 0.365717 0.116305 0.907210
O O10 0.000000 0.000000 0.500000
O O11 0.330187 0.608196 0.898479
O O12 0.750000 0.677508 0.750000
O O13 0.797416 0.899054 0.618048
#
# Coordination Sequence:
#
# PCOD8218269 Si02
#       7
#     8   4   8   4   4   8   4
#     4  11  20  38  67 100 124 163 215 276 320 373
#     4  10  18  34  59 102 127 153 206 262 338 369
#     4  11  21  39  62  93 132 169 213 263 319 388
#     4  12  20  31  65  98 128 170 214 274 324 375
#     4  10  28  45  56  90 134 177 214 252 330 412
#     4  11  25  43  67  92 128 170 217 271 329 381
#     4  10  20  37  62  94 122 153 212 272 314 372
#
# _framework density 20.342009999999998
#
# number of rings (size 3 to 8) (size 9 to 14) (size 15 to 20)
#    0.000    1.200    7.000    0.000    4.200    2.800 
#    0.000    5.000    0.000    2.400    0.000    0.000 
#    0.000    0.000    0.000    0.000    0.000    0.000 
#
# Total GULP energy -495664.058538 kJ/mol
# GULP energy per Si atom -12391.601463 kJ/mol
# Density = 2.029571 g / cm^3
# Si number density = 20.342010 Si / 1000 Ang^3
#
#
#
# Elastic Constant Matrix: (Units=GPa)
#
#
# Indices 1 2 3 4 5 6 
#
# 1 94.0762 8.9853 32.5908 0.0000 0.0000 0.0000
# 2 8.9853 77.2859 42.2283 0.0000 0.0000 0.0000
# 3 32.5908 42.2283 165.1083 0.0000 0.0000 0.0000
# 4 0.0000 0.0000 0.0000 34.3505 0.0000 0.0000
# 5 0.0000 0.0000 0.0000 0.0000 27.5382 0.0000
# 6 0.0000 0.0000 0.0000 0.0000 0.0000 2363.8617
#
#
#
# Elastic Compliance Matrix: (Units=1/GPa)
#
#
# Indices 1 2 3 4 5 6 
#
# 1 0.011411 -0.000112 -0.002224 0.000000 0.000000 0.000000
# 2 -0.000112 0.015042 -0.003825 0.000000 0.000000 0.000000
# 3 -0.002224 -0.003825 0.007474 0.000000 0.000000 0.000000
# 4 0.000000 0.000000 0.000000 0.029112 0.000000 0.000000
# 5 0.000000 0.000000 0.000000 0.000000 0.036313 0.000000
# 6 0.000000 0.000000 0.000000 0.000000 0.000000 0.000423
#
#
# Mechanical properties :
#
#
# Convention : Reuss Voigt Hill
#
# Bulk Modulus (GPa) = 46.28432 56.00880 51.14656
# Shear Modulus (GPa) = 41.91205 501.99446 271.95325
#
# Velocity S-wave (km/s) = 4.54405 15.72619 11.57500
# Velocity P-wave (km/s) = 7.09462 18.90354 14.27721
#
# Compressibility (1/GPa) = 0.02160559
#
# Stress axis : x y z
#
# Youngs Moduli (GPa) = 87.63667 66.48075 133.79861
#
# Poissons Ratio (x) = 0.00741 0.29755
# Poissons Ratio (y) = 0.00977 0.51180
# Poissons Ratio (z) = 0.19489 0.25430
#
# Static dielectric constant tensor:
#      x y z
#    x 3.735370 0.000000 0.000000 
#    y 0.000000 4.058730 0.000000 
#    z 0.000000 0.000000 5.893130 
# 
# 
# High freq. dielectric constant tensor:
#      x y z
#    x 1.778950 0.000000 0.000000 
#    y 0.000000 1.768870 0.000000 
#    z 0.000000 0.000000 1.829420 
# 
# From -- ./inp_files/12365.got.cif
#   From: 2010.03.12/outbox.cif.g09.slc.cpg/sg53_7_cif.got.tgz:12365.got - 2010.04.16 14:36:59.
