data_PCOD8218726
_publ_section_title
;
Structure prediction by ZEFSAII (Michael W. Deem and Ramdas Pophale) SiO2 
 PCOD8218726
Probable space group: P M N A
;
_chemical_formula_sum "Si O2"
_cell_formula_units_Z 64
_cell_length_a 9.003188
_cell_length_b 12.522271
_cell_length_c 28.921761
_cell_angle_alpha 90.000000
_cell_angle_beta 90.000000
_cell_angle_gamma 90.000000
_cell_volume 3260.649747
_symmetry_space_group_name_H-M "P M N A"
_symmetry_group_IT_number 53
_symmetry_cell_setting 'orthorhombic'
loop_
_space_group_symop_operation_xyz
x,y,z
1/2-x,-y,1/2+z
x,-y,-z
1/2-x,y,1/2-z
-x,-y,-z
1/2+x,y,1/2-z
-x,y,z
1/2+x,-y,1/2+z
loop_
_atom_site_type_symbol
_atom_site_label
_atom_site_fract_x
_atom_site_fract_y
_atom_site_fract_z
Si Si1 0.825801 0.053231 0.794767
Si Si2 0.672191 0.458779 0.388211
Si Si3 0.171469 0.327000 0.943024
Si Si4 0.831908 0.154025 0.317320
Si Si5 0.175361 0.888492 0.104523
Si Si6 0.832841 0.906311 0.578764
Si Si7 0.674833 0.310591 0.037340
Si Si8 0.825018 0.604264 0.703354
O O1 0.750000 0.109111 0.750000
O O2 0.764920 0.105363 0.842489
O O3 0.000000 0.067115 0.790120
O O4 0.782655 0.928239 0.794397
O O5 0.500000 0.429480 0.381671
O O6 0.692949 0.577227 0.407637
O O7 0.743470 0.373420 0.422326
O O8 0.754020 0.458862 0.339230
O O9 0.232864 0.220269 0.918379
O O10 0.000000 0.314020 0.957843
O O11 0.267525 0.352080 0.988242
O O12 0.816093 0.152367 0.372364
O O13 0.786950 0.270865 0.300633
O O14 0.000000 0.123737 0.302487
O O15 0.000000 0.893288 0.105405
O O16 0.230539 0.989361 0.074527
O O17 0.788419 0.816167 0.541265
O O18 0.000000 0.946393 0.570560
O O19 0.500000 0.331842 0.042113
O O20 0.750000 0.559724 0.750000
O O21 0.000000 0.582729 0.704177
#
# Coordination Sequence:
#
# PCOD8218726 Si02
#       8
#     8   8   8   8   8   8   8   8
#     4  10  19  31  51  79 107 143 187 230 278 333
#     4  11  23  40  62  85 115 154 195 241 290 339
#     4  10  23  42  60  82 113 151 196 243 289 342
#     4   9  17  32  52  77 113 149 179 221 274 331
#     4   9  20  38  57  79 112 151 191 234 282 341
#     4   9  18  34  55  83 118 149 180 226 282 337
#     4  11  22  38  61  90 119 148 187 239 294 348
#     4  11  22  37  57  85 119 153 191 234 288 345
#
# _framework density 19.627991000000002
#
# number of rings (size 3 to 8) (size 9 to 14) (size 15 to 20)
#    0.000    2.000    1.250    2.250    0.000    7.000 
#    0.000    3.125    0.000    1.500    0.000    0.000 
#    0.000    0.000    0.000    0.000    0.000    0.000 
#
# Total GULP energy -793727.902691 kJ/mol
# GULP energy per Si atom -12401.998480 kJ/mol
# Density = 1.958332 g / cm^3
# Si number density = 19.627991 Si / 1000 Ang^3
#
#
#
# Elastic Constant Matrix: (Units=GPa)
#
#
# Indices 1 2 3 4 5 6 
#
# 1 83.2502 39.4778 51.2393 0.0000 0.0000 0.0000
# 2 39.4778 79.5951 41.7825 0.0000 0.0000 0.0000
# 3 51.2393 41.7825 117.1207 0.0000 0.0000 0.0000
# 4 0.0000 0.0000 0.0000 12.6753 0.0000 0.0000
# 5 0.0000 0.0000 0.0000 0.0000 32.6958 0.0000
# 6 0.0000 0.0000 0.0000 0.0000 0.0000 20.1744
#
#
#
# Elastic Compliance Matrix: (Units=1/GPa)
#
#
# Indices 1 2 3 4 5 6 
#
# 1 0.018557 -0.006081 -0.005949 0.000000 0.000000 0.000000
# 2 -0.006081 0.017451 -0.003565 0.000000 0.000000 0.000000
# 3 -0.005949 -0.003565 0.012413 0.000000 0.000000 0.000000
# 4 0.000000 0.000000 0.000000 0.078893 0.000000 0.000000
# 5 0.000000 0.000000 0.000000 0.000000 0.030585 0.000000
# 6 0.000000 0.000000 0.000000 0.000000 0.000000 0.049568
#
#
# Mechanical properties :
#
#
# Convention : Reuss Voigt Hill
#
# Bulk Modulus (GPa) = 58.03769 60.55170 59.29469
# Shear Modulus (GPa) = 20.45805 22.94017 21.69911
#
# Velocity S-wave (km/s) = 3.23195 3.42240 3.32854
# Velocity P-wave (km/s) = 6.60003 6.82157 6.71171
#
# Compressibility (1/GPa) = 0.01723018
#
# Stress axis : x y z
#
# Youngs Moduli (GPa) = 53.88681 57.30242 80.56166
#
# Poissons Ratio (x) = 0.34847 0.47928
# Poissons Ratio (y) = 0.32769 0.28722
# Poissons Ratio (z) = 0.32059 0.20430
#
# Static dielectric constant tensor:
#      x y z
#    x 3.571820 0.000000 0.000000 
#    y 0.000000 3.459830 0.000000 
#    z 0.000000 0.000000 3.791490 
# 
# 
# High freq. dielectric constant tensor:
#      x y z
#    x 1.764740 0.000000 0.000000 
#    y 0.000000 1.746160 0.000000 
#    z 0.000000 0.000000 1.773820 
# 
# From -- ./inp_files/38267.got.cif
#   From: 2010.03.12/outbox.cif.g09.slc.cpg/sg53_20_cif.got.tgz:38267.got - 2010.04.16 14:36:59.
