data_PCOD8218456
_publ_section_title
;
Structure prediction by ZEFSAII (Michael W. Deem and Ramdas Pophale) SiO2 
 PCOD8218456
Probable space group: P M N A
;
_chemical_formula_sum "Si O2"
_cell_formula_units_Z 64
_cell_length_a 8.819875
_cell_length_b 18.084224
_cell_length_c 23.027501
_cell_angle_alpha 90.000000
_cell_angle_beta 90.000000
_cell_angle_gamma 90.000000
_cell_volume 3672.900114
_symmetry_space_group_name_H-M "P M N A"
_symmetry_group_IT_number 53
_symmetry_cell_setting 'orthorhombic'
loop_
_space_group_symop_operation_xyz
x,y,z
1/2-x,-y,1/2+z
x,-y,-z
1/2-x,y,1/2-z
-x,-y,-z
1/2+x,y,1/2-z
-x,y,z
1/2+x,-y,1/2+z
loop_
_atom_site_type_symbol
_atom_site_label
_atom_site_fract_x
_atom_site_fract_y
_atom_site_fract_z
Si Si1 0.323598 0.135181 0.871278
Si Si2 0.176077 0.002421 0.809454
Si Si3 0.323025 0.135041 0.387628
Si Si4 0.177731 0.713209 0.313039
Si Si5 0.179345 0.737226 0.686244
Si Si6 0.322697 0.431139 0.686961
Si Si7 0.677809 0.914394 0.001590
Si Si8 0.177843 0.591341 0.812960
O O1 0.500000 0.118067 0.863232
O O2 0.282165 0.219084 0.855302
O O3 0.273278 0.120292 0.937111
O O4 0.235972 0.082404 0.827289
O O5 0.250000 0.974608 0.750000
O O6 0.215958 0.943750 0.859210
O O7 0.000000 0.008808 0.798029
O O8 0.500000 0.154453 0.383134
O O9 0.226731 0.196847 0.355349
O O10 0.271688 0.131348 0.454202
O O11 0.250000 0.726871 0.250000
O O12 0.244666 0.639119 0.344612
O O13 0.000000 0.703851 0.304725
O O14 0.250000 0.748684 0.750000
O O15 0.240066 0.660816 0.656182
O O16 0.000000 0.734680 0.692212
O O17 0.250000 0.434057 0.750000
O O18 0.500000 0.415774 0.692692
O O19 0.294153 0.511244 0.655671
O O20 0.500000 0.905076 0.988990
O O21 0.725661 0.000000 0.000000
O O22 0.250000 0.585818 0.750000
O O23 0.000000 0.608138 0.807916
#
# Coordination Sequence:
#
# PCOD8218456 Si02
#       8
#     8   8   8   8   8   8   8   8
#     4  10  21  36  53  74  99 130 168 208 255 301
#     4  11  23  35  51  73  99 131 165 202 247 300
#     4  11  23  37  53  75 101 131 169 212 255 301
#     4  10  19  30  46  70 102 134 166 204 245 296
#     4  11  21  33  51  75 105 138 170 206 251 302
#     4   9  16  26  43  67  97 133 168 200 240 291
#     4  10  20  37  59  76  95 128 168 215 260 303
#     4   9  16  27  44  68  99 133 167 202 241 291
#
# _framework density 17.424921999999999
#
# number of rings (size 3 to 8) (size 9 to 14) (size 15 to 20)
#    0.000    1.875    1.250    5.250    0.000    6.750 
#    0.000    0.000    0.000    0.000    0.000    0.875 
#    0.000    7.000    0.000    0.000    0.000    0.000 
#
# Total GULP energy -793389.952533 kJ/mol
# GULP energy per Si atom -12396.718008 kJ/mol
# Density = 1.738526 g / cm^3
# Si number density = 17.424922 Si / 1000 Ang^3
#
#
#
# Elastic Constant Matrix: (Units=GPa)
#
#
# Indices 1 2 3 4 5 6 
#
# 1 100.7961 59.2937 32.4025 0.0000 0.0000 0.0000
# 2 59.2937 129.5957 34.2310 0.0000 0.0000 0.0000
# 3 32.4025 34.2310 69.6123 0.0000 0.0000 0.0000
# 4 0.0000 0.0000 0.0000 4.4755 0.0000 0.0000
# 5 0.0000 0.0000 0.0000 0.0000 23.2922 0.0000
# 6 0.0000 0.0000 0.0000 0.0000 0.0000 18.9819
#
#
#
# Elastic Compliance Matrix: (Units=1/GPa)
#
#
# Indices 1 2 3 4 5 6 
#
# 1 0.014484 -0.005570 -0.004003 0.000000 0.000000 0.000000
# 2 -0.005570 0.011010 -0.002821 0.000000 0.000000 0.000000
# 3 -0.004003 -0.002821 0.017616 0.000000 0.000000 0.000000
# 4 0.000000 0.000000 0.000000 0.223439 0.000000 0.000000
# 5 0.000000 0.000000 0.000000 0.000000 0.042933 0.000000
# 6 0.000000 0.000000 0.000000 0.000000 0.000000 0.052682
#
#
# Mechanical properties :
#
#
# Convention : Reuss Voigt Hill
#
# Bulk Modulus (GPa) = 54.58036 61.31762 57.94899
# Shear Modulus (GPa) = 12.72072 20.95506 16.83789
#
# Velocity S-wave (km/s) = 2.70484 3.47160 3.11193
# Velocity P-wave (km/s) = 6.41452 7.16487 6.80005
#
# Compressibility (1/GPa) = 0.01832161
#
# Stress axis : x y z
#
# Youngs Moduli (GPa) = 69.04064 90.82838 56.76634
#
# Poissons Ratio (x) = 0.50587 0.22725
# Poissons Ratio (y) = 0.38452 0.16016
# Poissons Ratio (z) = 0.27639 0.25627
#
# Static dielectric constant tensor:
#      x y z
#    x 3.344140 0.000000 0.000000 
#    y 0.000000 3.976890 0.000000 
#    z 0.000000 0.000000 2.911750 
# 
# 
# High freq. dielectric constant tensor:
#      x y z
#    x 1.688040 0.000000 0.000000 
#    y 0.000000 1.691050 0.000000 
#    z 0.000000 0.000000 1.624220 
# 
# From -- ./inp_files/34509.got.cif
#   From: 2010.03.12/outbox.cif.g09.slc.cpg/sg53_18_cif.got.tgz:34509.got - 2010.04.16 14:36:59.
