data_PCOD8218216
_publ_section_title
;
Structure prediction by ZEFSAII (Michael W. Deem and Ramdas Pophale) SiO2 
 PCOD8218216
Probable space group: P M N A
;
_chemical_formula_sum "Si O2"
_cell_formula_units_Z 40
_cell_length_a 10.019551
_cell_length_b 12.416439
_cell_length_c 17.114751
_cell_angle_alpha 90.000000
_cell_angle_beta 90.000000
_cell_angle_gamma 90.000000
_cell_volume 2129.197289
_symmetry_space_group_name_H-M "P M N A"
_symmetry_group_IT_number 53
_symmetry_cell_setting 'orthorhombic'
loop_
_space_group_symop_operation_xyz
x,y,z
1/2-x,-y,1/2+z
x,-y,-z
1/2-x,y,1/2-z
-x,-y,-z
1/2+x,y,1/2-z
-x,y,z
1/2+x,-y,1/2+z
loop_
_atom_site_type_symbol
_atom_site_label
_atom_site_fract_x
_atom_site_fract_y
_atom_site_fract_z
Si Si1 0.000000 0.766555 0.845826
Si Si2 0.237396 0.874986 0.610438
Si Si3 0.500000 0.734757 0.826822
Si Si4 0.000000 0.619887 0.524450
Si Si5 0.000000 0.369744 0.999058
Si Si6 0.341490 0.901013 0.173828
Si Si7 0.741169 0.249747 0.958151
O O1 0.876318 0.848012 0.847970
O O2 0.000000 0.701868 0.763908
O O3 0.000000 0.674710 0.912123
O O4 0.253757 0.849781 0.518453
O O5 0.129097 0.803232 0.653230
O O6 0.195293 0.998287 0.619322
O O7 0.500000 0.628252 0.880974
O O8 0.000000 0.500000 0.500000
O O9 0.129115 0.672530 0.488964
O O10 0.000000 0.500000 0.000000
O O11 0.126075 0.322069 0.952560
O O12 0.250000 0.906128 0.250000
O O13 0.500000 0.899294 0.193909
O O14 0.299263 0.794317 0.126660
#
# Coordination Sequence:
#
# PCOD8218216 Si02
#       7
#     4   8   4   4   4   8   8
#     4  10  20  35  55  91 119 147 198 249 301 346
#     4  10  21  35  60  85 119 157 194 238 293 356
#     4  10  18  33  55  85 115 149 192 255 301 340
#     4  10  20  37  61  85 111 149 208 253 299 352
#     4  10  22  41  63  85 119 161 200 251 305 356
#     4  12  25  39  59  89 126 163 196 236 292 357
#     4  10  22  40  61  86 116 158 201 246 296 358
#
# _framework density 18.786422000000002
#
# number of rings (size 3 to 8) (size 9 to 14) (size 15 to 20)
#    0.000    1.600    2.000    3.000    2.800    0.800 
#    0.000    5.000    0.000    0.000    0.000    0.000 
#    0.000    0.000    0.000    0.000    0.000    0.000 
#
# Total GULP energy -495924.642286 kJ/mol
# GULP energy per Si atom -12398.116057 kJ/mol
# Density = 1.874366 g / cm^3
# Si number density = 18.786422 Si / 1000 Ang^3
#
#
#
# Elastic Constant Matrix: (Units=GPa)
#
#
# Indices 1 2 3 4 5 6 
#
# 1 169.5868 45.7658 36.2352 0.0000 0.0000 0.0000
# 2 45.7658 98.6060 41.8828 0.0000 0.0000 0.0000
# 3 36.2352 41.8828 69.0564 0.0000 0.0000 0.0000
# 4 0.0000 0.0000 0.0000 18.8293 0.0000 0.0000
# 5 0.0000 0.0000 0.0000 0.0000 46.8354 0.0000
# 6 0.0000 0.0000 0.0000 0.0000 0.0000 -4.0789
#
#
#
# Elastic Compliance Matrix: (Units=1/GPa)
#
#
# Indices 1 2 3 4 5 6 
#
# 1 0.007001 -0.002275 -0.002294 0.000000 0.000000 0.000000
# 2 -0.002275 0.014400 -0.007540 0.000000 0.000000 0.000000
# 3 -0.002294 -0.007540 0.020257 0.000000 0.000000 0.000000
# 4 0.000000 0.000000 0.000000 0.053109 0.000000 0.000000
# 5 0.000000 0.000000 0.000000 0.000000 0.021351 0.000000
# 6 0.000000 0.000000 0.000000 0.000000 0.000000 -0.245166
#
#
# Mechanical properties :
#
#
# Convention : Reuss Voigt Hill
#
# Bulk Modulus (GPa) = 57.33607 65.00188 61.16898
# Shear Modulus (GPa) = -50.49616 26.54152 -11.97732
#
# Velocity S-wave (km/s) = -5.19013 3.76281 -2.52772
# Velocity P-wave (km/s) = 2.30876 7.31805 4.91037
#
# Compressibility (1/GPa) = 0.01744103
#
# Stress axis : x y z
#
# Youngs Moduli (GPa) = 142.84280 69.44553 49.36500
#
# Poissons Ratio (x) = 0.15799 0.11322
# Poissons Ratio (y) = 0.32497 0.37220
# Poissons Ratio (z) = 0.32762 0.52360
#
# Static dielectric constant tensor:
#      x y z
#    x 3.571370 0.000000 0.000000 
#    y 0.000000 2.900490 0.000000 
#    z 0.000000 0.000000 3.559100 
# 
# 
# High freq. dielectric constant tensor:
#      x y z
#    x 1.755750 0.000000 0.000000 
#    y 0.000000 1.709560 0.000000 
#    z 0.000000 0.000000 1.726320 
# 
# From -- ./inp_files/25930.got.cif
#   From: 2010.03.12/outbox.cif.g09.slc.cpg/sg53_13_cif.got.tgz:25930.got - 2010.04.16 14:36:59.
