data_PCOD8218020
_publ_section_title
;
Structure prediction by ZEFSAII (Michael W. Deem and Ramdas Pophale) SiO2 
 PCOD8218020
Probable space group: P M N A
;
_chemical_formula_sum "Si O2"
_cell_formula_units_Z 64
_cell_length_a 8.700195
_cell_length_b 14.896653
_cell_length_c 29.453618
_cell_angle_alpha 90.000000
_cell_angle_beta 90.000000
_cell_angle_gamma 90.000000
_cell_volume 3817.300403
_symmetry_space_group_name_H-M "P M N A"
_symmetry_group_IT_number 53
_symmetry_cell_setting 'orthorhombic'
loop_
_space_group_symop_operation_xyz
x,y,z
1/2-x,-y,1/2+z
x,-y,-z
1/2-x,y,1/2-z
-x,-y,-z
1/2+x,y,1/2-z
-x,y,z
1/2+x,-y,1/2+z
loop_
_atom_site_type_symbol
_atom_site_label
_atom_site_fract_x
_atom_site_fract_y
_atom_site_fract_z
Si Si1 0.179495 0.300988 0.795739
Si Si2 0.680412 0.946770 0.062110
Si Si3 0.823765 0.627742 0.440773
Si Si4 0.323771 0.792447 0.123666
Si Si5 0.679228 0.535918 0.611200
Si Si6 0.681365 0.494859 0.797467
Si Si7 0.818227 0.133713 0.468746
Si Si8 0.820413 0.323429 0.034894
O O1 0.250000 0.258935 0.750000
O O2 0.209737 0.231053 0.835736
O O3 0.264658 0.393582 0.806826
O O4 0.000000 0.319710 0.789906
O O5 0.500000 0.940617 0.054837
O O6 0.728700 0.891452 0.106879
O O7 0.725666 0.051992 0.065874
O O8 0.747586 0.897950 0.017485
O O9 0.803728 0.725095 0.418413
O O10 0.726304 0.556877 0.412356
O O11 0.767662 0.633969 0.492344
O O12 0.000000 0.596235 0.440376
O O13 0.500000 0.791533 0.140902
O O14 0.500000 0.530957 0.621530
O O15 0.764159 0.552711 0.659297
O O16 0.722824 0.618357 0.578846
O O17 0.750000 0.532084 0.750000
O O18 0.500000 0.497825 0.793713
O O19 0.729953 0.222559 0.453504
O O20 0.000000 0.154113 0.469104
O O21 0.000000 0.327667 0.024013
#
# Coordination Sequence:
#
# PCOD8218020 Si02
#       8
#     8   8   8   8   8   8   8   8
#     4  11  21  33  50  72 100 133 165 204 248 298
#     4   8  15  29  51  73  96 126 162 204 246 290
#     4  11  21  33  51  72  98 135 176 211 242 290
#     4  10  18  31  50  74 101 131 167 206 248 297
#     4  11  23  37  50  69 100 138 172 207 251 298
#     4  11  21  35  54  75  98 127 164 208 252 298
#     4   9  16  31  52  72  94 127 169 206 243 290
#     4  11  23  35  48  69 103 139 171 211 255 292
#
# _framework density 16.765775999999999
#
# number of rings (size 3 to 8) (size 9 to 14) (size 15 to 20)
#    0.000    1.750    2.500    5.250    0.000    4.000 
#    0.000    1.875    0.000    0.000    0.000    0.875 
#    0.000    6.000    0.000    0.000    0.000    0.000 
#
# Total GULP energy -793543.272778 kJ/mol
# GULP energy per Si atom -12399.113637 kJ/mol
# Density = 1.672762 g / cm^3
# Si number density = 16.765776 Si / 1000 Ang^3
#
#
#
# Elastic Constant Matrix: (Units=GPa)
#
#
# Indices 1 2 3 4 5 6 
#
# 1 79.5717 20.7862 46.4855 0.0000 0.0000 0.0000
# 2 20.7862 66.6333 41.0611 0.0000 0.0000 0.0000
# 3 46.4855 41.0611 117.4353 0.0000 0.0000 0.0000
# 4 0.0000 0.0000 0.0000 21.9103 0.0000 0.0000
# 5 0.0000 0.0000 0.0000 0.0000 27.1205 0.0000
# 6 0.0000 0.0000 0.0000 0.0000 0.0000 19.0296
#
#
#
# Elastic Compliance Matrix: (Units=1/GPa)
#
#
# Indices 1 2 3 4 5 6 
#
# 1 0.016453 -0.001427 -0.006014 0.000000 0.000000 0.000000
# 2 -0.001427 0.019253 -0.006167 0.000000 0.000000 0.000000
# 3 -0.006014 -0.006167 0.013052 0.000000 0.000000 0.000000
# 4 0.000000 0.000000 0.000000 0.045641 0.000000 0.000000
# 5 0.000000 0.000000 0.000000 0.000000 0.036873 0.000000
# 6 0.000000 0.000000 0.000000 0.000000 0.000000 0.052550
#
#
# Mechanical properties :
#
#
# Convention : Reuss Voigt Hill
#
# Bulk Modulus (GPa) = 46.41875 53.36732 49.89303
# Shear Modulus (GPa) = 22.91290 23.96590 23.43940
#
# Velocity S-wave (km/s) = 3.70083 3.78491 3.74311
# Velocity P-wave (km/s) = 6.78294 7.14150 6.96452
#
# Compressibility (1/GPa) = 0.02154302
#
# Stress axis : x y z
#
# Youngs Moduli (GPa) = 60.77792 51.94045 76.61528
#
# Poissons Ratio (x) = 0.07410 0.46077
# Poissons Ratio (y) = 0.08670 0.47249
# Poissons Ratio (z) = 0.36552 0.32032
#
# Static dielectric constant tensor:
#      x y z
#    x 3.108110 0.000000 0.000000 
#    y 0.000000 3.190030 0.000000 
#    z 0.000000 0.000000 2.641070 
# 
# 
# High freq. dielectric constant tensor:
#      x y z
#    x 1.646720 0.000000 0.000000 
#    y 0.000000 1.624740 0.000000 
#    z 0.000000 0.000000 1.637020 
# 
# From -- ./inp_files/38527.got.cif
#   From: 2010.03.12/outbox.cif.g09.slc.cpg/sg53_20_cif.got.tgz:38527.got - 2010.04.16 14:36:59.
