data_PCOD8218612
_publ_section_title
;
Structure prediction by ZEFSAII (Michael W. Deem and Ramdas Pophale) SiO2 
 PCOD8218612
Probable space group: P M N A
;
_chemical_formula_sum "Si O2"
_cell_formula_units_Z 64
_cell_length_a 9.489787
_cell_length_b 19.883715
_cell_length_c 18.701813
_cell_angle_alpha 90.000000
_cell_angle_beta 90.000000
_cell_angle_gamma 90.000000
_cell_volume 3528.886615
_symmetry_space_group_name_H-M "P M N A"
_symmetry_group_IT_number 53
_symmetry_cell_setting 'orthorhombic'
loop_
_space_group_symop_operation_xyz
x,y,z
1/2-x,-y,1/2+z
x,-y,-z
1/2-x,y,1/2-z
-x,-y,-z
1/2+x,y,1/2-z
-x,y,z
1/2+x,-y,1/2+z
loop_
_atom_site_type_symbol
_atom_site_label
_atom_site_fract_x
_atom_site_fract_y
_atom_site_fract_z
Si Si1 0.152124 0.120481 0.593527
Si Si2 0.664891 0.870593 0.678265
Si Si3 0.652883 0.291893 0.528096
Si Si4 0.783015 0.744251 0.332747
Si Si5 0.345728 0.596809 0.181195
Si Si6 0.836980 0.809380 0.550554
Si Si7 0.659824 0.556589 0.444520
Si Si8 0.838049 0.973683 0.180186
O O1 0.139136 0.190052 0.637591
O O2 0.177279 0.133491 0.509741
O O3 0.278684 0.072246 0.616749
O O4 0.000000 0.084368 0.603748
O O5 0.750000 0.854020 0.750000
O O6 0.500000 0.850756 0.686611
O O7 0.739093 0.828255 0.616762
O O8 0.679474 0.948966 0.658801
O O9 0.500000 0.268489 0.498869
O O10 0.653333 0.270076 0.612532
O O11 0.778697 0.259823 0.482399
O O12 0.669299 0.371295 0.517583
O O13 0.750000 0.759270 0.250000
O O14 0.872007 0.675392 0.338271
O O15 0.250000 0.591167 0.250000
O O16 0.500000 0.565008 0.194399
O O17 0.268668 0.553742 0.120562
O O18 0.000000 0.799910 0.574033
O O19 0.707831 0.500000 0.500000
O O20 0.500000 0.543391 0.417260
O O21 0.750000 0.955075 0.250000
O O22 0.000000 0.954649 0.194109
#
# Coordination Sequence:
#
# PCOD8218612 Si02
#       8
#     8   8   8   8   8   8   8   8
#     4  10  20  32  47  70 102 138 171 204 246 294
#     4  10  21  38  59  79  98 124 162 208 259 312
#     4   9  18  32  51  76 105 137 171 207 248 293
#     4   9  18  29  46  71 101 136 174 211 245 285
#     4  10  19  31  48  71 101 135 173 213 250 292
#     4  10  21  36  54  77 104 132 164 206 253 299
#     4   9  18  33  53  77 105 137 171 206 247 296
#     4  10  21  35  51  72  99 131 168 210 252 299
#
# _framework density 18.136032
#
# number of rings (size 3 to 8) (size 9 to 14) (size 15 to 20)
#    0.000    2.375    0.000    2.250    0.000   11.250 
#    0.000    2.500    0.000    0.750    0.000    3.500 
#    0.000    0.000    0.000    0.000    0.000    0.000 
#
# Total GULP energy -793135.658652 kJ/mol
# GULP energy per Si atom -12392.744666 kJ/mol
# Density = 1.809475 g / cm^3
# Si number density = 18.136032 Si / 1000 Ang^3
#
#
#
# Elastic Constant Matrix: (Units=GPa)
#
#
# Indices 1 2 3 4 5 6 
#
# 1 156.3489 44.1883 65.2112 0.0000 0.0000 0.0000
# 2 44.1883 56.6106 45.9941 0.0000 0.0000 0.0000
# 3 65.2112 45.9941 106.7133 0.0000 0.0000 0.0000
# 4 0.0000 0.0000 0.0000 27.0035 0.0000 0.0000
# 5 0.0000 0.0000 0.0000 0.0000 29.1982 0.0000
# 6 0.0000 0.0000 0.0000 0.0000 0.0000 14.0271
#
#
#
# Elastic Compliance Matrix: (Units=1/GPa)
#
#
# Indices 1 2 3 4 5 6 
#
# 1 0.009135 -0.003993 -0.003861 0.000000 0.000000 0.000000
# 2 -0.003993 0.028929 -0.010028 0.000000 0.000000 0.000000
# 3 -0.003861 -0.010028 0.016053 0.000000 0.000000 0.000000
# 4 0.000000 0.000000 0.000000 0.037032 0.000000 0.000000
# 5 0.000000 0.000000 0.000000 0.000000 0.034249 0.000000
# 6 0.000000 0.000000 0.000000 0.000000 0.000000 0.071291
#
#
# Mechanical properties :
#
#
# Convention : Reuss Voigt Hill
#
# Bulk Modulus (GPa) = 54.49237 70.05110 62.27173
# Shear Modulus (GPa) = 20.95807 24.99771 22.97789
#
# Velocity S-wave (km/s) = 3.40311 3.71663 3.56332
# Velocity P-wave (km/s) = 6.74931 7.55824 7.16520
#
# Compressibility (1/GPa) = 0.01835119
#
# Stress axis : x y z
#
# Youngs Moduli (GPa) = 109.46878 34.56684 62.29496
#
# Poissons Ratio (x) = 0.13804 0.24053
# Poissons Ratio (y) = 0.43716 0.62472
# Poissons Ratio (z) = 0.42267 0.34665
#
# Static dielectric constant tensor:
#      x y z
#    x 3.462880 0.000000 0.000000 
#    y 0.000000 3.148060 0.000000 
#    z 0.000000 0.000000 3.261200 
# 
# 
# High freq. dielectric constant tensor:
#      x y z
#    x 1.716050 0.000000 0.000000 
#    y 0.000000 1.676180 0.000000 
#    z 0.000000 0.000000 1.691730 
# 
# From -- ./inp_files/26791.got.cif
#   From: 2010.03.12/outbox.cif.g09.slc.cpg/sg53_14_cif.got.tgz:26791.got - 2010.04.16 14:36:59.
