data_PCOD8218016
_publ_section_title
;
Structure prediction by ZEFSAII (Michael W. Deem and Ramdas Pophale) SiO2 
 PCOD8218016
Probable space group: P M N A
;
_chemical_formula_sum "Si O2"
_cell_formula_units_Z 48
_cell_length_a 8.691902
_cell_length_b 11.925447
_cell_length_c 26.138644
_cell_angle_alpha 90.000000
_cell_angle_beta 90.000000
_cell_angle_gamma 90.000000
_cell_volume 2709.396351
_symmetry_space_group_name_H-M "P M N A"
_symmetry_group_IT_number 53
_symmetry_cell_setting 'orthorhombic'
loop_
_space_group_symop_operation_xyz
x,y,z
1/2-x,-y,1/2+z
x,-y,-z
1/2-x,y,1/2-z
-x,-y,-z
1/2+x,y,1/2-z
-x,y,z
1/2+x,-y,1/2+z
loop_
_atom_site_type_symbol
_atom_site_label
_atom_site_fract_x
_atom_site_fract_y
_atom_site_fract_z
Si Si1 0.678686 0.007716 0.615352
Si Si2 0.817653 0.533875 0.444099
Si Si3 0.827360 0.853526 0.533231
Si Si4 0.315773 0.848771 0.806173
Si Si5 0.324870 0.230657 0.565451
Si Si6 0.828733 0.331588 0.383555
O O1 0.500000 0.973605 0.613944
O O2 0.698798 0.142972 0.612385
O O3 0.764287 0.955310 0.566731
O O4 0.754483 0.962856 0.667750
O O5 0.749994 0.500000 0.500000
O O6 0.779103 0.659836 0.427378
O O7 0.748787 0.449328 0.400202
O O8 0.000000 0.518724 0.445525
O O9 0.716343 0.836769 0.485546
O O10 0.830935 0.739413 0.564742
O O11 0.000000 0.882853 0.514719
O O12 0.250000 0.839031 0.750000
O O13 0.500000 0.852036 0.806551
O O14 0.249480 0.741066 0.838207
O O15 0.500000 0.271321 0.562230
O O16 0.000000 0.357079 0.363984
#
# Coordination Sequence:
#
# PCOD8218016 Si02
#       6
#     8   8   8   8   8   8
#     4  10  21  35  49  72 106 137 171 216 264 311
#     4  10  18  32  52  72 101 141 182 217 251 298
#     4  10  18  31  50  72 101 138 179 215 253 306
#     4  10  20  36  59  82 103 129 167 214 269 321
#     4  11  22  32  45  71 108 144 176 213 257 305
#     4   8  16  31  50  75 102 131 169 214 257 301
#
# _framework density 17.716123
#
# number of rings (size 3 to 8) (size 9 to 14) (size 15 to 20)
#    0.000    2.167    1.667    3.500    0.000    5.000 
#    0.000    1.667    0.000    1.000    0.000    4.667 
#    0.000    0.000    0.000    0.000    0.000    0.000 
#
# Total GULP energy -594871.889786 kJ/mol
# GULP energy per Si atom -12393.164371 kJ/mol
# Density = 1.767580 g / cm^3
# Si number density = 17.716123 Si / 1000 Ang^3
#
#
#
# Elastic Constant Matrix: (Units=GPa)
#
#
# Indices 1 2 3 4 5 6 
#
# 1 44.5394 28.5231 15.8485 0.0000 0.0000 0.0000
# 2 28.5231 113.7689 53.1530 0.0000 0.0000 0.0000
# 3 15.8485 53.1530 94.3161 0.0000 0.0000 0.0000
# 4 0.0000 0.0000 0.0000 9.9884 0.0000 0.0000
# 5 0.0000 0.0000 0.0000 0.0000 14.5893 0.0000
# 6 0.0000 0.0000 0.0000 0.0000 0.0000 23.0923
#
#
#
# Elastic Compliance Matrix: (Units=1/GPa)
#
#
# Indices 1 2 3 4 5 6 
#
# 1 0.026812 -0.006267 -0.000973 0.000000 0.000000 0.000000
# 2 -0.006267 0.013396 -0.006496 0.000000 0.000000 0.000000
# 3 -0.000973 -0.006496 0.014427 0.000000 0.000000 0.000000
# 4 0.000000 0.000000 0.000000 0.100116 0.000000 0.000000
# 5 0.000000 0.000000 0.000000 0.000000 0.068543 0.000000
# 6 0.000000 0.000000 0.000000 0.000000 0.000000 0.043304
#
#
# Mechanical properties :
#
#
# Convention : Reuss Voigt Hill
#
# Bulk Modulus (GPa) = 36.81712 49.74151 43.27931
# Shear Modulus (GPa) = 16.49471 19.87399 18.18435
#
# Velocity S-wave (km/s) = 3.05463 3.35297 3.20727
# Velocity P-wave (km/s) = 5.76783 6.56717 6.18044
#
# Compressibility (1/GPa) = 0.02716128
#
# Stress axis : x y z
#
# Youngs Moduli (GPa) = 37.29681 74.64811 69.31267
#
# Poissons Ratio (x) = 0.46784 0.06747
# Poissons Ratio (y) = 0.23375 0.45029
# Poissons Ratio (z) = 0.03630 0.48495
#
# Static dielectric constant tensor:
#      x y z
#    x 3.208120 0.000000 0.000000 
#    y 0.000000 3.456260 0.000000 
#    z 0.000000 0.000000 3.133880 
# 
# 
# High freq. dielectric constant tensor:
#      x y z
#    x 1.677150 0.000000 0.000000 
#    y 0.000000 1.691490 0.000000 
#    z 0.000000 0.000000 1.651050 
# 
# From -- ./inp_files/33912.got.cif
#   From: 2010.03.12/outbox.cif.g09.slc.cpg/sg53_17_cif.got.tgz:33912.got - 2010.04.16 14:36:59.
