data_PCOD8218580
_publ_section_title
;
Structure prediction by ZEFSAII (Michael W. Deem and Ramdas Pophale) SiO2 
 PCOD8218580
Probable space group: P M N A
;
_chemical_formula_sum "Si O2"
_cell_formula_units_Z 56
_cell_length_a 19.050084
_cell_length_b 30.852188
_cell_length_c 5.104377
_cell_angle_alpha 90.000000
_cell_angle_beta 90.000000
_cell_angle_gamma 90.000000
_cell_volume 3000.030066
_symmetry_space_group_name_H-M "P M N A"
_symmetry_group_IT_number 53
_symmetry_cell_setting 'orthorhombic'
loop_
_space_group_symop_operation_xyz
x,y,z
1/2-x,-y,1/2+z
x,-y,-z
1/2-x,y,1/2-z
-x,-y,-z
1/2+x,y,1/2-z
-x,y,z
1/2+x,-y,1/2+z
loop_
_atom_site_type_symbol
_atom_site_label
_atom_site_fract_x
_atom_site_fract_y
_atom_site_fract_z
Si Si1 0.080071 0.249500 0.093428
Si Si2 0.831330 0.332078 0.256068
Si Si3 0.917588 0.100971 0.514741
Si Si4 0.582334 0.951988 0.526178
Si Si5 0.920242 0.195210 0.610087
Si Si6 0.168622 0.613367 0.240432
Si Si7 0.919993 0.471992 0.758223
O O1 0.124316 0.290495 0.181120
O O2 0.083977 0.215667 0.326379
O O3 0.000000 0.264622 0.039970
O O4 0.113700 0.226264 0.834637
O O5 0.750000 0.318707 0.250000
O O6 0.851212 0.350391 0.542411
O O7 0.849653 0.368948 0.045915
O O8 0.884425 0.077084 0.260280
O O9 0.883396 0.148088 0.578409
O O10 0.000000 0.108191 0.466552
O O11 0.900646 0.070641 0.755926
O O12 0.500000 0.956632 0.583871
O O13 0.615769 0.000000 0.500000
O O14 0.000000 0.188395 0.706495
O O15 0.250000 0.600671 0.250000
O O16 0.124456 0.570715 0.290414
O O17 0.914122 0.500000 0.500000
O O18 0.000000 0.458276 0.818144
O O19 0.889635 0.500000 0.000000
#
# Coordination Sequence:
#
# PCOD8218580 Si02
#       7
#     8   8   8   8   8   8   8
#     4  10  19  31  48  69  91 118 156 196 233 281
#     4  10  21  36  52  73 100 127 158 197 240 284
#     4   9  15  23  34  48  72 105 140 185 232 266
#     4   9  15  21  30  46  69 102 146 187 222 268
#     4   9  17  28  42  62  86 113 151 196 237 279
#     4  10  21  36  54  75  99 129 163 196 232 280
#     4  10  21  36  54  78 106 133 162 198 238 278
#
# _framework density 18.666478000000001
#
# number of rings (size 3 to 8) (size 9 to 14) (size 15 to 20)
#    0.000    2.429    0.000    3.000    0.000    6.857 
#    0.000    0.000    0.000    0.000    0.000    0.000 
#    0.000    0.000    0.000    0.000    0.000   40.000 
#
# Total GULP energy -694249.781387 kJ/mol
# GULP energy per Si atom -12397.317525 kJ/mol
# Density = 1.862399 g / cm^3
# Si number density = 18.666478 Si / 1000 Ang^3
#
#
#
# Elastic Constant Matrix: (Units=GPa)
#
#
# Indices 1 2 3 4 5 6 
#
# 1 30.9794 40.1608 16.9926 0.0000 0.0000 0.0000
# 2 40.1608 116.0614 21.1388 0.0000 0.0000 0.0000
# 3 16.9926 21.1388 90.8792 0.0000 0.0000 0.0000
# 4 0.0000 0.0000 0.0000 26.0844 0.0000 0.0000
# 5 0.0000 0.0000 0.0000 0.0000 23.9390 0.0000
# 6 0.0000 0.0000 0.0000 0.0000 0.0000 -99.3337
#
#
#
# Elastic Compliance Matrix: (Units=1/GPa)
#
#
# Indices 1 2 3 4 5 6 
#
# 1 0.062476 -0.020353 -0.006948 0.000000 0.000000 0.000000
# 2 -0.020353 0.015628 0.000171 0.000000 0.000000 0.000000
# 3 -0.006948 0.000171 0.012263 0.000000 0.000000 0.000000
# 4 0.000000 0.000000 0.000000 0.038337 0.000000 0.000000
# 5 0.000000 0.000000 0.000000 0.000000 0.041773 0.000000
# 6 0.000000 0.000000 0.000000 0.000000 0.000000 -0.010067
#
#
# Mechanical properties :
#
#
# Convention : Reuss Voigt Hill
#
# Bulk Modulus (GPa) = 27.69601 43.83384 35.76493
# Shear Modulus (GPa) = 22.05512 0.77980 11.41746
#
# Velocity S-wave (km/s) = 3.44108 0.64704 2.47585
# Velocity P-wave (km/s) = 5.53692 4.90834 5.23208
#
# Compressibility (1/GPa) = 0.03610628
#
# Stress axis : x y z
#
# Youngs Moduli (GPa) = 16.00627 63.98829 81.54609
#
# Poissons Ratio (x) = 1.30236 0.56654
# Poissons Ratio (y) = 0.32578 -0.01391
# Poissons Ratio (z) = 0.11120 -0.01091
#
# Static dielectric constant tensor:
#      x y z
#    x 2.997990 0.000000 0.000000 
#    y 0.000000 3.488650 0.000000 
#    z 0.000000 0.000000 3.729490 
# 
# 
# High freq. dielectric constant tensor:
#      x y z
#    x 1.655630 0.000000 0.000000 
#    y 0.000000 1.739140 0.000000 
#    z 0.000000 0.000000 1.749520 
# 
# From -- ./inp_files/3049.got.cif
#   From: 2010.03.12/outbox.cif.g09.slc.cpg/sg53_2_cif.got.tgz:3049.got - 2010.04.16 14:36:59.
