data_PCOD8218812
_publ_section_title
;
Structure prediction by ZEFSAII (Michael W. Deem and Ramdas Pophale) SiO2 
 PCOD8218812
Probable space group: P M N A
;
_chemical_formula_sum "Si O2"
_cell_formula_units_Z 56
_cell_length_a 9.456926
_cell_length_b 14.000670
_cell_length_c 20.180833
_cell_angle_alpha 90.000000
_cell_angle_beta 90.000000
_cell_angle_gamma 90.000000
_cell_volume 2672.008889
_symmetry_space_group_name_H-M "P M N A"
_symmetry_group_IT_number 53
_symmetry_cell_setting 'orthorhombic'
loop_
_space_group_symop_operation_xyz
x,y,z
1/2-x,-y,1/2+z
x,-y,-z
1/2-x,y,1/2-z
-x,-y,-z
1/2+x,y,1/2-z
-x,y,z
1/2+x,-y,1/2+z
loop_
_atom_site_type_symbol
_atom_site_label
_atom_site_fract_x
_atom_site_fract_y
_atom_site_fract_z
Si Si1 0.338154 0.099653 0.037840
Si Si2 0.656764 0.541747 0.188192
Si Si3 0.657975 0.605555 0.509730
Si Si4 0.163296 0.650193 0.625200
Si Si5 0.161476 0.247319 0.682576
Si Si6 0.660420 0.786571 0.436413
Si Si7 0.337345 0.849180 0.814372
O O1 0.500000 0.138775 0.033081
O O2 0.297362 0.095608 0.116681
O O3 0.228565 0.168975 0.002068
O O4 0.325522 0.000000 0.000000
O O5 0.750000 0.563164 0.250000
O O6 0.500000 0.510413 0.210469
O O7 0.722429 0.452952 0.148711
O O8 0.653660 0.644686 0.152515
O O9 0.726107 0.500000 0.500000
O O10 0.500000 0.591727 0.538531
O O11 0.750141 0.669943 0.559151
O O12 0.654461 0.670624 0.443672
O O13 0.191819 0.735556 0.676790
O O14 0.000000 0.644505 0.605958
O O15 0.250000 0.237774 0.750000
O O16 0.243709 0.185560 0.627127
O O17 0.000000 0.209498 0.693103
O O18 0.500000 0.825452 0.426950
O O19 0.250000 0.885734 0.750000
O O20 0.500000 0.868550 0.797160
#
# Coordination Sequence:
#
# PCOD8218812 Si02
#       7
#     8   8   8   8   8   8   8
#     4  10  22  43  68  91 118 157 201 247 306 371
#     4   9  18  30  46  72 107 151 197 242 290 345
#     4  10  21  34  50  78 117 159 201 244 292 347
#     4  10  19  32  50  77 112 151 200 246 293 353
#     4  10  20  35  55  80 114 156 202 249 299 351
#     4  11  22  37  59  87 118 153 197 247 301 358
#     4  10  21  37  60  90 121 153 192 242 301 366
#
# _framework density 20.958013999999999
#
# number of rings (size 3 to 8) (size 9 to 14) (size 15 to 20)
#    0.000    2.000    1.429    2.143    0.000    3.429 
#    0.000    0.714    0.000    1.714    0.000    0.000 
#    0.000    0.000    0.000    0.000    0.000    0.000 
#
# Total GULP energy -693798.444818 kJ/mol
# GULP energy per Si atom -12389.257943 kJ/mol
# Density = 2.091031 g / cm^3
# Si number density = 20.958014 Si / 1000 Ang^3
#
#
#
# Elastic Constant Matrix: (Units=GPa)
#
#
# Indices 1 2 3 4 5 6 
#
# 1 117.9361 26.4631 70.8607 0.0000 0.0000 0.0000
# 2 26.4631 44.9532 30.1896 0.0000 0.0000 0.0000
# 3 70.8607 30.1896 136.1733 0.0000 0.0000 0.0000
# 4 0.0000 0.0000 0.0000 27.5671 0.0000 0.0000
# 5 0.0000 0.0000 0.0000 0.0000 36.8357 0.0000
# 6 0.0000 0.0000 0.0000 0.0000 0.0000 18.3830
#
#
#
# Elastic Compliance Matrix: (Units=1/GPa)
#
#
# Indices 1 2 3 4 5 6 
#
# 1 0.012814 -0.003601 -0.005870 0.000000 0.000000 0.000000
# 2 -0.003601 0.027149 -0.004145 0.000000 0.000000 0.000000
# 3 -0.005870 -0.004145 0.011317 0.000000 0.000000 0.000000
# 4 0.000000 0.000000 0.000000 0.036275 0.000000 0.000000
# 5 0.000000 0.000000 0.000000 0.000000 0.027148 0.000000
# 6 0.000000 0.000000 0.000000 0.000000 0.000000 0.054398
#
#
# Mechanical properties :
#
#
# Convention : Reuss Voigt Hill
#
# Bulk Modulus (GPa) = 41.58332 61.56548 51.57440
# Shear Modulus (GPa) = 24.46803 27.99378 26.23091
#
# Velocity S-wave (km/s) = 3.42055 3.65870 3.54162
# Velocity P-wave (km/s) = 5.95689 6.87659 6.43319
#
# Compressibility (1/GPa) = 0.02404811
#
# Stress axis : x y z
#
# Youngs Moduli (GPa) = 78.03988 36.83376 88.36375
#
# Poissons Ratio (x) = 0.13265 0.51866
# Poissons Ratio (y) = 0.28106 0.36625
# Poissons Ratio (z) = 0.45806 0.15267
#
# Static dielectric constant tensor:
#      x y z
#    x 3.792850 0.000000 0.000000 
#    y 0.000000 3.728560 0.000000 
#    z 0.000000 0.000000 3.601310 
# 
# 
# High freq. dielectric constant tensor:
#      x y z
#    x 1.822840 0.000000 0.000000 
#    y 0.000000 1.802300 0.000000 
#    z 0.000000 0.000000 1.808040 
# 
# From -- ./inp_files/30732.got.cif
#   From: 2010.03.12/outbox.cif.g09.slc.cpg/sg53_16_cif.got.tgz:30732.got - 2010.04.16 14:36:59.
