data_PCOD8218022
_publ_section_title
;
Structure prediction by ZEFSAII (Michael W. Deem and Ramdas Pophale) SiO2 
 PCOD8218022
Probable space group: P M N A
;
_chemical_formula_sum "Si O2"
_cell_formula_units_Z 64
_cell_length_a 9.237324
_cell_length_b 19.473026
_cell_length_c 19.805405
_cell_angle_alpha 90.000000
_cell_angle_beta 90.000000
_cell_angle_gamma 90.000000
_cell_volume 3562.569522
_symmetry_space_group_name_H-M "P M N A"
_symmetry_group_IT_number 53
_symmetry_cell_setting 'orthorhombic'
loop_
_space_group_symop_operation_xyz
x,y,z
1/2-x,-y,1/2+z
x,-y,-z
1/2-x,y,1/2-z
-x,-y,-z
1/2+x,y,1/2-z
-x,y,z
1/2+x,-y,1/2+z
loop_
_atom_site_type_symbol
_atom_site_label
_atom_site_fract_x
_atom_site_fract_y
_atom_site_fract_z
Si Si1 0.169814 0.387565 0.683161
Si Si2 0.329977 0.846746 0.459155
Si Si3 0.667750 0.706773 0.059254
Si Si4 0.166132 0.665020 0.589008
Si Si5 0.832116 0.456706 0.315934
Si Si6 0.666906 0.235925 0.317485
Si Si7 0.664480 0.898377 0.606779
Si Si8 0.336105 0.024473 0.923294
O O1 0.250000 0.360525 0.750000
O O2 0.218369 0.341424 0.620349
O O3 0.216872 0.465830 0.666866
O O4 0.000000 0.382076 0.696153
O O5 0.500000 0.846952 0.444183
O O6 0.264491 0.774345 0.437792
O O7 0.293988 0.859845 0.537476
O O8 0.254899 0.905871 0.413985
O O9 0.500000 0.728341 0.065590
O O10 0.694112 0.663403 0.990980
O O11 0.205348 0.590544 0.619644
O O12 0.268893 0.722464 0.620149
O O13 0.000000 0.684523 0.605258
O O14 0.750000 0.428206 0.250000
O O15 0.000000 0.453812 0.298023
O O16 0.750000 0.256328 0.250000
O O17 0.500000 0.255961 0.308760
O O18 0.685481 0.155057 0.332341
O O19 0.500000 0.925031 0.601963
O O20 0.765974 0.963802 0.621533
O O21 0.500000 0.037059 0.899031
O O22 0.329313 0.000000 0.000000
#
# Coordination Sequence:
#
# PCOD8218022 Si02
#       8
#     8   8   8   8   8   8   8   8
#     4   9  19  36  56  77 102 133 171 215 263 320
#     4  10  18  31  50  74 104 136 168 207 258 309
#     4  10  20  33  52  78 107 136 170 217 267 313
#     4  10  20  33  51  76 105 137 174 218 264 311
#     4   9  18  33  52  74 101 137 177 215 258 307
#     4  11  22  35  50  72 104 144 184 219 260 310
#     4   9  18  32  48  69  99 134 172 213 254 301
#     4   9  17  28  47  74 100 129 166 208 252 299
#
# _framework density 17.964561
#
# number of rings (size 3 to 8) (size 9 to 14) (size 15 to 20)
#    0.000    2.375    1.250    1.500    0.000    5.500 
#    0.000    2.500    0.000    0.750    0.000   10.500 
#    0.000    0.000    0.000    0.000    0.000    0.000 
#
# Total GULP energy -793700.902071 kJ/mol
# GULP energy per Si atom -12401.576595 kJ/mol
# Density = 1.792367 g / cm^3
# Si number density = 17.964561 Si / 1000 Ang^3
#
#
#
# Elastic Constant Matrix: (Units=GPa)
#
#
# Indices 1 2 3 4 5 6 
#
# 1 92.5467 60.0490 47.6697 0.0000 0.0000 0.0000
# 2 60.0490 113.6578 55.8625 0.0000 0.0000 0.0000
# 3 47.6697 55.8625 95.0289 0.0000 0.0000 0.0000
# 4 0.0000 0.0000 0.0000 18.5734 0.0000 0.0000
# 5 0.0000 0.0000 0.0000 0.0000 21.6638 0.0000
# 6 0.0000 0.0000 0.0000 0.0000 0.0000 29.9889
#
#
#
# Elastic Compliance Matrix: (Units=1/GPa)
#
#
# Indices 1 2 3 4 5 6 
#
# 1 0.017875 -0.007084 -0.004803 0.000000 0.000000 0.000000
# 2 -0.007084 0.015180 -0.005370 0.000000 0.000000 0.000000
# 3 -0.004803 -0.005370 0.016089 0.000000 0.000000 0.000000
# 4 0.000000 0.000000 0.000000 0.053841 0.000000 0.000000
# 5 0.000000 0.000000 0.000000 0.000000 0.046160 0.000000
# 6 0.000000 0.000000 0.000000 0.000000 0.000000 0.033346
#
#
# Mechanical properties :
#
#
# Convention : Reuss Voigt Hill
#
# Bulk Modulus (GPa) = 68.34556 69.82174 69.08365
# Shear Modulus (GPa) = 22.53450 23.22203 22.87826
#
# Velocity S-wave (km/s) = 3.54557 3.59926 3.57252
# Velocity P-wave (km/s) = 7.40869 7.49824 7.45360
#
# Compressibility (1/GPa) = 0.01463153
#
# Stress axis : x y z
#
# Youngs Moduli (GPa) = 55.94275 65.87480 62.15292
#
# Poissons Ratio (x) = 0.46663 0.29851
# Poissons Ratio (y) = 0.39627 0.33378
# Poissons Ratio (z) = 0.26869 0.35377
#
# Static dielectric constant tensor:
#      x y z
#    x 3.355340 0.000000 0.000000 
#    y 0.000000 3.383020 0.000000 
#    z 0.000000 0.000000 3.101690 
# 
# 
# High freq. dielectric constant tensor:
#      x y z
#    x 1.699300 0.000000 0.000000 
#    y 0.000000 1.698550 0.000000 
#    z 0.000000 0.000000 1.665520 
# 
# From -- ./inp_files/31129.got.cif
#   From: 2010.03.12/outbox.cif.g09.slc.cpg/sg53_16_cif.got.tgz:31129.got - 2010.04.16 14:36:59.
