data_PCOD8218415
_publ_section_title
;
Structure prediction by ZEFSAII (Michael W. Deem and Ramdas Pophale) SiO2 
 PCOD8218415
Probable space group: P M N A
;
_chemical_formula_sum "Si O2"
_cell_formula_units_Z 64
_cell_length_a 9.287014
_cell_length_b 20.361936
_cell_length_c 20.352151
_cell_angle_alpha 90.000000
_cell_angle_beta 90.000000
_cell_angle_gamma 90.000000
_cell_volume 3848.624006
_symmetry_space_group_name_H-M "P M N A"
_symmetry_group_IT_number 53
_symmetry_cell_setting 'orthorhombic'
loop_
_space_group_symop_operation_xyz
x,y,z
1/2-x,-y,1/2+z
x,-y,-z
1/2-x,y,1/2-z
-x,-y,-z
1/2+x,y,1/2-z
-x,y,z
1/2+x,-y,1/2+z
loop_
_atom_site_type_symbol
_atom_site_label
_atom_site_fract_x
_atom_site_fract_y
_atom_site_fract_z
Si Si1 0.342784 0.290869 0.334214
Si Si2 0.841585 0.312655 0.012690
Si Si3 0.169679 0.563315 0.540222
Si Si4 0.831012 0.585951 0.688209
Si Si5 0.668275 0.021577 0.188460
Si Si6 0.166843 0.146476 0.145933
Si Si7 0.830581 0.830211 0.003425
Si Si8 0.667664 0.051040 0.945556
O O1 0.500000 0.312521 0.305165
O O2 0.355230 0.294304 0.411868
O O3 0.214869 0.337357 0.308383
O O4 0.308004 0.215613 0.316348
O O5 0.734864 0.373726 0.002893
O O6 0.000000 0.332497 0.985657
O O7 0.786245 0.245300 0.978040
O O8 0.222955 0.500000 0.500000
O O9 0.218492 0.557233 0.617011
O O10 0.000000 0.571753 0.537033
O O11 0.750000 0.550097 0.750000
O O12 0.000000 0.577791 0.697943
O O13 0.750000 0.988146 0.250000
O O14 0.500000 0.027052 0.203241
O O15 0.730461 0.094455 0.180265
O O16 0.701168 0.977687 0.125548
O O17 0.000000 0.124877 0.151075
O O18 0.215577 0.152014 0.070409
O O19 0.748135 0.879454 0.051582
O O20 0.000000 0.838829 0.013171
O O21 0.500000 0.063772 0.957725
O O22 0.727352 0.000000 0.000000
#
# Coordination Sequence:
#
# PCOD8218415 Si02
#       8
#     8   8   8   8   8   8   8   8
#     4   8  15  28  44  62  89 122 156 192 223 262
#     4   8  15  28  45  70  99 123 153 191 232 276
#     4   9  18  32  49  71  98 128 161 195 233 278
#     4  10  19  30  45  65  91 124 159 194 229 269
#     4  11  23  36  48  64  91 123 156 198 244 292
#     4   9  17  30  47  67  91 122 158 193 232 275
#     4   9  17  29  49  74  97 122 155 198 239 281
#     4  10  20  34  50  71  95 120 156 202 246 286
#
# _framework density 16.62932
#
# number of rings (size 3 to 8) (size 9 to 14) (size 15 to 20)
#    0.000    2.750    1.250    2.250    0.000    3.500 
#    0.000    2.500    0.000    0.000    0.000    0.875 
#    0.000    2.000    0.000    0.000    0.000    0.000 
#
# Total GULP energy -793205.011291 kJ/mol
# GULP energy per Si atom -12393.828301 kJ/mol
# Density = 1.659147 g / cm^3
# Si number density = 16.629320 Si / 1000 Ang^3
#
#
#
# Elastic Constant Matrix: (Units=GPa)
#
#
# Indices 1 2 3 4 5 6 
#
# 1 62.5684 43.9266 41.9711 0.0000 0.0000 0.0000
# 2 43.9266 105.9006 48.2804 0.0000 0.0000 0.0000
# 3 41.9711 48.2804 79.4248 0.0000 0.0000 0.0000
# 4 0.0000 0.0000 0.0000 15.1900 0.0000 0.0000
# 5 0.0000 0.0000 0.0000 0.0000 23.3410 0.0000
# 6 0.0000 0.0000 0.0000 0.0000 0.0000 24.9919
#
#
#
# Elastic Compliance Matrix: (Units=1/GPa)
#
#
# Indices 1 2 3 4 5 6 
#
# 1 0.027808 -0.006689 -0.010629 0.000000 0.000000 0.000000
# 2 -0.006689 0.014672 -0.005384 0.000000 0.000000 0.000000
# 3 -0.010629 -0.005384 0.021480 0.000000 0.000000 0.000000
# 4 0.000000 0.000000 0.000000 0.065833 0.000000 0.000000
# 5 0.000000 0.000000 0.000000 0.000000 0.042843 0.000000
# 6 0.000000 0.000000 0.000000 0.000000 0.000000 0.040013
#
#
# Mechanical properties :
#
#
# Convention : Reuss Voigt Hill
#
# Bulk Modulus (GPa) = 53.88920 57.36112 55.62516
# Shear Modulus (GPa) = 18.92228 20.28563 19.60395
#
# Velocity S-wave (km/s) = 3.37692 3.49645 3.43721
# Velocity P-wave (km/s) = 6.90516 7.13226 7.01963
#
# Compressibility (1/GPa) = 0.01855659
#
# Stress axis : x y z
#
# Youngs Moduli (GPa) = 35.96026 68.15751 46.55462
#
# Poissons Ratio (x) = 0.45590 0.49483
# Poissons Ratio (y) = 0.24053 0.25065
# Poissons Ratio (z) = 0.38222 0.36696
#
# Static dielectric constant tensor:
#      x y z
#    x 3.099660 0.000000 0.000000 
#    y 0.000000 3.096490 0.000000 
#    z 0.000000 0.000000 3.113340 
# 
# 
# High freq. dielectric constant tensor:
#      x y z
#    x 1.642480 0.000000 0.000000 
#    y 0.000000 1.619430 0.000000 
#    z 0.000000 0.000000 1.618100 
# 
# From -- ./inp_files/31368.got.cif
#   From: 2010.03.12/outbox.cif.g09.slc.cpg/sg53_16_cif.got.tgz:31368.got - 2010.04.16 14:36:59.
