data_PCOD8218157
_publ_section_title
;
Structure prediction by ZEFSAII (Michael W. Deem and Ramdas Pophale) SiO2 
 PCOD8218157
Probable space group: P M N A
;
_chemical_formula_sum "Si O2"
_cell_formula_units_Z 64
_cell_length_a 8.721550
_cell_length_b 15.172939
_cell_length_c 23.438052
_cell_angle_alpha 90.000000
_cell_angle_beta 90.000000
_cell_angle_gamma 90.000000
_cell_volume 3101.593660
_symmetry_space_group_name_H-M "P M N A"
_symmetry_group_IT_number 53
_symmetry_cell_setting 'orthorhombic'
loop_
_space_group_symop_operation_xyz
x,y,z
1/2-x,-y,1/2+z
x,-y,-z
1/2-x,y,1/2-z
-x,-y,-z
1/2+x,y,1/2-z
-x,y,z
1/2+x,-y,1/2+z
loop_
_atom_site_type_symbol
_atom_site_label
_atom_site_fract_x
_atom_site_fract_y
_atom_site_fract_z
Si Si1 0.683720 0.202406 0.371992
Si Si2 0.671505 0.169362 0.496342
Si Si3 0.683222 0.103823 0.612984
Si Si4 0.181529 0.044161 0.309878
Si Si5 0.322173 0.617561 0.893880
Si Si6 0.679471 0.266773 0.689597
Si Si7 0.324947 0.424727 0.872136
Si Si8 0.173195 0.371163 0.985650
O O1 0.500000 0.202580 0.371088
O O2 0.750545 0.168354 0.433799
O O3 0.751331 0.140868 0.322824
O O4 0.742491 0.301516 0.360622
O O5 0.500000 0.135926 0.486002
O O6 0.742333 0.108491 0.546757
O O7 0.673033 0.266724 0.522293
O O8 0.500000 0.091549 0.616101
O O9 0.735119 0.192948 0.644907
O O10 0.766426 0.020785 0.640259
O O11 0.250000 0.010724 0.250000
O O12 0.000000 0.047773 0.305657
O O13 0.500000 0.639685 0.904528
O O14 0.303039 0.528268 0.856583
O O15 0.239466 0.600833 0.953757
O O16 0.750000 0.242417 0.750000
O O17 0.500000 0.264739 0.696562
O O18 0.725329 0.364537 0.669697
O O19 0.500000 0.395607 0.864561
O O20 0.278405 0.413350 0.937626
O O21 0.000000 0.407291 0.980000
#
# Coordination Sequence:
#
# PCOD8218157 Si02
#       8
#     8   8   8   8   8   8   8   8
#     4  10  21  40  65  91 121 159 200 248 301 357
#     4   8  16  33  58  89 123 158 194 234 290 354
#     4  10  20  39  64  91 122 156 196 243 294 357
#     4  12  26  44  65  90 118 153 200 251 301 359
#     4  10  21  36  55  85 122 158 197 247 300 352
#     4  11  23  39  60  84 118 158 203 252 302 358
#     4  11  22  35  54  82 119 159 201 246 298 351
#     4  10  18  32  54  84 119 160 203 243 291 351
#
# _framework density 20.634553
#
# number of rings (size 3 to 8) (size 9 to 14) (size 15 to 20)
#    0.000    1.750    1.250    4.500    0.000    6.000 
#    0.000    4.375    0.000    3.000    0.000    0.000 
#    0.000    0.000    0.000    0.000    0.000    0.000 
#
# Total GULP energy -793486.730895 kJ/mol
# GULP energy per Si atom -12398.230170 kJ/mol
# Density = 2.058759 g / cm^3
# Si number density = 20.634553 Si / 1000 Ang^3
#
#
#
# Elastic Constant Matrix: (Units=GPa)
#
#
# Indices 1 2 3 4 5 6 
#
# 1 65.9111 23.8166 12.0084 0.0000 0.0000 0.0000
# 2 23.8166 68.6276 18.0511 0.0000 0.0000 0.0000
# 3 12.0084 18.0511 35.8598 0.0000 0.0000 0.0000
# 4 0.0000 0.0000 0.0000 23.7419 0.0000 0.0000
# 5 0.0000 0.0000 0.0000 0.0000 27.7358 0.0000
# 6 0.0000 0.0000 0.0000 0.0000 0.0000 32.2022
#
#
#
# Elastic Compliance Matrix: (Units=1/GPa)
#
#
# Indices 1 2 3 4 5 6 
#
# 1 0.017672 -0.005275 -0.003263 0.000000 0.000000 0.000000
# 2 -0.005275 0.018370 -0.007481 0.000000 0.000000 0.000000
# 3 -0.003263 -0.007481 0.032745 0.000000 0.000000 0.000000
# 4 0.000000 0.000000 0.000000 0.042120 0.000000 0.000000
# 5 0.000000 0.000000 0.000000 0.000000 0.036054 0.000000
# 6 0.000000 0.000000 0.000000 0.000000 0.000000 0.031054
#
#
# Mechanical properties :
#
#
# Convention : Reuss Voigt Hill
#
# Bulk Modulus (GPa) = 27.21060 30.90563 29.05812
# Shear Modulus (GPa) = 22.49206 24.50415 23.49810
#
# Velocity S-wave (km/s) = 3.30513 3.44979 3.37823
# Velocity P-wave (km/s) = 5.27074 5.55682 5.41567
#
# Compressibility (1/GPa) = 0.03675038
#
# Stress axis : x y z
#
# Youngs Moduli (GPa) = 56.58529 54.43777 30.53947
#
# Poissons Ratio (x) = 0.28715 0.09964
# Poissons Ratio (y) = 0.29848 0.22845
# Poissons Ratio (z) = 0.18462 0.40722
#
# Static dielectric constant tensor:
#      x y z
#    x 3.642410 0.000000 0.000000 
#    y 0.000000 3.881620 0.000000 
#    z 0.000000 0.000000 3.695890 
# 
# 
# High freq. dielectric constant tensor:
#      x y z
#    x 1.798020 0.000000 0.000000 
#    y 0.000000 1.813960 0.000000 
#    z 0.000000 0.000000 1.794310 
# 
# From -- ./inp_files/34328.got.cif
#   From: 2010.03.12/outbox.cif.g09.slc.cpg/sg53_18_cif.got.tgz:34328.got - 2010.04.16 14:36:59.
