data_PCOD8218629
_publ_section_title
;
Structure prediction by ZEFSAII (Michael W. Deem and Ramdas Pophale) SiO2 
 PCOD8218629
Probable space group: P M N A
;
_chemical_formula_sum "Si O2"
_cell_formula_units_Z 64
_cell_length_a 8.913294
_cell_length_b 16.155712
_cell_length_c 23.914280
_cell_angle_alpha 90.000000
_cell_angle_beta 90.000000
_cell_angle_gamma 90.000000
_cell_volume 3443.670928
_symmetry_space_group_name_H-M "P M N A"
_symmetry_group_IT_number 53
_symmetry_cell_setting 'orthorhombic'
loop_
_space_group_symop_operation_xyz
x,y,z
1/2-x,-y,1/2+z
x,-y,-z
1/2-x,y,1/2-z
-x,-y,-z
1/2+x,y,1/2-z
-x,y,z
1/2+x,-y,1/2+z
loop_
_atom_site_type_symbol
_atom_site_label
_atom_site_fract_x
_atom_site_fract_y
_atom_site_fract_z
Si Si1 0.823262 0.797668 0.412056
Si Si2 0.677682 0.126906 0.109704
Si Si3 0.332232 0.386185 0.391063
Si Si4 0.823355 0.288675 0.807908
Si Si5 0.329967 0.763777 0.694043
Si Si6 0.323091 0.521636 0.307916
Si Si7 0.825231 0.727152 0.528842
Si Si8 0.674109 0.970338 0.437378
O O1 0.738972 0.767151 0.357344
O O2 0.782905 0.736691 0.463711
O O3 0.769712 0.888798 0.427067
O O4 0.000000 0.798998 0.400977
O O5 0.500000 0.112695 0.108727
O O6 0.731434 0.161441 0.169256
O O7 0.731652 0.190962 0.061493
O O8 0.762739 0.040671 0.103077
O O9 0.500000 0.406526 0.410830
O O10 0.328345 0.313293 0.346766
O O11 0.262065 0.467052 0.360276
O O12 0.244618 0.357707 0.446746
O O13 0.750000 0.258843 0.750000
O O14 0.779554 0.383666 0.820261
O O15 0.000000 0.276433 0.803187
O O16 0.250000 0.733782 0.750000
O O17 0.500000 0.793658 0.705041
O O18 0.250000 0.491424 0.250000
O O19 0.500000 0.508233 0.301517
O O20 0.000000 0.719132 0.538538
O O21 0.500000 0.953436 0.424364
O O22 0.700616 0.000000 0.500000
#
# Coordination Sequence:
#
# PCOD8218629 Si02
#       8
#     8   8   8   8   8   8   8   8
#     4  11  22  38  59  83 111 144 183 225 272 325
#     4  10  19  34  53  75 106 142 179 221 266 311
#     4   9  18  31  50  77 109 143 182 226 270 320
#     4  10  21  39  61  84 110 142 182 228 278 328
#     4  10  19  31  48  73 106 144 183 221 266 322
#     4   9  18  33  54  80 108 141 184 231 276 324
#     4   9  19  33  51  77 109 144 180 219 265 319
#     4  11  22  35  56  85 112 138 176 221 266 319
#
# _framework density 18.584819
#
# number of rings (size 3 to 8) (size 9 to 14) (size 15 to 20)
#    0.000    2.125    1.250    2.250    0.000    3.500 
#    0.000    1.250    0.000    3.750    0.000    0.000 
#    0.000    0.000    0.000    0.000    0.000    0.000 
#
# Total GULP energy -793623.602887 kJ/mol
# GULP energy per Si atom -12400.368795 kJ/mol
# Density = 1.854252 g / cm^3
# Si number density = 18.584819 Si / 1000 Ang^3
#
#
#
# Elastic Constant Matrix: (Units=GPa)
#
#
# Indices 1 2 3 4 5 6 
#
# 1 59.0188 24.9930 41.2816 0.0000 0.0000 0.0000
# 2 24.9930 65.0979 35.7941 0.0000 0.0000 0.0000
# 3 41.2816 35.7941 94.2060 0.0000 0.0000 0.0000
# 4 0.0000 0.0000 0.0000 25.6343 0.0000 0.0000
# 5 0.0000 0.0000 0.0000 0.0000 31.4267 0.0000
# 6 0.0000 0.0000 0.0000 0.0000 0.0000 24.0878
#
#
#
# Elastic Compliance Matrix: (Units=1/GPa)
#
#
# Indices 1 2 3 4 5 6 
#
# 1 0.025480 -0.004605 -0.009416 0.000000 0.000000 0.000000
# 2 -0.004605 0.020251 -0.005676 0.000000 0.000000 0.000000
# 3 -0.009416 -0.005676 0.016898 0.000000 0.000000 0.000000
# 4 0.000000 0.000000 0.000000 0.039010 0.000000 0.000000
# 5 0.000000 0.000000 0.000000 0.000000 0.031820 0.000000
# 6 0.000000 0.000000 0.000000 0.000000 0.000000 0.041515
#
#
# Mechanical properties :
#
#
# Convention : Reuss Voigt Hill
#
# Bulk Modulus (GPa) = 43.04053 46.94000 44.99027
# Shear Modulus (GPa) = 22.51109 23.98001 23.24555
#
# Velocity S-wave (km/s) = 3.48410 3.59597 3.54048
# Velocity P-wave (km/s) = 6.27650 6.52329 6.40109
#
# Compressibility (1/GPa) = 0.02323391
#
# Stress axis : x y z
#
# Youngs Moduli (GPa) = 39.24658 49.38095 59.17939
#
# Poissons Ratio (x) = 0.22741 0.55721
# Poissons Ratio (y) = 0.18074 0.33592
# Poissons Ratio (z) = 0.36953 0.28030
#
# Static dielectric constant tensor:
#      x y z
#    x 3.497500 0.000000 0.000000 
#    y 0.000000 3.390870 0.000000 
#    z 0.000000 0.000000 3.441520 
# 
# 
# High freq. dielectric constant tensor:
#      x y z
#    x 1.727280 0.000000 0.000000 
#    y 0.000000 1.711050 0.000000 
#    z 0.000000 0.000000 1.714160 
# 
# From -- ./inp_files/34338.got.cif
#   From: 2010.03.12/outbox.cif.g09.slc.cpg/sg53_18_cif.got.tgz:34338.got - 2010.04.16 14:36:59.
