data_PCOD8218907
_publ_section_title
;
Structure prediction by ZEFSAII (Michael W. Deem and Ramdas Pophale) SiO2 
 PCOD8218907
Probable space group: P M N A
;
_chemical_formula_sum "Si O2"
_cell_formula_units_Z 64
_cell_length_a 9.075667
_cell_length_b 22.547009
_cell_length_c 17.359146
_cell_angle_alpha 90.000000
_cell_angle_beta 90.000000
_cell_angle_gamma 90.000000
_cell_volume 3552.187213
_symmetry_space_group_name_H-M "P M N A"
_symmetry_group_IT_number 53
_symmetry_cell_setting 'orthorhombic'
loop_
_space_group_symop_operation_xyz
x,y,z
1/2-x,-y,1/2+z
x,-y,-z
1/2-x,y,1/2-z
-x,-y,-z
1/2+x,y,1/2-z
-x,y,z
1/2+x,-y,1/2+z
loop_
_atom_site_type_symbol
_atom_site_label
_atom_site_fract_x
_atom_site_fract_y
_atom_site_fract_z
Si Si1 0.825898 0.050691 0.329878
Si Si2 0.331324 0.623048 0.531185
Si Si3 0.832005 0.299583 0.674447
Si Si4 0.833811 0.958066 0.073418
Si Si5 0.829672 0.870009 0.525369
Si Si6 0.327872 0.262966 0.991255
Si Si7 0.831273 0.458595 0.175472
Si Si8 0.328834 0.572426 0.111155
O O1 0.750000 0.069596 0.250000
O O2 0.786400 0.101380 0.392503
O O3 0.000000 0.044114 0.317902
O O4 0.760324 0.987703 0.358055
O O5 0.500000 0.626929 0.503038
O O6 0.264021 0.688776 0.538967
O O7 0.318528 0.592920 0.613467
O O8 0.240086 0.582622 0.472598
O O9 0.750000 0.276101 0.750000
O O10 0.776933 0.264580 0.598274
O O11 0.805028 0.369510 0.663146
O O12 0.000000 0.284586 0.689539
O O13 0.000000 0.946808 0.102830
O O14 0.761219 0.896521 0.046417
O O15 0.831984 0.000000 0.000000
O O16 0.794841 0.800372 0.529285
O O17 0.000000 0.882631 0.507367
O O18 0.500000 0.280172 0.995800
O O19 0.750000 0.432798 0.250000
O O20 0.753146 0.518864 0.151159
O O21 0.000000 0.474088 0.194074
O O22 0.500000 0.557195 0.100750
#
# Coordination Sequence:
#
# PCOD8218907 Si02
#       8
#     8   8   8   8   8   8   8   8
#     4  10  19  32  52  78 107 138 172 213 261 306
#     4  10  21  36  53  75 102 132 170 216 261 306
#     4   9  18  31  48  72  99 126 159 201 249 301
#     4   9  17  30  50  76 104 132 163 202 248 298
#     4   9  18  34  55  76 101 137 177 214 255 305
#     4   9  19  36  55  74  99 136 179 215 253 306
#     4  11  23  36  51  74 103 133 167 211 262 314
#     4  10  20  34  54  77 100 130 166 206 259 321
#
# _framework density 18.017068999999999
#
# number of rings (size 3 to 8) (size 9 to 14) (size 15 to 20)
#    0.000    2.375    0.000    3.375    0.000    9.500 
#    0.000    1.250    0.000    4.500    0.000    0.000 
#    0.000    0.000    0.000    0.000    0.000    0.000 
#
# Total GULP energy -793672.610167 kJ/mol
# GULP energy per Si atom -12401.134534 kJ/mol
# Density = 1.797606 g / cm^3
# Si number density = 18.017069 Si / 1000 Ang^3
#
#
#
# Elastic Constant Matrix: (Units=GPa)
#
#
# Indices 1 2 3 4 5 6 
#
# 1 113.4616 42.7741 58.3986 0.0000 0.0000 0.0000
# 2 42.7741 67.4246 44.6138 0.0000 0.0000 0.0000
# 3 58.3986 44.6138 97.3071 0.0000 0.0000 0.0000
# 4 0.0000 0.0000 0.0000 17.3573 0.0000 0.0000
# 5 0.0000 0.0000 0.0000 0.0000 33.1221 0.0000
# 6 0.0000 0.0000 0.0000 0.0000 0.0000 7.4635
#
#
#
# Elastic Compliance Matrix: (Units=1/GPa)
#
#
# Indices 1 2 3 4 5 6 
#
# 1 0.013705 -0.004668 -0.006085 0.000000 0.000000 0.000000
# 2 -0.004668 0.022880 -0.007689 0.000000 0.000000 0.000000
# 3 -0.006085 -0.007689 0.017454 0.000000 0.000000 0.000000
# 4 0.000000 0.000000 0.000000 0.057613 0.000000 0.000000
# 5 0.000000 0.000000 0.000000 0.000000 0.030191 0.000000
# 6 0.000000 0.000000 0.000000 0.000000 0.000000 0.133986
#
#
# Mechanical properties :
#
#
# Convention : Reuss Voigt Hill
#
# Bulk Modulus (GPa) = 58.28950 63.30738 60.79844
# Shear Modulus (GPa) = 15.70196 20.41568 18.05882
#
# Velocity S-wave (km/s) = 2.95533 3.36985 3.16937
# Velocity P-wave (km/s) = 6.63837 7.09612 6.87106
#
# Compressibility (1/GPa) = 0.01715575
#
# Stress axis : x y z
#
# Youngs Moduli (GPa) = 72.96401 43.70535 57.29458
#
# Poissons Ratio (x) = 0.20404 0.34863
# Poissons Ratio (y) = 0.34063 0.44052
# Poissons Ratio (z) = 0.44397 0.33603
#
# Static dielectric constant tensor:
#      x y z
#    x 3.508350 0.000000 0.000000 
#    y 0.000000 3.202310 0.000000 
#    z 0.000000 0.000000 3.336530 
# 
# 
# High freq. dielectric constant tensor:
#      x y z
#    x 1.709340 0.000000 0.000000 
#    y 0.000000 1.681630 0.000000 
#    z 0.000000 0.000000 1.689950 
# 
# From -- ./inp_files/26874.got.cif
#   From: 2010.03.12/outbox.cif.g09.slc.cpg/sg53_14_cif.got.tgz:26874.got - 2010.04.16 14:36:59.
