data_PCOD8218588
_publ_section_title
;
Structure prediction by ZEFSAII (Michael W. Deem and Ramdas Pophale) SiO2 
 PCOD8218588
Probable space group: P M N A
;
_chemical_formula_sum "Si O2"
_cell_formula_units_Z 40
_cell_length_a 9.296251
_cell_length_b 5.190216
_cell_length_c 44.585135
_cell_angle_alpha 90.000000
_cell_angle_beta 90.000000
_cell_angle_gamma 90.000000
_cell_volume 2151.212731
_symmetry_space_group_name_H-M "P M N A"
_symmetry_group_IT_number 53
_symmetry_cell_setting 'orthorhombic'
loop_
_space_group_symop_operation_xyz
x,y,z
1/2-x,-y,1/2+z
x,-y,-z
1/2-x,y,1/2-z
-x,-y,-z
1/2+x,y,1/2-z
-x,y,z
1/2+x,-y,1/2+z
loop_
_atom_site_type_symbol
_atom_site_label
_atom_site_fract_x
_atom_site_fract_y
_atom_site_fract_z
Si Si1 0.832135 0.222178 0.817862
Si Si2 0.332702 0.277733 0.280667
Si Si3 0.328362 0.250034 0.017296
Si Si4 0.829026 0.241021 0.620168
Si Si5 0.829273 0.742308 0.584753
O O1 0.789558 0.451087 0.795316
O O2 0.740259 0.257829 0.847463
O O3 0.000000 0.234101 0.826152
O O4 0.789122 0.951484 0.803078
O O5 0.250000 0.239418 0.250000
O O6 0.500000 0.265253 0.273008
O O7 0.500000 0.250456 0.017838
O O8 0.266583 0.249780 0.051077
O O9 0.269659 0.500000 0.000000
O O10 0.269766 0.000000 0.000000
O O11 0.775464 0.484445 0.600956
O O12 0.000000 0.239414 0.623940
O O13 0.772240 0.987332 0.603218
O O14 0.000000 0.749049 0.583233
#
# Coordination Sequence:
#
# PCOD8218588 Si02
#       5
#     8   8   8   8   8
#     4  10  21  36  52  73 100 127 158 196 234 276
#     4  10  21  36  54  75  99 126 156 194 236 278
#     4   9  15  23  37  58  88 125 156 186 234 288
#     4  10  19  31  48  69  95 127 159 195 238 280
#     4   9  17  28  42  65  96 125 158 199 238 280
#
# _framework density 18.594163000000002
#
# number of rings (size 3 to 8) (size 9 to 14) (size 15 to 20)
#    0.000    2.400    0.000    3.000    0.000    6.400 
#    0.000    0.000    0.000    0.000    0.000    0.000 
#    0.000   16.000    0.000    0.000    0.000    0.000 
#
# Total GULP energy -496086.572600 kJ/mol
# GULP energy per Si atom -12402.164315 kJ/mol
# Density = 1.855184 g / cm^3
# Si number density = 18.594163 Si / 1000 Ang^3
#
#
#
# Elastic Constant Matrix: (Units=GPa)
#
#
# Indices 1 2 3 4 5 6 
#
# 1 22.2671 21.6473 37.3128 0.0000 0.0000 0.0000
# 2 21.6473 133.8013 40.0084 0.0000 0.0000 0.0000
# 3 37.3128 40.0084 132.9744 0.0000 0.0000 0.0000
# 4 0.0000 0.0000 0.0000 34.0601 0.0000 0.0000
# 5 0.0000 0.0000 0.0000 0.0000 12.9278 0.0000
# 6 0.0000 0.0000 0.0000 0.0000 0.0000 9.0318
#
#
#
# Elastic Compliance Matrix: (Units=1/GPa)
#
#
# Indices 1 2 3 4 5 6 
#
# 1 0.091699 -0.007848 -0.023370 0.000000 0.000000 0.000000
# 2 -0.007848 0.008884 -0.000471 0.000000 0.000000 0.000000
# 3 -0.023370 -0.000471 0.014219 0.000000 0.000000 0.000000
# 4 0.000000 0.000000 0.000000 0.029360 0.000000 0.000000
# 5 0.000000 0.000000 0.000000 0.000000 0.077353 0.000000
# 6 0.000000 0.000000 0.000000 0.000000 0.000000 0.110720
#
#
# Mechanical properties :
#
#
# Convention : Reuss Voigt Hill
#
# Bulk Modulus (GPa) = 19.44539 54.10884 36.77712
# Shear Modulus (GPa) = 12.11374 23.87555 17.99464
#
# Velocity S-wave (km/s) = 2.55518 3.58723 3.11426
# Velocity P-wave (km/s) = 4.38016 6.80593 5.72304
#
# Compressibility (1/GPa) = 0.05142607
#
# Stress axis : x y z
#
# Youngs Moduli (GPa) = 10.90520 112.55855 70.32600
#
# Poissons Ratio (x) = 0.88335 1.64350
# Poissons Ratio (y) = 0.08558 0.03312
# Poissons Ratio (z) = 0.25485 0.05300
#
# Static dielectric constant tensor:
#      x y z
#    x 2.904030 0.000000 0.000000 
#    y 0.000000 3.883620 0.000000 
#    z 0.000000 0.000000 3.486910 
# 
# 
# High freq. dielectric constant tensor:
#      x y z
#    x 1.663770 0.000000 0.000000 
#    y 0.000000 1.745900 0.000000 
#    z 0.000000 0.000000 1.737260 
# 
# From -- ./inp_files/36610.got.cif
#   From: 2010.03.12/outbox.cif.g09.slc.cpg/sg53_19_cif.got.tgz:36610.got - 2010.04.16 14:36:59.
