data_PCOD8218986
_publ_section_title
;
Structure prediction by ZEFSAII (Michael W. Deem and Ramdas Pophale) SiO2 
 PCOD8218986
Probable space group: P M N A
;
_chemical_formula_sum "Si O2"
_cell_formula_units_Z 64
_cell_length_a 8.664294
_cell_length_b 24.039808
_cell_length_c 15.545888
_cell_angle_alpha 90.000000
_cell_angle_beta 90.000000
_cell_angle_gamma 90.000000
_cell_volume 3238.021363
_symmetry_space_group_name_H-M "P M N A"
_symmetry_group_IT_number 53
_symmetry_cell_setting 'orthorhombic'
loop_
_space_group_symop_operation_xyz
x,y,z
1/2-x,-y,1/2+z
x,-y,-z
1/2-x,y,1/2-z
-x,-y,-z
1/2+x,y,1/2-z
-x,y,z
1/2+x,-y,1/2+z
loop_
_atom_site_type_symbol
_atom_site_label
_atom_site_fract_x
_atom_site_fract_y
_atom_site_fract_z
Si Si1 0.683905 0.811143 1.000000
Si Si2 0.816633 0.385686 0.339378
Si Si3 0.317356 0.500000 0.400720
Si Si4 0.683066 0.117799 0.160624
Si Si5 0.183584 0.000000 0.596598
Si Si6 0.683367 0.614314 0.160622
Si Si7 0.816934 0.117799 0.660624
Si Si8 0.816642 0.686082 0.500000
O O1 0.500000 0.811248 0.000000
O O2 0.745559 0.842761 0.084559
O O3 0.750165 0.748567 1.000000
O O4 0.745559 0.842761 0.915441
O O5 0.750000 0.361905 0.250000
O O6 0.752412 0.447013 0.353812
O O7 0.756044 0.345645 0.415368
O O8 0.000000 0.387485 0.336085
O O9 0.266154 0.500000 0.500000
O O10 0.500000 0.500000 0.390092
O O11 0.247589 0.552987 0.353812
O O12 0.750000 0.140507 0.250000
O O13 0.500000 0.119410 0.163756
O O14 0.744100 0.054963 0.145096
O O15 0.000000 0.000000 0.592580
O O16 0.250041 0.000000 0.500000
O O17 0.244100 0.054963 0.645096
O O18 0.750000 0.638095 0.250000
O O19 0.500000 0.612514 0.163915
O O20 0.743955 0.654355 0.084632
O O21 0.750000 0.140507 0.750000
O O22 0.000000 0.119410 0.663756
O O23 0.000000 0.687204 0.500000
#
# Coordination Sequence:
#
# PCOD8218986 Si02
#       8
#     8   8   8   8   8   8   8   8
#     4   9  18  35  56  77 102 143 188 223 262 320
#     4  11  22  38  59  84 113 146 182 222 270 325
#     4  11  22  37  60  88 116 144 178 223 271 323
#     4  10  19  32  54  79 107 139 178 223 269 322
#     4   9  15  28  51  78 103 138 181 217 260 322
#     4  11  22  38  59  84 113 146 182 222 270 325
#     4  10  19  32  54  79 107 139 178 223 269 322
#     4   9  20  37  57  79 107 143 186 227 268 318
#
# _framework density 19.765156000000001
#
# number of rings (size 3 to 8) (size 9 to 14) (size 15 to 20)
#    0.000    2.000    2.500    1.875    0.000    1.500 
#    0.000    0.625    0.000    5.250    0.000    0.000 
#    0.000    0.000    0.000    0.000    0.000    0.000 
#
# Total GULP energy -793720.856908 kJ/mol
# GULP energy per Si atom -12401.888389 kJ/mol
# Density = 1.972017 g / cm^3
# Si number density = 19.765156 Si / 1000 Ang^3
#
#
#
# Elastic Constant Matrix: (Units=GPa)
#
#
# Indices 1 2 3 4 5 6 
#
# 1 36.9869 19.9314 29.4756 0.0000 0.0000 0.0000
# 2 19.9314 163.8227 85.1682 0.0000 0.0000 0.0000
# 3 29.4756 85.1682 198.8176 0.0000 0.0000 0.0000
# 4 0.0000 0.0000 0.0000 16.1990 0.0000 0.0000
# 5 0.0000 0.0000 0.0000 0.0000 30.7333 0.0000
# 6 0.0000 0.0000 0.0000 0.0000 0.0000 4.0629
#
#
#
# Elastic Compliance Matrix: (Units=1/GPa)
#
#
# Indices 1 2 3 4 5 6 
#
# 1 0.031058 -0.001782 -0.003841 0.000000 0.000000 0.000000
# 2 -0.001782 0.007955 -0.003144 0.000000 0.000000 0.000000
# 3 -0.003841 -0.003144 0.006946 0.000000 0.000000 0.000000
# 4 0.000000 0.000000 0.000000 0.061732 0.000000 0.000000
# 5 0.000000 0.000000 0.000000 0.000000 0.032538 0.000000
# 6 0.000000 0.000000 0.000000 0.000000 0.000000 0.246129
#
#
# Mechanical properties :
#
#
# Convention : Reuss Voigt Hill
#
# Bulk Modulus (GPa) = 35.17928 74.30862 54.74395
# Shear Modulus (GPa) = 12.09581 27.86919 19.98250
#
# Velocity S-wave (km/s) = 2.47650 3.75909 3.18307
# Velocity P-wave (km/s) = 5.10046 7.51787 6.42390
#
# Compressibility (1/GPa) = 0.02842583
#
# Stress axis : x y z
#
# Youngs Moduli (GPa) = 32.19798 125.70299 143.97011
#
# Poissons Ratio (x) = 0.22396 0.55302
# Poissons Ratio (y) = 0.05737 0.45260
# Poissons Ratio (z) = 0.12368 0.39517
#
# Static dielectric constant tensor:
#      x y z
#    x 3.141840 0.000000 0.000000 
#    y 0.000000 3.768420 0.000000 
#    z 0.000000 0.000000 3.895420 
# 
# 
# High freq. dielectric constant tensor:
#      x y z
#    x 1.730380 0.000000 0.000000 
#    y 0.000000 1.770180 0.000000 
#    z 0.000000 0.000000 1.790050 
# 
# From -- ./inp_files/20845.got.cif
#   From: 2010.03.12/outbox.cif.g09.slc.cpg/sg53_11_cif.got.tgz:20845.got - 2010.04.16 14:36:59.
