data_PCOD8218782
_publ_section_title
;
Structure prediction by ZEFSAII (Michael W. Deem and Ramdas Pophale) SiO2 
 PCOD8218782
Probable space group: P M N A
;
_chemical_formula_sum "Si O2"
_cell_formula_units_Z 64
_cell_length_a 24.636588
_cell_length_b 6.626618
_cell_length_c 24.599424
_cell_angle_alpha 90.000000
_cell_angle_beta 90.000000
_cell_angle_gamma 90.000000
_cell_volume 4016.034498
_symmetry_space_group_name_H-M "P M N A"
_symmetry_group_IT_number 53
_symmetry_cell_setting 'orthorhombic'
loop_
_space_group_symop_operation_xyz
x,y,z
1/2-x,-y,1/2+z
x,-y,-z
1/2-x,y,1/2-z
-x,-y,-z
1/2+x,y,1/2-z
-x,y,z
1/2+x,-y,1/2+z
loop_
_atom_site_type_symbol
_atom_site_label
_atom_site_fract_x
_atom_site_fract_y
_atom_site_fract_z
Si Si1 0.797177 0.142028 0.876632
Si Si2 0.339953 0.713571 0.747210
Si Si3 0.560283 0.039343 0.281396
Si Si4 0.939942 0.665029 0.880584
Si Si5 0.382380 0.648676 0.307878
Si Si6 0.642529 0.845220 0.548454
Si Si7 0.732883 0.526290 0.557379
Si Si8 0.745641 0.221009 0.161380
O O1 0.827096 0.241593 0.825592
O O2 0.781503 0.302811 0.922128
O O3 0.835930 0.968647 0.900047
O O4 0.744634 0.017506 0.854501
O O5 0.367396 0.493107 0.743160
O O6 0.305474 0.727934 0.801696
O O7 0.302392 0.740206 0.693427
O O8 0.389401 0.872779 0.753363
O O9 0.500000 0.063370 0.253929
O O10 0.570812 0.801982 0.289787
O O11 0.559293 0.151667 0.338566
O O12 0.903615 0.481608 0.858686
O O13 0.915433 0.748736 0.936693
O O14 0.000000 0.583437 0.892536
O O15 0.681910 0.657825 0.536241
O O16 0.635201 0.000000 0.500000
O O17 0.766960 0.500000 0.500000
O O18 0.761784 0.642544 0.607142
#
# Coordination Sequence:
#
# PCOD8218782 Si02
#       8
#     8   8   8   8   8   8   8   8
#     4  11  18  32  50  67  91 125 162 200 243 293
#     4  10  20  34  48  73 107 126 160 204 251 304
#     4  10  19  32  50  69  91 128 168 201 242 293
#     4  10  20  31  44  65  92 121 166 218 253 288
#     4  11  17  32  52  67  92 127 162 202 245 297
#     4  11  20  30  47  64  88 121 167 214 250 291
#     4  11  20  33  51  70  91 127 169 201 241 296
#     4  10  21  33  48  76 101 128 161 203 253 306
#
# _framework density 15.936116999999999
#
# number of rings (size 3 to 8) (size 9 to 14) (size 15 to 20)
#    0.000    1.500    6.250    1.875    0.000    1.750 
#    0.000    0.000    0.000    1.125    0.000    0.000 
#    0.000    0.500    0.000    3.000    0.000    0.875 
#
# Total GULP energy -793121.147148 kJ/mol
# GULP energy per Si atom -12392.517924 kJ/mol
# Density = 1.589985 g / cm^3
# Si number density = 15.936117 Si / 1000 Ang^3
#
#
#
# Elastic Constant Matrix: (Units=GPa)
#
#
# Indices 1 2 3 4 5 6 
#
# 1 58.9191 23.0238 38.2890 0.0000 0.0000 0.0000
# 2 23.0238 95.7703 31.3886 0.0000 0.0000 0.0000
# 3 38.2890 31.3886 85.5765 0.0000 0.0000 0.0000
# 4 0.0000 0.0000 0.0000 14.6101 0.0000 0.0000
# 5 0.0000 0.0000 0.0000 0.0000 18.4198 0.0000
# 6 0.0000 0.0000 0.0000 0.0000 0.0000 11.0185
#
#
#
# Elastic Compliance Matrix: (Units=1/GPa)
#
#
# Indices 1 2 3 4 5 6 
#
# 1 0.024491 -0.002610 -0.010001 0.000000 0.000000 0.000000
# 2 -0.002610 0.012147 -0.003287 0.000000 0.000000 0.000000
# 3 -0.010001 -0.003287 0.017366 0.000000 0.000000 0.000000
# 4 0.000000 0.000000 0.000000 0.068446 0.000000 0.000000
# 5 0.000000 0.000000 0.000000 0.000000 0.054289 0.000000
# 6 0.000000 0.000000 0.000000 0.000000 0.000000 0.090757
#
#
# Mechanical properties :
#
#
# Convention : Reuss Voigt Hill
#
# Bulk Modulus (GPa) = 45.03024 47.29654 46.16339
# Shear Modulus (GPa) = 16.30287 18.64731 17.47509
#
# Velocity S-wave (km/s) = 3.20193 3.42443 3.31504
# Velocity P-wave (km/s) = 6.47980 6.73638 6.60934
#
# Compressibility (1/GPa) = 0.02220730
#
# Stress axis : x y z
#
# Youngs Moduli (GPa) = 40.83059 82.32756 57.58454
#
# Poissons Ratio (x) = 0.21489 0.57588
# Poissons Ratio (y) = 0.10658 0.18930
# Poissons Ratio (z) = 0.40833 0.27064
#
# Static dielectric constant tensor:
#      x y z
#    x 2.917730 0.000000 0.000000 
#    y 0.000000 3.352220 0.000000 
#    z 0.000000 0.000000 2.837290 
# 
# 
# High freq. dielectric constant tensor:
#      x y z
#    x 1.575380 0.000000 0.000000 
#    y 0.000000 1.637200 0.000000 
#    z 0.000000 0.000000 1.582520 
# 
# From -- ./inp_files/37292.got.cif
#   From: 2010.03.12/outbox.cif.g09.slc.cpg/sg53_19_cif.got.tgz:37292.got - 2010.04.16 14:36:59.
