data_PCOD8218487
_publ_section_title
;
Structure prediction by ZEFSAII (Michael W. Deem and Ramdas Pophale) SiO2 
 PCOD8218487
Probable space group: P M N A
;
_chemical_formula_sum "Si O2"
_cell_formula_units_Z 64
_cell_length_a 9.066901
_cell_length_b 19.658447
_cell_length_c 19.593081
_cell_angle_alpha 90.000000
_cell_angle_beta 90.000000
_cell_angle_gamma 90.000000
_cell_volume 3492.294127
_symmetry_space_group_name_H-M "P M N A"
_symmetry_group_IT_number 53
_symmetry_cell_setting 'orthorhombic'
loop_
_space_group_symop_operation_xyz
x,y,z
1/2-x,-y,1/2+z
x,-y,-z
1/2-x,y,1/2-z
-x,-y,-z
1/2+x,y,1/2-z
-x,y,z
1/2+x,-y,1/2+z
loop_
_atom_site_type_symbol
_atom_site_label
_atom_site_fract_x
_atom_site_fract_y
_atom_site_fract_z
Si Si1 0.173408 0.342261 0.032851
Si Si2 0.669694 0.261002 0.819783
Si Si3 0.330317 0.191129 0.435728
Si Si4 0.671717 0.110701 0.181148
Si Si5 0.826288 0.953143 0.319961
Si Si6 0.336601 0.482396 0.420347
Si Si7 0.167001 0.609448 0.399985
Si Si8 0.672164 0.154130 0.590018
O O1 0.219857 0.270062 0.064076
O O2 0.215515 0.403406 0.085853
O O3 0.000000 0.344105 0.016891
O O4 0.251515 0.353039 0.961170
O O5 0.750000 0.243212 0.750000
O O6 0.500000 0.236898 0.815603
O O7 0.679556 0.341634 0.834403
O O8 0.751709 0.220849 0.879544
O O9 0.500000 0.184795 0.412906
O O10 0.227802 0.153362 0.382471
O O11 0.306427 0.156444 0.508923
O O12 0.750000 0.135966 0.250000
O O13 0.500000 0.123553 0.190680
O O14 0.707661 0.031993 0.167059
O O15 0.750000 0.928123 0.250000
O O16 0.753045 0.913121 0.382541
O O17 0.000000 0.937866 0.315831
O O18 0.334121 0.500000 0.500000
O O19 0.500000 0.491017 0.389815
O O20 0.232859 0.535401 0.380431
O O21 0.000000 0.597945 0.422834
O O22 0.500000 0.152933 0.609755
#
# Coordination Sequence:
#
# PCOD8218487 Si02
#       8
#     8   8   8   8   8   8   8   8
#     4   9  17  32  51  75 106 140 175 212 262 320
#     4  11  23  36  51  73 105 147 188 228 273 326
#     4  10  21  36  57  83 113 145 179 223 271 323
#     4  10  22  40  62  84 108 140 178 221 272 328
#     4  10  21  38  58  80 109 145 184 226 268 320
#     4   8  15  27  47  71  98 134 172 210 256 312
#     4  10  19  30  47  73 103 134 175 226 269 311
#     4  11  22  36  56  81 110 145 182 225 270 319
#
# _framework density 18.326063000000001
#
# number of rings (size 3 to 8) (size 9 to 14) (size 15 to 20)
#    0.000    2.125    1.250    3.000    0.000    7.250 
#    0.000    2.500    0.000    0.750    0.000    1.750 
#    0.000    0.000    0.000    0.000    0.000    0.000 
#
# Total GULP energy -793563.708902 kJ/mol
# GULP energy per Si atom -12399.432952 kJ/mol
# Density = 1.828435 g / cm^3
# Si number density = 18.326063 Si / 1000 Ang^3
#
#
#
# Elastic Constant Matrix: (Units=GPa)
#
#
# Indices 1 2 3 4 5 6 
#
# 1 106.1799 54.5202 47.0568 0.0000 0.0000 0.0000
# 2 54.5202 115.9064 47.6328 0.0000 0.0000 0.0000
# 3 47.0568 47.6328 73.3829 0.0000 0.0000 0.0000
# 4 0.0000 0.0000 0.0000 17.1656 0.0000 0.0000
# 5 0.0000 0.0000 0.0000 0.0000 26.9312 0.0000
# 6 0.0000 0.0000 0.0000 0.0000 0.0000 32.7440
#
#
#
# Elastic Compliance Matrix: (Units=1/GPa)
#
#
# Indices 1 2 3 4 5 6 
#
# 1 0.014442 -0.004074 -0.006617 0.000000 0.000000 0.000000
# 2 -0.004074 0.012916 -0.005771 0.000000 0.000000 0.000000
# 3 -0.006617 -0.005771 0.021616 0.000000 0.000000 0.000000
# 4 0.000000 0.000000 0.000000 0.058256 0.000000 0.000000
# 5 0.000000 0.000000 0.000000 0.000000 0.037132 0.000000
# 6 0.000000 0.000000 0.000000 0.000000 0.000000 0.030540
#
#
# Mechanical properties :
#
#
# Convention : Reuss Voigt Hill
#
# Bulk Modulus (GPa) = 62.30357 65.98764 64.14560
# Shear Modulus (GPa) = 23.45489 25.11880 24.28685
#
# Velocity S-wave (km/s) = 3.58140 3.70626 3.64436
# Velocity P-wave (km/s) = 7.15353 7.37569 7.26546
#
# Compressibility (1/GPa) = 0.01605045
#
# Stress axis : x y z
#
# Youngs Moduli (GPa) = 69.24097 77.42487 46.26215
#
# Poissons Ratio (x) = 0.31545 0.30610
# Poissons Ratio (y) = 0.28211 0.26698
# Poissons Ratio (z) = 0.45814 0.44682
#
# Static dielectric constant tensor:
#      x y z
#    x 3.477130 0.000000 0.000000 
#    y 0.000000 3.718880 0.000000 
#    z 0.000000 0.000000 3.039090 
# 
# 
# High freq. dielectric constant tensor:
#      x y z
#    x 1.720330 0.000000 0.000000 
#    y 0.000000 1.722990 0.000000 
#    z 0.000000 0.000000 1.675060 
# 
# From -- ./inp_files/26886.got.cif
#   From: 2010.03.12/outbox.cif.g09.slc.cpg/sg53_14_cif.got.tgz:26886.got - 2010.04.16 14:36:59.
