data_PCOD8218936
_publ_section_title
;
Structure prediction by ZEFSAII (Michael W. Deem and Ramdas Pophale) SiO2 
 PCOD8218936
Probable space group: P M N A
;
_chemical_formula_sum "Si O2"
_cell_formula_units_Z 40
_cell_length_a 8.500601
_cell_length_b 11.653621
_cell_length_c 21.735091
_cell_angle_alpha 90.000000
_cell_angle_beta 90.000000
_cell_angle_gamma 90.000000
_cell_volume 2153.138589
_symmetry_space_group_name_H-M "P M N A"
_symmetry_group_IT_number 53
_symmetry_cell_setting 'orthorhombic'
loop_
_space_group_symop_operation_xyz
x,y,z
1/2-x,-y,1/2+z
x,-y,-z
1/2-x,y,1/2-z
-x,-y,-z
1/2+x,y,1/2-z
-x,y,z
1/2+x,-y,1/2+z
loop_
_atom_site_type_symbol
_atom_site_label
_atom_site_fract_x
_atom_site_fract_y
_atom_site_fract_z
Si Si1 0.815014 0.032522 0.316464
Si Si2 0.314408 0.718562 0.686367
Si Si3 0.182417 0.456940 0.084179
Si Si4 0.686662 0.923613 0.057250
Si Si5 0.316873 0.334424 0.968484
O O1 0.750000 0.989513 0.250000
O O2 0.747760 0.962977 0.375726
O O3 0.000000 0.018550 0.312619
O O4 0.771041 0.163292 0.329962
O O5 0.250000 0.670651 0.750000
O O6 0.500000 0.741033 0.687398
O O7 0.261112 0.621085 0.639838
O O8 0.282989 0.575255 0.086683
O O9 0.000000 0.488668 0.088628
O O10 0.212241 0.381211 0.023886
O O11 0.500000 0.934564 0.057732
O O12 0.741227 0.792529 0.048624
O O13 0.753313 0.000000 0.000000
O O14 0.500000 0.334741 0.986300
#
# Coordination Sequence:
#
# PCOD8218936 Si02
#       5
#     8   8   8   8   8
#     4  10  19  33  53  75 103 134 165 206 251 299
#     4  10  20  33  51  74  99 129 165 204 246 293
#     4  10  20  34  50  72 103 131 158 202 256 298
#     4   9  18  32  51  76 102 129 166 209 247 287
#     4  10  19  32  53  76  97 129 169 203 242 295
#
# _framework density 18.577529999999999
#
# number of rings (size 3 to 8) (size 9 to 14) (size 15 to 20)
#    0.000    2.200    0.000    6.000    0.000    4.800 
#    0.000    5.000    0.000   12.000    0.000    0.000 
#    0.000    0.000    0.000    0.000    0.000    0.000 
#
# Total GULP energy -495815.855749 kJ/mol
# GULP energy per Si atom -12395.396394 kJ/mol
# Density = 1.853525 g / cm^3
# Si number density = 18.577530 Si / 1000 Ang^3
#
#
#
# Elastic Constant Matrix: (Units=GPa)
#
#
# Indices 1 2 3 4 5 6 
#
# 1 28.6862 10.5059 14.7349 0.0000 0.0000 0.0000
# 2 10.5059 142.6001 85.3916 0.0000 0.0000 0.0000
# 3 14.7349 85.3916 127.5063 0.0000 0.0000 0.0000
# 4 0.0000 0.0000 0.0000 37.7385 0.0000 0.0000
# 5 0.0000 0.0000 0.0000 0.0000 23.1408 0.0000
# 6 0.0000 0.0000 0.0000 0.0000 0.0000 -135.0346
#
#
#
# Elastic Compliance Matrix: (Units=1/GPa)
#
#
# Indices 1 2 3 4 5 6 
#
# 1 0.037066 -0.000277 -0.004098 0.000000 0.000000 0.000000
# 2 -0.000277 0.011710 -0.007810 0.000000 0.000000 0.000000
# 3 -0.004098 -0.007810 0.013547 0.000000 0.000000 0.000000
# 4 0.000000 0.000000 0.000000 0.026498 0.000000 0.000000
# 5 0.000000 0.000000 0.000000 0.000000 0.043214 0.000000
# 6 0.000000 0.000000 0.000000 0.000000 0.000000 -0.007406
#
#
# Mechanical properties :
#
#
# Convention : Reuss Voigt Hill
#
# Bulk Modulus (GPa) = 26.34842 57.78417 42.06630
# Shear Modulus (GPa) = 30.93090 -2.28706 14.32192
#
# Velocity S-wave (km/s) = 4.08482 -1.11075 2.77957
# Velocity P-wave (km/s) = 6.03833 5.43386 5.74405
#
# Compressibility (1/GPa) = 0.03795293
#
# Stress axis : x y z
#
# Youngs Moduli (GPa) = 26.97865 85.39792 73.81794
#
# Poissons Ratio (x) = 0.02364 0.30251
# Poissons Ratio (y) = 0.00747 0.57653
# Poissons Ratio (z) = 0.11056 0.66697
#
# Static dielectric constant tensor:
#      x y z
#    x 3.254540 0.000000 0.000000 
#    y 0.000000 3.628660 0.000000 
#    z 0.000000 0.000000 3.796880 
# 
# 
# High freq. dielectric constant tensor:
#      x y z
#    x 1.712280 0.000000 0.000000 
#    y 0.000000 1.719490 0.000000 
#    z 0.000000 0.000000 1.721310 
# 
# From -- ./inp_files/30371.got.cif
#   From: 2010.03.12/outbox.cif.g09.slc.cpg/sg53_16_cif.got.tgz:30371.got - 2010.04.16 14:36:59.
