data_PCOD8218949
_publ_section_title
;
Structure prediction by ZEFSAII (Michael W. Deem and Ramdas Pophale) SiO2 
 PCOD8218949
Probable space group: P M N A
;
_chemical_formula_sum "Si O2"
_cell_formula_units_Z 64
_cell_length_a 9.415796
_cell_length_b 17.420722
_cell_length_c 22.108199
_cell_angle_alpha 90.000000
_cell_angle_beta 90.000000
_cell_angle_gamma 90.000000
_cell_volume 3626.407098
_symmetry_space_group_name_H-M "P M N A"
_symmetry_group_IT_number 53
_symmetry_cell_setting 'orthorhombic'
loop_
_space_group_symop_operation_xyz
x,y,z
1/2-x,-y,1/2+z
x,-y,-z
1/2-x,y,1/2-z
-x,-y,-z
1/2+x,y,1/2-z
-x,y,z
1/2+x,-y,1/2+z
loop_
_atom_site_type_symbol
_atom_site_label
_atom_site_fract_x
_atom_site_fract_y
_atom_site_fract_z
Si Si1 0.249453 0.327075 0.999681
Si Si2 0.835747 0.088235 0.493271
Si Si3 0.844064 0.207330 0.591856
Si Si4 0.161202 0.199711 0.086198
Si Si5 0.156929 0.575942 0.607657
Si Si6 0.169652 0.717869 0.687183
Si Si7 0.157384 0.425738 0.893005
Si Si8 0.668062 0.285669 0.687938
O O1 0.150819 0.270691 0.039199
O O2 0.342488 0.379689 0.043893
O O3 0.350670 0.275432 0.957824
O O4 0.156278 0.382723 0.957518
O O5 0.810175 0.127510 0.558470
O O6 0.731748 0.125107 0.443878
O O7 0.000000 0.098960 0.473052
O O8 0.793903 0.000000 0.500000
O O9 0.723622 0.220028 0.642264
O O10 0.000000 0.204647 0.622580
O O11 0.261068 0.219499 0.142937
O O12 0.000000 0.180818 0.106856
O O13 0.202410 0.633058 0.661420
O O14 0.252199 0.501686 0.606894
O O15 0.000000 0.545078 0.619290
O O16 0.250000 0.725795 0.750000
O O17 0.000000 0.732249 0.692953
O O18 0.208388 0.368322 0.840102
O O19 0.000000 0.453744 0.878960
O O20 0.750000 0.276273 0.750000
O O21 0.500000 0.275351 0.696667
#
# Coordination Sequence:
#
# PCOD8218949 Si02
#       8
#     8   8   8   8   8   8   8   8
#     4   9  18  31  49  71  98 130 166 205 248 301
#     4   9  18  33  54  82 115 144 165 192 236 289
#     4   9  17  31  53  77 101 131 166 202 241 287
#     4  10  19  32  53  79 105 134 169 207 247 294
#     4  10  21  33  47  69  96 127 164 208 256 305
#     4  10  21  37  54  72  96 129 171 214 256 301
#     4  10  21  33  46  67  95 127 163 207 257 304
#     4  10  21  36  52  70  94 127 169 212 253 297
#
# _framework density 17.648323000000001
#
# number of rings (size 3 to 8) (size 9 to 14) (size 15 to 20)
#    0.000    2.375    0.000    2.250    0.000   13.750 
#    0.000    2.500    0.000    0.750    0.000    3.500 
#    0.000    0.000    0.000    0.000    0.000    0.000 
#
# Total GULP energy -793410.548556 kJ/mol
# GULP energy per Si atom -12397.039821 kJ/mol
# Density = 1.760815 g / cm^3
# Si number density = 17.648323 Si / 1000 Ang^3
#
#
#
# Elastic Constant Matrix: (Units=GPa)
#
#
# Indices 1 2 3 4 5 6 
#
# 1 107.3591 60.5129 57.6891 0.0000 0.0000 0.0000
# 2 60.5129 119.0524 51.6668 0.0000 0.0000 0.0000
# 3 57.6891 51.6668 114.7044 0.0000 0.0000 0.0000
# 4 0.0000 0.0000 0.0000 12.8184 0.0000 0.0000
# 5 0.0000 0.0000 0.0000 0.0000 29.0365 0.0000
# 6 0.0000 0.0000 0.0000 0.0000 0.0000 15.6830
#
#
#
# Elastic Compliance Matrix: (Units=1/GPa)
#
#
# Indices 1 2 3 4 5 6 
#
# 1 0.015175 -0.005470 -0.005168 0.000000 0.000000 0.000000
# 2 -0.005470 0.012413 -0.002840 0.000000 0.000000 0.000000
# 3 -0.005168 -0.002840 0.012596 0.000000 0.000000 0.000000
# 4 0.000000 0.000000 0.000000 0.078013 0.000000 0.000000
# 5 0.000000 0.000000 0.000000 0.000000 0.034439 0.000000
# 6 0.000000 0.000000 0.000000 0.000000 0.000000 0.063763
#
#
# Mechanical properties :
#
#
# Convention : Reuss Voigt Hill
#
# Bulk Modulus (GPa) = 75.59976 75.65039 75.62507
# Shear Modulus (GPa) = 20.18044 22.92407 21.55225
#
# Velocity S-wave (km/s) = 3.38520 3.60799 3.49837
# Velocity P-wave (km/s) = 7.62950 7.76629 7.69820
#
# Compressibility (1/GPa) = 0.01322755
#
# Stress axis : x y z
#
# Youngs Moduli (GPa) = 65.89826 80.56305 79.38799
#
# Poissons Ratio (x) = 0.44071 0.41027
# Poissons Ratio (y) = 0.36049 0.22545
# Poissons Ratio (z) = 0.34056 0.22878
#
# Static dielectric constant tensor:
#      x y z
#    x 3.271560 0.000000 0.000000 
#    y 0.000000 3.130170 0.000000 
#    z 0.000000 0.000000 3.255270 
# 
# 
# High freq. dielectric constant tensor:
#      x y z
#    x 1.689560 0.000000 0.000000 
#    y 0.000000 1.664110 0.000000 
#    z 0.000000 0.000000 1.673640 
# 
# From -- ./inp_files/31115.got.cif
#   From: 2010.03.12/outbox.cif.g09.slc.cpg/sg53_16_cif.got.tgz:31115.got - 2010.04.16 14:36:59.
