data_PCOD8218327
_publ_section_title
;
Structure prediction by ZEFSAII (Michael W. Deem and Ramdas Pophale) SiO2 
 PCOD8218327
Probable space group: P M N A
;
_chemical_formula_sum "Si O2"
_cell_formula_units_Z 64
_cell_length_a 8.859771
_cell_length_b 12.518020
_cell_length_c 31.581911
_cell_angle_alpha 90.000000
_cell_angle_beta 90.000000
_cell_angle_gamma 90.000000
_cell_volume 3502.648389
_symmetry_space_group_name_H-M "P M N A"
_symmetry_group_IT_number 53
_symmetry_cell_setting 'orthorhombic'
loop_
_space_group_symop_operation_xyz
x,y,z
1/2-x,-y,1/2+z
x,-y,-z
1/2-x,y,1/2-z
-x,-y,-z
1/2+x,y,1/2-z
-x,y,z
1/2+x,-y,1/2+z
loop_
_atom_site_type_symbol
_atom_site_label
_atom_site_fract_x
_atom_site_fract_y
_atom_site_fract_z
Si Si1 0.177902 0.056724 0.884404
Si Si2 0.676456 0.707114 0.391706
Si Si3 0.821162 0.158576 0.361091
Si Si4 0.324553 0.313673 0.295225
Si Si5 0.323567 0.667668 0.928514
Si Si6 0.321997 0.709136 0.486901
Si Si7 0.336037 0.911351 0.032253
Si Si8 0.173996 0.517632 0.863918
O O1 0.236008 0.178647 0.873102
O O2 0.224937 0.040371 0.932734
O O3 0.000000 0.042881 0.877781
O O4 0.260725 0.963020 0.858528
O O5 0.500000 0.724551 0.396896
O O6 0.736598 0.678571 0.439347
O O7 0.716162 0.608708 0.360581
O O8 0.753014 0.218209 0.320664
O O9 0.773123 0.222538 0.404114
O O10 0.000000 0.156781 0.356810
O O11 0.250000 0.325552 0.250000
O O12 0.500000 0.286547 0.290479
O O13 0.299044 0.427116 0.318734
O O14 0.500000 0.669686 0.936832
O O15 0.281431 0.568652 0.898895
O O16 0.244065 0.642799 0.973561
O O17 0.500000 0.702919 0.490273
O O18 0.256776 0.826118 0.494939
O O19 0.500000 0.869648 0.050406
O O20 0.381515 0.000000 0.000000
O O21 0.000000 0.531406 0.878471
#
# Coordination Sequence:
#
# PCOD8218327 Si02
#       8
#     8   8   8   8   8   8   8   8
#     4  10  19  31  49  72  98 131 171 209 248 295
#     4   8  17  33  50  70  97 133 177 218 251 290
#     4  10  20  34  52  75 105 136 166 204 250 300
#     4  10  20  35  59  86 107 128 155 194 245 302
#     4  10  20  32  46  69 101 133 168 216 267 305
#     4  10  19  30  45  65  92 130 175 219 258 299
#     4  10  19  29  41  60  90 128 169 214 260 299
#     4   9  18  35  56  74  96 131 171 205 246 302
#
# _framework density 18.271889999999999
#
# number of rings (size 3 to 8) (size 9 to 14) (size 15 to 20)
#    0.000    2.375    0.000    3.750    0.000    6.500 
#    0.000    6.250    0.000    0.750    0.000    1.750 
#    0.000    0.000    0.000    0.000    0.000    0.000 
#
# Total GULP energy -792858.262282 kJ/mol
# GULP energy per Si atom -12388.410348 kJ/mol
# Density = 1.823030 g / cm^3
# Si number density = 18.271890 Si / 1000 Ang^3
#
#
#
# Elastic Constant Matrix: (Units=GPa)
#
#
# Indices 1 2 3 4 5 6 
#
# 1 71.1137 36.1960 29.8188 0.0000 0.0000 0.0000
# 2 36.1960 130.2999 49.5949 0.0000 0.0000 0.0000
# 3 29.8188 49.5949 69.5119 0.0000 0.0000 0.0000
# 4 0.0000 0.0000 0.0000 18.9053 0.0000 0.0000
# 5 0.0000 0.0000 0.0000 0.0000 17.7597 0.0000
# 6 0.0000 0.0000 0.0000 0.0000 0.0000 5.5128
#
#
#
# Elastic Compliance Matrix: (Units=1/GPa)
#
#
# Indices 1 2 3 4 5 6 
#
# 1 0.017865 -0.002808 -0.005660 0.000000 0.000000 0.000000
# 2 -0.002808 0.010977 -0.006627 0.000000 0.000000 0.000000
# 3 -0.005660 -0.006627 0.021542 0.000000 0.000000 0.000000
# 4 0.000000 0.000000 0.000000 0.052895 0.000000 0.000000
# 5 0.000000 0.000000 0.000000 0.000000 0.056307 0.000000
# 6 0.000000 0.000000 0.000000 0.000000 0.000000 0.181396
#
#
# Mechanical properties :
#
#
# Convention : Reuss Voigt Hill
#
# Bulk Modulus (GPa) = 49.52122 55.79387 52.65755
# Shear Modulus (GPa) = 13.23086 18.78995 16.01041
#
# Velocity S-wave (km/s) = 2.69385 3.21027 2.96333
# Velocity P-wave (km/s) = 6.06935 6.65904 6.37102
#
# Compressibility (1/GPa) = 0.02019336
#
# Stress axis : x y z
#
# Youngs Moduli (GPa) = 55.97659 91.09795 46.42039
#
# Poissons Ratio (x) = 0.25584 0.26273
# Poissons Ratio (y) = 0.15720 0.30764
# Poissons Ratio (z) = 0.31681 0.60373
#
# Static dielectric constant tensor:
#      x y z
#    x 3.359930 0.000000 0.000000 
#    y 0.000000 3.494460 0.000000 
#    z 0.000000 0.000000 3.122030 
# 
# 
# High freq. dielectric constant tensor:
#      x y z
#    x 1.713480 0.000000 0.000000 
#    y 0.000000 1.707420 0.000000 
#    z 0.000000 0.000000 1.671250 
# 
# From -- ./inp_files/38119.got.cif
#   From: 2010.03.12/outbox.cif.g09.slc.cpg/sg53_20_cif.got.tgz:38119.got - 2010.04.16 14:36:59.
