data_PCOD8218119
_publ_section_title
;
Structure prediction by ZEFSAII (Michael W. Deem and Ramdas Pophale) SiO2 
 PCOD8218119
Probable space group: P M N A
;
_chemical_formula_sum "Si O2"
_cell_formula_units_Z 64
_cell_length_a 17.858669
_cell_length_b 10.837317
_cell_length_c 17.519280
_cell_angle_alpha 90.000000
_cell_angle_beta 90.000000
_cell_angle_gamma 90.000000
_cell_volume 3390.682452
_symmetry_space_group_name_H-M "P M N A"
_symmetry_group_IT_number 53
_symmetry_cell_setting 'orthorhombic'
loop_
_space_group_symop_operation_xyz
x,y,z
1/2-x,-y,1/2+z
x,-y,-z
1/2-x,y,1/2-z
-x,-y,-z
1/2+x,y,1/2-z
-x,y,z
1/2+x,-y,1/2+z
loop_
_atom_site_type_symbol
_atom_site_label
_atom_site_fract_x
_atom_site_fract_y
_atom_site_fract_z
Si Si1 0.270616 0.058142 0.421264
Si Si2 0.417040 0.569297 0.795480
Si Si3 0.729299 0.177344 0.835634
Si Si4 0.131844 0.298096 0.883151
Si Si5 0.774026 0.290603 0.334365
Si Si6 0.870993 0.422094 0.127591
Si Si7 0.583559 0.190222 0.465566
Si Si8 0.415034 0.285479 0.788963
O O1 0.227615 0.182129 0.397053
O O2 0.358996 0.089939 0.430439
O O3 0.238661 0.000000 0.500000
O O4 0.254048 0.961538 0.354456
O O5 0.500000 0.601768 0.826375
O O6 0.357478 0.655497 0.837993
O O7 0.416401 0.594662 0.705475
O O8 0.397662 0.426745 0.810354
O O9 0.750000 0.209256 0.750000
O O10 0.778696 0.270787 0.887019
O O11 0.640018 0.202337 0.842094
O O12 0.118176 0.440411 0.905054
O O13 0.097549 0.263761 0.801099
O O14 0.093636 0.206547 0.943783
O O15 0.750000 0.241659 0.250000
O O16 0.717044 0.399058 0.357694
O O17 0.904487 0.325610 0.068647
O O18 0.500000 0.141512 0.448077
O O19 0.500000 0.248703 0.809452
#
# Coordination Sequence:
#
# PCOD8218119 Si02
#       8
#     8   8   8   8   8   8   8   8
#     4  11  22  39  53  73 100 143 189 222 258 303
#     4   9  16  30  53  82 110 135 169 221 275 320
#     4  10  20  36  56  76 103 140 186 226 263 306
#     4  10  18  32  52  81 113 145 172 206 255 323
#     4   9  18  33  54  77 104 141 182 220 259 310
#     4   9  18  30  50  80 114 144 174 203 254 323
#     4  11  22  34  51  77 113 148 174 206 255 315
#     4   9  18  32  55  83 109 134 170 222 275 318
#
# _framework density 18.875256
#
# number of rings (size 3 to 8) (size 9 to 14) (size 15 to 20)
#    0.000    2.250    1.250    2.250    0.000    5.250 
#    0.000    1.250    0.000    1.500    0.000    1.750 
#    0.000    0.000    0.000    0.000    0.000    0.000 
#
# Total GULP energy -793370.377966 kJ/mol
# GULP energy per Si atom -12396.412156 kJ/mol
# Density = 1.883229 g / cm^3
# Si number density = 18.875256 Si / 1000 Ang^3
#
#
#
# Elastic Constant Matrix: (Units=GPa)
#
#
# Indices 1 2 3 4 5 6 
#
# 1 155.4598 55.3678 38.8174 0.0000 0.0000 0.0000
# 2 55.3678 82.8592 25.4907 0.0000 0.0000 0.0000
# 3 38.8174 25.4907 41.0975 0.0000 0.0000 0.0000
# 4 0.0000 0.0000 0.0000 33.6207 0.0000 0.0000
# 5 0.0000 0.0000 0.0000 0.0000 22.5633 0.0000
# 6 0.0000 0.0000 0.0000 0.0000 0.0000 22.7140
#
#
#
# Elastic Compliance Matrix: (Units=1/GPa)
#
#
# Indices 1 2 3 4 5 6 
#
# 1 0.009598 -0.004479 -0.006287 0.000000 0.000000 0.000000
# 2 -0.004479 0.017005 -0.006317 0.000000 0.000000 0.000000
# 3 -0.006287 -0.006317 0.034188 0.000000 0.000000 0.000000
# 4 0.000000 0.000000 0.000000 0.029744 0.000000 0.000000
# 5 0.000000 0.000000 0.000000 0.000000 0.044320 0.000000
# 6 0.000000 0.000000 0.000000 0.000000 0.000000 0.044026
#
#
# Mechanical properties :
#
#
# Convention : Reuss Voigt Hill
#
# Bulk Modulus (GPa) = 37.55799 57.64094 47.59947
# Shear Modulus (GPa) = 22.53056 26.42898 24.47977
#
# Velocity S-wave (km/s) = 3.45868 3.74597 3.60519
# Velocity P-wave (km/s) = 5.99092 7.02238 6.52706
#
# Compressibility (1/GPa) = 0.02662549
#
# Stress axis : x y z
#
# Youngs Moduli (GPa) = 104.19241 58.80628 29.24961
#
# Poissons Ratio (x) = 0.26340 0.18389
# Poissons Ratio (y) = 0.46670 0.18476
# Poissons Ratio (z) = 0.65505 0.37146
#
# Static dielectric constant tensor:
#      x y z
#    x 3.633500 0.000000 0.000000 
#    y 0.000000 3.396200 0.000000 
#    z 0.000000 0.000000 3.296810 
# 
# 
# High freq. dielectric constant tensor:
#      x y z
#    x 1.730220 0.000000 0.000000 
#    y 0.000000 1.728440 0.000000 
#    z 0.000000 0.000000 1.708360 
# 
# From -- ./inp_files/29104.got.cif
#   From: 2010.03.12/outbox.cif.g09.slc.cpg/sg53_15_cif.got.tgz:29104.got - 2010.04.16 14:36:59.
