data_PCOD8218044
_publ_section_title
;
Structure prediction by ZEFSAII (Michael W. Deem and Ramdas Pophale) SiO2 
 PCOD8218044
Probable space group: P M N A
;
_chemical_formula_sum "Si O2"
_cell_formula_units_Z 64
_cell_length_a 21.159184
_cell_length_b 9.400574
_cell_length_c 17.859888
_cell_angle_alpha 90.000000
_cell_angle_beta 90.000000
_cell_angle_gamma 90.000000
_cell_volume 3552.483085
_symmetry_space_group_name_H-M "P M N A"
_symmetry_group_IT_number 53
_symmetry_cell_setting 'orthorhombic'
loop_
_space_group_symop_operation_xyz
x,y,z
1/2-x,-y,1/2+z
x,-y,-z
1/2-x,y,1/2-z
-x,-y,-z
1/2+x,y,1/2-z
-x,y,z
1/2+x,-y,1/2+z
loop_
_atom_site_type_symbol
_atom_site_label
_atom_site_fract_x
_atom_site_fract_y
_atom_site_fract_z
Si Si1 0.572646 0.373166 0.338590
Si Si2 0.722927 0.865197 0.137106
Si Si3 0.357620 0.336920 0.481514
Si Si4 0.784872 0.665258 0.494756
Si Si5 0.926093 0.309441 0.872705
Si Si6 0.863576 0.094574 0.433732
Si Si7 0.650268 0.897860 0.283423
Si Si8 0.072787 0.852943 0.720439
O O1 0.500000 0.361205 0.361074
O O2 0.610038 0.288940 0.403878
O O3 0.594590 0.536991 0.339911
O O4 0.584306 0.304214 0.256168
O O5 0.719427 0.718492 0.090806
O O6 0.681333 0.831836 0.209497
O O7 0.795102 0.907918 0.154270
O O8 0.695457 0.999835 0.092722
O O9 0.372297 0.500000 0.500000
O O10 0.283736 0.307632 0.469531
O O11 0.388550 0.258012 0.552828
O O12 0.804187 0.500000 0.500000
O O13 0.837892 0.754465 0.537904
O O14 0.907472 0.201337 0.807551
O O15 0.000000 0.302035 0.889959
O O16 0.912165 0.134969 0.367810
O O17 0.897123 0.000000 0.500000
O O18 0.620482 0.050633 0.267566
O O19 0.000000 0.899091 0.731458
#
# Coordination Sequence:
#
# PCOD8218044 Si02
#       8
#     8   8   8   8   8   8   8   8
#     4   9  19  33  49  72 105 139 172 215 261 304
#     4   9  19  35  50  73 105 138 168 211 268 307
#     4   9  17  30  48  71 102 138 174 208 250 305
#     4  10  19  33  55  79 103 133 174 217 258 309
#     4  10  18  31  52  75 102 140 177 211 255 307
#     4   9  20  37  57  78 103 137 170 214 271 319
#     4  10  19  33  52  73 103 136 175 215 255 311
#     4  10  21  37  55  77 105 136 175 220 263 315
#
# _framework density 18.015567000000001
#
# number of rings (size 3 to 8) (size 9 to 14) (size 15 to 20)
#    0.000    2.500    1.250    0.750    1.750    2.750 
#    0.000    0.625    0.000    2.625    0.000    0.000 
#    0.000    0.000    0.000    0.000    0.000    0.000 
#
# Total GULP energy -793267.445474 kJ/mol
# GULP energy per Si atom -12394.803836 kJ/mol
# Density = 1.797456 g / cm^3
# Si number density = 18.015567 Si / 1000 Ang^3
#
#
#
# Elastic Constant Matrix: (Units=GPa)
#
#
# Indices 1 2 3 4 5 6 
#
# 1 49.0367 16.4919 19.2096 0.0000 0.0000 0.0000
# 2 16.4919 59.5970 24.6022 0.0000 0.0000 0.0000
# 3 19.2096 24.6022 82.4164 0.0000 0.0000 0.0000
# 4 0.0000 0.0000 0.0000 26.5291 0.0000 0.0000
# 5 0.0000 0.0000 0.0000 0.0000 31.7994 0.0000
# 6 0.0000 0.0000 0.0000 0.0000 0.0000 19.9333
#
#
#
# Elastic Compliance Matrix: (Units=1/GPa)
#
#
# Indices 1 2 3 4 5 6 
#
# 1 0.023616 -0.004862 -0.004053 0.000000 0.000000 0.000000
# 2 -0.004862 0.020139 -0.004878 0.000000 0.000000 0.000000
# 3 -0.004053 -0.004878 0.014534 0.000000 0.000000 0.000000
# 4 0.000000 0.000000 0.000000 0.037694 0.000000 0.000000
# 5 0.000000 0.000000 0.000000 0.000000 0.031447 0.000000
# 6 0.000000 0.000000 0.000000 0.000000 0.000000 0.050167
#
#
# Mechanical properties :
#
#
# Convention : Reuss Voigt Hill
#
# Bulk Modulus (GPa) = 32.57098 34.62860 33.59979
# Shear Modulus (GPa) = 23.21066 24.36881 23.78973
#
# Velocity S-wave (km/s) = 3.59328 3.68183 3.63782
# Velocity P-wave (km/s) = 5.94425 6.11046 6.02793
#
# Compressibility (1/GPa) = 0.03070218
#
# Stress axis : x y z
#
# Youngs Moduli (GPa) = 42.34463 49.65583 68.80216
#
# Poissons Ratio (x) = 0.24142 0.27886
# Poissons Ratio (y) = 0.20588 0.33564
# Poissons Ratio (z) = 0.17162 0.24224
#
# Static dielectric constant tensor:
#      x y z
#    x 3.212280 0.000000 0.000000 
#    y 0.000000 3.175140 0.000000 
#    z 0.000000 0.000000 3.469430 
# 
# 
# High freq. dielectric constant tensor:
#      x y z
#    x 1.692080 0.000000 0.000000 
#    y 0.000000 1.681610 0.000000 
#    z 0.000000 0.000000 1.700680 
# 
# From -- ./inp_files/29399.got.cif
#   From: 2010.03.12/outbox.cif.g09.slc.cpg/sg53_15_cif.got.tgz:29399.got - 2010.04.16 14:36:59.
