data_PCOD8218346
_publ_section_title
;
Structure prediction by ZEFSAII (Michael W. Deem and Ramdas Pophale) SiO2 
 PCOD8218346
Probable space group: P M N A
;
_chemical_formula_sum "Si O2"
_cell_formula_units_Z 48
_cell_length_a 9.135127
_cell_length_b 11.456546
_cell_length_c 26.536275
_cell_angle_alpha 90.000000
_cell_angle_beta 90.000000
_cell_angle_gamma 90.000000
_cell_volume 2777.207004
_symmetry_space_group_name_H-M "P M N A"
_symmetry_group_IT_number 53
_symmetry_cell_setting 'orthorhombic'
loop_
_space_group_symop_operation_xyz
x,y,z
1/2-x,-y,1/2+z
x,-y,-z
1/2-x,y,1/2-z
-x,-y,-z
1/2+x,y,1/2-z
-x,y,z
1/2+x,-y,1/2+z
loop_
_atom_site_type_symbol
_atom_site_label
_atom_site_fract_x
_atom_site_fract_y
_atom_site_fract_z
Si Si1 0.340869 0.982798 0.705715
Si Si2 0.329065 0.145410 0.862927
Si Si3 0.831360 0.359667 0.700011
Si Si4 0.826442 0.990606 0.942524
Si Si5 0.172510 0.373907 0.301901
Si Si6 0.840418 0.787289 0.874869
O O1 0.250000 0.921107 0.750000
O O2 0.500000 0.031613 0.723194
O O3 0.369746 0.887707 0.664512
O O4 0.236704 0.085115 0.686366
O O5 0.500000 0.116910 0.868752
O O6 0.300409 0.282515 0.850478
O O7 0.248258 0.098355 0.912806
O O8 0.750000 0.313831 0.750000
O O9 0.785862 0.492105 0.687289
O O10 0.000000 0.352837 0.714552
O O11 0.778192 0.860263 0.923167
O O12 0.000000 0.005549 0.936040
O O13 0.775605 0.000000 0.000000
O O14 0.250000 0.332014 0.250000
O O15 0.228050 0.305938 0.351816
O O16 0.000000 0.352058 0.295886
O O17 0.000000 0.728657 0.886805
#
# Coordination Sequence:
#
# PCOD8218346 Si02
#       6
#     8   8   8   8   8   8
#     4  10  19  29  42  64  95 126 155 190 233 280
#     4  10  19  31  48  70  95 122 156 195 235 283
#     4   9  19  32  46  68  98 131 163 195 228 268
#     4   9  19  36  55  73  94 120 152 196 248 293
#     4  10  19  31  47  68  97 131 164 194 227 269
#     4   9  18  31  47  68  92 119 153 192 234 280
#
# _framework density 17.283550000000002
#
# number of rings (size 3 to 8) (size 9 to 14) (size 15 to 20)
#    0.000    2.500    0.000    3.500    0.000    8.333 
#    0.000    0.000    0.000    1.000    0.000    7.000 
#    0.000    0.000    0.000    0.000    0.000    0.000 
#
# Total GULP energy -594691.980490 kJ/mol
# GULP energy per Si atom -12389.416260 kJ/mol
# Density = 1.724421 g / cm^3
# Si number density = 17.283550 Si / 1000 Ang^3
#
#
#
# Elastic Constant Matrix: (Units=GPa)
#
#
# Indices 1 2 3 4 5 6 
#
# 1 83.4745 39.3900 47.8535 0.0000 0.0000 0.0000
# 2 39.3900 80.2122 42.0706 0.0000 0.0000 0.0000
# 3 47.8535 42.0706 91.2311 0.0000 0.0000 0.0000
# 4 0.0000 0.0000 0.0000 19.0768 0.0000 0.0000
# 5 0.0000 0.0000 0.0000 0.0000 21.3422 0.0000
# 6 0.0000 0.0000 0.0000 0.0000 0.0000 24.2761
#
#
#
# Elastic Compliance Matrix: (Units=1/GPa)
#
#
# Indices 1 2 3 4 5 6 
#
# 1 0.018713 -0.005331 -0.007357 0.000000 0.000000 0.000000
# 2 -0.005331 0.017963 -0.005487 0.000000 0.000000 0.000000
# 3 -0.007357 -0.005487 0.017351 0.000000 0.000000 0.000000
# 4 0.000000 0.000000 0.000000 0.052420 0.000000 0.000000
# 5 0.000000 0.000000 0.000000 0.000000 0.046856 0.000000
# 6 0.000000 0.000000 0.000000 0.000000 0.000000 0.041193
#
#
# Mechanical properties :
#
#
# Convention : Reuss Voigt Hill
#
# Bulk Modulus (GPa) = 56.57419 57.06067 56.81743
# Shear Modulus (GPa) = 21.12053 21.31260 21.21656
#
# Velocity S-wave (km/s) = 3.49951 3.51538 3.50745
# Velocity P-wave (km/s) = 7.00948 7.04012 7.02482
#
# Compressibility (1/GPa) = 0.01767590
#
# Stress axis : x y z
#
# Youngs Moduli (GPa) = 53.43934 55.67107 57.63441
#
# Poissons Ratio (x) = 0.29676 0.42403
# Poissons Ratio (y) = 0.28486 0.31626
# Poissons Ratio (z) = 0.39317 0.30549
#
# Static dielectric constant tensor:
#      x y z
#    x 3.339590 0.000000 0.000000 
#    y 0.000000 3.439790 0.000000 
#    z 0.000000 0.000000 6.554660 
# 
# 
# High freq. dielectric constant tensor:
#      x y z
#    x 1.677990 0.000000 0.000000 
#    y 0.000000 1.656490 0.000000 
#    z 0.000000 0.000000 1.640170 
# 
# From -- ./inp_files/33858.got.cif
#   From: 2010.03.12/outbox.cif.g09.slc.cpg/sg53_17_cif.got.tgz:33858.got - 2010.04.16 14:36:59.
