data_PCOD8218190
_publ_section_title
;
Structure prediction by ZEFSAII (Michael W. Deem and Ramdas Pophale) SiO2 
 PCOD8218190
Probable space group: P M N A
;
_chemical_formula_sum "Si O2"
_cell_formula_units_Z 48
_cell_length_a 14.663259
_cell_length_b 17.430074
_cell_length_c 9.214269
_cell_angle_alpha 90.000000
_cell_angle_beta 90.000000
_cell_angle_gamma 90.000000
_cell_volume 2354.998438
_symmetry_space_group_name_H-M "P M N A"
_symmetry_group_IT_number 53
_symmetry_cell_setting 'orthorhombic'
loop_
_space_group_symop_operation_xyz
x,y,z
1/2-x,-y,1/2+z
x,-y,-z
1/2-x,y,1/2-z
-x,-y,-z
1/2+x,y,1/2-z
-x,y,z
1/2+x,-y,1/2+z
loop_
_atom_site_type_symbol
_atom_site_label
_atom_site_fract_x
_atom_site_fract_y
_atom_site_fract_z
Si Si1 0.000000 0.824782 0.258263
Si Si2 0.652823 0.673305 0.936182
Si Si3 0.000000 0.413792 0.947565
Si Si4 0.500000 0.647037 0.147936
Si Si5 0.688599 0.822151 0.116387
Si Si6 0.500000 0.087792 0.459577
Si Si7 0.314173 0.852145 0.611318
Si Si8 0.851215 0.323228 0.110893
O O1 0.907118 0.858924 0.329662
O O2 0.000000 0.851927 0.092379
O O3 0.000000 0.732073 0.278716
O O4 0.609391 0.672157 0.774859
O O5 0.752765 0.636729 0.915301
O O6 0.588295 0.629075 0.048847
O O7 0.661925 0.759172 0.996506
O O8 0.087174 0.367924 0.999528
O O9 0.000000 0.500000 0.000000
O O10 0.000000 0.416009 0.773418
O O11 0.750000 0.789498 0.250000
O O12 0.753485 0.881988 0.027396
O O13 0.407442 0.100300 0.366466
O O14 0.500000 0.000000 0.500000
O O15 0.250000 0.857449 0.750000
O O16 0.344516 0.765892 0.571490
#
# Coordination Sequence:
#
# PCOD8218190 Si02
#       8
#     4   8   4   4   8   4   8   8
#     4  10  20  36  62  95 119 162 208 266 310 361
#     4   9  19  34  62  97 118 146 203 262 316 365
#     4  12  27  40  56  88 130 170 208 254 319 388
#     4  10  21  36  63  98 115 157 206 262 307 364
#     4  10  18  32  62  97 129 145 202 267 327 368
#     4  12  26  42  58  90 136 178 211 250 334 396
#     4  11  21  41  68  99 120 165 216 273 313 374
#     4  10  19  40  64  90 124 157 203 262 317 363
#
# _framework density 20.382178
#
# number of rings (size 3 to 8) (size 9 to 14) (size 15 to 20)
#    0.000    1.667    5.000    2.000    7.000    0.667 
#    3.000    5.000    0.000    1.000    0.000    0.000 
#    0.000    0.000    0.000    0.000    0.000    0.000 
#
# Total GULP energy -594632.976095 kJ/mol
# GULP energy per Si atom -12388.187002 kJ/mol
# Density = 2.033579 g / cm^3
# Si number density = 20.382178 Si / 1000 Ang^3
#
#
#
# Elastic Constant Matrix: (Units=GPa)
#
#
# Indices 1 2 3 4 5 6 
#
# 1 164.2667 42.4056 61.4838 0.0000 0.0000 0.0000
# 2 42.4056 53.6416 27.6958 0.0000 0.0000 0.0000
# 3 61.4838 27.6958 125.8285 0.0000 0.0000 0.0000
# 4 0.0000 0.0000 0.0000 11.4844 0.0000 0.0000
# 5 0.0000 0.0000 0.0000 0.0000 46.9476 0.0000
# 6 0.0000 0.0000 0.0000 0.0000 0.0000 -3.2859
#
#
#
# Elastic Compliance Matrix: (Units=1/GPa)
#
#
# Indices 1 2 3 4 5 6 
#
# 1 0.008570 -0.005204 -0.003042 0.000000 0.000000 0.000000
# 2 -0.005204 0.024193 -0.002782 0.000000 0.000000 0.000000
# 3 -0.003042 -0.002782 0.010046 0.000000 0.000000 0.000000
# 4 0.000000 0.000000 0.000000 0.087075 0.000000 0.000000
# 5 0.000000 0.000000 0.000000 0.000000 0.021300 0.000000
# 6 0.000000 0.000000 0.000000 0.000000 0.000000 -0.304335
#
#
# Mechanical properties :
#
#
# Convention : Reuss Voigt Hill
#
# Bulk Modulus (GPa) = 48.18773 67.43413 57.81093
# Shear Modulus (GPa) = -40.26484 25.17266 -7.54609
#
# Velocity S-wave (km/s) = -4.44947 3.51812 -1.92622
# Velocity P-wave (km/s) = 1.64428 7.04695 4.84540
#
# Compressibility (1/GPa) = 0.02075217
#
# Stress axis : x y z
#
# Youngs Moduli (GPa) = 116.69062 41.33489 99.54113
#
# Poissons Ratio (x) = 0.21511 0.30280
# Poissons Ratio (y) = 0.60726 0.27694
# Poissons Ratio (z) = 0.35497 0.11500
#
# Static dielectric constant tensor:
#      x y z
#    x 4.538410 0.000000 0.000000 
#    y 0.000000 3.224830 0.000000 
#    z 0.000000 0.000000 3.905590 
# 
# 
# High freq. dielectric constant tensor:
#      x y z
#    x 1.826410 0.000000 0.000000 
#    y 0.000000 1.716300 0.000000 
#    z 0.000000 0.000000 1.812850 
# 
# From -- ./inp_files/8769.got.cif
#   From: 2010.03.12/outbox.cif.g09.slc.cpg/sg53_5_cif.got.tgz:8769.got - 2010.04.16 14:36:59.
