data_PCOD8218940
_publ_section_title
;
Structure prediction by ZEFSAII (Michael W. Deem and Ramdas Pophale) SiO2 
 PCOD8218940
Probable space group: P M N A
;
_chemical_formula_sum "Si O2"
_cell_formula_units_Z 64
_cell_length_a 17.840084
_cell_length_b 9.579359
_cell_length_c 20.581177
_cell_angle_alpha 90.000000
_cell_angle_beta 90.000000
_cell_angle_gamma 90.000000
_cell_volume 3517.252540
_symmetry_space_group_name_H-M "P M N A"
_symmetry_group_IT_number 53
_symmetry_cell_setting 'orthorhombic'
loop_
_space_group_symop_operation_xyz
x,y,z
1/2-x,-y,1/2+z
x,-y,-z
1/2-x,y,1/2-z
-x,-y,-z
1/2+x,y,1/2-z
-x,y,z
1/2+x,-y,1/2+z
loop_
_atom_site_type_symbol
_atom_site_label
_atom_site_fract_x
_atom_site_fract_y
_atom_site_fract_z
Si Si1 0.161232 0.660606 0.255486
Si Si2 0.086765 0.159589 0.633922
Si Si3 0.416196 0.667543 0.376739
Si Si4 0.171762 0.161191 0.502709
Si Si5 0.413950 0.160753 0.126853
Si Si6 0.587995 0.365291 0.240059
Si Si7 0.417229 0.664072 0.618264
Si Si8 0.679594 0.666438 0.498586
O O1 0.250000 0.667034 0.250000
O O2 0.135515 0.755768 0.314877
O O3 0.125279 0.717600 0.188658
O O4 0.136376 0.503360 0.270232
O O5 0.114216 0.190337 0.561018
O O6 0.000000 0.203839 0.639214
O O7 0.098793 0.997241 0.649514
O O8 0.500000 0.731013 0.376966
O O9 0.419706 0.502106 0.380110
O O10 0.372458 0.720496 0.440035
O O11 0.132237 0.203676 0.436147
O O12 0.241593 0.261568 0.511871
O O13 0.197412 0.000000 0.500000
O O14 0.500000 0.187105 0.109380
O O15 0.386635 0.258126 0.185174
O O16 0.500000 0.404908 0.236914
O O17 0.605897 0.289410 0.308988
O O18 0.500000 0.720982 0.599581
O O19 0.357668 0.719213 0.565870
O O20 0.689956 0.500000 0.500000
#
# Coordination Sequence:
#
# PCOD8218940 Si02
#       8
#     8   8   8   8   8   8   8   8
#     4  11  21  33  51  79 112 139 166 207 260 309
#     4  10  20  37  58  76  98 135 179 215 251 303
#     4   9  17  31  51  74 101 135 173 209 248 297
#     4  10  21  36  52  74 105 135 163 208 268 316
#     4   9  19  36  57  77  98 132 177 216 252 304
#     4   9  18  34  54  77 106 137 170 210 256 305
#     4   8  15  29  50  75 101 133 171 208 247 295
#     4  10  19  32  53  78 101 130 171 214 250 295
#
# _framework density 18.196020999999998
#
# number of rings (size 3 to 8) (size 9 to 14) (size 15 to 20)
#    0.000    2.500    0.000    3.375    0.000    7.000 
#    0.000    4.375    0.000    6.000    0.000    0.000 
#    0.000    0.000    0.000    0.000    0.000    0.000 
#
# Total GULP energy -793580.708863 kJ/mol
# GULP energy per Si atom -12399.698576 kJ/mol
# Density = 1.815461 g / cm^3
# Si number density = 18.196021 Si / 1000 Ang^3
#
#
#
# Elastic Constant Matrix: (Units=GPa)
#
#
# Indices 1 2 3 4 5 6 
#
# 1 125.1537 48.4468 66.8723 0.0000 0.0000 0.0000
# 2 48.4468 49.7480 53.1887 0.0000 0.0000 0.0000
# 3 66.8723 53.1887 152.8588 0.0000 0.0000 0.0000
# 4 0.0000 0.0000 0.0000 26.5839 0.0000 0.0000
# 5 0.0000 0.0000 0.0000 0.0000 26.3682 0.0000
# 6 0.0000 0.0000 0.0000 0.0000 0.0000 16.5958
#
#
#
# Elastic Compliance Matrix: (Units=1/GPa)
#
#
# Indices 1 2 3 4 5 6 
#
# 1 0.013226 -0.010660 -0.002077 0.000000 0.000000 0.000000
# 2 -0.010660 0.040601 -0.009464 0.000000 0.000000 0.000000
# 3 -0.002077 -0.009464 0.010744 0.000000 0.000000 0.000000
# 4 0.000000 0.000000 0.000000 0.037617 0.000000 0.000000
# 5 0.000000 0.000000 0.000000 0.000000 0.037925 0.000000
# 6 0.000000 0.000000 0.000000 0.000000 0.000000 0.060256
#
#
# Mechanical properties :
#
#
# Convention : Reuss Voigt Hill
#
# Bulk Modulus (GPa) = 49.58042 73.86400 61.72221
# Shear Modulus (GPa) = 19.88128 24.52643 22.20385
#
# Velocity S-wave (km/s) = 3.30906 3.67536 3.49701
# Velocity P-wave (km/s) = 6.47356 7.66111 7.09223
#
# Compressibility (1/GPa) = 0.02016925
#
# Stress axis : x y z
#
# Youngs Moduli (GPa) = 75.60671 24.63012 93.07711
#
# Poissons Ratio (x) = 0.26255 0.19333
# Poissons Ratio (y) = 0.80594 0.88089
# Poissons Ratio (z) = 0.15704 0.23310
#
# Static dielectric constant tensor:
#      x y z
#    x 3.416440 0.000000 0.000000 
#    y 0.000000 3.049990 0.000000 
#    z 0.000000 0.000000 3.729870 
# 
# 
# High freq. dielectric constant tensor:
#      x y z
#    x 1.709680 0.000000 0.000000 
#    y 0.000000 1.668590 0.000000 
#    z 0.000000 0.000000 1.724840 
# 
# From -- ./inp_files/32814.got.cif
#   From: 2010.03.12/outbox.cif.g09.slc.cpg/sg53_17_cif.got.tgz:32814.got - 2010.04.16 14:36:59.
