data_PCOD8218822
_publ_section_title
;
Structure prediction by ZEFSAII (Michael W. Deem and Ramdas Pophale) SiO2 
 PCOD8218822
Probable space group: P M N A
;
_chemical_formula_sum "Si O2"
_cell_formula_units_Z 48
_cell_length_a 8.952038
_cell_length_b 13.848636
_cell_length_c 20.984775
_cell_angle_alpha 90.000000
_cell_angle_beta 90.000000
_cell_angle_gamma 90.000000
_cell_volume 2601.556333
_symmetry_space_group_name_H-M "P M N A"
_symmetry_group_IT_number 53
_symmetry_cell_setting 'orthorhombic'
loop_
_space_group_symop_operation_xyz
x,y,z
1/2-x,-y,1/2+z
x,-y,-z
1/2-x,y,1/2-z
-x,-y,-z
1/2+x,y,1/2-z
-x,y,z
1/2+x,-y,1/2+z
loop_
_atom_site_type_symbol
_atom_site_label
_atom_site_fract_x
_atom_site_fract_y
_atom_site_fract_z
Si Si1 0.175899 0.303564 0.686957
Si Si2 0.667263 0.959589 0.571572
Si Si3 0.322272 0.582311 0.551654
Si Si4 0.835236 0.137778 0.600268
Si Si5 0.166841 0.219445 0.462239
Si Si6 0.321520 0.477703 0.183107
O O1 0.250000 0.262409 0.750000
O O2 0.235416 0.233219 0.631923
O O3 0.229204 0.411918 0.672984
O O4 0.000000 0.302595 0.694189
O O5 0.500000 0.941001 0.594737
O O6 0.752938 0.858045 0.583968
O O7 0.670798 0.000000 0.500000
O O8 0.738868 0.042833 0.615631
O O9 0.273382 0.500000 0.500000
O O10 0.500000 0.582329 0.559653
O O11 0.265207 0.685139 0.525883
O O12 0.246194 0.573913 0.621122
O O13 0.846276 0.159444 0.526388
O O14 0.000000 0.118063 0.628314
O O15 0.000000 0.246487 0.437330
O O16 0.250000 0.439132 0.250000
O O17 0.500000 0.463023 0.185517
#
# Coordination Sequence:
#
# PCOD8218822 Si02
#       6
#     8   8   8   8   8   8
#     4   9  18  31  48  71  98 128 164 205 246 294
#     4   9  17  29  46  70  98 127 159 196 243 300
#     4  11  23  36  52  78 110 140 174 220 268 311
#     4   9  17  30  48  71  99 130 164 201 245 299
#     4  10  19  32  51  73  99 132 168 207 253 304
#     4  10  20  36  56  77 104 140 180 217 259 313
#
# _framework density 18.450495
#
# number of rings (size 3 to 8) (size 9 to 14) (size 15 to 20)
#    0.000    2.333    0.000    3.000    0.000    6.667 
#    0.000    0.000    0.000    1.000    0.000    4.667 
#    0.000    0.000    0.000    0.000    0.000    0.000 
#
# Total GULP energy -594845.667052 kJ/mol
# GULP energy per Si atom -12392.618064 kJ/mol
# Density = 1.840850 g / cm^3
# Si number density = 18.450495 Si / 1000 Ang^3
#
#
#
# Elastic Constant Matrix: (Units=GPa)
#
#
# Indices 1 2 3 4 5 6 
#
# 1 89.1681 38.1108 23.7779 0.0000 0.0000 0.0000
# 2 38.1108 91.4955 9.0756 0.0000 0.0000 0.0000
# 3 23.7779 9.0756 47.1894 0.0000 0.0000 0.0000
# 4 0.0000 0.0000 0.0000 25.8442 0.0000 0.0000
# 5 0.0000 0.0000 0.0000 0.0000 25.2807 0.0000
# 6 0.0000 0.0000 0.0000 0.0000 0.0000 31.2363
#
#
#
# Elastic Compliance Matrix: (Units=1/GPa)
#
#
# Indices 1 2 3 4 5 6 
#
# 1 0.015467 -0.005780 -0.006682 0.000000 0.000000 0.000000
# 2 -0.005780 0.013302 0.000354 0.000000 0.000000 0.000000
# 3 -0.006682 0.000354 0.024490 0.000000 0.000000 0.000000
# 4 0.000000 0.000000 0.000000 0.038693 0.000000 0.000000
# 5 0.000000 0.000000 0.000000 0.000000 0.039556 0.000000
# 6 0.000000 0.000000 0.000000 0.000000 0.000000 0.032014
#
#
# Mechanical properties :
#
#
# Convention : Reuss Voigt Hill
#
# Bulk Modulus (GPa) = 34.43103 41.08685 37.75894
# Shear Modulus (GPa) = 25.32697 26.93151 26.12924
#
# Velocity S-wave (km/s) = 3.70901 3.82470 3.76730
# Velocity P-wave (km/s) = 6.08639 6.46695 6.27956
#
# Compressibility (1/GPa) = 0.02904357
#
# Stress axis : x y z
#
# Youngs Moduli (GPa) = 64.65449 75.17786 40.83303
#
# Poissons Ratio (x) = 0.43450 0.27284
# Poissons Ratio (y) = 0.37368 -0.01446
# Poissons Ratio (z) = 0.43202 -0.02662
#
# Static dielectric constant tensor:
#      x y z
#    x 3.594460 0.000000 0.000000 
#    y 0.000000 3.493170 0.000000 
#    z 0.000000 0.000000 3.111720 
# 
# 
# High freq. dielectric constant tensor:
#      x y z
#    x 1.725320 0.000000 0.000000 
#    y 0.000000 1.717130 0.000000 
#    z 0.000000 0.000000 1.676890 
# 
# From -- ./inp_files/33884.got.cif
#   From: 2010.03.12/outbox.cif.g09.slc.cpg/sg53_17_cif.got.tgz:33884.got - 2010.04.16 14:36:59.
