data_PCOD8218152
_publ_section_title
;
Structure prediction by ZEFSAII (Michael W. Deem and Ramdas Pophale) SiO2 
 PCOD8218152
Probable space group: P M N A
;
_chemical_formula_sum "Si O2"
_cell_formula_units_Z 48
_cell_length_a 8.591064
_cell_length_b 30.928505
_cell_length_c 9.474490
_cell_angle_alpha 90.000000
_cell_angle_beta 90.000000
_cell_angle_gamma 90.000000
_cell_volume 2517.455045
_symmetry_space_group_name_H-M "P M N A"
_symmetry_group_IT_number 53
_symmetry_cell_setting 'orthorhombic'
loop_
_space_group_symop_operation_xyz
x,y,z
1/2-x,-y,1/2+z
x,-y,-z
1/2-x,y,1/2-z
-x,-y,-z
1/2+x,y,1/2-z
-x,y,z
1/2+x,-y,1/2+z
loop_
_atom_site_type_symbol
_atom_site_label
_atom_site_fract_x
_atom_site_fract_y
_atom_site_fract_z
Si Si1 0.316369 0.116886 0.093535
Si Si2 0.816912 0.707279 0.594937
Si Si3 0.818130 0.463148 0.901193
Si Si4 0.318094 0.041820 0.594313
Si Si5 0.316874 0.365999 0.595604
Si Si6 0.315601 0.794254 0.593382
O O1 0.250000 0.107414 0.250000
O O2 0.500000 0.118770 0.108247
O O3 0.253671 0.161929 0.026624
O O4 0.268200 0.080893 0.982136
O O5 0.750000 0.700620 0.750000
O O6 0.774151 0.665208 0.507873
O O7 0.743673 0.750126 0.518721
O O8 0.000000 0.713375 0.603804
O O9 0.750000 0.471311 0.750000
O O10 0.779949 0.414829 0.955990
O O11 0.000000 0.469952 0.889841
O O12 0.742964 0.500000 0.000000
O O13 0.250000 0.034253 0.750000
O O14 0.500000 0.052240 0.606017
O O15 0.285767 0.000000 0.500000
O O16 0.250000 0.358226 0.750000
O O17 0.500000 0.356024 0.593989
O O18 0.250000 0.791662 0.750000
O O19 0.500000 0.796672 0.590768
#
# Coordination Sequence:
#
# PCOD8218152 Si02
#       6
#     8   8   8   8   8   8
#     4  11  21  36  59  86 116 150 188 229 276 328
#     4  11  21  35  55  81 111 144 184 228 273 320
#     4   9  19  35  54  77 105 137 175 219 266 320
#     4  11  24  41  61  86 116 150 189 232 279 330
#     4  10  20  36  55  77 107 143 181 221 271 327
#     4  10  18  32  54  81 112 145 183 226 273 323
#
# _framework density 19.066873000000001
#
# number of rings (size 3 to 8) (size 9 to 14) (size 15 to 20)
#    0.000    1.667    0.000    8.000    0.000    4.333 
#    0.000    2.500    0.000    0.000    0.000    0.000 
#    0.000    0.000    0.000    0.000    0.000    0.000 
#
# Total GULP energy -595121.805424 kJ/mol
# GULP energy per Si atom -12398.370946 kJ/mol
# Density = 1.902348 g / cm^3
# Si number density = 19.066873 Si / 1000 Ang^3
#
#
#
# Elastic Constant Matrix: (Units=GPa)
#
#
# Indices 1 2 3 4 5 6 
#
# 1 150.0077 72.2790 53.2502 0.0000 0.0000 0.0000
# 2 72.2790 151.1873 59.6889 0.0000 0.0000 0.0000
# 3 53.2502 59.6889 69.6265 0.0000 0.0000 0.0000
# 4 0.0000 0.0000 0.0000 12.5756 0.0000 0.0000
# 5 0.0000 0.0000 0.0000 0.0000 30.2827 0.0000
# 6 0.0000 0.0000 0.0000 0.0000 0.0000 34.4686
#
#
#
# Elastic Compliance Matrix: (Units=1/GPa)
#
#
# Indices 1 2 3 4 5 6 
#
# 1 0.009785 -0.002605 -0.005250 0.000000 0.000000 0.000000
# 2 -0.002605 0.010692 -0.007173 0.000000 0.000000 0.000000
# 3 -0.005250 -0.007173 0.024527 0.000000 0.000000 0.000000
# 4 0.000000 0.000000 0.000000 0.079519 0.000000 0.000000
# 5 0.000000 0.000000 0.000000 0.000000 0.033022 0.000000
# 6 0.000000 0.000000 0.000000 0.000000 0.000000 0.029012
#
#
# Mechanical properties :
#
#
# Convention : Reuss Voigt Hill
#
# Bulk Modulus (GPa) = 66.90501 82.36197 74.63349
# Shear Modulus (GPa) = 22.56335 27.83894 25.20114
#
# Velocity S-wave (km/s) = 3.44376 3.82523 3.63950
# Velocity P-wave (km/s) = 7.13992 7.92464 7.54250
#
# Compressibility (1/GPa) = 0.01494656
#
# Stress axis : x y z
#
# Youngs Moduli (GPa) = 102.19226 93.52882 40.77080
#
# Poissons Ratio (x) = 0.24367 0.21406
# Poissons Ratio (y) = 0.26624 0.29246
# Poissons Ratio (z) = 0.53655 0.67091
#
# Static dielectric constant tensor:
#      x y z
#    x 3.637510 0.000000 0.000000 
#    y 0.000000 4.325590 0.000000 
#    z 0.000000 0.000000 3.344120 
# 
# 
# High freq. dielectric constant tensor:
#      x y z
#    x 1.759560 0.000000 0.000000 
#    y 0.000000 1.765650 0.000000 
#    z 0.000000 0.000000 1.713580 
# 
# From -- ./inp_files/6564.got.cif
#   From: 2010.03.12/outbox.cif.g09.slc.cpg/sg53_4_cif.got.tgz:6564.got - 2010.04.16 14:36:59.
