data_PCOD8218078
_publ_section_title
;
Structure prediction by ZEFSAII (Michael W. Deem and Ramdas Pophale) SiO2 
 PCOD8218078
Probable space group: P M N A
;
_chemical_formula_sum "Si O2"
_cell_formula_units_Z 56
_cell_length_a 9.190811
_cell_length_b 16.719941
_cell_length_c 20.962149
_cell_angle_alpha 90.000000
_cell_angle_beta 90.000000
_cell_angle_gamma 90.000000
_cell_volume 3221.249615
_symmetry_space_group_name_H-M "P M N A"
_symmetry_group_IT_number 53
_symmetry_cell_setting 'orthorhombic'
loop_
_space_group_symop_operation_xyz
x,y,z
1/2-x,-y,1/2+z
x,-y,-z
1/2-x,y,1/2-z
-x,-y,-z
1/2+x,y,1/2-z
-x,y,z
1/2+x,-y,1/2+z
loop_
_atom_site_type_symbol
_atom_site_label
_atom_site_fract_x
_atom_site_fract_y
_atom_site_fract_z
Si Si1 0.170108 0.142446 0.185957
Si Si2 0.168353 0.538445 0.432531
Si Si3 0.665496 0.697708 0.613964
Si Si4 0.831865 0.296373 0.512064
Si Si5 0.330311 0.540506 0.684539
Si Si6 0.828291 0.121328 0.527879
Si Si7 0.327933 0.030070 0.098883
O O1 0.250000 0.166811 0.250000
O O2 0.203807 0.213852 0.137247
O O3 0.238729 0.060075 0.159935
O O4 0.000000 0.130744 0.198532
O O5 0.217543 0.500000 0.500000
O O6 0.191341 0.634529 0.435751
O O7 0.266998 0.509402 0.374588
O O8 0.000000 0.516510 0.419142
O O9 0.500000 0.692173 0.590988
O O10 0.762561 0.674786 0.553876
O O11 0.694688 0.634400 0.670549
O O12 0.765051 0.211393 0.536754
O O13 0.000000 0.283516 0.496546
O O14 0.250000 0.517207 0.750000
O O15 0.500000 0.519467 0.691916
O O16 0.780548 0.086495 0.459803
O O17 0.000000 0.121732 0.531270
O O18 0.776030 0.060997 0.583851
O O19 0.500000 0.035404 0.112349
#
# Coordination Sequence:
#
# PCOD8218078 Si02
#       7
#     8   8   8   8   8   8   8
#     4  11  22  34  48  71 103 138 173 208 252 304
#     4  10  20  34  54  82 110 139 176 219 264 316
#     4  10  21  34  49  75 107 138 172 211 258 311
#     4  10  18  31  54  79 107 140 172 209 255 309
#     4  11  23  38  56  76 105 143 181 222 266 317
#     4   8  15  28  50  77 100 129 165 202 247 297
#     4   9  16  30  51  73  99 130 168 206 243 295
#
# _framework density 17.384557999999998
#
# number of rings (size 3 to 8) (size 9 to 14) (size 15 to 20)
#    0.000    2.143    2.857    2.143    0.000    2.000 
#    0.000    2.143    0.000    0.857    0.000    0.000 
#    0.000    0.000    0.000    0.000    0.000    0.000 
#
# Total GULP energy -694236.800316 kJ/mol
# GULP energy per Si atom -12397.085720 kJ/mol
# Density = 1.734499 g / cm^3
# Si number density = 17.384558 Si / 1000 Ang^3
#
#
#
# Elastic Constant Matrix: (Units=GPa)
#
#
# Indices 1 2 3 4 5 6 
#
# 1 76.8186 36.9922 53.5658 0.0000 0.0000 0.0000
# 2 36.9922 102.5096 37.9722 0.0000 0.0000 0.0000
# 3 53.5658 37.9722 85.3613 0.0000 0.0000 0.0000
# 4 0.0000 0.0000 0.0000 18.4336 0.0000 0.0000
# 5 0.0000 0.0000 0.0000 0.0000 28.9582 0.0000
# 6 0.0000 0.0000 0.0000 0.0000 0.0000 15.1066
#
#
#
# Elastic Compliance Matrix: (Units=1/GPa)
#
#
# Indices 1 2 3 4 5 6 
#
# 1 0.024283 -0.003734 -0.013577 0.000000 0.000000 0.000000
# 2 -0.003734 0.012254 -0.003108 0.000000 0.000000 0.000000
# 3 -0.013577 -0.003108 0.021617 0.000000 0.000000 0.000000
# 4 0.000000 0.000000 0.000000 0.054249 0.000000 0.000000
# 5 0.000000 0.000000 0.000000 0.000000 0.034533 0.000000
# 6 0.000000 0.000000 0.000000 0.000000 0.000000 0.066196
#
#
# Mechanical properties :
#
#
# Convention : Reuss Voigt Hill
#
# Bulk Modulus (GPa) = 57.74822 57.97218 57.86020
# Shear Modulus (GPa) = 19.24990 21.57698 20.41344
#
# Velocity S-wave (km/s) = 3.33122 3.52683 3.43042
# Velocity P-wave (km/s) = 6.93443 7.07135 7.00322
#
# Compressibility (1/GPa) = 0.01731655
#
# Stress axis : x y z
#
# Youngs Moduli (GPa) = 41.18105 81.60720 46.25883
#
# Poissons Ratio (x) = 0.30468 0.62807
# Poissons Ratio (y) = 0.15375 0.14378
# Poissons Ratio (z) = 0.55912 0.25365
#
# Static dielectric constant tensor:
#      x y z
#    x 3.085810 0.000000 0.000000 
#    y 0.000000 3.680000 0.000000 
#    z 0.000000 0.000000 3.021120 
# 
# 
# High freq. dielectric constant tensor:
#      x y z
#    x 1.659800 0.000000 0.000000 
#    y 0.000000 1.677700 0.000000 
#    z 0.000000 0.000000 1.646440 
# 
# From -- ./inp_files/31023.got.cif
#   From: 2010.03.12/outbox.cif.g09.slc.cpg/sg53_16_cif.got.tgz:31023.got - 2010.04.16 14:36:59.
