data_PCOD8218635
_publ_section_title
;
Structure prediction by ZEFSAII (Michael W. Deem and Ramdas Pophale) SiO2 
 PCOD8218635
Probable space group: P M N A
;
_chemical_formula_sum "Si O2"
_cell_formula_units_Z 64
_cell_length_a 9.358954
_cell_length_b 27.064164
_cell_length_c 14.774042
_cell_angle_alpha 90.000000
_cell_angle_beta 90.000000
_cell_angle_gamma 90.000000
_cell_volume 3742.150575
_symmetry_space_group_name_H-M "P M N A"
_symmetry_group_IT_number 53
_symmetry_cell_setting 'orthorhombic'
loop_
_space_group_symop_operation_xyz
x,y,z
1/2-x,-y,1/2+z
x,-y,-z
1/2-x,y,1/2-z
-x,-y,-z
1/2+x,y,1/2-z
-x,y,z
1/2+x,-y,1/2+z
loop_
_atom_site_type_symbol
_atom_site_label
_atom_site_fract_x
_atom_site_fract_y
_atom_site_fract_z
Si Si1 0.833671 0.967989 0.161900
Si Si2 0.334486 0.617679 0.031164
Si Si3 0.165798 0.198198 0.839070
Si Si4 0.667534 0.687745 0.341156
Si Si5 0.169114 0.114896 0.972459
Si Si6 0.666636 0.419166 0.162728
Si Si7 0.333417 0.918084 0.661687
Si Si8 0.164210 0.468461 0.664727
O O1 0.750000 0.950404 0.250000
O O2 0.777362 0.933877 0.080176
O O3 0.000000 0.959176 0.180549
O O4 0.801085 0.024799 0.138960
O O5 0.500000 0.633200 0.044006
O O6 0.231724 0.658497 0.074115
O O7 0.305594 0.564618 0.076953
O O8 0.294692 0.613163 0.925365
O O9 0.250000 0.181877 0.750000
O O10 0.194772 0.254996 0.863337
O O11 0.221155 0.164913 0.922849
O O12 0.000000 0.188257 0.819445
O O13 0.750000 0.671848 0.250000
O O14 0.500000 0.675820 0.329029
O O15 0.000000 0.113073 0.977073
O O16 0.225201 0.113266 0.075884
O O17 0.750000 0.397996 0.250000
O O18 0.500000 0.415843 0.184293
O O19 0.713137 0.475699 0.143055
O O20 0.250000 0.899687 0.750000
O O21 0.500000 0.909399 0.679999
O O22 0.250000 0.446537 0.750000
O O23 0.000000 0.466833 0.692901
#
# Coordination Sequence:
#
# PCOD8218635 Si02
#       8
#     8   8   8   8   8   8   8   8
#     4   9  16  26  42  65  91 118 147 179 217 262
#     4  10  19  31  49  70  93 123 156 188 225 269
#     4   9  18  32  49  69  92 118 146 180 223 268
#     4  10  20  33  49  70  95 120 148 184 227 273
#     4   9  16  28  47  66  86 117 153 182 216 266
#     4   9  18  32  48  67  93 124 156 190 226 264
#     4   9  17  29  44  63  89 119 150 184 219 258
#     4   9  17  29  45  67  95 124 152 183 221 266
#
# _framework density 17.102464999999999
#
# number of rings (size 3 to 8) (size 9 to 14) (size 15 to 20)
#    0.000    2.750    0.000    1.875    0.000    5.500 
#    0.000    1.250    0.000    7.500    0.000    3.500 
#    0.000    0.000    0.000    0.000    0.000    0.000 
#
# Total GULP energy -793526.140941 kJ/mol
# GULP energy per Si atom -12398.845952 kJ/mol
# Density = 1.706354 g / cm^3
# Si number density = 17.102465 Si / 1000 Ang^3
#
#
#
# Elastic Constant Matrix: (Units=GPa)
#
#
# Indices 1 2 3 4 5 6 
#
# 1 55.8733 35.4838 59.0025 0.0000 0.0000 0.0000
# 2 35.4838 67.3420 63.2461 0.0000 0.0000 0.0000
# 3 59.0025 63.2461 160.9322 0.0000 0.0000 0.0000
# 4 0.0000 0.0000 0.0000 26.7929 0.0000 0.0000
# 5 0.0000 0.0000 0.0000 0.0000 30.3234 0.0000
# 6 0.0000 0.0000 0.0000 0.0000 0.0000 63.2637
#
#
#
# Elastic Compliance Matrix: (Units=1/GPa)
#
#
# Indices 1 2 3 4 5 6 
#
# 1 0.032592 -0.009432 -0.008242 0.000000 0.000000 0.000000
# 2 -0.009432 0.026267 -0.006865 0.000000 0.000000 0.000000
# 3 -0.008242 -0.006865 0.011933 0.000000 0.000000 0.000000
# 4 0.000000 0.000000 0.000000 0.037323 0.000000 0.000000
# 5 0.000000 0.000000 0.000000 0.000000 0.032978 0.000000
# 6 0.000000 0.000000 0.000000 0.000000 0.000000 0.015807
#
#
# Mechanical properties :
#
#
# Convention : Reuss Voigt Hill
#
# Bulk Modulus (GPa) = 46.05411 66.62356 56.33884
# Shear Modulus (GPa) = 23.45042 32.50368 27.97705
#
# Velocity S-wave (km/s) = 3.70695 4.36423 4.04895
# Velocity P-wave (km/s) = 6.73118 8.02717 7.40757
#
# Compressibility (1/GPa) = 0.02171359
#
# Stress axis : x y z
#
# Youngs Moduli (GPa) = 30.68277 38.07097 83.79834
#
# Poissons Ratio (x) = 0.35910 0.69068
# Poissons Ratio (y) = 0.28941 0.57525
# Poissons Ratio (z) = 0.25289 0.26134
#
# Static dielectric constant tensor:
#      x y z
#    x 3.101260 0.000000 0.000000 
#    y 0.000000 3.119100 0.000000 
#    z 0.000000 0.000000 3.362540 
# 
# 
# High freq. dielectric constant tensor:
#      x y z
#    x 1.645580 0.000000 0.000000 
#    y 0.000000 1.640910 0.000000 
#    z 0.000000 0.000000 1.660230 
# 
# From -- ./inp_files/20942.got.cif
#   From: 2010.03.12/outbox.cif.g09.slc.cpg/sg53_11_cif.got.tgz:20942.got - 2010.04.16 14:36:59.
