data_PCOD8218291
_publ_section_title
;
Structure prediction by ZEFSAII (Michael W. Deem and Ramdas Pophale) SiO2 
 PCOD8218291
Probable space group: P M N A
;
_chemical_formula_sum "Si O2"
_cell_formula_units_Z 56
_cell_length_a 17.741868
_cell_length_b 14.174493
_cell_length_c 11.585879
_cell_angle_alpha 90.000000
_cell_angle_beta 90.000000
_cell_angle_gamma 90.000000
_cell_volume 2913.639835
_symmetry_space_group_name_H-M "P M N A"
_symmetry_group_IT_number 53
_symmetry_cell_setting 'orthorhombic'
loop_
_space_group_symop_operation_xyz
x,y,z
1/2-x,-y,1/2+z
x,-y,-z
1/2-x,y,1/2-z
-x,-y,-z
1/2+x,y,1/2-z
-x,y,z
1/2+x,-y,1/2+z
loop_
_atom_site_type_symbol
_atom_site_label
_atom_site_fract_x
_atom_site_fract_y
_atom_site_fract_z
Si Si1 0.337336 0.551449 0.235548
Si Si2 0.682678 0.282840 0.923845
Si Si3 0.912380 0.230864 0.140295
Si Si4 0.855418 0.701852 0.095482
Si Si5 0.670308 0.654866 0.814474
Si Si6 0.913005 0.845405 0.273420
Si Si7 0.410487 0.019987 0.372883
O O1 0.250000 0.533669 0.250000
O O2 0.356253 0.627793 0.137634
O O3 0.369622 0.594341 0.357048
O O4 0.367508 0.449460 0.195477
O O5 0.768360 0.271026 0.880977
O O6 0.636673 0.189256 0.883433
O O7 0.680170 0.304804 0.058183
O O8 0.893260 0.279882 0.259498
O O9 0.881733 0.124745 0.155198
O O10 0.000000 0.230213 0.113536
O O11 0.872745 0.290868 0.039139
O O12 0.907534 0.773688 0.166002
O O13 0.750000 0.663555 0.750000
O O14 0.000000 0.852279 0.313110
O O15 0.882103 0.946248 0.225104
O O16 0.500000 0.011740 0.376364
O O17 0.376998 0.000000 0.500000
#
# Coordination Sequence:
#
# PCOD8218291 Si02
#       7
#     8   8   8   8   8   8   8
#     4   8  18  33  57  83 106 148 195 232 279 349
#     4  10  20  36  58  83 115 152 194 237 283 342
#     4  11  22  36  58  85 115 148 189 239 294 345
#     4  10  18  35  58  86 113 142 188 246 290 338
#     4  11  21  37  55  78 116 156 195 233 282 342
#     4  10  19  34  60  87 112 146 192 238 283 339
#     4   9  17  33  58  84 108 143 186 227 280 350
#
# _framework density 19.219944000000002
#
# number of rings (size 3 to 8) (size 9 to 14) (size 15 to 20)
#    0.000    2.143    2.857    2.143    0.000    1.143 
#    0.000    6.429    3.143    6.857    0.000    0.000 
#    0.000    0.000    0.000    0.000    0.000    0.000 
#
# Total GULP energy -693979.471538 kJ/mol
# GULP energy per Si atom -12392.490563 kJ/mol
# Density = 1.917620 g / cm^3
# Si number density = 19.219944 Si / 1000 Ang^3
#
#
#
# Elastic Constant Matrix: (Units=GPa)
#
#
# Indices 1 2 3 4 5 6 
#
# 1 46.6947 26.8370 23.0045 0.0000 0.0000 0.0000
# 2 26.8370 125.4941 66.1142 0.0000 0.0000 0.0000
# 3 23.0045 66.1142 116.8526 0.0000 0.0000 0.0000
# 4 0.0000 0.0000 0.0000 25.0507 0.0000 0.0000
# 5 0.0000 0.0000 0.0000 0.0000 29.9622 0.0000
# 6 0.0000 0.0000 0.0000 0.0000 0.0000 23.7130
#
#
#
# Elastic Compliance Matrix: (Units=1/GPa)
#
#
# Indices 1 2 3 4 5 6 
#
# 1 0.025002 -0.003923 -0.002702 0.000000 0.000000 0.000000
# 2 -0.003923 0.011968 -0.005999 0.000000 0.000000 0.000000
# 3 -0.002702 -0.005999 0.012484 0.000000 0.000000 0.000000
# 4 0.000000 0.000000 0.000000 0.039919 0.000000 0.000000
# 5 0.000000 0.000000 0.000000 0.000000 0.033375 0.000000
# 6 0.000000 0.000000 0.000000 0.000000 0.000000 0.042171
#
#
# Mechanical properties :
#
#
# Convention : Reuss Voigt Hill
#
# Bulk Modulus (GPa) = 41.31413 57.88364 49.59888
# Shear Modulus (GPa) = 25.22245 27.28423 26.25334
#
# Velocity S-wave (km/s) = 3.62651 3.77182 3.69988
# Velocity P-wave (km/s) = 6.25120 7.01075 6.64184
#
# Compressibility (1/GPa) = 0.02420480
#
# Stress axis : x y z
#
# Youngs Moduli (GPa) = 39.99728 83.55689 80.10238
#
# Poissons Ratio (x) = 0.32778 0.21648
# Poissons Ratio (y) = 0.15690 0.48054
# Poissons Ratio (z) = 0.10809 0.50126
#
# Static dielectric constant tensor:
#      x y z
#    x 3.212580 0.000000 0.000000 
#    y 0.000000 3.821300 0.000000 
#    z 0.000000 0.000000 3.481670 
# 
# 
# High freq. dielectric constant tensor:
#      x y z
#    x 1.716190 0.000000 0.000000 
#    y 0.000000 1.751340 0.000000 
#    z 0.000000 0.000000 1.743100 
# 
# From -- ./inp_files/16067.got.cif
#   From: 2010.03.12/outbox.cif.g09.slc.cpg/sg53_9_cif.got.tgz:16067.got - 2010.04.16 14:36:59.
