data_PCOD8218223
_publ_section_title
;
Structure prediction by ZEFSAII (Michael W. Deem and Ramdas Pophale) SiO2 
 PCOD8218223
Probable space group: P M N A
;
_chemical_formula_sum "Si O2"
_cell_formula_units_Z 64
_cell_length_a 9.050295
_cell_length_b 20.597006
_cell_length_c 20.314394
_cell_angle_alpha 90.000000
_cell_angle_beta 90.000000
_cell_angle_gamma 90.000000
_cell_volume 3786.785473
_symmetry_space_group_name_H-M "P M N A"
_symmetry_group_IT_number 53
_symmetry_cell_setting 'orthorhombic'
loop_
_space_group_symop_operation_xyz
x,y,z
1/2-x,-y,1/2+z
x,-y,-z
1/2-x,y,1/2-z
-x,-y,-z
1/2+x,y,1/2-z
-x,y,z
1/2+x,-y,1/2+z
loop_
_atom_site_type_symbol
_atom_site_label
_atom_site_fract_x
_atom_site_fract_y
_atom_site_fract_z
Si Si1 0.672041 0.585241 0.686831
Si Si2 0.161352 0.291009 0.335560
Si Si3 0.171565 0.042701 0.564226
Si Si4 0.174940 0.979000 0.814340
Si Si5 0.174798 0.437478 0.039656
Si Si6 0.325490 0.826809 0.999195
Si Si7 0.327288 0.148200 0.146419
Si Si8 0.836611 0.311790 0.489337
O O1 0.750000 0.550289 0.750000
O O2 0.500000 0.573173 0.693377
O O3 0.710456 0.661963 0.691267
O O4 0.730746 0.558574 0.615956
O O5 0.196783 0.216821 0.316132
O O6 0.152378 0.293730 0.413522
O O7 0.000000 0.312703 0.307403
O O8 0.216360 0.117823 0.551635
O O9 0.000000 0.036113 0.584330
O O10 0.203732 0.000000 0.500000
O O11 0.275098 0.018914 0.622267
O O12 0.250000 0.011329 0.750000
O O13 0.229451 0.904807 0.816911
O O14 0.000000 0.981477 0.807828
O O15 0.233684 0.374440 0.000729
O O16 0.000000 0.432876 0.039148
O O17 0.232692 0.500000 0.000000
O O18 0.500000 0.820269 0.991088
O O19 0.264002 0.847922 0.928002
O O20 0.269307 0.754565 0.022433
O O21 0.500000 0.127521 0.147327
O O22 0.000000 0.328532 0.517340
#
# Coordination Sequence:
#
# PCOD8218223 Si02
#       8
#     8   8   8   8   8   8   8   8
#     4  10  19  30  45  64  91 124 159 194 230 274
#     4   8  15  27  45  65  90 122 158 195 225 267
#     4  10  18  33  57  76  95 126 161 197 247 302
#     4  12  25  37  48  66  95 127 164 208 252 297
#     4   9  18  32  48  68  96 129 160 193 237 282
#     4   8  14  27  50  75  97 123 154 193 239 288
#     4   9  16  31  50  68  91 125 163 195 236 284
#     4   8  14  26  45  71  98 122 154 191 228 274
#
# _framework density 16.900879
#
# number of rings (size 3 to 8) (size 9 to 14) (size 15 to 20)
#    0.000    2.750    1.250    3.000    0.000    2.000 
#    0.000    2.500    0.000    0.000    0.000    0.875 
#    0.000    4.000    0.000    0.000    0.000    0.000 
#
# Total GULP energy -793044.155885 kJ/mol
# GULP energy per Si atom -12391.314936 kJ/mol
# Density = 1.686241 g / cm^3
# Si number density = 16.900879 Si / 1000 Ang^3
#
#
#
# Elastic Constant Matrix: (Units=GPa)
#
#
# Indices 1 2 3 4 5 6 
#
# 1 66.6089 32.5683 37.0233 0.0000 0.0000 0.0000
# 2 32.5683 110.4706 44.4733 0.0000 0.0000 0.0000
# 3 37.0233 44.4733 75.0207 0.0000 0.0000 0.0000
# 4 0.0000 0.0000 0.0000 13.5466 0.0000 0.0000
# 5 0.0000 0.0000 0.0000 0.0000 19.4700 0.0000
# 6 0.0000 0.0000 0.0000 0.0000 0.0000 20.8495
#
#
#
# Elastic Compliance Matrix: (Units=1/GPa)
#
#
# Indices 1 2 3 4 5 6 
#
# 1 0.021278 -0.002687 -0.008908 0.000000 0.000000 0.000000
# 2 -0.002687 0.012229 -0.005924 0.000000 0.000000 0.000000
# 3 -0.008908 -0.005924 0.021237 0.000000 0.000000 0.000000
# 4 0.000000 0.000000 0.000000 0.073819 0.000000 0.000000
# 5 0.000000 0.000000 0.000000 0.000000 0.051361 0.000000
# 6 0.000000 0.000000 0.000000 0.000000 0.000000 0.047963
#
#
# Mechanical properties :
#
#
# Convention : Reuss Voigt Hill
#
# Bulk Modulus (GPa) = 50.74199 53.35889 52.05044
# Shear Modulus (GPa) = 18.55327 19.97556 19.26442
#
# Velocity S-wave (km/s) = 3.31686 3.44164 3.37982
# Velocity P-wave (km/s) = 6.69008 6.88719 6.78935
#
# Compressibility (1/GPa) = 0.01970755
#
# Stress axis : x y z
#
# Youngs Moduli (GPa) = 46.99656 81.77275 47.08661
#
# Poissons Ratio (x) = 0.21971 0.41945
# Poissons Ratio (y) = 0.12627 0.27892
# Poissons Ratio (z) = 0.41865 0.48438
#
# Static dielectric constant tensor:
#      x y z
#    x 2.984090 0.000000 0.000000 
#    y 0.000000 3.340930 0.000000 
#    z 0.000000 0.000000 3.145570 
# 
# 
# High freq. dielectric constant tensor:
#      x y z
#    x 1.636160 0.000000 0.000000 
#    y 0.000000 1.637740 0.000000 
#    z 0.000000 0.000000 1.626690 
# 
# From -- ./inp_files/31399.got.cif
#   From: 2010.03.12/outbox.cif.g09.slc.cpg/sg53_16_cif.got.tgz:31399.got - 2010.04.16 14:36:59.
