data_PCOD8218450
_publ_section_title
;
Structure prediction by ZEFSAII (Michael W. Deem and Ramdas Pophale) SiO2 
 PCOD8218450
Probable space group: P M N A
;
_chemical_formula_sum "Si O2"
_cell_formula_units_Z 64
_cell_length_a 9.065509
_cell_length_b 12.254700
_cell_length_c 31.780452
_cell_angle_alpha 90.000000
_cell_angle_beta 90.000000
_cell_angle_gamma 90.000000
_cell_volume 3530.652275
_symmetry_space_group_name_H-M "P M N A"
_symmetry_group_IT_number 53
_symmetry_cell_setting 'orthorhombic'
loop_
_space_group_symop_operation_xyz
x,y,z
1/2-x,-y,1/2+z
x,-y,-z
1/2-x,y,1/2-z
-x,-y,-z
1/2+x,y,1/2-z
-x,y,z
1/2+x,-y,1/2+z
loop_
_atom_site_type_symbol
_atom_site_label
_atom_site_fract_x
_atom_site_fract_y
_atom_site_fract_z
Si Si1 0.172372 0.073786 0.878007
Si Si2 0.670667 0.687037 0.399743
Si Si3 0.825501 0.130087 0.351239
Si Si4 0.173185 0.302596 0.206251
Si Si5 0.326372 0.708231 0.924565
Si Si6 0.161062 0.707272 0.480856
Si Si7 0.337728 0.951925 0.042537
Si Si8 0.168613 0.542333 0.868261
O O1 0.228105 0.200533 0.877424
O O2 0.212456 0.024075 0.923483
O O3 0.000000 0.062547 0.868108
O O4 0.264241 0.994323 0.846958
O O5 0.500000 0.706520 0.409104
O O6 0.738630 0.651388 0.445021
O O7 0.701215 0.587557 0.367637
O O8 0.747882 0.196712 0.314097
O O9 0.782253 0.186081 0.396295
O O10 0.000000 0.130191 0.343756
O O11 0.250000 0.329280 0.250000
O O12 0.203379 0.409068 0.177568
O O13 0.000000 0.280312 0.212330
O O14 0.500000 0.700123 0.926885
O O15 0.267197 0.598477 0.903644
O O16 0.264402 0.713291 0.972599
O O17 0.135654 0.825940 0.462964
O O18 0.000000 0.648653 0.483109
O O19 0.500000 0.004882 0.054241
O O20 0.273265 0.000000 0.000000
O O21 0.000000 0.565389 0.880763
#
# Coordination Sequence:
#
# PCOD8218450 Si02
#       8
#     8   8   8   8   8   8   8   8
#     4  10  19  30  46  69  97 130 168 207 247 291
#     4   9  19  34  48  66  96 136 177 212 248 290
#     4  10  19  33  53  76 103 133 164 200 246 300
#     4  10  20  36  59  85 107 126 152 191 242 298
#     4   9  18  31  47  69  97 129 167 213 261 301
#     4   9  17  28  42  63  92 128 171 216 257 294
#     4   9  16  27  42  59  85 125 170 213 255 296
#     4   9  19  35  53  72  97 130 166 203 246 297
#
# _framework density 18.126961999999999
#
# number of rings (size 3 to 8) (size 9 to 14) (size 15 to 20)
#    0.000    2.625    0.000    1.875    0.000    5.250 
#    0.000    5.000    0.000    0.750    0.000    1.750 
#    0.000    0.000    0.000    0.000    0.000    0.000 
#
# Total GULP energy -792962.930268 kJ/mol
# GULP energy per Si atom -12390.045785 kJ/mol
# Density = 1.808570 g / cm^3
# Si number density = 18.126962 Si / 1000 Ang^3
#
#
#
# Elastic Constant Matrix: (Units=GPa)
#
#
# Indices 1 2 3 4 5 6 
#
# 1 53.8625 37.6371 35.7440 0.0000 0.0000 0.0000
# 2 37.6371 103.6112 42.9857 0.0000 0.0000 0.0000
# 3 35.7440 42.9857 92.7990 0.0000 0.0000 0.0000
# 4 0.0000 0.0000 0.0000 14.8633 0.0000 0.0000
# 5 0.0000 0.0000 0.0000 0.0000 28.3550 0.0000
# 6 0.0000 0.0000 0.0000 0.0000 0.0000 23.6511
#
#
#
# Elastic Compliance Matrix: (Units=1/GPa)
#
#
# Indices 1 2 3 4 5 6 
#
# 1 0.028747 -0.007240 -0.007719 0.000000 0.000000 0.000000
# 2 -0.007240 0.013771 -0.003590 0.000000 0.000000 0.000000
# 3 -0.007719 -0.003590 0.015412 0.000000 0.000000 0.000000
# 4 0.000000 0.000000 0.000000 0.067280 0.000000 0.000000
# 5 0.000000 0.000000 0.000000 0.000000 0.035267 0.000000
# 6 0.000000 0.000000 0.000000 0.000000 0.000000 0.042281
#
#
# Mechanical properties :
#
#
# Convention : Reuss Voigt Hill
#
# Bulk Modulus (GPa) = 48.00356 53.66738 50.83547
# Shear Modulus (GPa) = 20.25918 22.30093 21.28006
#
# Velocity S-wave (km/s) = 3.34672 3.51132 3.43001
# Velocity P-wave (km/s) = 6.43998 6.79042 6.61752
#
# Compressibility (1/GPa) = 0.02083179
#
# Stress axis : x y z
#
# Youngs Moduli (GPa) = 34.78565 72.61672 64.88357
#
# Poissons Ratio (x) = 0.52576 0.50085
# Poissons Ratio (y) = 0.25185 0.23294
# Poissons Ratio (z) = 0.26852 0.26070
#
# Static dielectric constant tensor:
#      x y z
#    x 3.515080 0.000000 0.000000 
#    y 0.000000 3.325660 0.000000 
#    z 0.000000 0.000000 2.772070 
# 
# 
# High freq. dielectric constant tensor:
#      x y z
#    x 1.699590 0.000000 0.000000 
#    y 0.000000 1.701140 0.000000 
#    z 0.000000 0.000000 1.671260 
# 
# From -- ./inp_files/38121.got.cif
#   From: 2010.03.12/outbox.cif.g09.slc.cpg/sg53_20_cif.got.tgz:38121.got - 2010.04.16 14:36:59.
