data_PCOD8218204
_publ_section_title
;
Structure prediction by ZEFSAII (Michael W. Deem and Ramdas Pophale) SiO2 
 PCOD8218204
Probable space group: P M N A
;
_chemical_formula_sum "Si O2"
_cell_formula_units_Z 64
_cell_length_a 8.946038
_cell_length_b 19.398507
_cell_length_c 19.793769
_cell_angle_alpha 90.000000
_cell_angle_beta 90.000000
_cell_angle_gamma 90.000000
_cell_volume 3435.006333
_symmetry_space_group_name_H-M "P M N A"
_symmetry_group_IT_number 53
_symmetry_cell_setting 'orthorhombic'
loop_
_space_group_symop_operation_xyz
x,y,z
1/2-x,-y,1/2+z
x,-y,-z
1/2-x,y,1/2-z
-x,-y,-z
1/2+x,y,1/2-z
-x,y,z
1/2+x,-y,1/2+z
loop_
_atom_site_type_symbol
_atom_site_label
_atom_site_fract_x
_atom_site_fract_y
_atom_site_fract_z
Si Si1 0.177539 0.697826 0.553465
Si Si2 0.676757 0.373773 0.320436
Si Si3 0.169254 0.100659 0.885099
Si Si4 0.823752 0.646789 0.077288
Si Si5 0.673951 0.531946 0.318993
Si Si6 0.329684 0.157279 0.464427
Si Si7 0.168167 0.972312 0.575784
Si Si8 0.175829 0.762460 0.181546
O O1 0.249224 0.672348 0.622600
O O2 0.235388 0.649085 0.492976
O O3 0.227306 0.776109 0.542527
O O4 0.000000 0.693578 0.557590
O O5 0.750000 0.351048 0.250000
O O6 0.500000 0.360971 0.317760
O O7 0.715613 0.453397 0.335902
O O8 0.228479 0.159560 0.834329
O O9 0.000000 0.079668 0.868336
O O10 0.268630 0.032369 0.875739
O O11 0.178704 0.132056 0.959344
O O12 0.774340 0.578234 0.117656
O O13 0.774902 0.712978 0.120776
O O14 0.000000 0.647332 0.061281
O O15 0.750000 0.557413 0.250000
O O16 0.500000 0.542278 0.306521
O O17 0.500000 0.174347 0.443496
O O18 0.266578 0.096682 0.416253
O O19 0.000000 0.955085 0.598005
O O20 0.175084 0.000000 0.500000
O O21 0.250000 0.736071 0.250000
O O22 0.000000 0.758354 0.190680
#
# Coordination Sequence:
#
# PCOD8218204 Si02
#       8
#     8   8   8   8   8   8   8   8
#     4  12  24  36  55  84 114 146 183 231 282 330
#     4  10  21  40  62  85 110 142 181 225 277 338
#     4   9  17  31  49  71 101 141 183 222 268 324
#     4  10  20  37  55  78 112 149 187 229 277 332
#     4   9  19  35  59  83 110 147 189 231 275 328
#     4  10  18  33  54  76 106 142 177 220 274 330
#     4   9  17  28  46  75 105 133 171 220 267 317
#     4  10  20  33  50  74 107 148 191 230 274 328
#
# _framework density 18.631698
#
# number of rings (size 3 to 8) (size 9 to 14) (size 15 to 20)
#    0.000    2.125    1.250    2.625    0.000    4.500 
#    0.000    2.500    0.000    0.750    0.000    3.500 
#    0.000    0.000    0.000    0.000    0.000    0.000 
#
# Total GULP energy -793655.808185 kJ/mol
# GULP energy per Si atom -12400.872003 kJ/mol
# Density = 1.858929 g / cm^3
# Si number density = 18.631698 Si / 1000 Ang^3
#
#
#
# Elastic Constant Matrix: (Units=GPa)
#
#
# Indices 1 2 3 4 5 6 
#
# 1 86.5244 23.7864 33.1695 0.0000 0.0000 0.0000
# 2 23.7864 49.7445 14.2368 0.0000 0.0000 0.0000
# 3 33.1695 14.2368 70.2769 0.0000 0.0000 0.0000
# 4 0.0000 0.0000 0.0000 50.7871 0.0000 0.0000
# 5 0.0000 0.0000 0.0000 0.0000 30.0862 0.0000
# 6 0.0000 0.0000 0.0000 0.0000 0.0000 25.3216
#
#
#
# Elastic Compliance Matrix: (Units=1/GPa)
#
#
# Indices 1 2 3 4 5 6 
#
# 1 0.015467 -0.005633 -0.006159 0.000000 0.000000 0.000000
# 2 -0.005633 0.023392 -0.002080 0.000000 0.000000 0.000000
# 3 -0.006159 -0.002080 0.017558 0.000000 0.000000 0.000000
# 4 0.000000 0.000000 0.000000 0.019690 0.000000 0.000000
# 5 0.000000 0.000000 0.000000 0.000000 0.033238 0.000000
# 6 0.000000 0.000000 0.000000 0.000000 0.000000 0.039492
#
#
# Mechanical properties :
#
#
# Convention : Reuss Voigt Hill
#
# Bulk Modulus (GPa) = 34.87706 38.77014 36.82360
# Shear Modulus (GPa) = 26.86176 30.26252 28.56214
#
# Velocity S-wave (km/s) = 3.80112 4.03457 3.91958
# Velocity P-wave (km/s) = 6.16641 6.52361 6.34752
#
# Compressibility (1/GPa) = 0.02867214
#
# Stress axis : x y z
#
# Youngs Moduli (GPa) = 64.65312 42.75028 56.95491
#
# Poissons Ratio (x) = 0.24082 0.35079
# Poissons Ratio (y) = 0.36421 0.11846
# Poissons Ratio (z) = 0.39820 0.08892
#
# Static dielectric constant tensor:
#      x y z
#    x 3.459800 0.000000 0.000000 
#    y 0.000000 3.618070 0.000000 
#    z 0.000000 0.000000 3.256410 
# 
# 
# High freq. dielectric constant tensor:
#      x y z
#    x 1.724490 0.000000 0.000000 
#    y 0.000000 1.729180 0.000000 
#    z 0.000000 0.000000 1.696820 
# 
# From -- ./inp_files/31149.got.cif
#   From: 2010.03.12/outbox.cif.g09.slc.cpg/sg53_16_cif.got.tgz:31149.got - 2010.04.16 14:36:59.
