data_PCOD8218305
_publ_section_title
;
Structure prediction by ZEFSAII (Michael W. Deem and Ramdas Pophale) SiO2 
 PCOD8218305
Probable space group: P M N A
;
_chemical_formula_sum "Si O2"
_cell_formula_units_Z 48
_cell_length_a 16.274576
_cell_length_b 9.657449
_cell_length_c 15.678462
_cell_angle_alpha 90.000000
_cell_angle_beta 90.000000
_cell_angle_gamma 90.000000
_cell_volume 2464.197791
_symmetry_space_group_name_H-M "P M N A"
_symmetry_group_IT_number 53
_symmetry_cell_setting 'orthorhombic'
loop_
_space_group_symop_operation_xyz
x,y,z
1/2-x,-y,1/2+z
x,-y,-z
1/2-x,y,1/2-z
-x,-y,-z
1/2+x,y,1/2-z
-x,y,z
1/2+x,-y,1/2+z
loop_
_atom_site_type_symbol
_atom_site_label
_atom_site_fract_x
_atom_site_fract_y
_atom_site_fract_z
Si Si1 0.592650 0.648829 0.541713
Si Si2 0.799870 0.978277 0.592464
Si Si3 0.709070 0.394548 0.841784
Si Si4 0.248475 0.310860 0.150163
Si Si5 0.405442 0.171095 0.792021
Si Si6 0.338823 0.814098 0.395771
O O1 0.610262 0.500000 0.500000
O O2 0.500000 0.654130 0.578302
O O3 0.654103 0.672158 0.620518
O O4 0.600880 0.773618 0.472835
O O5 0.793989 0.814424 0.604157
O O6 0.842024 0.000000 0.500000
O O7 0.853211 0.045643 0.667910
O O8 0.707250 0.039965 0.591500
O O9 0.750000 0.404260 0.750000
O O10 0.700130 0.550965 0.876300
O O11 0.621459 0.316987 0.834737
O O12 0.768898 0.304358 0.900564
O O13 0.250000 0.281360 0.250000
O O14 0.500000 0.144509 0.811412
O O15 0.389845 0.178492 0.691284
#
# Coordination Sequence:
#
# PCOD8218305 Si02
#       6
#     8   8   8   8   8   8
#     4  11  22  36  62  98 129 152 188 251 312 354
#     4  11  22  38  63  84 118 163 210 244 290 362
#     4   8  17  33  58  82 110 151 199 230 284 358
#     4  11  21  39  58  86 121 164 200 237 294 371
#     4  10  21  38  61  88 118 154 204 257 296 348
#     4  10  18  38  60  90 116 157 194 239 299 368
#
# _framework density 19.478956
#
# number of rings (size 3 to 8) (size 9 to 14) (size 15 to 20)
#    0.000    1.833    3.333    3.000    0.000    0.333 
#    0.000    5.833    0.000    1.000    0.000    0.000 
#    0.000    0.000    0.000    0.000    0.000    0.000 
#
# Total GULP energy -595109.755754 kJ/mol
# GULP energy per Si atom -12398.119912 kJ/mol
# Density = 1.943462 g / cm^3
# Si number density = 19.478956 Si / 1000 Ang^3
#
#
#
# Elastic Constant Matrix: (Units=GPa)
#
#
# Indices 1 2 3 4 5 6 
#
# 1 104.3746 33.4159 35.3534 0.0000 0.0000 0.0000
# 2 33.4159 120.2392 15.9089 0.0000 0.0000 0.0000
# 3 35.3534 15.9089 87.2857 0.0000 0.0000 0.0000
# 4 0.0000 0.0000 0.0000 27.8236 0.0000 0.0000
# 5 0.0000 0.0000 0.0000 0.0000 26.9810 0.0000
# 6 0.0000 0.0000 0.0000 0.0000 0.0000 14.7373
#
#
#
# Elastic Compliance Matrix: (Units=1/GPa)
#
#
# Indices 1 2 3 4 5 6 
#
# 1 0.011925 -0.002741 -0.004330 0.000000 0.000000 0.000000
# 2 -0.002741 0.009152 -0.000558 0.000000 0.000000 0.000000
# 3 -0.004330 -0.000558 0.013312 0.000000 0.000000 0.000000
# 4 0.000000 0.000000 0.000000 0.035941 0.000000 0.000000
# 5 0.000000 0.000000 0.000000 0.000000 0.037063 0.000000
# 6 0.000000 0.000000 0.000000 0.000000 0.000000 0.067855
#
#
# Mechanical properties :
#
#
# Convention : Reuss Voigt Hill
#
# Bulk Modulus (GPa) = 52.27164 53.47289 52.87226
# Shear Modulus (GPa) = 25.39554 29.05645 27.22600
#
# Velocity S-wave (km/s) = 3.61465 3.86642 3.74266
# Velocity P-wave (km/s) = 6.65689 6.88793 6.77339
#
# Compressibility (1/GPa) = 0.01913083
#
# Stress axis : x y z
#
# Youngs Moduli (GPa) = 83.85534 109.26119 75.11856
#
# Poissons Ratio (x) = 0.29951 0.32530
# Poissons Ratio (y) = 0.22987 0.04191
# Poissons Ratio (z) = 0.36314 0.06095
#
# Static dielectric constant tensor:
#      x y z
#    x 3.286830 0.000000 0.000000 
#    y 0.000000 3.886040 0.000000 
#    z 0.000000 0.000000 3.535260 
# 
# 
# High freq. dielectric constant tensor:
#      x y z
#    x 1.724390 0.000000 0.000000 
#    y 0.000000 1.769300 0.000000 
#    z 0.000000 0.000000 1.758300 
# 
# From -- ./inp_files/28257.got.cif
#   From: 2010.03.12/outbox.cif.g09.slc.cpg/sg53_15_cif.got.tgz:28257.got - 2010.04.16 14:36:59.
