data_PCOD8218249
_publ_section_title
;
Structure prediction by ZEFSAII (Michael W. Deem and Ramdas Pophale) SiO2 
 PCOD8218249
Probable space group: P M N A
;
_chemical_formula_sum "Si O2"
_cell_formula_units_Z 48
_cell_length_a 9.479410
_cell_length_b 29.128748
_cell_length_c 9.330068
_cell_angle_alpha 90.000000
_cell_angle_beta 90.000000
_cell_angle_gamma 90.000000
_cell_volume 2576.249586
_symmetry_space_group_name_H-M "P M N A"
_symmetry_group_IT_number 53
_symmetry_cell_setting 'orthorhombic'
loop_
_space_group_symop_operation_xyz
x,y,z
1/2-x,-y,1/2+z
x,-y,-z
1/2-x,y,1/2-z
-x,-y,-z
1/2+x,y,1/2-z
-x,y,z
1/2+x,-y,1/2+z
loop_
_atom_site_type_symbol
_atom_site_label
_atom_site_fract_x
_atom_site_fract_y
_atom_site_fract_z
Si Si1 0.660816 0.118570 0.388104
Si Si2 0.500000 0.450332 0.573012
Si Si3 0.755859 0.609765 0.419452
Si Si4 0.166780 0.774960 0.893896
Si Si5 0.500000 0.454203 0.912475
Si Si6 0.835531 0.041526 0.895591
Si Si7 0.671588 0.291417 0.900707
O O1 0.750000 0.104240 0.250000
O O2 0.500000 0.107484 0.347431
O O3 0.681195 0.171480 0.429323
O O4 0.707536 0.088794 0.525091
O O5 0.500000 0.500000 0.500000
O O6 0.621354 0.416330 0.520231
O O7 0.500000 0.461478 0.741696
O O8 0.750000 0.615325 0.250000
O O9 0.871735 0.574688 0.469281
O O10 0.788150 0.660635 0.481337
O O11 0.250000 0.762418 0.750000
O O12 0.000000 0.760604 0.886147
O O13 0.255307 0.749756 0.015612
O O14 0.500000 0.500000 0.000000
O O15 0.750000 0.037126 0.750000
O O16 0.000000 0.040572 0.856306
O O17 0.794586 0.000000 0.000000
O O18 0.750000 0.290802 0.750000
O O19 0.500000 0.286145 0.887144
#
# Coordination Sequence:
#
# PCOD8218249 Si02
#       7
#     8   4   8   8   4   8   8
#     4   9  19  36  57  82 111 148 191 231 280 338
#     4  10  20  34  52  78 104 136 174 216 267 324
#     4   9  19  33  54  76 102 137 177 218 266 325
#     4  10  21  38  59  83 116 152 186 232 287 342
#     4  10  18  34  54  74 102 134 172 216 265 320
#     4  10  21  36  55  82 116 151 192 239 285 336
#     4  11  22  37  59  85 110 144 191 235 281 337
#
# _framework density 18.631734000000002
#
# number of rings (size 3 to 8) (size 9 to 14) (size 15 to 20)
#    0.000    2.167    0.833    2.000    4.667    2.333 
#    0.000    3.333    0.000    0.000    0.000    0.000 
#    0.000    0.000    0.000    0.000    0.000    0.000 
#
# Total GULP energy -594730.329602 kJ/mol
# GULP energy per Si atom -12390.215200 kJ/mol
# Density = 1.858933 g / cm^3
# Si number density = 18.631734 Si / 1000 Ang^3
#
#
#
# Elastic Constant Matrix: (Units=GPa)
#
#
# Indices 1 2 3 4 5 6 
#
# 1 156.9060 67.1051 62.4634 0.0000 0.0000 0.0000
# 2 67.1051 112.6661 65.0107 0.0000 0.0000 0.0000
# 3 62.4634 65.0107 96.0833 0.0000 0.0000 0.0000
# 4 0.0000 0.0000 0.0000 33.1142 0.0000 0.0000
# 5 0.0000 0.0000 0.0000 0.0000 34.5635 0.0000
# 6 0.0000 0.0000 0.0000 0.0000 0.0000 34.1867
#
#
#
# Elastic Compliance Matrix: (Units=1/GPa)
#
#
# Indices 1 2 3 4 5 6 
#
# 1 0.009319 -0.003371 -0.003777 0.000000 0.000000 0.000000
# 2 -0.003371 0.015780 -0.008485 0.000000 0.000000 0.000000
# 3 -0.003777 -0.008485 0.018605 0.000000 0.000000 0.000000
# 4 0.000000 0.000000 0.000000 0.030199 0.000000 0.000000
# 5 0.000000 0.000000 0.000000 0.000000 0.028932 0.000000
# 6 0.000000 0.000000 0.000000 0.000000 0.000000 0.029251
#
#
# Mechanical properties :
#
#
# Convention : Reuss Voigt Hill
#
# Bulk Modulus (GPa) = 80.41177 83.86820 82.13998
# Shear Modulus (GPa) = 29.85136 31.77796 30.81466
#
# Velocity S-wave (km/s) = 4.00706 4.13435 4.07120
# Velocity P-wave (km/s) = 8.04120 8.24026 8.14134
#
# Compressibility (1/GPa) = 0.01243599
#
# Stress axis : x y z
#
# Youngs Moduli (GPa) = 107.31326 63.37303 53.75030
#
# Poissons Ratio (x) = 0.21360 0.20303
# Poissons Ratio (y) = 0.36171 0.45609
# Poissons Ratio (z) = 0.40536 0.53774
#
# Static dielectric constant tensor:
#      x y z
#    x 3.425790 0.000000 0.000000 
#    y 0.000000 3.728880 0.000000 
#    z 0.000000 0.000000 3.166030 
# 
# 
# High freq. dielectric constant tensor:
#      x y z
#    x 1.739850 0.000000 0.000000 
#    y 0.000000 1.741000 0.000000 
#    z 0.000000 0.000000 1.696330 
# 
# From -- ./inp_files/6816.got.cif
#   From: 2010.03.12/outbox.cif.g09.slc.cpg/sg53_4_cif.got.tgz:6816.got - 2010.04.16 14:36:59.
