data_PCOD8218834
_publ_section_title
;
Structure prediction by ZEFSAII (Michael W. Deem and Ramdas Pophale) SiO2 
 PCOD8218834
Probable space group: P M N A
;
_chemical_formula_sum "Si O2"
_cell_formula_units_Z 64
_cell_length_a 9.153660
_cell_length_b 14.093281
_cell_length_c 27.691324
_cell_angle_alpha 90.000000
_cell_angle_beta 90.000000
_cell_angle_gamma 90.000000
_cell_volume 3572.322093
_symmetry_space_group_name_H-M "P M N A"
_symmetry_group_IT_number 53
_symmetry_cell_setting 'orthorhombic'
loop_
_space_group_symop_operation_xyz
x,y,z
1/2-x,-y,1/2+z
x,-y,-z
1/2-x,y,1/2-z
-x,-y,-z
1/2+x,y,1/2-z
-x,y,z
1/2+x,-y,1/2+z
loop_
_atom_site_type_symbol
_atom_site_label
_atom_site_fract_x
_atom_site_fract_y
_atom_site_fract_z
Si Si1 0.828217 0.310317 0.615845
Si Si2 0.673062 0.422938 0.698157
Si Si3 0.168572 0.865487 0.078344
Si Si4 0.332099 0.780560 0.525475
Si Si5 0.334488 0.371692 0.298397
Si Si6 0.330650 0.166219 0.300500
Si Si7 0.826360 0.925895 0.896224
Si Si8 0.328853 0.605054 0.013234
O O1 0.743850 0.349467 0.661862
O O2 0.770710 0.203964 0.609027
O O3 0.789554 0.373506 0.568931
O O4 0.000000 0.309026 0.626145
O O5 0.750000 0.412128 0.750000
O O6 0.500000 0.403374 0.703053
O O7 0.707165 0.528860 0.675715
O O8 0.000000 0.854220 0.094902
O O9 0.229558 0.970978 0.087838
O O10 0.185431 0.844026 0.022086
O O11 0.500000 0.754153 0.535108
O O12 0.263963 0.844045 0.568498
O O13 0.247142 0.681212 0.521741
O O14 0.250000 0.360018 0.250000
O O15 0.500000 0.380964 0.282211
O O16 0.306453 0.271438 0.325399
O O17 0.250000 0.149104 0.250000
O O18 0.500000 0.150048 0.289161
O O19 0.274295 0.093132 0.341172
O O20 0.000000 0.922203 0.900441
O O21 0.500000 0.613562 0.003797
O O22 0.271334 0.500000 0.000000
#
# Coordination Sequence:
#
# PCOD8218834 Si02
#       8
#     8   8   8   8   8   8   8   8
#     4  10  20  34  51  71  98 132 167 204 247 293
#     4  10  19  32  51  75 101 130 167 207 246 290
#     4   9  17  32  52  72  96 127 162 201 250 301
#     4   9  17  30  51  77  99 122 160 207 248 291
#     4   8  15  27  44  65  90 120 152 188 230 276
#     4   9  17  31  48  68  97 129 158 191 235 285
#     4   9  17  30  51  75  97 124 160 204 250 293
#     4   9  19  35  51  70 102 139 167 195 241 300
#
# _framework density 17.915517999999999
#
# number of rings (size 3 to 8) (size 9 to 14) (size 15 to 20)
#    0.000    2.875    0.000    1.125    0.000    3.750 
#    0.000    3.750    0.000    4.500    0.000    0.000 
#    0.000    0.000    0.000    0.000    0.000    0.000 
#
# Total GULP energy -793055.752524 kJ/mol
# GULP energy per Si atom -12391.496133 kJ/mol
# Density = 1.787474 g / cm^3
# Si number density = 17.915518 Si / 1000 Ang^3
#
#
#
# Elastic Constant Matrix: (Units=GPa)
#
#
# Indices 1 2 3 4 5 6 
#
# 1 53.5347 43.6534 34.7581 0.0000 0.0000 0.0000
# 2 43.6534 148.5558 69.8598 0.0000 0.0000 0.0000
# 3 34.7581 69.8598 87.0309 0.0000 0.0000 0.0000
# 4 0.0000 0.0000 0.0000 25.1657 0.0000 0.0000
# 5 0.0000 0.0000 0.0000 0.0000 21.4002 0.0000
# 6 0.0000 0.0000 0.0000 0.0000 0.0000 23.0024
#
#
#
# Elastic Compliance Matrix: (Units=1/GPa)
#
#
# Indices 1 2 3 4 5 6 
#
# 1 0.027049 -0.004608 -0.007104 0.000000 0.000000 0.000000
# 2 -0.004608 0.011598 -0.007470 0.000000 0.000000 0.000000
# 3 -0.007104 -0.007470 0.020323 0.000000 0.000000 0.000000
# 4 0.000000 0.000000 0.000000 0.039737 0.000000 0.000000
# 5 0.000000 0.000000 0.000000 0.000000 0.046728 0.000000
# 6 0.000000 0.000000 0.000000 0.000000 0.000000 0.043474
#
#
# Mechanical properties :
#
#
# Convention : Reuss Voigt Hill
#
# Bulk Modulus (GPa) = 48.52583 65.07377 56.79980
# Shear Modulus (GPa) = 21.35460 23.30368 22.32914
#
# Velocity S-wave (km/s) = 3.45622 3.61051 3.53421
# Velocity P-wave (km/s) = 6.56293 7.33365 6.95897
#
# Compressibility (1/GPa) = 0.02060758
#
# Stress axis : x y z
#
# Youngs Moduli (GPa) = 36.96971 86.22103 49.20452
#
# Poissons Ratio (x) = 0.39727 0.34956
# Poissons Ratio (y) = 0.17034 0.36754
# Poissons Ratio (z) = 0.26264 0.64404
#
# Static dielectric constant tensor:
#      x y z
#    x 3.209920 0.000000 0.000000 
#    y 0.000000 3.676000 0.000000 
#    z 0.000000 0.000000 3.131460 
# 
# 
# High freq. dielectric constant tensor:
#      x y z
#    x 1.679480 0.000000 0.000000 
#    y 0.000000 1.701990 0.000000 
#    z 0.000000 0.000000 1.677240 
# 
# From -- ./inp_files/34171.got.cif
#   From: 2010.03.12/outbox.cif.g09.slc.cpg/sg53_18_cif.got.tgz:34171.got - 2010.04.16 14:36:59.
