data_PCOD8218060
_publ_section_title
;
Structure prediction by ZEFSAII (Michael W. Deem and Ramdas Pophale) SiO2 
 PCOD8218060
Probable space group: P M N A
;
_chemical_formula_sum "Si O2"
_cell_formula_units_Z 64
_cell_length_a 8.614385
_cell_length_b 18.890093
_cell_length_c 19.958334
_cell_angle_alpha 90.000000
_cell_angle_beta 90.000000
_cell_angle_gamma 90.000000
_cell_volume 3247.750512
_symmetry_space_group_name_H-M "P M N A"
_symmetry_group_IT_number 53
_symmetry_cell_setting 'orthorhombic'
loop_
_space_group_symop_operation_xyz
x,y,z
1/2-x,-y,1/2+z
x,-y,-z
1/2-x,y,1/2-z
-x,-y,-z
1/2+x,y,1/2-z
-x,y,z
1/2+x,-y,1/2+z
loop_
_atom_site_type_symbol
_atom_site_label
_atom_site_fract_x
_atom_site_fract_y
_atom_site_fract_z
Si Si1 0.178649 0.834011 0.819462
Si Si2 0.684171 0.693863 0.176077
Si Si3 0.179583 0.000226 0.180322
Si Si4 0.317284 0.275434 0.085681
Si Si5 0.184469 0.783002 0.448937
Si Si6 0.317215 0.059159 0.950204
Si Si7 0.814988 0.596077 0.675349
Si Si8 0.184569 0.548387 0.175810
O O1 0.250000 0.806822 0.750000
O O2 0.205386 0.916740 0.829022
O O3 0.267578 0.797111 0.879593
O O4 0.000000 0.812288 0.820459
O O5 0.750000 0.711076 0.250000
O O6 0.500000 0.688001 0.181733
O O7 0.738963 0.754217 0.123690
O O8 0.750553 0.620823 0.144016
O O9 0.250000 0.973969 0.250000
O O10 0.000000 0.979256 0.175866
O O11 0.277662 0.960065 0.125208
O O12 0.500000 0.281195 0.087400
O O13 0.249863 0.343059 0.125558
O O14 0.258272 0.269685 0.008548
O O15 0.251431 0.862000 0.462845
O O16 0.000000 0.786605 0.449370
O O17 0.500000 0.059972 0.960695
O O18 0.242257 0.000000 0.000000
O O19 0.750000 0.609423 0.750000
O O20 0.751665 0.523022 0.642137
O O21 0.000000 0.594116 0.679361
O O22 0.250000 0.547433 0.250000
O O23 0.000000 0.547739 0.174331
#
# Coordination Sequence:
#
# PCOD8218060 Si02
#       8
#     8   8   8   8   8   8   8   8
#     4  10  20  33  51  76 106 142 180 219 264 314
#     4  10  19  35  58  80 106 136 173 220 268 320
#     4  10  21  36  54  78 107 137 175 222 272 324
#     4  10  20  35  54  76 106 143 182 221 260 309
#     4   9  20  37  56  80 107 139 178 218 265 322
#     4  10  20  36  59  82 107 142 181 221 269 324
#     4  10  19  31  51  79 109 141 177 215 256 303
#     4  10  18  31  53  79 107 137 174 216 260 311
#
# _framework density 19.705946999999998
#
# number of rings (size 3 to 8) (size 9 to 14) (size 15 to 20)
#    0.000    2.125    0.000    5.250    0.000    5.250 
#    0.000    5.000    0.000    3.750    0.000    0.000 
#    0.000    0.000    0.000    0.000    0.000    0.000 
#
# Total GULP energy -793348.869576 kJ/mol
# GULP energy per Si atom -12396.076087 kJ/mol
# Density = 1.966110 g / cm^3
# Si number density = 19.705947 Si / 1000 Ang^3
#
#
#
# Elastic Constant Matrix: (Units=GPa)
#
#
# Indices 1 2 3 4 5 6 
#
# 1 39.1024 26.1019 17.1342 0.0000 0.0000 0.0000
# 2 26.1019 127.0817 72.7633 0.0000 0.0000 0.0000
# 3 17.1342 72.7633 123.7962 0.0000 0.0000 0.0000
# 4 0.0000 0.0000 0.0000 162.1265 0.0000 0.0000
# 5 0.0000 0.0000 0.0000 0.0000 24.5162 0.0000
# 6 0.0000 0.0000 0.0000 0.0000 0.0000 23.7819
#
#
#
# Elastic Compliance Matrix: (Units=1/GPa)
#
#
# Indices 1 2 3 4 5 6 
#
# 1 0.029689 -0.005645 -0.000791 0.000000 0.000000 0.000000
# 2 -0.005645 0.012934 -0.006821 0.000000 0.000000 0.000000
# 3 -0.000791 -0.006821 0.012196 0.000000 0.000000 0.000000
# 4 0.000000 0.000000 0.000000 0.006168 0.000000 0.000000
# 5 0.000000 0.000000 0.000000 0.000000 0.040789 0.000000
# 6 0.000000 0.000000 0.000000 0.000000 0.000000 0.042049
#
#
# Mechanical properties :
#
#
# Convention : Reuss Voigt Hill
#
# Bulk Modulus (GPa) = 35.32937 57.99766 46.66352
# Shear Modulus (GPa) = 27.81275 53.68363 40.74819
#
# Velocity S-wave (km/s) = 3.76092 5.22508 4.55225
# Velocity P-wave (km/s) = 6.06849 8.11772 7.16673
#
# Compressibility (1/GPa) = 0.02830506
#
# Stress axis : x y z
#
# Youngs Moduli (GPa) = 33.68288 77.31722 81.99205
#
# Poissons Ratio (x) = 0.43644 0.06488
# Poissons Ratio (y) = 0.19013 0.55925
# Poissons Ratio (z) = 0.02665 0.52736
#
# Static dielectric constant tensor:
#      x y z
#    x 3.436650 0.000000 0.000000 
#    y 0.000000 4.232860 0.000000 
#    z 0.000000 0.000000 3.606790 
# 
# 
# High freq. dielectric constant tensor:
#      x y z
#    x 1.756950 0.000000 0.000000 
#    y 0.000000 1.775890 0.000000 
#    z 0.000000 0.000000 1.755900 
# 
# From -- ./inp_files/26891.got.cif
#   From: 2010.03.12/outbox.cif.g09.slc.cpg/sg53_14_cif.got.tgz:26891.got - 2010.04.16 14:36:59.
