data_PCOD8218811
_publ_section_title
;
Structure prediction by ZEFSAII (Michael W. Deem and Ramdas Pophale) SiO2 
 PCOD8218811
Probable space group: P M N A
;
_chemical_formula_sum "Si O2"
_cell_formula_units_Z 56
_cell_length_a 8.653433
_cell_length_b 13.702698
_cell_length_c 23.906010
_cell_angle_alpha 90.000000
_cell_angle_beta 90.000000
_cell_angle_gamma 90.000000
_cell_volume 2834.664198
_symmetry_space_group_name_H-M "P M N A"
_symmetry_group_IT_number 53
_symmetry_cell_setting 'orthorhombic'
loop_
_space_group_symop_operation_xyz
x,y,z
1/2-x,-y,1/2+z
x,-y,-z
1/2-x,y,1/2-z
-x,-y,-z
1/2+x,y,1/2-z
-x,y,z
1/2+x,-y,1/2+z
loop_
_atom_site_type_symbol
_atom_site_label
_atom_site_fract_x
_atom_site_fract_y
_atom_site_fract_z
Si Si1 0.680366 0.164953 0.411384
Si Si2 0.183048 0.481288 0.190365
Si Si3 0.680355 0.848826 0.310838
Si Si4 0.319084 0.960488 0.092289
Si Si5 0.317586 0.273164 0.190364
Si Si6 0.179878 0.227914 0.520635
Si Si7 0.320963 0.338561 0.616850
O O1 0.500000 0.173952 0.399653
O O2 0.771895 0.193714 0.355539
O O3 0.726932 0.235474 0.462680
O O4 0.727467 0.055373 0.428140
O O5 0.250000 0.514685 0.250000
O O6 0.249783 0.377415 0.171761
O O7 0.232545 0.558909 0.143141
O O8 0.000000 0.474651 0.196089
O O9 0.750000 0.848639 0.250000
O O10 0.500000 0.873368 0.309369
O O11 0.767053 0.933054 0.345261
O O12 0.714529 0.743752 0.337350
O O13 0.500000 0.983191 0.090640
O O14 0.273836 0.872694 0.051050
O O15 0.250000 0.240099 0.250000
O O16 0.500000 0.281222 0.195698
O O17 0.225314 0.318663 0.560275
O O18 0.000000 0.232743 0.506924
O O19 0.500000 0.339520 0.600479
#
# Coordination Sequence:
#
# PCOD8218811 Si02
#       7
#     8   8   8   8   8   8   8
#     4  12  24  39  60  83 109 144 184 226 275 327
#     4  10  19  34  57  85 115 148 186 226 273 326
#     4  10  19  32  50  77 112 148 185 225 274 326
#     4  10  21  37  56  80 110 145 186 229 273 324
#     4  11  23  41  62  85 113 143 182 229 275 325
#     4  10  21  37  58  84 114 146 183 227 272 323
#     4   9  19  34  54  81 114 149 184 225 272 325
#
# _framework density 19.755427000000001
#
# number of rings (size 3 to 8) (size 9 to 14) (size 15 to 20)
#    0.000    1.714    0.000    6.000    0.000    5.714 
#    0.000    3.571    0.000    4.286    0.000    0.000 
#    0.000    0.000    0.000    0.000    0.000    0.000 
#
# Total GULP energy -694681.945253 kJ/mol
# GULP energy per Si atom -12405.034737 kJ/mol
# Density = 1.971046 g / cm^3
# Si number density = 19.755427 Si / 1000 Ang^3
#
#
#
# Elastic Constant Matrix: (Units=GPa)
#
#
# Indices 1 2 3 4 5 6 
#
# 1 90.5760 24.8637 32.5346 0.0000 0.0000 0.0000
# 2 24.8637 56.0706 22.8743 0.0000 0.0000 0.0000
# 3 32.5346 22.8743 100.7863 0.0000 0.0000 0.0000
# 4 0.0000 0.0000 0.0000 26.6812 0.0000 0.0000
# 5 0.0000 0.0000 0.0000 0.0000 35.0111 0.0000
# 6 0.0000 0.0000 0.0000 0.0000 0.0000 32.1757
#
#
#
# Elastic Compliance Matrix: (Units=1/GPa)
#
#
# Indices 1 2 3 4 5 6 
#
# 1 0.013501 -0.004638 -0.003306 0.000000 0.000000 0.000000
# 2 -0.004638 0.021248 -0.003325 0.000000 0.000000 0.000000
# 3 -0.003306 -0.003325 0.011744 0.000000 0.000000 0.000000
# 4 0.000000 0.000000 0.000000 0.037480 0.000000 0.000000
# 5 0.000000 0.000000 0.000000 0.000000 0.028562 0.000000
# 6 0.000000 0.000000 0.000000 0.000000 0.000000 0.031079
#
#
# Mechanical properties :
#
#
# Convention : Reuss Voigt Hill
#
# Bulk Modulus (GPa) = 41.74542 45.33093 43.53818
# Shear Modulus (GPa) = 28.71305 29.91762 29.31534
#
# Velocity S-wave (km/s) = 3.81652 3.89575 3.85634
# Velocity P-wave (km/s) = 6.37166 6.57508 6.47417
#
# Compressibility (1/GPa) = 0.02395472
#
# Stress axis : x y z
#
# Youngs Moduli (GPa) = 74.06836 47.06337 85.15208
#
# Poissons Ratio (x) = 0.21830 0.28147
# Poissons Ratio (y) = 0.34355 0.28314
# Poissons Ratio (z) = 0.24484 0.15649
#
# Static dielectric constant tensor:
#      x y z
#    x 3.648250 0.000000 0.000000 
#    y 0.000000 3.580270 0.000000 
#    z 0.000000 0.000000 3.603800 
# 
# 
# High freq. dielectric constant tensor:
#      x y z
#    x 1.781700 0.000000 0.000000 
#    y 0.000000 1.757510 0.000000 
#    z 0.000000 0.000000 1.773560 
# 
# From -- ./inp_files/30826.got.cif
#   From: 2010.03.12/outbox.cif.g09.slc.cpg/sg53_16_cif.got.tgz:30826.got - 2010.04.16 14:36:59.
