data_PCOD8218286
_publ_section_title
;
Structure prediction by ZEFSAII (Michael W. Deem and Ramdas Pophale) SiO2 
 PCOD8218286
Probable space group: P M N A
;
_chemical_formula_sum "Si O2"
_cell_formula_units_Z 48
_cell_length_a 13.964527
_cell_length_b 18.033795
_cell_length_c 9.399279
_cell_angle_alpha 90.000000
_cell_angle_beta 90.000000
_cell_angle_gamma 90.000000
_cell_volume 2367.052550
_symmetry_space_group_name_H-M "P M N A"
_symmetry_group_IT_number 53
_symmetry_cell_setting 'orthorhombic'
loop_
_space_group_symop_operation_xyz
x,y,z
1/2-x,-y,1/2+z
x,-y,-z
1/2-x,y,1/2-z
-x,-y,-z
1/2+x,y,1/2-z
-x,y,z
1/2+x,-y,1/2+z
loop_
_atom_site_type_symbol
_atom_site_label
_atom_site_fract_x
_atom_site_fract_y
_atom_site_fract_z
Si Si1 0.394783 0.700407 0.376363
Si Si2 0.824146 0.858029 0.126069
Si Si3 0.247243 0.572288 0.085280
Si Si4 0.108067 0.687141 0.457179
Si Si5 0.305833 0.825720 0.890860
Si Si6 0.000000 0.065757 0.724730
Si Si7 0.500000 0.902057 0.903077
O O1 0.500000 0.677670 0.427112
O O2 0.372005 0.782573 0.431579
O O3 0.326968 0.638492 0.442483
O O4 0.387707 0.706798 0.207617
O O5 0.750000 0.841682 0.250000
O O6 0.905794 0.916135 0.178968
O O7 0.758291 0.882100 0.990274
O O8 0.250000 0.550009 0.250000
O O9 0.348402 0.604092 0.026216
O O10 0.215746 0.500000 0.000000
O O11 0.173099 0.747889 0.533247
O O12 0.000000 0.687520 0.517489
O O13 0.250000 0.805723 0.750000
O O14 0.404505 0.864353 0.845605
O O15 0.000000 0.110627 0.575798
O O16 0.000000 0.982585 0.667597
#
# Coordination Sequence:
#
# PCOD8218286 Si02
#       7
#     8   8   8   8   8   4   4
#     4  10  18  34  64  93 118 160 223 273 313 384
#     4  12  20  39  70 100 119 173 232 268 314 395
#     4  10  21  37  58  90 127 163 211 268 330 396
#     4  10  19  37  65  87 116 170 221 262 316 388
#     4  12  25  41  67  96 137 173 221 275 336 398
#     4  11  24  41  73  99 130 169 227 280 328 404
#     4  11  24  47  63  99 138 173 210 279 351 391
#
# _framework density 20.278383000000002
#
# number of rings (size 3 to 8) (size 9 to 14) (size 15 to 20)
#    0.000    1.167    6.667    0.500    0.000    2.667 
#    0.000    0.833    0.000    0.000    0.000    0.000 
#    0.000    0.000    0.000    0.000    0.000    0.000 
#
# Total GULP energy -594910.016285 kJ/mol
# GULP energy per Si atom -12393.958673 kJ/mol
# Density = 2.023223 g / cm^3
# Si number density = 20.278383 Si / 1000 Ang^3
#
#
#
# Elastic Constant Matrix: (Units=GPa)
#
#
# Indices 1 2 3 4 5 6 
#
# 1 143.3786 43.9014 55.4884 0.0000 0.0000 0.0000
# 2 43.9014 89.6051 33.9196 0.0000 0.0000 0.0000
# 3 55.4884 33.9196 62.3113 0.0000 0.0000 0.0000
# 4 0.0000 0.0000 0.0000 29.1895 0.0000 0.0000
# 5 0.0000 0.0000 0.0000 0.0000 18.2035 0.0000
# 6 0.0000 0.0000 0.0000 0.0000 0.0000 5.8887
#
#
#
# Elastic Compliance Matrix: (Units=1/GPa)
#
#
# Indices 1 2 3 4 5 6 
#
# 1 0.010949 -0.002108 -0.008603 0.000000 0.000000 0.000000
# 2 -0.002108 0.014462 -0.005996 0.000000 0.000000 0.000000
# 3 -0.008603 -0.005996 0.026973 0.000000 0.000000 0.000000
# 4 0.000000 0.000000 0.000000 0.034259 0.000000 0.000000
# 5 0.000000 0.000000 0.000000 0.000000 0.054934 0.000000
# 6 0.000000 0.000000 0.000000 0.000000 0.000000 0.169817
#
#
# Mechanical properties :
#
#
# Convention : Reuss Voigt Hill
#
# Bulk Modulus (GPa) = 52.70937 62.43488 57.57212
# Shear Modulus (GPa) = 14.23965 21.45536 17.84751
#
# Velocity S-wave (km/s) = 2.65280 3.25628 2.96991
# Velocity P-wave (km/s) = 5.95251 6.70772 6.34137
#
# Compressibility (1/GPa) = 0.01897196
#
# Stress axis : x y z
#
# Youngs Moduli (GPa) = 91.32920 69.14444 37.07379
#
# Poissons Ratio (x) = 0.14575 0.31895
# Poissons Ratio (y) = 0.19252 0.22228
# Poissons Ratio (z) = 0.78571 0.41456
#
# Static dielectric constant tensor:
#      x y z
#    x 4.176290 0.000000 0.000000 
#    y 0.000000 3.455910 0.000000 
#    z 0.000000 0.000000 3.536400 
# 
# 
# High freq. dielectric constant tensor:
#      x y z
#    x 1.815100 0.000000 0.000000 
#    y 0.000000 1.773640 0.000000 
#    z 0.000000 0.000000 1.766270 
# 
# From -- ./inp_files/8718.got.cif
#   From: 2010.03.12/outbox.cif.g09.slc.cpg/sg53_5_cif.got.tgz:8718.got - 2010.04.16 14:36:59.
