data_PCOD8218478
_publ_section_title
;
Structure prediction by ZEFSAII (Michael W. Deem and Ramdas Pophale) SiO2 
 PCOD8218478
Probable space group: P M N A
;
_chemical_formula_sum "Si O2"
_cell_formula_units_Z 40
_cell_length_a 13.603015
_cell_length_b 5.083825
_cell_length_c 34.902019
_cell_angle_alpha 90.000000
_cell_angle_beta 90.000000
_cell_angle_gamma 90.000000
_cell_volume 2413.661261
_symmetry_space_group_name_H-M "P M N A"
_symmetry_group_IT_number 53
_symmetry_cell_setting 'orthorhombic'
loop_
_space_group_symop_operation_xyz
x,y,z
1/2-x,-y,1/2+z
x,-y,-z
1/2-x,y,1/2-z
-x,-y,-z
1/2+x,y,1/2-z
-x,y,z
1/2+x,-y,1/2+z
loop_
_atom_site_type_symbol
_atom_site_label
_atom_site_fract_x
_atom_site_fract_y
_atom_site_fract_z
Si Si1 0.804807 0.526071 0.327558
Si Si2 0.000000 0.549306 0.282169
Si Si3 0.614371 0.016847 0.957723
Si Si4 0.211507 0.014249 0.206965
Si Si5 0.000000 0.952090 0.767982
Si Si6 0.615033 0.470169 0.089997
O O1 0.905689 0.608556 0.307624
O O2 0.724092 0.743115 0.316247
O O3 0.819549 0.524624 0.372919
O O4 0.772397 0.240408 0.313736
O O5 0.000000 0.749274 0.246844
O O6 0.000000 0.250608 0.267362
O O7 0.500000 0.951987 0.962005
O O8 0.633950 0.301998 0.940612
O O9 0.656767 0.795849 0.929148
O O10 0.663407 0.000000 0.000000
O O11 0.250000 0.975074 0.250000
O O12 0.096714 0.091600 0.206339
O O13 0.500000 0.449852 0.101561
#
# Coordination Sequence:
#
# PCOD8218478 Si02
#       6
#     8   4   8   8   4   8
#     4  12  22  35  51  75 100 130 169 218 250 288
#     4  12  20  34  54  72  95 128 170 214 253 290
#     4   9  17  29  45  67  97 133 167 193 228 288
#     4  12  23  37  52  72  96 131 170 214 262 294
#     4  12  24  36  54  70  94 128 174 216 256 304
#     4  10  19  30  47  70  97 131 166 201 241 282
#
# _framework density 16.572334000000001
#
# number of rings (size 3 to 8) (size 9 to 14) (size 15 to 20)
#    0.000    1.000    5.000    3.600    0.000    2.400 
#    0.000    0.000    0.000    0.000    0.000    0.000 
#    0.000    0.000    0.000   63.000    0.000    0.000 
#
# Total GULP energy -496161.977417 kJ/mol
# GULP energy per Si atom -12404.049435 kJ/mol
# Density = 1.653461 g / cm^3
# Si number density = 16.572334 Si / 1000 Ang^3
#
#
#
# Elastic Constant Matrix: (Units=GPa)
#
#
# Indices 1 2 3 4 5 6 
#
# 1 53.7063 -4.9141 15.5522 0.0000 0.0000 0.0000
# 2 -4.9141 69.2050 10.5629 0.0000 0.0000 0.0000
# 3 15.5522 10.5629 89.0274 0.0000 0.0000 0.0000
# 4 0.0000 0.0000 0.0000 25.5670 0.0000 0.0000
# 5 0.0000 0.0000 0.0000 0.0000 10.2824 0.0000
# 6 0.0000 0.0000 0.0000 0.0000 0.0000 16.0334
#
#
#
# Elastic Compliance Matrix: (Units=1/GPa)
#
#
# Indices 1 2 3 4 5 6 
#
# 1 0.019874 0.001977 -0.003706 0.000000 0.000000 0.000000
# 2 0.001977 0.014913 -0.002115 0.000000 0.000000 0.000000
# 3 -0.003706 -0.002115 0.012131 0.000000 0.000000 0.000000
# 4 0.000000 0.000000 0.000000 0.039113 0.000000 0.000000
# 5 0.000000 0.000000 0.000000 0.000000 0.097254 0.000000
# 6 0.000000 0.000000 0.000000 0.000000 0.000000 0.062370
#
#
# Mechanical properties :
#
#
# Convention : Reuss Voigt Hill
#
# Bulk Modulus (GPa) = 25.49105 28.26008 26.87556
# Shear Modulus (GPa) = 18.76744 23.09240 20.92992
#
# Velocity S-wave (km/s) = 3.36885 3.73692 3.55765
# Velocity P-wave (km/s) = 5.52696 5.97570 5.75570
#
# Compressibility (1/GPa) = 0.03922946
#
# Stress axis : x y z
#
# Youngs Moduli (GPa) = 50.31708 67.05573 82.43430
#
# Poissons Ratio (x) = -0.13256 0.30553
# Poissons Ratio (y) = -0.09947 0.17433
# Poissons Ratio (z) = 0.18649 0.14180
#
# Static dielectric constant tensor:
#      x y z
#    x 2.950380 0.000000 0.000000 
#    y 0.000000 3.217160 0.000000 
#    z 0.000000 0.000000 3.108790 
# 
# 
# High freq. dielectric constant tensor:
#      x y z
#    x 1.592590 0.000000 0.000000 
#    y 0.000000 1.662090 0.000000 
#    z 0.000000 0.000000 1.630590 
# 
# From -- ./inp_files/36630.got.cif
#   From: 2010.03.12/outbox.cif.g09.slc.cpg/sg53_19_cif.got.tgz:36630.got - 2010.04.16 14:36:59.
