data_PCOD8218852
_publ_section_title
;
Structure prediction by ZEFSAII (Michael W. Deem and Ramdas Pophale) SiO2 
 PCOD8218852
Probable space group: P M N A
;
_chemical_formula_sum "Si O2"
_cell_formula_units_Z 64
_cell_length_a 9.257540
_cell_length_b 23.651797
_cell_length_c 14.538308
_cell_angle_alpha 90.000000
_cell_angle_beta 90.000000
_cell_angle_gamma 90.000000
_cell_volume 3183.270946
_symmetry_space_group_name_H-M "P M N A"
_symmetry_group_IT_number 53
_symmetry_cell_setting 'orthorhombic'
loop_
_space_group_symop_operation_xyz
x,y,z
1/2-x,-y,1/2+z
x,-y,-z
1/2-x,y,1/2-z
-x,-y,-z
1/2+x,y,1/2-z
-x,y,z
1/2+x,-y,1/2+z
loop_
_atom_site_type_symbol
_atom_site_label
_atom_site_fract_x
_atom_site_fract_y
_atom_site_fract_z
Si Si1 0.163919 0.377208 0.964268
Si Si2 0.838315 0.523393 0.398036
Si Si3 0.160133 0.761334 0.665658
Si Si4 0.659191 0.106919 0.166852
Si Si5 0.166150 0.250073 0.979539
Si Si6 0.333197 0.151423 0.655058
Si Si7 0.333313 0.064740 0.500949
Si Si8 0.669340 0.580784 0.664253
O O1 0.268337 0.414067 0.899705
O O2 0.181255 0.312092 0.934674
O O3 0.000000 0.398576 0.949601
O O4 0.203407 0.383668 0.072398
O O5 0.846065 0.500000 0.500000
O O6 0.736151 0.482272 0.340069
O O7 0.000000 0.526844 0.355632
O O8 0.250000 0.733710 0.750000
O O9 0.142936 0.827259 0.685576
O O10 0.239500 0.751274 0.570348
O O11 0.000000 0.733666 0.662069
O O12 0.750000 0.078394 0.250000
O O13 0.500000 0.078659 0.163687
O O14 0.739306 0.099124 0.070964
O O15 0.223084 0.204038 0.906384
O O16 0.000000 0.236850 0.006475
O O17 0.250000 0.148520 0.750000
O O18 0.500000 0.160418 0.678611
O O19 0.307412 0.092648 0.600695
O O20 0.500000 0.070062 0.471473
O O21 0.282205 0.000000 0.500000
O O22 0.750000 0.611470 0.750000
O O23 0.500000 0.576362 0.684017
#
# Coordination Sequence:
#
# PCOD8218852 Si02
#       8
#     8   8   8   8   8   8   8   8
#     4   9  19  34  53  77 106 141 181 227 280 334
#     4   9  17  31  51  74 101 136 178 220 266 322
#     4  10  20  33  53  81 111 146 186 230 279 339
#     4  10  20  34  55  82 113 148 184 226 277 336
#     4  10  20  37  59  82 111 151 195 240 290 341
#     4  10  22  40  62  84 112 150 191 238 285 337
#     4  10  21  38  60  87 117 149 188 235 289 344
#     4  10  19  32  51  76 107 141 177 221 274 333
#
# _framework density 20.105104999999998
#
# number of rings (size 3 to 8) (size 9 to 14) (size 15 to 20)
#    0.000    2.250    1.250    1.500    0.000    5.750 
#    0.000    3.125    0.000    1.500    0.000    0.000 
#    0.000    0.000    0.000    0.000    0.000    0.000 
#
# Total GULP energy -793576.487306 kJ/mol
# GULP energy per Si atom -12399.632614 kJ/mol
# Density = 2.005935 g / cm^3
# Si number density = 20.105105 Si / 1000 Ang^3
#
#
#
# Elastic Constant Matrix: (Units=GPa)
#
#
# Indices 1 2 3 4 5 6 
#
# 1 108.6131 22.6065 43.2271 0.0000 0.0000 0.0000
# 2 22.6065 87.3229 17.6631 0.0000 0.0000 0.0000
# 3 43.2271 17.6631 83.7429 0.0000 0.0000 0.0000
# 4 0.0000 0.0000 0.0000 11.9799 0.0000 0.0000
# 5 0.0000 0.0000 0.0000 0.0000 36.5190 0.0000
# 6 0.0000 0.0000 0.0000 0.0000 0.0000 22.8263
#
#
#
# Elastic Compliance Matrix: (Units=1/GPa)
#
#
# Indices 1 2 3 4 5 6 
#
# 1 0.011887 -0.001918 -0.005732 0.000000 0.000000 0.000000
# 2 -0.001918 0.012272 -0.001598 0.000000 0.000000 0.000000
# 3 -0.005732 -0.001598 0.015237 0.000000 0.000000 0.000000
# 4 0.000000 0.000000 0.000000 0.083473 0.000000 0.000000
# 5 0.000000 0.000000 0.000000 0.000000 0.027383 0.000000
# 6 0.000000 0.000000 0.000000 0.000000 0.000000 0.043809
#
#
# Mechanical properties :
#
#
# Convention : Reuss Voigt Hill
#
# Bulk Modulus (GPa) = 47.84653 49.63025 48.73839
# Shear Modulus (GPa) = 22.77660 27.34385 25.06023
#
# Velocity S-wave (km/s) = 3.36947 3.69188 3.53436
# Velocity P-wave (km/s) = 6.24401 6.55075 6.39922
#
# Compressibility (1/GPa) = 0.02090016
#
# Stress axis : x y z
#
# Youngs Moduli (GPa) = 84.12325 81.48899 65.62984
#
# Poissons Ratio (x) = 0.15630 0.37616
# Poissons Ratio (y) = 0.16136 0.10489
# Poissons Ratio (z) = 0.48216 0.13024
#
# Static dielectric constant tensor:
#      x y z
#    x 3.870860 0.000000 0.000000 
#    y 0.000000 3.618380 0.000000 
#    z 0.000000 0.000000 3.469170 
# 
# 
# High freq. dielectric constant tensor:
#      x y z
#    x 1.790470 0.000000 0.000000 
#    y 0.000000 1.772550 0.000000 
#    z 0.000000 0.000000 1.770340 
# 
# From -- ./inp_files/20959.got.cif
#   From: 2010.03.12/outbox.cif.g09.slc.cpg/sg53_11_cif.got.tgz:20959.got - 2010.04.16 14:36:59.
