data_PCOD8218280
_publ_section_title
;
Structure prediction by ZEFSAII (Michael W. Deem and Ramdas Pophale) SiO2 
 PCOD8218280
Probable space group: P M N A
;
_chemical_formula_sum "Si O2"
_cell_formula_units_Z 56
_cell_length_a 14.167204
_cell_length_b 9.419132
_cell_length_c 20.290680
_cell_angle_alpha 90.000000
_cell_angle_beta 90.000000
_cell_angle_gamma 90.000000
_cell_volume 2707.644434
_symmetry_space_group_name_H-M "P M N A"
_symmetry_group_IT_number 53
_symmetry_cell_setting 'orthorhombic'
loop_
_space_group_symop_operation_xyz
x,y,z
1/2-x,-y,1/2+z
x,-y,-z
1/2-x,y,1/2-z
-x,-y,-z
1/2+x,y,1/2-z
-x,y,z
1/2+x,-y,1/2+z
loop_
_atom_site_type_symbol
_atom_site_label
_atom_site_fract_x
_atom_site_fract_y
_atom_site_fract_z
Si Si1 0.797260 0.052520 0.647469
Si Si2 0.645578 0.296082 0.760846
Si Si3 0.602038 0.173825 0.631913
Si Si4 0.392713 0.166970 0.487502
Si Si5 0.790063 0.238151 0.406894
Si Si6 0.391330 0.771138 0.040347
Si Si7 0.895858 0.504990 0.375227
O O1 0.852174 0.137805 0.704964
O O2 0.684344 0.068719 0.654797
O O3 0.827638 0.112848 0.576727
O O4 0.813049 0.883357 0.647451
O O5 0.750000 0.353648 0.750000
O O6 0.594204 0.291799 0.689856
O O7 0.594184 0.408131 0.807231
O O8 0.500000 0.094104 0.627421
O O9 0.622405 0.241834 0.559470
O O10 0.500000 0.194590 0.461761
O O11 0.317299 0.229411 0.435158
O O12 0.374385 0.000000 0.500000
O O13 0.866452 0.222412 0.464262
O O14 0.813049 0.387546 0.371515
O O15 0.500000 0.810678 0.051764
O O16 0.368162 0.613807 0.066862
O O17 0.000000 0.438316 0.388905
#
# Coordination Sequence:
#
# PCOD8218280 Si02
#       7
#     8   8   8   8   8   8   8
#     4  10  20  34  55  88 115 146 191 248 294 346
#     4   9  20  39  61  83 110 152 207 242 285 344
#     4  10  18  34  61  88 114 150 196 246 288 341
#     4  10  19  33  58  92 125 155 191 241 304 359
#     4  12  20  33  56  87 124 148 187 241 305 348
#     4  10  20  35  53  78 114 158 198 230 281 354
#     4  10  22  38  57  82 116 160 200 237 290 354
#
# _framework density 20.682183999999999
#
# number of rings (size 3 to 8) (size 9 to 14) (size 15 to 20)
#    0.000    1.857    2.857    1.714    0.000    3.429 
#    0.000    2.143    0.000   10.286    0.000    0.000 
#    0.000    0.000    0.000    0.000    0.000    0.000 
#
# Total GULP energy -693893.057461 kJ/mol
# GULP energy per Si atom -12390.947455 kJ/mol
# Density = 2.063511 g / cm^3
# Si number density = 20.682184 Si / 1000 Ang^3
#
#
#
# Elastic Constant Matrix: (Units=GPa)
#
#
# Indices 1 2 3 4 5 6 
#
# 1 108.9469 53.8100 19.7541 0.0000 0.0000 0.0000
# 2 53.8100 91.3353 28.2828 0.0000 0.0000 0.0000
# 3 19.7541 28.2828 77.2146 0.0000 0.0000 0.0000
# 4 0.0000 0.0000 0.0000 12.2299 0.0000 0.0000
# 5 0.0000 0.0000 0.0000 0.0000 12.9721 0.0000
# 6 0.0000 0.0000 0.0000 0.0000 0.0000 15.6189
#
#
#
# Elastic Compliance Matrix: (Units=1/GPa)
#
#
# Indices 1 2 3 4 5 6 
#
# 1 0.012969 -0.007459 -0.000586 0.000000 0.000000 0.000000
# 2 -0.007459 0.016640 -0.004187 0.000000 0.000000 0.000000
# 3 -0.000586 -0.004187 0.014634 0.000000 0.000000 0.000000
# 4 0.000000 0.000000 0.000000 0.081767 0.000000 0.000000
# 5 0.000000 0.000000 0.000000 0.000000 0.077089 0.000000
# 6 0.000000 0.000000 0.000000 0.000000 0.000000 0.064025
#
#
# Mechanical properties :
#
#
# Convention : Reuss Voigt Hill
#
# Bulk Modulus (GPa) = 50.55634 53.46561 52.01098
# Shear Modulus (GPa) = 16.76836 19.87416 18.32126
#
# Velocity S-wave (km/s) = 2.85048 3.10325 2.97955
# Velocity P-wave (km/s) = 5.94400 6.22474 6.08599
#
# Compressibility (1/GPa) = 0.01977991
#
# Stress axis : x y z
#
# Youngs Moduli (GPa) = 77.10524 60.09683 68.33286
#
# Poissons Ratio (x) = 0.44829 0.04002
# Poissons Ratio (y) = 0.57516 0.28608
# Poissons Ratio (z) = 0.04516 0.25160
#
# Static dielectric constant tensor:
#      x y z
#    x 3.880560 0.000000 0.000000 
#    y 0.000000 3.489290 0.000000 
#    z 0.000000 0.000000 3.952490 
# 
# 
# High freq. dielectric constant tensor:
#      x y z
#    x 1.823680 0.000000 0.000000 
#    y 0.000000 1.760850 0.000000 
#    z 0.000000 0.000000 1.804700 
# 
# From -- ./inp_files/32490.got.cif
#   From: 2010.03.12/outbox.cif.g09.slc.cpg/sg53_17_cif.got.tgz:32490.got - 2010.04.16 14:36:59.
