data_PCOD8218048
_publ_section_title
;
Structure prediction by ZEFSAII (Michael W. Deem and Ramdas Pophale) SiO2 
 PCOD8218048
Probable space group: P M N A
;
_chemical_formula_sum "Si O2"
_cell_formula_units_Z 64
_cell_length_a 8.944189
_cell_length_b 21.369724
_cell_length_c 18.751149
_cell_angle_alpha 90.000000
_cell_angle_beta 90.000000
_cell_angle_gamma 90.000000
_cell_volume 3583.998058
_symmetry_space_group_name_H-M "P M N A"
_symmetry_group_IT_number 53
_symmetry_cell_setting 'orthorhombic'
loop_
_space_group_symop_operation_xyz
x,y,z
1/2-x,-y,1/2+z
x,-y,-z
1/2-x,y,1/2-z
-x,-y,-z
1/2+x,y,1/2-z
-x,y,z
1/2+x,-y,1/2+z
loop_
_atom_site_type_symbol
_atom_site_label
_atom_site_fract_x
_atom_site_fract_y
_atom_site_fract_z
Si Si1 0.169191 0.764574 0.132295
Si Si2 0.171515 0.699950 0.567777
Si Si3 0.323760 0.066992 0.973280
Si Si4 0.166449 0.183893 0.026358
Si Si5 0.823111 0.515822 0.080684
Si Si6 0.823095 0.646429 0.415905
Si Si7 0.675181 0.409293 0.173985
Si Si8 0.676841 0.114870 0.819924
O O1 0.254486 0.698375 0.137257
O O2 0.260515 0.814577 0.178382
O O3 0.000000 0.758232 0.161546
O O4 0.168195 0.786922 0.051478
O O5 0.260317 0.764872 0.578765
O O6 0.221743 0.662349 0.497231
O O7 0.202657 0.656765 0.635506
O O8 0.000000 0.719012 0.559755
O O9 0.500000 0.072636 0.980318
O O10 0.274163 0.077099 0.890973
O O11 0.255418 0.118788 0.025963
O O12 0.264803 0.000000 0.000000
O O13 0.000000 0.170024 0.053589
O O14 0.751068 0.580979 0.104532
O O15 0.755987 0.463511 0.131153
O O16 0.000000 0.519205 0.090679
O O17 0.777370 0.500000 0.000000
O O18 0.000000 0.642736 0.404831
O O19 0.750000 0.403297 0.250000
O O20 0.500000 0.424785 0.180013
O O21 0.750000 0.081988 0.750000
O O22 0.500000 0.116429 0.811782
#
# Coordination Sequence:
#
# PCOD8218048 Si02
#       8
#     8   8   8   8   8   8   8   8
#     4   9  17  30  47  72 103 132 165 207 255 304
#     4   9  18  32  52  75 101 133 169 210 259 314
#     4   9  18  33  53  77 107 143 181 218 258 308
#     4   9  17  28  48  77 105 130 163 210 256 297
#     4  11  22  35  54  79 106 138 180 226 270 322
#     4  10  18  31  52  77 103 132 171 216 262 312
#     4  11  23  39  56  77 105 139 177 222 277 331
#     4  10  19  32  51  75 104 139 177 216 261 313
#
# _framework density 17.857153
#
# number of rings (size 3 to 8) (size 9 to 14) (size 15 to 20)
#    0.000    2.250    1.250    2.250    0.000    5.750 
#    0.000    0.625    0.000    0.750    0.000    1.750 
#    0.000    0.000    0.000    0.000    0.000    0.000 
#
# Total GULP energy -793622.215796 kJ/mol
# GULP energy per Si atom -12400.347122 kJ/mol
# Density = 1.781651 g / cm^3
# Si number density = 17.857153 Si / 1000 Ang^3
#
#
#
# Elastic Constant Matrix: (Units=GPa)
#
#
# Indices 1 2 3 4 5 6 
#
# 1 83.9632 51.5882 34.2698 0.0000 0.0000 0.0000
# 2 51.5882 129.3740 40.0725 0.0000 0.0000 0.0000
# 3 34.2698 40.0725 75.5625 0.0000 0.0000 0.0000
# 4 0.0000 0.0000 0.0000 18.2803 0.0000 0.0000
# 5 0.0000 0.0000 0.0000 0.0000 23.7428 0.0000
# 6 0.0000 0.0000 0.0000 0.0000 0.0000 22.4439
#
#
#
# Elastic Compliance Matrix: (Units=1/GPa)
#
#
# Indices 1 2 3 4 5 6 
#
# 1 0.017213 -0.005320 -0.004986 0.000000 0.000000 0.000000
# 2 -0.005320 0.010893 -0.003364 0.000000 0.000000 0.000000
# 3 -0.004986 -0.003364 0.017279 0.000000 0.000000 0.000000
# 4 0.000000 0.000000 0.000000 0.054704 0.000000 0.000000
# 5 0.000000 0.000000 0.000000 0.000000 0.042118 0.000000
# 6 0.000000 0.000000 0.000000 0.000000 0.000000 0.044556
#
#
# Mechanical properties :
#
#
# Convention : Reuss Voigt Hill
#
# Bulk Modulus (GPa) = 55.41183 60.08453 57.74818
# Shear Modulus (GPa) = 22.71524 23.75803 23.23663
#
# Velocity S-wave (km/s) = 3.57045 3.65149 3.61120
# Velocity P-wave (km/s) = 6.93509 7.17622 7.05669
#
# Compressibility (1/GPa) = 0.01804669
#
# Stress axis : x y z
#
# Youngs Moduli (GPa) = 58.09455 91.80446 57.87293
#
# Poissons Ratio (x) = 0.48836 0.28853
# Poissons Ratio (y) = 0.30904 0.19469
# Poissons Ratio (z) = 0.28964 0.30884
#
# Static dielectric constant tensor:
#      x y z
#    x 3.437160 0.000000 0.000000 
#    y 0.000000 3.343620 0.000000 
#    z 0.000000 0.000000 3.251720 
# 
# 
# High freq. dielectric constant tensor:
#      x y z
#    x 1.703930 0.000000 0.000000 
#    y 0.000000 1.686900 0.000000 
#    z 0.000000 0.000000 1.661530 
# 
# From -- ./inp_files/26779.got.cif
#   From: 2010.03.12/outbox.cif.g09.slc.cpg/sg53_14_cif.got.tgz:26779.got - 2010.04.16 14:36:59.
