data_PCOD8218529
_publ_section_title
;
Structure prediction by ZEFSAII (Michael W. Deem and Ramdas Pophale) SiO2 
 PCOD8218529
Probable space group: P M N A
;
_chemical_formula_sum "Si O2"
_cell_formula_units_Z 64
_cell_length_a 17.569884
_cell_length_b 9.511562
_cell_length_c 25.301781
_cell_angle_alpha 90.000000
_cell_angle_beta 90.000000
_cell_angle_gamma 90.000000
_cell_volume 4228.358773
_symmetry_space_group_name_H-M "P M N A"
_symmetry_group_IT_number 53
_symmetry_cell_setting 'orthorhombic'
loop_
_space_group_symop_operation_xyz
x,y,z
1/2-x,-y,1/2+z
x,-y,-z
1/2-x,y,1/2-z
-x,-y,-z
1/2+x,y,1/2-z
-x,y,z
1/2+x,-y,1/2+z
loop_
_atom_site_type_symbol
_atom_site_label
_atom_site_fract_x
_atom_site_fract_y
_atom_site_fract_z
Si Si1 0.341007 0.482998 0.145246
Si Si2 0.305303 0.505901 0.700198
Si Si3 0.658548 0.186882 0.857198
Si Si4 0.589068 0.014185 0.762496
Si Si5 0.587221 0.141617 0.968383
Si Si6 0.911175 0.690921 0.739139
Si Si7 0.416327 0.619253 0.958011
Si Si8 0.695370 0.802842 0.300005
O O1 0.250381 0.454703 0.151544
O O2 0.360242 0.648308 0.151644
O O3 0.391080 0.397410 0.187198
O O4 0.359880 0.428199 0.087488
O O5 0.250000 0.499380 0.750000
O O6 0.369685 0.623394 0.709494
O O7 0.342582 0.351328 0.691323
O O8 0.637648 0.137396 0.915806
O O9 0.749223 0.157733 0.849192
O O10 0.609103 0.096977 0.815910
O O11 0.500000 0.024931 0.751888
O O12 0.615313 0.852169 0.768219
O O13 0.630519 0.081429 0.710995
O O14 0.500000 0.179210 0.952723
O O15 0.620954 0.252525 0.010082
O O16 0.592407 0.000000 0.000000
O O17 0.000000 0.681992 0.750293
O O18 0.500000 0.659563 0.934380
O O19 0.428323 0.500000 0.000000
O O20 0.750000 0.795472 0.250000
#
# Coordination Sequence:
#
# PCOD8218529 Si02
#       8
#     8   8   8   8   8   8   8   8
#     4  10  19  31  47  65  87 117 152 183 217 259
#     4   8  16  30  45  63  86 112 144 182 218 258
#     4  10  19  32  47  63  87 120 152 182 218 256
#     4  10  20  30  43  65  91 117 147 180 218 263
#     4  10  21  33  44  62  91 120 149 186 217 247
#     4  10  20  30  43  66  92 116 145 181 219 264
#     4  10  19  31  46  64  87 118 151 181 214 250
#     4   8  16  30  46  63  84 113 147 180 216 261
#
# _framework density 15.135897
#
# number of rings (size 3 to 8) (size 9 to 14) (size 15 to 20)
#    0.000    2.500    1.250    3.000    1.750    7.500 
#    0.000    0.000    0.000    0.000    0.000    0.000 
#    0.000    2.000    0.000    0.125    0.000    0.000 
#
# Total GULP energy -793188.380427 kJ/mol
# GULP energy per Si atom -12393.568444 kJ/mol
# Density = 1.510145 g / cm^3
# Si number density = 15.135897 Si / 1000 Ang^3
#
#
#
# Elastic Constant Matrix: (Units=GPa)
#
#
# Indices 1 2 3 4 5 6 
#
# 1 65.9050 46.4111 44.2978 0.0000 0.0000 0.0000
# 2 46.4111 100.6995 37.5227 0.0000 0.0000 0.0000
# 3 44.2978 37.5227 80.2834 0.0000 0.0000 0.0000
# 4 0.0000 0.0000 0.0000 20.4134 0.0000 0.0000
# 5 0.0000 0.0000 0.0000 0.0000 31.0282 0.0000
# 6 0.0000 0.0000 0.0000 0.0000 0.0000 24.4884
#
#
#
# Elastic Compliance Matrix: (Units=1/GPa)
#
#
# Indices 1 2 3 4 5 6 
#
# 1 0.029836 -0.009223 -0.012152 0.000000 0.000000 0.000000
# 2 -0.009223 0.014876 -0.001864 0.000000 0.000000 0.000000
# 3 -0.012152 -0.001864 0.020032 0.000000 0.000000 0.000000
# 4 0.000000 0.000000 0.000000 0.048987 0.000000 0.000000
# 5 0.000000 0.000000 0.000000 0.000000 0.032229 0.000000
# 6 0.000000 0.000000 0.000000 0.000000 0.000000 0.040836
#
#
# Mechanical properties :
#
#
# Convention : Reuss Voigt Hill
#
# Bulk Modulus (GPa) = 54.74474 55.92790 55.33632
# Shear Modulus (GPa) = 20.88884 23.09641 21.99263
#
# Velocity S-wave (km/s) = 3.71898 3.91056 3.81597
# Velocity P-wave (km/s) = 7.39516 7.57764 7.48696
#
# Compressibility (1/GPa) = 0.01826660
#
# Stress axis : x y z
#
# Youngs Moduli (GPa) = 33.51620 67.22353 49.92012
#
# Poissons Ratio (x) = 0.62001 0.60663
# Poissons Ratio (y) = 0.30912 0.09303
# Poissons Ratio (z) = 0.40729 0.12528
#
# Static dielectric constant tensor:
#      x y z
#    x 3.010420 0.000000 0.000000 
#    y 0.000000 3.127000 0.000000 
#    z 0.000000 0.000000 2.870720 
# 
# 
# High freq. dielectric constant tensor:
#      x y z
#    x 1.557740 0.000000 0.000000 
#    y 0.000000 1.597610 0.000000 
#    z 0.000000 0.000000 1.551490 
# 
# From -- ./inp_files/37182.got.cif
#   From: 2010.03.12/outbox.cif.g09.slc.cpg/sg53_19_cif.got.tgz:37182.got - 2010.04.16 14:36:59.
