data_PCOD8218406
_publ_section_title
;
Structure prediction by ZEFSAII (Michael W. Deem and Ramdas Pophale) SiO2 
 PCOD8218406
Probable space group: P M N A
;
_chemical_formula_sum "Si O2"
_cell_formula_units_Z 64
_cell_length_a 9.170170
_cell_length_b 21.418785
_cell_length_c 19.550827
_cell_angle_alpha 90.000000
_cell_angle_beta 90.000000
_cell_angle_gamma 90.000000
_cell_volume 3840.054172
_symmetry_space_group_name_H-M "P M N A"
_symmetry_group_IT_number 53
_symmetry_cell_setting 'orthorhombic'
loop_
_space_group_symop_operation_xyz
x,y,z
1/2-x,-y,1/2+z
x,-y,-z
1/2-x,y,1/2-z
-x,-y,-z
1/2+x,y,1/2-z
-x,y,z
1/2+x,-y,1/2+z
loop_
_atom_site_type_symbol
_atom_site_label
_atom_site_fract_x
_atom_site_fract_y
_atom_site_fract_z
Si Si1 0.664767 0.019883 0.609935
Si Si2 0.336843 0.904435 0.529655
Si Si3 0.327672 0.337756 0.957919
Si Si4 0.662941 0.384834 0.814170
Si Si5 0.330512 0.193861 0.955462
Si Si6 0.673162 0.560350 0.544633
Si Si7 0.172662 0.876636 0.319252
Si Si8 0.333146 0.532939 0.816793
O O1 0.500000 0.019495 0.639831
O O2 0.667227 0.057018 0.539699
O O3 0.772763 0.052870 0.663783
O O4 0.717215 0.948890 0.592404
O O5 0.500000 0.881780 0.545719
O O6 0.238509 0.843369 0.519312
O O7 0.500000 0.351866 0.966400
O O8 0.269770 0.357813 0.883468
O O9 0.289325 0.265525 0.966889
O O10 0.235430 0.376791 0.011923
O O11 0.750000 0.357602 0.750000
O O12 0.500000 0.359668 0.805625
O O13 0.669535 0.458796 0.816732
O O14 0.500000 0.181743 0.960342
O O15 0.278181 0.169942 0.880598
O O16 0.718578 0.500000 0.500000
O O17 0.500000 0.564816 0.552313
O O18 0.745757 0.557055 0.618333
O O19 0.250000 0.852847 0.250000
O O20 0.000000 0.877268 0.308425
O O21 0.250000 0.558968 0.750000
O O22 0.500000 0.557440 0.817879
#
# Coordination Sequence:
#
# PCOD8218406 Si02
#       8
#     8   8   8   8   8   8   8   8
#     4   8  14  26  44  66  89 117 151 190 232 274
#     4   8  14  26  45  66  89 115 148 189 235 278
#     4  10  20  35  50  68  96 133 172 208 253 307
#     4   9  18  30  46  66  91 124 162 200 242 293
#     4   9  19  32  46  65  93 127 165 202 237 285
#     4  11  22  34  51  76 102 127 163 212 261 308
#     4  10  19  30  44  66  96 131 167 202 236 275
#     4  10  19  33  53  75  99 127 158 197 248 305
#
# _framework density 16.666430999999999
#
# number of rings (size 3 to 8) (size 9 to 14) (size 15 to 20)
#    0.000    2.625    1.250    1.875    0.000    3.500 
#    0.000    2.500    0.000    0.000    0.000    0.875 
#    0.000    2.000    0.000    0.000    0.000    0.000 
#
# Total GULP energy -793329.155209 kJ/mol
# GULP energy per Si atom -12395.768050 kJ/mol
# Density = 1.662850 g / cm^3
# Si number density = 16.666431 Si / 1000 Ang^3
#
#
#
# Elastic Constant Matrix: (Units=GPa)
#
#
# Indices 1 2 3 4 5 6 
#
# 1 76.2218 42.6798 47.7489 0.0000 0.0000 0.0000
# 2 42.6798 57.1250 52.0720 0.0000 0.0000 0.0000
# 3 47.7489 52.0720 83.0146 0.0000 0.0000 0.0000
# 4 0.0000 0.0000 0.0000 16.9925 0.0000 0.0000
# 5 0.0000 0.0000 0.0000 0.0000 30.0371 0.0000
# 6 0.0000 0.0000 0.0000 0.0000 0.0000 22.2252
#
#
#
# Elastic Compliance Matrix: (Units=1/GPa)
#
#
# Indices 1 2 3 4 5 6 
#
# 1 0.023734 -0.012350 -0.005905 0.000000 0.000000 0.000000
# 2 -0.012350 0.047306 -0.022570 0.000000 0.000000 0.000000
# 3 -0.005905 -0.022570 0.029600 0.000000 0.000000 0.000000
# 4 0.000000 0.000000 0.000000 0.058849 0.000000 0.000000
# 5 0.000000 0.000000 0.000000 0.000000 0.033292 0.000000
# 6 0.000000 0.000000 0.000000 0.000000 0.000000 0.044994
#
#
# Mechanical properties :
#
#
# Convention : Reuss Voigt Hill
#
# Bulk Modulus (GPa) = 52.65782 55.70698 54.18240
# Shear Modulus (GPa) = 15.34904 18.77501 17.06203
#
# Velocity S-wave (km/s) = 3.03802 3.36000 3.20306
# Velocity P-wave (km/s) = 6.63097 6.96779 6.80146
#
# Compressibility (1/GPa) = 0.01899053
#
# Stress axis : x y z
#
# Youngs Moduli (GPa) = 42.13409 21.13913 33.78422
#
# Poissons Ratio (x) = 0.26106 0.19949
# Poissons Ratio (y) = 0.52034 0.76250
# Poissons Ratio (z) = 0.24879 0.47710
#
# Static dielectric constant tensor:
#      x y z
#    x 3.223350 0.000000 0.000000 
#    y 0.000000 3.128800 0.000000 
#    z 0.000000 0.000000 3.171880 
# 
# 
# High freq. dielectric constant tensor:
#      x y z
#    x 1.645190 0.000000 0.000000 
#    y 0.000000 1.619630 0.000000 
#    z 0.000000 0.000000 1.625430 
# 
# From -- ./inp_files/31341.got.cif
#   From: 2010.03.12/outbox.cif.g09.slc.cpg/sg53_16_cif.got.tgz:31341.got - 2010.04.16 14:36:59.
