data_PCOD8218427
_publ_section_title
;
Structure prediction by ZEFSAII (Michael W. Deem and Ramdas Pophale) SiO2 
 PCOD8218427
Probable space group: P M N A
;
_chemical_formula_sum "Si O2"
_cell_formula_units_Z 48
_cell_length_a 8.884355
_cell_length_b 11.835876
_cell_length_c 25.895805
_cell_angle_alpha 90.000000
_cell_angle_beta 90.000000
_cell_angle_gamma 90.000000
_cell_volume 2723.050693
_symmetry_space_group_name_H-M "P M N A"
_symmetry_group_IT_number 53
_symmetry_cell_setting 'orthorhombic'
loop_
_space_group_symop_operation_xyz
x,y,z
1/2-x,-y,1/2+z
x,-y,-z
1/2-x,y,1/2-z
-x,-y,-z
1/2+x,y,1/2-z
-x,y,z
1/2+x,-y,1/2+z
loop_
_atom_site_type_symbol
_atom_site_label
_atom_site_fract_x
_atom_site_fract_y
_atom_site_fract_z
Si Si1 0.676102 0.829689 0.304292
Si Si2 0.825846 0.009188 0.374320
Si Si3 0.325634 0.551172 0.552862
Si Si4 0.322178 0.800857 0.570056
Si Si5 0.326985 0.841340 0.033059
Si Si6 0.172568 0.672282 0.103402
O O1 0.750000 0.801465 0.250000
O O2 0.500000 0.847928 0.297052
O O3 0.713234 0.721275 0.340369
O O4 0.743935 0.944300 0.327849
O O5 0.753696 0.133184 0.381865
O O6 0.000000 0.020189 0.359713
O O7 0.799894 0.943078 0.427594
O O8 0.253764 0.500000 0.500000
O O9 0.500000 0.574079 0.541520
O O10 0.256583 0.672320 0.569007
O O11 0.302068 0.462971 0.600271
O O12 0.500000 0.806213 0.577489
O O13 0.274746 0.862280 0.517009
O O14 0.500000 0.834343 0.015603
O O15 0.279349 0.725038 0.060073
O O16 0.000000 0.703207 0.089460
#
# Coordination Sequence:
#
# PCOD8218427 Si02
#       6
#     8   8   8   8   8   8
#     4  10  20  35  58  81 100 125 162 208 260 310
#     4  10  21  35  49  70 102 133 167 211 257 303
#     4   9  16  29  49  72 101 137 175 211 245 291
#     4  11  20  30  48  71 100 139 178 209 245 300
#     4  10  19  30  45  68 101 137 168 207 254 297
#     4   9  17  32  52  74  99 132 172 209 248 300
#
# _framework density 17.627289000000001
#
# number of rings (size 3 to 8) (size 9 to 14) (size 15 to 20)
#    0.000    2.167    1.667    2.500    0.000    4.667 
#    0.000    2.500    0.000    1.000    0.000    2.333 
#    0.000    0.000    0.000    0.000    0.000    0.000 
#
# Total GULP energy -595099.622047 kJ/mol
# GULP energy per Si atom -12397.908793 kJ/mol
# Density = 1.758717 g / cm^3
# Si number density = 17.627289 Si / 1000 Ang^3
#
#
#
# Elastic Constant Matrix: (Units=GPa)
#
#
# Indices 1 2 3 4 5 6 
#
# 1 63.6013 22.9921 29.1494 0.0000 0.0000 0.0000
# 2 22.9921 91.4280 37.6664 0.0000 0.0000 0.0000
# 3 29.1494 37.6664 85.7514 0.0000 0.0000 0.0000
# 4 0.0000 0.0000 0.0000 12.3744 0.0000 0.0000
# 5 0.0000 0.0000 0.0000 0.0000 27.2746 0.0000
# 6 0.0000 0.0000 0.0000 0.0000 0.0000 17.5600
#
#
#
# Elastic Compliance Matrix: (Units=1/GPa)
#
#
# Indices 1 2 3 4 5 6 
#
# 1 0.019118 -0.002601 -0.005356 0.000000 0.000000 0.000000
# 2 -0.002601 0.013708 -0.005137 0.000000 0.000000 0.000000
# 3 -0.005356 -0.005137 0.015739 0.000000 0.000000 0.000000
# 4 0.000000 0.000000 0.000000 0.080812 0.000000 0.000000
# 5 0.000000 0.000000 0.000000 0.000000 0.036664 0.000000
# 6 0.000000 0.000000 0.000000 0.000000 0.000000 0.056948
#
#
# Mechanical properties :
#
#
# Convention : Reuss Voigt Hill
#
# Bulk Modulus (GPa) = 44.69056 46.71071 45.70064
# Shear Modulus (GPa) = 19.48282 21.50665 20.49473
#
# Velocity S-wave (km/s) = 3.32816 3.49675 3.41350
# Velocity P-wave (km/s) = 6.33853 6.54673 6.44347
#
# Compressibility (1/GPa) = 0.02237609
#
# Stress axis : x y z
#
# Youngs Moduli (GPa) = 52.30640 72.94975 63.53713
#
# Poissons Ratio (x) = 0.18975 0.34032
# Poissons Ratio (y) = 0.13606 0.32640
# Poissons Ratio (z) = 0.28017 0.37475
#
# Static dielectric constant tensor:
#      x y z
#    x 3.210140 0.000000 0.000000 
#    y 0.000000 3.447850 0.000000 
#    z 0.000000 0.000000 3.040360 
# 
# 
# High freq. dielectric constant tensor:
#      x y z
#    x 1.676120 0.000000 0.000000 
#    y 0.000000 1.683660 0.000000 
#    z 0.000000 0.000000 1.647490 
# 
# From -- ./inp_files/33838.got.cif
#   From: 2010.03.12/outbox.cif.g09.slc.cpg/sg53_17_cif.got.tgz:33838.got - 2010.04.16 14:36:59.
