data_PCOD8218695
_publ_section_title
;
Structure prediction by ZEFSAII (Michael W. Deem and Ramdas Pophale) SiO2 
 PCOD8218695
Probable space group: P M N A
;
_chemical_formula_sum "Si O2"
_cell_formula_units_Z 56
_cell_length_a 17.134154
_cell_length_b 32.845799
_cell_length_c 5.089166
_cell_angle_alpha 90.000000
_cell_angle_beta 90.000000
_cell_angle_gamma 90.000000
_cell_volume 2864.106177
_symmetry_space_group_name_H-M "P M N A"
_symmetry_group_IT_number 53
_symmetry_cell_setting 'orthorhombic'
loop_
_space_group_symop_operation_xyz
x,y,z
1/2-x,-y,1/2+z
x,-y,-z
1/2-x,y,1/2-z
-x,-y,-z
1/2+x,y,1/2-z
-x,y,z
1/2+x,-y,1/2+z
loop_
_atom_site_type_symbol
_atom_site_label
_atom_site_fract_x
_atom_site_fract_y
_atom_site_fract_z
Si Si1 0.407194 0.476366 0.748034
Si Si2 0.695953 0.869296 0.499365
Si Si3 0.160246 0.657180 0.685472
Si Si4 0.587221 0.204262 0.644449
Si Si5 0.411772 0.743340 0.870437
Si Si6 0.908301 0.383703 0.810828
Si Si7 0.195885 0.042851 0.001303
O O1 0.372708 0.500000 0.500000
O O2 0.500000 0.478100 0.752474
O O3 0.379419 0.429964 0.724844
O O4 0.372808 0.500000 0.000000
O O5 0.750000 0.870607 0.250000
O O6 0.632488 0.835122 0.451984
O O7 0.651141 0.913531 0.525621
O O8 0.750000 0.859345 0.750000
O O9 0.250000 0.649661 0.750000
O O10 0.143206 0.704936 0.674220
O O11 0.141390 0.641673 0.395489
O O12 0.107852 0.633171 0.897470
O O13 0.500000 0.189935 0.716873
O O14 0.587045 0.235362 0.407780
O O15 0.623101 0.226873 0.902059
O O16 0.500000 0.729999 0.951861
O O17 0.000000 0.379434 0.752971
O O18 0.250000 0.045006 0.750000
O O19 0.250000 0.039210 0.250000
O O20 0.145053 0.000000 0.000000
#
# Coordination Sequence:
#
# PCOD8218695 Si02
#       7
#     8   8   8   8   8   8   8
#     4   9  17  31  55  87 114 139 183 234 266 301
#     4  10  19  31  50  76 103 134 173 216 260 312
#     4  12  25  40  59  86 117 146 183 235 284 324
#     4  10  21  36  54  76 104 136 170 216 269 320
#     4  10  21  38  58  78 103 140 182 217 261 324
#     4  11  22  39  64  88 115 153 190 226 273 331
#     4   8  14  25  42  66  96 129 167 210 253 299
#
# _framework density 19.552347999999999
#
# number of rings (size 3 to 8) (size 9 to 14) (size 15 to 20)
#    0.000    2.000    0.000    4.286    0.000    5.143 
#    0.000    0.000    0.000    9.000    0.000    0.000 
#    0.000   14.857    0.000    0.000    0.000    2.286 
#
# Total GULP energy -693912.330223 kJ/mol
# GULP energy per Si atom -12391.291611 kJ/mol
# Density = 1.950785 g / cm^3
# Si number density = 19.552348 Si / 1000 Ang^3
#
#
#
# Elastic Constant Matrix: (Units=GPa)
#
#
# Indices 1 2 3 4 5 6 
#
# 1 51.6171 34.9093 8.2032 0.0000 0.0000 0.0000
# 2 34.9093 135.9608 17.3452 0.0000 0.0000 0.0000
# 3 8.2032 17.3452 110.3881 0.0000 0.0000 0.0000
# 4 0.0000 0.0000 0.0000 32.7144 0.0000 0.0000
# 5 0.0000 0.0000 0.0000 0.0000 17.0500 0.0000
# 6 0.0000 0.0000 0.0000 0.0000 0.0000 16.1509
#
#
#
# Elastic Compliance Matrix: (Units=1/GPa)
#
#
# Indices 1 2 3 4 5 6 
#
# 1 0.023516 -0.005934 -0.000815 0.000000 0.000000 0.000000
# 2 -0.005934 0.009003 -0.000974 0.000000 0.000000 0.000000
# 3 -0.000815 -0.000974 0.009273 0.000000 0.000000 0.000000
# 4 0.000000 0.000000 0.000000 0.030568 0.000000 0.000000
# 5 0.000000 0.000000 0.000000 0.000000 0.058651 0.000000
# 6 0.000000 0.000000 0.000000 0.000000 0.000000 0.061916
#
#
# Mechanical properties :
#
#
# Convention : Reuss Voigt Hill
#
# Bulk Modulus (GPa) = 37.95640 46.54237 42.24939
# Shear Modulus (GPa) = 23.02515 29.01696 26.02106
#
# Velocity S-wave (km/s) = 3.43536 3.85654 3.65203
# Velocity P-wave (km/s) = 5.93216 6.60955 6.27999
#
# Compressibility (1/GPa) = 0.02634601
#
# Stress axis : x y z
#
# Youngs Moduli (GPa) = 42.52383 111.07536 107.84571
#
# Poissons Ratio (x) = 0.65912 0.08791
# Poissons Ratio (y) = 0.25234 0.10500
# Poissons Ratio (z) = 0.03466 0.10815
#
# Static dielectric constant tensor:
#      x y z
#    x 3.154360 0.000000 0.000000 
#    y 0.000000 4.384920 0.000000 
#    z 0.000000 0.000000 3.861840 
# 
# 
# High freq. dielectric constant tensor:
#      x y z
#    x 1.705180 0.000000 0.000000 
#    y 0.000000 1.785970 0.000000 
#    z 0.000000 0.000000 1.788990 
# 
# From -- ./inp_files/1472.got.cif
#   From: 2010.03.12/outbox.cif.g09.slc.cpg/sg53_1_cif.got.tgz:1472.got - 2010.04.16 14:36:59.
