data_PCOD8218531
_publ_section_title
;
Structure prediction by ZEFSAII (Michael W. Deem and Ramdas Pophale) SiO2 
 PCOD8218531
Probable space group: P M N A
;
_chemical_formula_sum "Si O2"
_cell_formula_units_Z 40
_cell_length_a 18.279983
_cell_length_b 22.195804
_cell_length_c 5.096843
_cell_angle_alpha 90.000000
_cell_angle_beta 90.000000
_cell_angle_gamma 90.000000
_cell_volume 2067.987573
_symmetry_space_group_name_H-M "P M N A"
_symmetry_group_IT_number 53
_symmetry_cell_setting 'orthorhombic'
loop_
_space_group_symop_operation_xyz
x,y,z
1/2-x,-y,1/2+z
x,-y,-z
1/2-x,y,1/2-z
-x,-y,-z
1/2+x,y,1/2-z
-x,y,z
1/2+x,-y,1/2+z
loop_
_atom_site_type_symbol
_atom_site_label
_atom_site_fract_x
_atom_site_fract_y
_atom_site_fract_z
Si Si1 0.082410 0.435418 0.948090
Si Si2 0.662718 0.964187 0.252543
Si Si3 0.836622 0.757461 0.739035
Si Si4 0.582470 0.640488 0.961749
Si Si5 0.336925 0.829058 0.253748
O O1 0.117790 0.391689 0.722802
O O2 0.000000 0.447598 0.844722
O O3 0.122426 0.500000 0.000000
O O4 0.082130 0.406985 0.231590
O O5 0.750000 0.962116 0.250000
O O6 0.631214 0.896469 0.278310
O O7 0.632262 0.000000 0.500000
O O8 0.633065 0.000000 0.000000
O O9 0.750000 0.749585 0.750000
O O10 0.869094 0.694305 0.649700
O O11 0.863859 0.805261 0.525114
O O12 0.865278 0.783732 0.017364
O O13 0.500000 0.663527 0.024217
O O14 0.250000 0.831362 0.250000
#
# Coordination Sequence:
#
# PCOD8218531 Si02
#       5
#     8   8   8   8   8
#     4   9  17  30  49  72  95 118 147 187 233 274
#     4   9  15  23  37  58  85 115 146 185 230 270
#     4  10  19  31  46  65  93 127 155 183 224 276
#     4  10  19  31  49  72  95 119 153 193 227 268
#     4   9  17  28  42  62  90 123 155 185 226 278
#
# _framework density 19.342475
#
# number of rings (size 3 to 8) (size 9 to 14) (size 15 to 20)
#    0.000    2.600    0.000    3.000    0.000    7.200 
#    0.000    0.000    0.000    2.400    0.000    0.000 
#    0.000   16.000    0.000    0.000    0.000    0.000 
#
# Total GULP energy -495611.222633 kJ/mol
# GULP energy per Si atom -12390.280566 kJ/mol
# Density = 1.929845 g / cm^3
# Si number density = 19.342475 Si / 1000 Ang^3
#
#
#
# Elastic Constant Matrix: (Units=GPa)
#
#
# Indices 1 2 3 4 5 6 
#
# 1 15.4840 20.5661 14.2009 0.0000 0.0000 0.0000
# 2 20.5661 136.9713 40.6315 0.0000 0.0000 0.0000
# 3 14.2009 40.6315 126.6573 0.0000 0.0000 0.0000
# 4 0.0000 0.0000 0.0000 44.3106 0.0000 0.0000
# 5 0.0000 0.0000 0.0000 0.0000 8.2026 0.0000
# 6 0.0000 0.0000 0.0000 0.0000 0.0000 23.1356
#
#
#
# Elastic Compliance Matrix: (Units=1/GPa)
#
#
# Indices 1 2 3 4 5 6 
#
# 1 0.084577 -0.010926 -0.005978 0.000000 0.000000 0.000000
# 2 -0.010926 0.009480 -0.001816 0.000000 0.000000 0.000000
# 3 -0.005978 -0.001816 0.009148 0.000000 0.000000 0.000000
# 4 0.000000 0.000000 0.000000 0.022568 0.000000 0.000000
# 5 0.000000 0.000000 0.000000 0.000000 0.121912 0.000000
# 6 0.000000 0.000000 0.000000 0.000000 0.000000 0.043223
#
#
# Mechanical properties :
#
#
# Convention : Reuss Voigt Hill
#
# Bulk Modulus (GPa) = 15.20552 47.76771 31.48661
# Shear Modulus (GPa) = 14.27469 28.71071 21.49270
#
# Velocity S-wave (km/s) = 2.71956 3.85689 3.33703
# Velocity P-wave (km/s) = 4.21184 6.67709 5.58225
#
# Compressibility (1/GPa) = 0.06576561
#
# Stress axis : x y z
#
# Youngs Moduli (GPa) = 11.82354 105.48459 109.31135
#
# Poissons Ratio (x) = 1.15251 0.65344
# Poissons Ratio (y) = 0.12918 0.19853
# Poissons Ratio (z) = 0.07068 0.19158
#
# Static dielectric constant tensor:
#      x y z
#    x 2.948440 0.000000 0.000000 
#    y 0.000000 3.755000 0.000000 
#    z 0.000000 0.000000 3.917740 
# 
# 
# High freq. dielectric constant tensor:
#      x y z
#    x 1.664610 0.000000 0.000000 
#    y 0.000000 1.771680 0.000000 
#    z 0.000000 0.000000 1.777420 
# 
# From -- ./inp_files/2883.got.cif
#   From: 2010.03.12/outbox.cif.g09.slc.cpg/sg53_2_cif.got.tgz:2883.got - 2010.04.16 14:36:59.
