data_PCOD8218246
_publ_section_title
;
Structure prediction by ZEFSAII (Michael W. Deem and Ramdas Pophale) SiO2 
 PCOD8218246
Probable space group: P M N A
;
_chemical_formula_sum "Si O2"
_cell_formula_units_Z 56
_cell_length_a 16.942814
_cell_length_b 13.905924
_cell_length_c 11.907123
_cell_angle_alpha 90.000000
_cell_angle_beta 90.000000
_cell_angle_gamma 90.000000
_cell_volume 2805.383475
_symmetry_space_group_name_H-M "P M N A"
_symmetry_group_IT_number 53
_symmetry_cell_setting 'orthorhombic'
loop_
_space_group_symop_operation_xyz
x,y,z
1/2-x,-y,1/2+z
x,-y,-z
1/2-x,y,1/2-z
-x,-y,-z
1/2+x,y,1/2-z
-x,y,z
1/2+x,-y,1/2+z
loop_
_atom_site_type_symbol
_atom_site_label
_atom_site_fract_x
_atom_site_fract_y
_atom_site_fract_z
Si Si1 0.345169 0.283321 0.574400
Si Si2 0.590389 0.245570 0.120480
Si Si3 0.909448 0.353946 0.149072
Si Si4 0.336851 0.310245 0.898786
Si Si5 0.906466 0.852325 0.241736
Si Si6 0.406170 0.968956 0.879219
Si Si7 0.909310 0.558625 0.227954
O O1 0.357334 0.295933 0.441692
O O2 0.256639 0.303843 0.612152
O O3 0.369069 0.176805 0.620511
O O4 0.402648 0.358802 0.635094
O O5 0.500000 0.240182 0.079353
O O6 0.599540 0.298036 0.236603
O O7 0.625018 0.138732 0.141180
O O8 0.639067 0.305709 0.028828
O O9 0.875752 0.460976 0.171735
O O10 0.000000 0.357415 0.107611
O O11 0.379289 0.222744 0.836083
O O12 0.362856 0.411187 0.841585
O O13 0.876536 0.958040 0.281267
O O14 0.000000 0.849373 0.231795
O O15 0.500000 0.972267 0.880158
O O16 0.372280 0.000000 0.000000
O O17 0.000000 0.542123 0.261974
#
# Coordination Sequence:
#
# PCOD8218246 Si02
#       7
#     8   8   8   8   8   8   8
#     4  11  22  37  55  83 120 157 188 226 285 351
#     4  10  20  37  60  86 114 146 192 243 288 336
#     4  10  22  40  60  80 113 155 195 237 279 340
#     4  11  21  35  56  86 117 149 183 243 295 339
#     4  10  18  33  62  89 110 144 195 243 277 329
#     4   9  16  30  59  90 109 135 186 242 288 327
#     4  10  20  38  62  85 106 144 201 242 277 330
#
# _framework density 19.96162
#
# number of rings (size 3 to 8) (size 9 to 14) (size 15 to 20)
#    0.000    1.857    1.429    5.571    0.000    2.286 
#    7.714    2.857    9.429    3.429    0.000    0.000 
#    0.000    0.000    0.000    0.000    0.000    0.000 
#
# Total GULP energy -694296.061041 kJ/mol
# GULP energy per Si atom -12398.143947 kJ/mol
# Density = 1.991619 g / cm^3
# Si number density = 19.961620 Si / 1000 Ang^3
#
#
#
# Elastic Constant Matrix: (Units=GPa)
#
#
# Indices 1 2 3 4 5 6 
#
# 1 68.1779 6.2200 31.8441 0.0000 0.0000 0.0000
# 2 6.2200 72.6030 49.1374 0.0000 0.0000 0.0000
# 3 31.8441 49.1374 106.3204 0.0000 0.0000 0.0000
# 4 0.0000 0.0000 0.0000 35.8562 0.0000 0.0000
# 5 0.0000 0.0000 0.0000 0.0000 12.8863 0.0000
# 6 0.0000 0.0000 0.0000 0.0000 0.0000 4.2541
#
#
#
# Elastic Compliance Matrix: (Units=1/GPa)
#
#
# Indices 1 2 3 4 5 6 
#
# 1 0.017485 0.002978 -0.006613 0.000000 0.000000 0.000000
# 2 0.002978 0.020550 -0.010389 0.000000 0.000000 0.000000
# 3 -0.006613 -0.010389 0.016188 0.000000 0.000000 0.000000
# 4 0.000000 0.000000 0.000000 0.027889 0.000000 0.000000
# 5 0.000000 0.000000 0.000000 0.000000 0.077602 0.000000
# 6 0.000000 0.000000 0.000000 0.000000 0.000000 0.235068
#
#
# Mechanical properties :
#
#
# Convention : Reuss Voigt Hill
#
# Bulk Modulus (GPa) = 38.20716 46.83382 42.52049
# Shear Modulus (GPa) = 11.58602 21.25930 16.42266
#
# Velocity S-wave (km/s) = 2.41179 3.26699 2.87141
# Velocity P-wave (km/s) = 5.19014 6.14360 5.68689
#
# Compressibility (1/GPa) = 0.02617310
#
# Stress axis : x y z
#
# Youngs Moduli (GPa) = 57.19311 48.66223 61.77511
#
# Poissons Ratio (x) = -0.14490 0.40852
# Poissons Ratio (y) = -0.17031 0.64180
# Poissons Ratio (z) = 0.37822 0.50556
#
# Static dielectric constant tensor:
#      x y z
#    x 3.425330 0.000000 0.000000 
#    y 0.000000 3.899670 0.000000 
#    z 0.000000 0.000000 3.692910 
# 
# 
# High freq. dielectric constant tensor:
#      x y z
#    x 1.757350 0.000000 0.000000 
#    y 0.000000 1.775400 0.000000 
#    z 0.000000 0.000000 1.776860 
# 
# From -- ./inp_files/16029.got.cif
#   From: 2010.03.12/outbox.cif.g09.slc.cpg/sg53_9_cif.got.tgz:16029.got - 2010.04.16 14:36:59.
