data_PCOD8218184
_publ_section_title
;
Structure prediction by ZEFSAII (Michael W. Deem and Ramdas Pophale) SiO2 
 PCOD8218184
Probable space group: P M N A
;
_chemical_formula_sum "Si O2"
_cell_formula_units_Z 52
_cell_length_a 9.375582
_cell_length_b 13.409169
_cell_length_c 21.327239
_cell_angle_alpha 90.000000
_cell_angle_beta 90.000000
_cell_angle_gamma 90.000000
_cell_volume 2681.234116
_symmetry_space_group_name_H-M "P M N A"
_symmetry_group_IT_number 53
_symmetry_cell_setting 'orthorhombic'
loop_
_space_group_symop_operation_xyz
x,y,z
1/2-x,-y,1/2+z
x,-y,-z
1/2-x,y,1/2-z
-x,-y,-z
1/2+x,y,1/2-z
-x,y,z
1/2+x,-y,1/2+z
loop_
_atom_site_type_symbol
_atom_site_label
_atom_site_fract_x
_atom_site_fract_y
_atom_site_fract_z
Si Si1 0.750000 0.751517 0.750000
Si Si2 0.336815 0.368788 0.807838
Si Si3 0.658259 0.410331 0.155866
Si Si4 0.830662 0.258567 0.565372
Si Si5 0.164042 0.055043 0.933999
Si Si6 0.161041 0.867257 0.866666
Si Si7 0.670763 0.313995 0.446471
O O1 0.845959 0.679284 0.707075
O O2 0.665621 0.827586 0.704646
O O3 0.250000 0.322582 0.750000
O O4 0.500000 0.347559 0.793147
O O5 0.303673 0.486251 0.811205
O O6 0.290245 0.313556 0.870772
O O7 0.500000 0.415314 0.125934
O O8 0.775420 0.399178 0.101099
O O9 0.749876 0.323437 0.512543
O O10 0.000000 0.256618 0.552621
O O11 0.769766 0.147572 0.567999
O O12 0.221433 0.978628 0.879269
O O13 0.000000 0.090386 0.923054
O O14 0.177785 0.000000 0.000000
O O15 0.228707 0.788492 0.915141
O O16 0.000000 0.875371 0.888921
O O17 0.500000 0.321522 0.453909
#
# Coordination Sequence:
#
# PCOD8218184 Si02
#       7
#     4   8   8   8   8   8   8
#     4  10  18  32  58  86 114 152 186 238 286 352
#     4  10  23  42  61  84 117 157 199 243 291 341
#     4  10  20  36  59  87 118 152 192 240 295 347
#     4  11  23  39  59  85 118 152 194 245 292 343
#     4  10  19  37  61  83 111 150 190 236 293 350
#     4   9  18  33  54  82 114 146 185 233 285 344
#     4  10  20  36  59  88 118 151 190 235 290 353
#
# _framework density 19.394055999999999
#
# number of rings (size 3 to 8) (size 9 to 14) (size 15 to 20)
#    0.000    2.000    2.308    1.385    0.000    3.385 
#    1.385    4.615    0.000    0.000    0.000    0.000 
#    0.000    0.000    0.000    0.000    0.000    0.000 
#
# Total GULP energy -644432.217185 kJ/mol
# GULP energy per Si atom -12392.927254 kJ/mol
# Density = 1.934991 g / cm^3
# Si number density = 19.394056 Si / 1000 Ang^3
#
#
#
# Elastic Constant Matrix: (Units=GPa)
#
#
# Indices 1 2 3 4 5 6 
#
# 1 93.7435 26.7038 60.5257 0.0000 0.0000 0.0000
# 2 26.7038 49.0081 40.9200 0.0000 0.0000 0.0000
# 3 60.5257 40.9200 143.1192 0.0000 0.0000 0.0000
# 4 0.0000 0.0000 0.0000 26.0931 0.0000 0.0000
# 5 0.0000 0.0000 0.0000 0.0000 33.1337 0.0000
# 6 0.0000 0.0000 0.0000 0.0000 0.0000 25.7487
#
#
#
# Elastic Compliance Matrix: (Units=1/GPa)
#
#
# Indices 1 2 3 4 5 6 
#
# 1 0.015202 -0.003830 -0.005334 0.000000 0.000000 0.000000
# 2 -0.003830 0.027768 -0.006320 0.000000 0.000000 0.000000
# 3 -0.005334 -0.006320 0.011050 0.000000 0.000000 0.000000
# 4 0.000000 0.000000 0.000000 0.038324 0.000000 0.000000
# 5 0.000000 0.000000 0.000000 0.000000 0.030181 0.000000
# 6 0.000000 0.000000 0.000000 0.000000 0.000000 0.038837
#
#
# Mechanical properties :
#
#
# Convention : Reuss Voigt Hill
#
# Bulk Modulus (GPa) = 43.37773 60.24110 51.80941
# Shear Modulus (GPa) = 24.99819 27.50985 26.25402
#
# Velocity S-wave (km/s) = 3.59411 3.77034 3.68328
# Velocity P-wave (km/s) = 6.29591 7.07694 6.69782
#
# Compressibility (1/GPa) = 0.02305331
#
# Stress axis : x y z
#
# Youngs Moduli (GPa) = 65.77928 36.01221 90.49813
#
# Poissons Ratio (x) = 0.13792 0.48273
# Poissons Ratio (y) = 0.25192 0.57193
# Poissons Ratio (z) = 0.35088 0.22759
#
# Static dielectric constant tensor:
#      x y z
#    x 3.416000 0.000000 0.000000 
#    y 0.000000 3.652120 0.000000 
#    z 0.000000 0.000000 3.597240 
# 
# 
# High freq. dielectric constant tensor:
#      x y z
#    x 1.743640 0.000000 0.000000 
#    y 0.000000 1.749590 0.000000 
#    z 0.000000 0.000000 1.757150 
# 
# From -- ./inp_files/30635.got.cif
#   From: 2010.03.12/outbox.cif.g09.slc.cpg/sg53_16_cif.got.tgz:30635.got - 2010.04.16 14:36:59.
