data_PCOD8218233
_publ_section_title
;
Structure prediction by ZEFSAII (Michael W. Deem and Ramdas Pophale) SiO2 
 PCOD8218233
Probable space group: P M N A
;
_chemical_formula_sum "Si O2"
_cell_formula_units_Z 60
_cell_length_a 20.833560
_cell_length_b 12.076336
_cell_length_c 11.913197
_cell_angle_alpha 90.000000
_cell_angle_beta 90.000000
_cell_angle_gamma 90.000000
_cell_volume 2997.277814
_symmetry_space_group_name_H-M "P M N A"
_symmetry_group_IT_number 53
_symmetry_cell_setting 'orthorhombic'
loop_
_space_group_symop_operation_xyz
x,y,z
1/2-x,-y,1/2+z
x,-y,-z
1/2-x,y,1/2-z
-x,-y,-z
1/2+x,y,1/2-z
-x,y,z
1/2+x,-y,1/2+z
loop_
_atom_site_type_symbol
_atom_site_label
_atom_site_fract_x
_atom_site_fract_y
_atom_site_fract_z
Si Si1 0.928481 0.539276 0.163276
Si Si2 0.250000 0.444389 0.250000
Si Si3 0.424538 0.945500 0.257303
Si Si4 0.425459 0.219684 0.934729
Si Si5 0.859323 0.329209 0.138899
Si Si6 0.363477 0.557356 0.118121
Si Si7 0.074190 0.182983 0.306237
Si Si8 0.576340 0.771280 0.437922
O O1 0.890883 0.444057 0.095579
O O2 0.918967 0.518591 0.296252
O O3 0.906876 0.664308 0.137332
O O4 0.000000 0.519324 0.125971
O O5 0.285314 0.361414 0.338238
O O6 0.296235 0.525585 0.178600
O O7 0.500000 0.954780 0.264774
O O8 0.405901 0.881725 0.144308
O O9 0.401340 0.879737 0.368754
O O10 0.396868 0.069935 0.248758
O O11 0.500000 0.257643 0.913150
O O12 0.373245 0.313128 0.905475
O O13 0.416345 0.178471 0.060950
O O14 0.887402 0.287412 0.257539
O O15 0.877105 0.235597 0.046780
O O16 0.372751 0.500000 0.000000
O O17 0.000000 0.197832 0.273884
O O18 0.500000 0.775763 0.469355
#
# Coordination Sequence:
#
# PCOD8218233 Si02
#       8
#     8   4   8   8   8   8   8   8
#     4  10  19  33  53  84 121 148 181 232 296 364
#     4  10  26  42  52  76 112 158 204 262 300 340
#     4   9  18  33  54  89 126 153 182 224 286 358
#     4  10  18  33  57  87 123 154 185 231 291 361
#     4  11  22  37  55  79 111 161 199 246 296 345
#     4  11  22  36  56  82 112 149 198 238 296 347
#     4  10  20  34  58  91 123 154 188 232 293 360
#     4  10  19  33  56  87 122 155 189 233 289 366
#
# _framework density 20.018163999999999
#
# number of rings (size 3 to 8) (size 9 to 14) (size 15 to 20)
#    0.000    1.867    1.333    4.000    0.000    7.467 
#    0.000    2.000    0.000    0.800    6.933    0.000 
#    0.000    0.000    0.000    0.000    0.000    0.000 
#
# Total GULP energy -743494.989403 kJ/mol
# GULP energy per Si atom -12391.583157 kJ/mol
# Density = 1.997260 g / cm^3
# Si number density = 20.018164 Si / 1000 Ang^3
#
#
#
# Elastic Constant Matrix: (Units=GPa)
#
#
# Indices 1 2 3 4 5 6 
#
# 1 65.9849 36.2941 26.8054 0.0000 0.0000 0.0000
# 2 36.2941 96.7760 21.2623 0.0000 0.0000 0.0000
# 3 26.8054 21.2623 80.9055 0.0000 0.0000 0.0000
# 4 0.0000 0.0000 0.0000 34.3134 0.0000 0.0000
# 5 0.0000 0.0000 0.0000 0.0000 20.2602 0.0000
# 6 0.0000 0.0000 0.0000 0.0000 0.0000 10.8224
#
#
#
# Elastic Compliance Matrix: (Units=1/GPa)
#
#
# Indices 1 2 3 4 5 6 
#
# 1 0.020955 -0.006721 -0.005176 0.000000 0.000000 0.000000
# 2 -0.006721 0.013122 -0.001222 0.000000 0.000000 0.000000
# 3 -0.005176 -0.001222 0.014396 0.000000 0.000000 0.000000
# 4 0.000000 0.000000 0.000000 0.029143 0.000000 0.000000
# 5 0.000000 0.000000 0.000000 0.000000 0.049358 0.000000
# 6 0.000000 0.000000 0.000000 0.000000 0.000000 0.092401
#
#
# Mechanical properties :
#
#
# Convention : Reuss Voigt Hill
#
# Bulk Modulus (GPa) = 44.97519 45.82112 45.39815
# Shear Modulus (GPa) = 19.76083 23.69950 21.73016
#
# Velocity S-wave (km/s) = 3.14529 3.44452 3.29830
# Velocity P-wave (km/s) = 5.97549 6.22568 6.10187
#
# Compressibility (1/GPa) = 0.02223448
#
# Stress axis : x y z
#
# Youngs Moduli (GPa) = 47.72175 76.20606 69.46309
#
# Poissons Ratio (x) = 0.51222 0.35956
# Poissons Ratio (y) = 0.32076 0.08486
# Poissons Ratio (z) = 0.24702 0.09310
#
# Static dielectric constant tensor:
#      x y z
#    x 3.273590 0.000000 0.000000 
#    y 0.000000 3.946410 0.000000 
#    z 0.000000 0.000000 3.916480 
# 
# 
# High freq. dielectric constant tensor:
#      x y z
#    x 1.725320 0.000000 0.000000 
#    y 0.000000 1.786260 0.000000 
#    z 0.000000 0.000000 1.798740 
# 
# From -- ./inp_files/17917.got.cif
#   From: 2010.03.12/outbox.cif.g09.slc.cpg/sg53_9_cif.got.tgz:17917.got - 2010.04.16 14:36:59.
