data_PCOD8218028
_publ_section_title
;
Structure prediction by ZEFSAII (Michael W. Deem and Ramdas Pophale) SiO2 
 PCOD8218028
Probable space group: P M N A
;
_chemical_formula_sum "Si O2"
_cell_formula_units_Z 56
_cell_length_a 8.967008
_cell_length_b 16.983936
_cell_length_c 21.148291
_cell_angle_alpha 90.000000
_cell_angle_beta 90.000000
_cell_angle_gamma 90.000000
_cell_volume 3220.780881
_symmetry_space_group_name_H-M "P M N A"
_symmetry_group_IT_number 53
_symmetry_cell_setting 'orthorhombic'
loop_
_space_group_symop_operation_xyz
x,y,z
1/2-x,-y,1/2+z
x,-y,-z
1/2-x,y,1/2-z
-x,-y,-z
1/2+x,y,1/2-z
-x,y,z
1/2+x,-y,1/2+z
loop_
_atom_site_type_symbol
_atom_site_label
_atom_site_fract_x
_atom_site_fract_y
_atom_site_fract_z
Si Si1 0.329380 0.787167 0.375369
Si Si2 0.675196 0.644890 0.184115
Si Si3 0.176562 0.380319 0.027929
Si Si4 0.828099 0.208202 0.020812
Si Si5 0.324818 0.950816 0.315692
Si Si6 0.675923 0.531157 0.402707
Si Si7 0.321596 0.955817 0.562487
O O1 0.500000 0.760017 0.363495
O O2 0.219561 0.714826 0.363157
O O3 0.308140 0.813731 0.447421
O O4 0.286593 0.860083 0.330609
O O5 0.750000 0.665256 0.250000
O O6 0.500000 0.640053 0.192300
O O7 0.736128 0.561298 0.158627
O O8 0.219067 0.439483 0.085087
O O9 0.000000 0.373984 0.022184
O O10 0.247499 0.292997 0.037994
O O11 0.232398 0.416900 0.961934
O O12 0.000000 0.215933 0.038498
O O13 0.761677 0.134857 0.060607
O O14 0.250000 0.976376 0.250000
O O15 0.500000 0.963375 0.308927
O O16 0.261540 0.004496 0.373052
O O17 0.500000 0.540472 0.391587
O O18 0.500000 0.958793 0.561028
O O19 0.259929 0.000000 0.500000
#
# Coordination Sequence:
#
# PCOD8218028 Si02
#       7
#     8   8   8   8   8   8   8
#     4  10  18  31  51  73 100 131 163 201 246 297
#     4  12  24  35  48  69  99 134 167 200 242 294
#     4   8  14  25  48  76  98 124 155 196 242 287
#     4   9  14  24  48  77 102 126 161 206 247 287
#     4  10  20  32  49  73 100 134 170 208 250 296
#     4   9  16  30  50  72  97 125 162 198 235 286
#     4   9  15  26  46  75 102 127 167 214 250 285
#
# _framework density 17.387087999999999
#
# number of rings (size 3 to 8) (size 9 to 14) (size 15 to 20)
#    0.000    2.429    2.857    2.571    0.000    1.714 
#    0.000    1.429    0.000    2.143    0.000    2.000 
#    0.000    0.000    0.000    0.000    0.000    0.000 
#
# Total GULP energy -694063.674874 kJ/mol
# GULP energy per Si atom -12393.994194 kJ/mol
# Density = 1.734751 g / cm^3
# Si number density = 17.387088 Si / 1000 Ang^3
#
#
#
# Elastic Constant Matrix: (Units=GPa)
#
#
# Indices 1 2 3 4 5 6 
#
# 1 47.1989 24.3178 22.5086 0.0000 0.0000 0.0000
# 2 24.3178 129.0972 52.8347 0.0000 0.0000 0.0000
# 3 22.5086 52.8347 77.8510 0.0000 0.0000 0.0000
# 4 0.0000 0.0000 0.0000 27.3791 0.0000 0.0000
# 5 0.0000 0.0000 0.0000 0.0000 19.7831 0.0000
# 6 0.0000 0.0000 0.0000 0.0000 0.0000 2.1566
#
#
#
# Elastic Compliance Matrix: (Units=1/GPa)
#
#
# Indices 1 2 3 4 5 6 
#
# 1 0.025117 -0.002436 -0.005609 0.000000 0.000000 0.000000
# 2 -0.002436 0.010961 -0.006735 0.000000 0.000000 0.000000
# 3 -0.005609 -0.006735 0.019037 0.000000 0.000000 0.000000
# 4 0.000000 0.000000 0.000000 0.036524 0.000000 0.000000
# 5 0.000000 0.000000 0.000000 0.000000 0.050548 0.000000
# 6 0.000000 0.000000 0.000000 0.000000 0.000000 0.463685
#
#
# Mechanical properties :
#
#
# Convention : Reuss Voigt Hill
#
# Bulk Modulus (GPa) = 39.12877 50.38550 44.75714
# Shear Modulus (GPa) = 7.76458 20.16285 13.96371
#
# Velocity S-wave (km/s) = 2.11552 3.40905 2.83699
# Velocity P-wave (km/s) = 5.34046 6.67361 6.04391
#
# Compressibility (1/GPa) = 0.02555665
#
# Stress axis : x y z
#
# Youngs Moduli (GPa) = 39.81424 91.23092 52.52842
#
# Poissons Ratio (x) = 0.22221 0.29462
# Poissons Ratio (y) = 0.09698 0.35377
# Poissons Ratio (z) = 0.22331 0.61442
#
# Static dielectric constant tensor:
#      x y z
#    x 2.752550 0.000000 0.000000 
#    y 0.000000 3.701330 0.000000 
#    z 0.000000 0.000000 3.165890 
# 
# 
# High freq. dielectric constant tensor:
#      x y z
#    x 1.619040 0.000000 0.000000 
#    y 0.000000 1.681200 0.000000 
#    z 0.000000 0.000000 1.652700 
# 
# From -- ./inp_files/31049.got.cif
#   From: 2010.03.12/outbox.cif.g09.slc.cpg/sg53_16_cif.got.tgz:31049.got - 2010.04.16 14:36:59.
