data_PCOD8218919
_publ_section_title
;
Structure prediction by ZEFSAII (Michael W. Deem and Ramdas Pophale) SiO2 
 PCOD8218919
Probable space group: P M N A
;
_chemical_formula_sum "Si O2"
_cell_formula_units_Z 64
_cell_length_a 9.165007
_cell_length_b 12.459431
_cell_length_c 29.304820
_cell_angle_alpha 90.000000
_cell_angle_beta 90.000000
_cell_angle_gamma 90.000000
_cell_volume 3346.340029
_symmetry_space_group_name_H-M "P M N A"
_symmetry_group_IT_number 53
_symmetry_cell_setting 'orthorhombic'
loop_
_space_group_symop_operation_xyz
x,y,z
1/2-x,-y,1/2+z
x,-y,-z
1/2-x,y,1/2-z
-x,-y,-z
1/2+x,y,1/2-z
-x,y,z
1/2+x,-y,1/2+z
loop_
_atom_site_type_symbol
_atom_site_label
_atom_site_fract_x
_atom_site_fract_y
_atom_site_fract_z
Si Si1 0.163923 0.663196 0.825114
Si Si2 0.669716 0.382344 0.086936
Si Si3 0.326716 0.033244 0.391867
Si Si4 0.828247 0.619500 0.386466
Si Si5 0.330818 0.810112 0.433459
Si Si6 0.666871 0.105074 0.293834
Si Si7 0.331415 0.210484 0.462050
Si Si8 0.830476 0.428291 0.794945
O O1 0.276850 0.671946 0.866338
O O2 0.185216 0.766203 0.793195
O O3 0.190967 0.556631 0.795736
O O4 0.000000 0.662434 0.845851
O O5 0.500000 0.362042 0.081808
O O6 0.707849 0.508468 0.087536
O O7 0.748949 0.323950 0.044757
O O8 0.500000 0.041252 0.392906
O O9 0.267568 0.056879 0.340877
O O10 0.265635 0.121337 0.427506
O O11 0.275759 0.915289 0.406778
O O12 0.771325 0.712823 0.418782
O O13 0.743937 0.626161 0.338590
O O14 0.000000 0.630787 0.377086
O O15 0.500000 0.783901 0.422612
O O16 0.307759 0.831710 0.486906
O O17 0.750000 0.057125 0.250000
O O18 0.500000 0.069992 0.288899
O O19 0.500000 0.231684 0.451781
O O20 0.750000 0.383826 0.750000
O O21 0.000000 0.395380 0.793599
#
# Coordination Sequence:
#
# PCOD8218919 Si02
#       8
#     8   8   8   8   8   8   8   8
#     4   9  17  31  51  77 111 147 178 218 270 325
#     4  10  20  33  53  81 113 147 180 220 273 332
#     4   9  18  36  59  82 111 143 181 229 278 328
#     4  10  22  39  55  76 113 153 187 229 279 330
#     4  10  21  37  60  84 104 141 193 237 276 331
#     4  10  19  32  52  79 112 145 176 215 267 326
#     4  10  19  35  60  86 111 139 180 230 285 341
#     4  10  19  32  54  82 111 144 187 232 276 331
#
# _framework density 19.125371999999999
#
# number of rings (size 3 to 8) (size 9 to 14) (size 15 to 20)
#    0.000    2.250    1.250    1.875    0.000    5.000 
#    0.000    4.375    0.000    3.000    0.000    0.000 
#    0.000    0.000    0.000    0.000    0.000    0.000 
#
# Total GULP energy -793641.269135 kJ/mol
# GULP energy per Si atom -12400.644830 kJ/mol
# Density = 1.908184 g / cm^3
# Si number density = 19.125372 Si / 1000 Ang^3
#
#
#
# Elastic Constant Matrix: (Units=GPa)
#
#
# Indices 1 2 3 4 5 6 
#
# 1 70.2596 37.7817 44.9878 0.0000 0.0000 0.0000
# 2 37.7817 84.0629 51.9507 0.0000 0.0000 0.0000
# 3 44.9878 51.9507 122.3068 0.0000 0.0000 0.0000
# 4 0.0000 0.0000 0.0000 18.6975 0.0000 0.0000
# 5 0.0000 0.0000 0.0000 0.0000 33.4832 0.0000
# 6 0.0000 0.0000 0.0000 0.0000 0.0000 19.1697
#
#
#
# Elastic Compliance Matrix: (Units=1/GPa)
#
#
# Indices 1 2 3 4 5 6 
#
# 1 0.020795 -0.006263 -0.004989 0.000000 0.000000 0.000000
# 2 -0.006263 0.018016 -0.005349 0.000000 0.000000 0.000000
# 3 -0.004989 -0.005349 0.012283 0.000000 0.000000 0.000000
# 4 0.000000 0.000000 0.000000 0.053483 0.000000 0.000000
# 5 0.000000 0.000000 0.000000 0.000000 0.029866 0.000000
# 6 0.000000 0.000000 0.000000 0.000000 0.000000 0.052166
#
#
# Mechanical properties :
#
#
# Convention : Reuss Voigt Hill
#
# Bulk Modulus (GPa) = 55.88725 60.67442 58.28083
# Shear Modulus (GPa) = 22.14592 23.73069 22.93830
#
# Velocity S-wave (km/s) = 3.40653 3.52631 3.46694
# Velocity P-wave (km/s) = 6.69011 6.95509 6.82389
#
# Compressibility (1/GPa) = 0.01789317
#
# Stress axis : x y z
#
# Youngs Moduli (GPa) = 48.08781 55.50502 81.41296
#
# Poissons Ratio (x) = 0.34765 0.40614
# Poissons Ratio (y) = 0.30119 0.43546
# Poissons Ratio (z) = 0.23990 0.29688
#
# Static dielectric constant tensor:
#      x y z
#    x 3.389900 0.000000 0.000000 
#    y 0.000000 3.416570 0.000000 
#    z 0.000000 0.000000 3.440110 
# 
# 
# High freq. dielectric constant tensor:
#      x y z
#    x 1.727900 0.000000 0.000000 
#    y 0.000000 1.729630 0.000000 
#    z 0.000000 0.000000 1.744550 
# 
# From -- ./inp_files/38124.got.cif
#   From: 2010.03.12/outbox.cif.g09.slc.cpg/sg53_20_cif.got.tgz:38124.got - 2010.04.16 14:36:59.
