data_PCOD8218903
_publ_section_title
;
Structure prediction by ZEFSAII (Michael W. Deem and Ramdas Pophale) SiO2 
 PCOD8218903
Probable space group: P M N A
;
_chemical_formula_sum "Si O2"
_cell_formula_units_Z 64
_cell_length_a 8.957731
_cell_length_b 22.137310
_cell_length_c 15.986940
_cell_angle_alpha 90.000000
_cell_angle_beta 90.000000
_cell_angle_gamma 90.000000
_cell_volume 3170.211290
_symmetry_space_group_name_H-M "P M N A"
_symmetry_group_IT_number 53
_symmetry_cell_setting 'orthorhombic'
loop_
_space_group_symop_operation_xyz
x,y,z
1/2-x,-y,1/2+z
x,-y,-z
1/2-x,y,1/2-z
-x,-y,-z
1/2+x,y,1/2-z
-x,y,z
1/2+x,-y,1/2+z
loop_
_atom_site_type_symbol
_atom_site_label
_atom_site_fract_x
_atom_site_fract_y
_atom_site_fract_z
Si Si1 0.322677 0.431475 0.000133
Si Si2 0.825630 0.128845 0.839119
Si Si3 0.322813 0.253490 0.586942
Si Si4 0.827399 0.000642 0.162303
Si Si5 0.678267 0.361951 0.834174
Si Si6 0.172530 0.756825 0.580694
Si Si7 0.328362 0.364605 0.164844
Si Si8 0.824033 0.131132 0.159636
O O1 0.500000 0.427829 0.002183
O O2 0.266788 0.400308 0.914503
O O3 0.264286 0.500000 0.000000
O O4 0.259456 0.398551 0.083565
O O5 0.750000 0.135170 0.750000
O O6 0.775857 0.183614 0.898296
O O7 0.785455 0.063241 0.883165
O O8 0.000000 0.133707 0.822288
O O9 0.500000 0.263123 0.585890
O O10 0.247380 0.294778 0.657836
O O11 0.250035 0.273041 0.499573
O O12 0.750000 0.000850 0.250000
O O13 0.000000 0.000694 0.182731
O O14 0.789369 0.064767 0.117300
O O15 0.750000 0.390793 0.750000
O O16 0.500000 0.359535 0.826516
O O17 0.190300 0.707797 0.654517
O O18 0.254810 0.819013 0.600141
O O19 0.000000 0.769839 0.561570
O O20 0.250000 0.385859 0.250000
O O21 0.500000 0.382775 0.173941
O O22 0.750000 0.136199 0.250000
O O23 0.000000 0.142944 0.168233
#
# Coordination Sequence:
#
# PCOD8218903 Si02
#       8
#     8   8   8   8   8   8   8   8
#     4   9  19  39  64  88 121 162 198 235 285 345
#     4   9  18  32  51  76 103 137 181 231 286 346
#     4  11  22  36  56  82 112 148 192 242 298 351
#     4   8  15  29  48  70 100 135 177 228 282 341
#     4  11  22  39  62  90 123 160 201 243 291 348
#     4  11  22  37  55  78 111 149 191 240 295 351
#     4  10  21  38  60  88 116 153 195 236 288 340
#     4  10  19  32  52  78 105 140 184 232 287 348
#
# _framework density 20.187930000000001
#
# number of rings (size 3 to 8) (size 9 to 14) (size 15 to 20)
#    0.000    2.125    1.250    2.250    0.000    5.000 
#    0.000    0.625    0.000    6.375    0.000    0.000 
#    0.000    0.000    0.000    0.000    0.000    0.000 
#
# Total GULP energy -793073.773913 kJ/mol
# GULP energy per Si atom -12391.777717 kJ/mol
# Density = 2.014198 g / cm^3
# Si number density = 20.187930 Si / 1000 Ang^3
#
#
#
# Elastic Constant Matrix: (Units=GPa)
#
#
# Indices 1 2 3 4 5 6 
#
# 1 70.9408 39.7412 39.7621 0.0000 0.0000 0.0000
# 2 39.7412 129.2842 49.6004 0.0000 0.0000 0.0000
# 3 39.7621 49.6004 123.4252 0.0000 0.0000 0.0000
# 4 0.0000 0.0000 0.0000 26.2889 0.0000 0.0000
# 5 0.0000 0.0000 0.0000 0.0000 31.9630 0.0000
# 6 0.0000 0.0000 0.0000 0.0000 0.0000 20.0153
#
#
#
# Elastic Compliance Matrix: (Units=1/GPa)
#
#
# Indices 1 2 3 4 5 6 
#
# 1 0.018879 -0.004103 -0.004433 0.000000 0.000000 0.000000
# 2 -0.004103 0.010036 -0.002712 0.000000 0.000000 0.000000
# 3 -0.004433 -0.002712 0.010620 0.000000 0.000000 0.000000
# 4 0.000000 0.000000 0.000000 0.038039 0.000000 0.000000
# 5 0.000000 0.000000 0.000000 0.000000 0.031286 0.000000
# 6 0.000000 0.000000 0.000000 0.000000 0.000000 0.049962
#
#
# Mechanical properties :
#
#
# Convention : Reuss Voigt Hill
#
# Bulk Modulus (GPa) = 58.68327 64.65084 61.66706
# Shear Modulus (GPa) = 26.73824 28.62319 27.68072
#
# Velocity S-wave (km/s) = 3.64327 3.76950 3.70692
# Velocity P-wave (km/s) = 6.84321 7.14420 6.99532
#
# Compressibility (1/GPa) = 0.01704063
#
# Stress axis : x y z
#
# Youngs Moduli (GPa) = 52.96771 99.63826 94.16174
#
# Poissons Ratio (x) = 0.40877 0.41746
# Poissons Ratio (y) = 0.21730 0.25533
# Poissons Ratio (z) = 0.23483 0.27018
#
# Static dielectric constant tensor:
#      x y z
#    x 3.476590 0.000000 0.000000 
#    y 0.000000 4.139140 0.000000 
#    z 0.000000 0.000000 3.483040 
# 
# 
# High freq. dielectric constant tensor:
#      x y z
#    x 1.775640 0.000000 0.000000 
#    y 0.000000 1.803100 0.000000 
#    z 0.000000 0.000000 1.770520 
# 
# From -- ./inp_files/20923.got.cif
#   From: 2010.03.12/outbox.cif.g09.slc.cpg/sg53_11_cif.got.tgz:20923.got - 2010.04.16 14:36:59.
