data_PCOD8218387
_publ_section_title
;
Structure prediction by ZEFSAII (Michael W. Deem and Ramdas Pophale) SiO2 
 PCOD8218387
Probable space group: P M N A
;
_chemical_formula_sum "Si O2"
_cell_formula_units_Z 64
_cell_length_a 8.910070
_cell_length_b 16.818576
_cell_length_c 26.836541
_cell_angle_alpha 90.000000
_cell_angle_beta 90.000000
_cell_angle_gamma 90.000000
_cell_volume 4021.581518
_symmetry_space_group_name_H-M "P M N A"
_symmetry_group_IT_number 53
_symmetry_cell_setting 'orthorhombic'
loop_
_space_group_symop_operation_xyz
x,y,z
1/2-x,-y,1/2+z
x,-y,-z
1/2-x,y,1/2-z
-x,-y,-z
1/2+x,y,1/2-z
-x,y,z
1/2+x,-y,1/2+z
loop_
_atom_site_type_symbol
_atom_site_label
_atom_site_fract_x
_atom_site_fract_y
_atom_site_fract_z
Si Si1 0.822460 0.588055 0.196490
Si Si2 0.823701 0.356334 0.055627
Si Si3 0.827320 0.388992 0.543649
Si Si4 0.175219 0.180359 0.025834
Si Si5 0.175818 0.278199 0.880579
Si Si6 0.175922 0.862284 0.422824
Si Si7 0.334117 0.983987 0.558514
Si Si8 0.827504 0.526778 0.621747
O O1 0.750000 0.596845 0.250000
O O2 0.779009 0.668462 0.166863
O O3 0.753997 0.511153 0.169411
O O4 0.000000 0.577037 0.200352
O O5 0.787236 0.262537 0.053518
O O6 0.755490 0.391088 0.107055
O O7 0.000000 0.373765 0.053247
O O8 0.741489 0.402432 0.010740
O O9 0.731048 0.319931 0.569035
O O10 0.812483 0.469590 0.574371
O O11 0.000000 0.361817 0.539754
O O12 0.000000 0.174723 0.010872
O O13 0.216522 0.108434 0.064331
O O14 0.269978 0.172059 0.975619
O O15 0.254479 0.191777 0.878381
O O16 0.000000 0.265857 0.884212
O O17 0.223532 0.954202 0.414329
O O18 0.000000 0.856659 0.419553
O O19 0.500000 0.997110 0.581049
O O20 0.334866 0.000000 0.500000
O O21 0.000000 0.543411 0.635686
#
# Coordination Sequence:
#
# PCOD8218387 Si02
#       8
#     8   8   8   8   8   8   8   8
#     4  10  21  37  56  73  91 116 148 187 234 282
#     4  11  20  29  44  64  90 123 159 193 228 271
#     4  10  19  30  43  62  88 120 154 191 231 266
#     4   9  18  30  42  58  85 124 160 192 229 268
#     4  10  19  31  47  67  90 120 154 186 225 277
#     4  11  19  26  41  64  89 117 153 194 228 263
#     4   8  15  28  42  55  80 119 157 189 224 264
#     4  10  21  34  47  65  91 119 152 190 229 274
#
# _framework density 15.914135999999999
#
# number of rings (size 3 to 8) (size 9 to 14) (size 15 to 20)
#    0.000    2.125    1.250    4.125    0.000    7.250 
#    0.000    0.000    0.000    0.000    0.000    0.000 
#    0.000    1.000    0.000    6.500    0.000    4.875 
#
# Total GULP energy -793467.304862 kJ/mol
# GULP energy per Si atom -12397.926638 kJ/mol
# Density = 1.587791 g / cm^3
# Si number density = 15.914136 Si / 1000 Ang^3
#
#
#
# Elastic Constant Matrix: (Units=GPa)
#
#
# Indices 1 2 3 4 5 6 
#
# 1 99.5259 48.2766 38.8036 0.0000 0.0000 0.0000
# 2 48.2766 94.7667 37.0111 0.0000 0.0000 0.0000
# 3 38.8036 37.0111 65.0217 0.0000 0.0000 0.0000
# 4 0.0000 0.0000 0.0000 13.2114 0.0000 0.0000
# 5 0.0000 0.0000 0.0000 0.0000 21.4997 0.0000
# 6 0.0000 0.0000 0.0000 0.0000 0.0000 21.2904
#
#
#
# Elastic Compliance Matrix: (Units=1/GPa)
#
#
# Indices 1 2 3 4 5 6 
#
# 1 0.014911 -0.005299 -0.005883 0.000000 0.000000 0.000000
# 2 -0.005299 0.015452 -0.005633 0.000000 0.000000 0.000000
# 3 -0.005883 -0.005633 0.022097 0.000000 0.000000 0.000000
# 4 0.000000 0.000000 0.000000 0.075692 0.000000 0.000000
# 5 0.000000 0.000000 0.000000 0.000000 0.046512 0.000000
# 6 0.000000 0.000000 0.000000 0.000000 0.000000 0.046970
#
#
# Mechanical properties :
#
#
# Convention : Reuss Voigt Hill
#
# Bulk Modulus (GPa) = 53.10522 56.38852 54.74687
# Shear Modulus (GPa) = 19.11757 20.21516 19.66636
#
# Velocity S-wave (km/s) = 3.46973 3.56794 3.51918
# Velocity P-wave (km/s) = 7.03522 7.24455 7.14065
#
# Compressibility (1/GPa) = 0.01883054
#
# Stress axis : x y z
#
# Youngs Moduli (GPa) = 67.06243 64.71852 45.25601
#
# Poissons Ratio (x) = 0.34293 0.26623
# Poissons Ratio (y) = 0.35535 0.25493
# Poissons Ratio (z) = 0.39451 0.36456
#
# Static dielectric constant tensor:
#      x y z
#    x 3.101210 0.000000 0.000000 
#    y 0.000000 3.412340 0.000000 
#    z 0.000000 0.000000 2.611340 
# 
# 
# High freq. dielectric constant tensor:
#      x y z
#    x 1.625290 0.000000 0.000000 
#    y 0.000000 1.618570 0.000000 
#    z 0.000000 0.000000 1.549500 
# 
# From -- ./inp_files/34500.got.cif
#   From: 2010.03.12/outbox.cif.g09.slc.cpg/sg53_18_cif.got.tgz:34500.got - 2010.04.16 14:36:59.
