data_PCOD8218247
_publ_section_title
;
Structure prediction by ZEFSAII (Michael W. Deem and Ramdas Pophale) SiO2 
 PCOD8218247
Probable space group: P M N A
;
_chemical_formula_sum "Si O2"
_cell_formula_units_Z 56
_cell_length_a 17.973965
_cell_length_b 13.801012
_cell_length_c 11.483222
_cell_angle_alpha 90.000000
_cell_angle_beta 90.000000
_cell_angle_gamma 90.000000
_cell_volume 2848.515494
_symmetry_space_group_name_H-M "P M N A"
_symmetry_group_IT_number 53
_symmetry_cell_setting 'orthorhombic'
loop_
_space_group_symop_operation_xyz
x,y,z
1/2-x,-y,1/2+z
x,-y,-z
1/2-x,y,1/2-z
-x,-y,-z
1/2+x,y,1/2-z
-x,y,z
1/2+x,-y,1/2+z
loop_
_atom_site_type_symbol
_atom_site_label
_atom_site_fract_x
_atom_site_fract_y
_atom_site_fract_z
Si Si1 0.331235 0.531843 0.262842
Si Si2 0.672339 0.298411 0.918102
Si Si3 0.915602 0.232906 0.153577
Si Si4 0.841892 0.690198 0.065317
Si Si5 0.583942 0.632524 0.861650
Si Si6 0.912239 0.828238 0.252697
Si Si7 0.411606 0.018884 0.371578
O O1 0.250000 0.481153 0.250000
O O2 0.331710 0.627287 0.186190
O O3 0.345959 0.576854 0.392309
O O4 0.393532 0.458328 0.219127
O O5 0.757522 0.270325 0.939317
O O6 0.627623 0.203440 0.873671
O O7 0.637346 0.351263 0.029615
O O8 0.911324 0.272320 0.283748
O O9 0.881780 0.124943 0.163837
O O10 0.000000 0.228950 0.107230
O O11 0.870874 0.303694 0.066935
O O12 0.892268 0.759506 0.144410
O O13 0.500000 0.613886 0.906093
O O14 0.000000 0.822913 0.274482
O O15 0.884746 0.936865 0.219836
O O16 0.500000 0.015663 0.374085
O O17 0.379143 0.000000 0.500000
#
# Coordination Sequence:
#
# PCOD8218247 Si02
#       7
#     8   8   8   8   8   8   8
#     4   9  21  38  57  82 108 149 195 237 289 347
#     4  10  22  38  57  82 117 160 192 227 284 353
#     4  10  21  36  57  87 116 147 193 243 291 342
#     4  10  20  36  59  84 115 151 186 244 297 342
#     4  11  24  39  57  82 117 156 197 239 279 342
#     4  10  18  33  62  89 112 145 192 243 282 333
#     4   9  16  31  58  87 110 142 186 234 291 341
#
# _framework density 19.659362999999999
#
# number of rings (size 3 to 8) (size 9 to 14) (size 15 to 20)
#    0.000    2.143    1.429    2.571    2.000    4.571 
#    0.000    2.143    9.429    3.429    0.000    0.000 
#    0.000    0.000    0.000    0.000    0.000    0.000 
#
# Total GULP energy -694214.311591 kJ/mol
# GULP energy per Si atom -12396.684136 kJ/mol
# Density = 1.961462 g / cm^3
# Si number density = 19.659363 Si / 1000 Ang^3
#
#
#
# Elastic Constant Matrix: (Units=GPa)
#
#
# Indices 1 2 3 4 5 6 
#
# 1 82.9622 25.3709 31.3395 0.0000 0.0000 0.0000
# 2 25.3709 57.6244 5.9964 0.0000 0.0000 0.0000
# 3 31.3395 5.9964 50.1821 0.0000 0.0000 0.0000
# 4 0.0000 0.0000 0.0000 12.0513 0.0000 0.0000
# 5 0.0000 0.0000 0.0000 0.0000 27.8457 0.0000
# 6 0.0000 0.0000 0.0000 0.0000 0.0000 8.0083
#
#
#
# Elastic Compliance Matrix: (Units=1/GPa)
#
#
# Indices 1 2 3 4 5 6 
#
# 1 0.018125 -0.006888 -0.010496 0.000000 0.000000 0.000000
# 2 -0.006888 0.020190 0.001889 0.000000 0.000000 0.000000
# 3 -0.010496 0.001889 0.026257 0.000000 0.000000 0.000000
# 4 0.000000 0.000000 0.000000 0.082978 0.000000 0.000000
# 5 0.000000 0.000000 0.000000 0.000000 0.035912 0.000000
# 6 0.000000 0.000000 0.000000 0.000000 0.000000 0.124871
#
#
# Mechanical properties :
#
#
# Convention : Reuss Voigt Hill
#
# Bulk Modulus (GPa) = 29.77840 35.13137 32.45489
# Shear Modulus (GPa) = 14.26463 18.11852 16.19157
#
# Velocity S-wave (km/s) = 2.69660 3.03912 2.87297
# Velocity P-wave (km/s) = 4.98754 5.49762 5.24878
#
# Compressibility (1/GPa) = 0.03358138
#
# Stress axis : x y z
#
# Youngs Moduli (GPa) = 55.17185 49.52994 38.08525
#
# Poissons Ratio (x) = 0.34116 0.39976
# Poissons Ratio (y) = 0.38002 -0.07195
# Poissons Ratio (z) = 0.57911 -0.09357
#
# Static dielectric constant tensor:
#      x y z
#    x 3.830010 0.000000 0.000000 
#    y 0.000000 3.662170 0.000000 
#    z 0.000000 0.000000 3.507190 
# 
# 
# High freq. dielectric constant tensor:
#      x y z
#    x 1.755330 0.000000 0.000000 
#    y 0.000000 1.761200 0.000000 
#    z 0.000000 0.000000 1.760320 
# 
# From -- ./inp_files/16068.got.cif
#   From: 2010.03.12/outbox.cif.g09.slc.cpg/sg53_9_cif.got.tgz:16068.got - 2010.04.16 14:36:59.
