data_PCOD8218104
_publ_section_title
;
Structure prediction by ZEFSAII (Michael W. Deem and Ramdas Pophale) SiO2 
 PCOD8218104
Probable space group: P M N A
;
_chemical_formula_sum "Si O2"
_cell_formula_units_Z 64
_cell_length_a 8.807391
_cell_length_b 11.974122
_cell_length_c 31.920478
_cell_angle_alpha 90.000000
_cell_angle_beta 90.000000
_cell_angle_gamma 90.000000
_cell_volume 3366.358327
_symmetry_space_group_name_H-M "P M N A"
_symmetry_group_IT_number 53
_symmetry_cell_setting 'orthorhombic'
loop_
_space_group_symop_operation_xyz
x,y,z
1/2-x,-y,1/2+z
x,-y,-z
1/2-x,y,1/2-z
-x,-y,-z
1/2+x,y,1/2-z
-x,y,z
1/2+x,-y,1/2+z
loop_
_atom_site_type_symbol
_atom_site_label
_atom_site_fract_x
_atom_site_fract_y
_atom_site_fract_z
Si Si1 0.320858 0.316851 0.705341
Si Si2 0.823949 0.758484 0.921035
Si Si3 0.676064 0.858328 0.083654
Si Si4 0.180206 0.068093 0.367051
Si Si5 0.178461 0.940230 0.206570
Si Si6 0.323116 0.370780 0.877851
Si Si7 0.180095 0.484115 0.048578
Si Si8 0.169308 0.869411 0.505412
O O1 0.250000 0.354219 0.750000
O O2 0.500000 0.335385 0.707860
O O3 0.277950 0.187887 0.695792
O O4 0.255165 0.394789 0.667387
O O5 0.736206 0.808406 0.880655
O O6 0.766726 0.635938 0.934042
O O7 0.790116 0.839364 0.959601
O O8 0.000000 0.757683 0.910216
O O9 0.500000 0.880644 0.075964
O O10 0.705259 0.760955 0.116620
O O11 0.744214 0.974906 0.100312
O O12 0.739269 0.821684 0.038140
O O13 0.000000 0.067714 0.364000
O O14 0.249848 0.032773 0.323295
O O15 0.250000 0.974268 0.250000
O O16 0.000000 0.955448 0.207446
O O17 0.500000 0.402383 0.875467
O O18 0.251353 0.429887 0.918386
O O19 0.000000 0.498269 0.049595
O O20 0.237179 0.500000 0.000000
O O21 0.000000 0.821591 0.516396
O O22 0.157035 0.000000 0.500000
#
# Coordination Sequence:
#
# PCOD8218104 Si02
#       8
#     8   8   8   8   8   8   8   8
#     4  10  20  34  55  85 121 156 190 233 287 344
#     4  11  23  37  54  80 110 144 190 239 282 337
#     4   9  18  31  49  77 110 143 180 225 276 331
#     4  11  20  35  56  79 113 150 184 228 281 339
#     4  10  20  34  54  84 119 156 191 228 277 340
#     4  11  21  35  58  85 114 149 195 242 287 343
#     4  10  23  43  61  79 111 155 200 248 300 348
#     4  10  18  32  51  73 104 144 181 221 275 330
#
# _framework density 19.011642999999999
#
# number of rings (size 3 to 8) (size 9 to 14) (size 15 to 20)
#    0.000    1.750    2.500    2.625    0.000    2.500 
#    0.000    0.625    0.000    0.750    0.000    0.000 
#    0.000    0.000    0.000    0.000    0.000    0.000 
#
# Total GULP energy -793142.821593 kJ/mol
# GULP energy per Si atom -12392.856587 kJ/mol
# Density = 1.896837 g / cm^3
# Si number density = 19.011643 Si / 1000 Ang^3
#
#
#
# Elastic Constant Matrix: (Units=GPa)
#
#
# Indices 1 2 3 4 5 6 
#
# 1 64.2296 32.4568 50.4650 0.0000 0.0000 0.0000
# 2 32.4568 68.4130 41.0620 0.0000 0.0000 0.0000
# 3 50.4650 41.0620 153.4287 0.0000 0.0000 0.0000
# 4 0.0000 0.0000 0.0000 33.9649 0.0000 0.0000
# 5 0.0000 0.0000 0.0000 0.0000 31.7537 0.0000
# 6 0.0000 0.0000 0.0000 0.0000 0.0000 20.7933
#
#
#
# Elastic Compliance Matrix: (Units=1/GPa)
#
#
# Indices 1 2 3 4 5 6 
#
# 1 0.024168 -0.007976 -0.005815 0.000000 0.000000 0.000000
# 2 -0.007976 0.020047 -0.002742 0.000000 0.000000 0.000000
# 3 -0.005815 -0.002742 0.009164 0.000000 0.000000 0.000000
# 4 0.000000 0.000000 0.000000 0.029442 0.000000 0.000000
# 5 0.000000 0.000000 0.000000 0.000000 0.031492 0.000000
# 6 0.000000 0.000000 0.000000 0.000000 0.000000 0.048092
#
#
# Mechanical properties :
#
#
# Convention : Reuss Voigt Hill
#
# Bulk Modulus (GPa) = 49.22664 59.33766 54.28215
# Shear Modulus (GPa) = 24.72288 28.10821 26.41555
#
# Velocity S-wave (km/s) = 3.61003 3.84926 3.73156
# Velocity P-wave (km/s) = 6.58221 7.14386 6.86878
#
# Compressibility (1/GPa) = 0.02031420
#
# Stress axis : x y z
#
# Youngs Moduli (GPa) = 41.37676 49.88363 109.12305
#
# Poissons Ratio (x) = 0.39787 0.63451
# Poissons Ratio (y) = 0.33002 0.29918
# Poissons Ratio (z) = 0.24059 0.13676
#
# Static dielectric constant tensor:
#      x y z
#    x 3.390870 0.000000 0.000000 
#    y 0.000000 3.350210 0.000000 
#    z 0.000000 0.000000 3.733420 
# 
# 
# High freq. dielectric constant tensor:
#      x y z
#    x 1.732150 0.000000 0.000000 
#    y 0.000000 1.709210 0.000000 
#    z 0.000000 0.000000 1.750460 
# 
# From -- ./inp_files/38231.got.cif
#   From: 2010.03.12/outbox.cif.g09.slc.cpg/sg53_20_cif.got.tgz:38231.got - 2010.04.16 14:36:59.
