data_PCOD8218959
_publ_section_title
;
Structure prediction by ZEFSAII (Michael W. Deem and Ramdas Pophale) SiO2 
 PCOD8218959
Probable space group: P M N A
;
_chemical_formula_sum "Si O2"
_cell_formula_units_Z 64
_cell_length_a 8.968611
_cell_length_b 11.384958
_cell_length_c 33.237082
_cell_angle_alpha 90.000000
_cell_angle_beta 90.000000
_cell_angle_gamma 90.000000
_cell_volume 3393.747359
_symmetry_space_group_name_H-M "P M N A"
_symmetry_group_IT_number 53
_symmetry_cell_setting 'orthorhombic'
loop_
_space_group_symop_operation_xyz
x,y,z
1/2-x,-y,1/2+z
x,-y,-z
1/2-x,y,1/2-z
-x,-y,-z
1/2+x,y,1/2-z
-x,y,z
1/2+x,-y,1/2+z
loop_
_atom_site_type_symbol
_atom_site_label
_atom_site_fract_x
_atom_site_fract_y
_atom_site_fract_z
Si Si1 0.829278 0.278670 0.024902
Si Si2 0.667652 0.510213 0.942169
Si Si3 0.167503 0.647358 0.640494
Si Si4 0.324270 0.790661 0.208942
Si Si5 0.823813 0.523437 0.290584
Si Si6 0.171098 0.731508 0.064084
Si Si7 0.325324 0.144000 0.395953
Si Si8 0.323686 0.900919 0.125696
O O1 0.729104 0.397115 0.024833
O O2 0.779272 0.186544 0.059211
O O3 0.000000 0.316933 0.032867
O O4 0.811657 0.217034 0.981349
O O5 0.500000 0.470316 0.954085
O O6 0.666182 0.575860 0.900189
O O7 0.778996 0.402727 0.937292
O O8 0.234386 0.561827 0.674418
O O9 0.272323 0.761136 0.636953
O O10 0.000000 0.688960 0.651459
O O11 0.250000 0.838891 0.250000
O O12 0.500000 0.798268 0.214766
O O13 0.272538 0.656862 0.200407
O O14 0.271259 0.868088 0.170910
O O15 0.750000 0.476463 0.250000
O O16 0.000000 0.517476 0.286627
O O17 0.273714 0.801344 0.094707
O O18 0.000000 0.739408 0.078379
O O19 0.500000 0.124106 0.391797
O O20 0.245285 0.022775 0.387481
O O21 0.500000 0.909192 0.123684
#
# Coordination Sequence:
#
# PCOD8218959 Si02
#       8
#     8   8   8   8   8   8   8   8
#     4   9  20  37  54  75 107 144 179 220 270 320
#     4  10  19  32  53  80 108 138 176 222 271 323
#     4   9  18  34  54  75 104 140 173 210 262 316
#     4   9  19  36  58  83 111 140 169 209 261 315
#     4   9  17  31  52  79 109 136 164 203 255 313
#     4  11  22  35  53  78 109 144 180 219 266 320
#     4  10  21  38  57  76 101 137 183 227 265 309
#     4  11  23  39  57  79 108 140 179 225 270 314
#
# _framework density 18.85821
#
# number of rings (size 3 to 8) (size 9 to 14) (size 15 to 20)
#    0.000    2.250    0.000    2.625    0.000    7.500 
#    0.000    5.625    0.000    0.000    0.000    0.000 
#    0.000    0.000    0.000    0.000    0.000    0.000 
#
# Total GULP energy -793652.624267 kJ/mol
# GULP energy per Si atom -12400.822254 kJ/mol
# Density = 1.881529 g / cm^3
# Si number density = 18.858210 Si / 1000 Ang^3
#
#
#
# Elastic Constant Matrix: (Units=GPa)
#
#
# Indices 1 2 3 4 5 6 
#
# 1 62.7991 33.2613 37.1033 0.0000 0.0000 0.0000
# 2 33.2613 86.5796 51.9329 0.0000 0.0000 0.0000
# 3 37.1033 51.9329 81.5153 0.0000 0.0000 0.0000
# 4 0.0000 0.0000 0.0000 22.5530 0.0000 0.0000
# 5 0.0000 0.0000 0.0000 0.0000 30.0062 0.0000
# 6 0.0000 0.0000 0.0000 0.0000 0.0000 33.9120
#
#
#
# Elastic Compliance Matrix: (Units=1/GPa)
#
#
# Indices 1 2 3 4 5 6 
#
# 1 0.022635 -0.004072 -0.007709 0.000000 0.000000 0.000000
# 2 -0.004072 0.019426 -0.010523 0.000000 0.000000 0.000000
# 3 -0.007709 -0.010523 0.022481 0.000000 0.000000 0.000000
# 4 0.000000 0.000000 0.000000 0.044340 0.000000 0.000000
# 5 0.000000 0.000000 0.000000 0.000000 0.033326 0.000000
# 6 0.000000 0.000000 0.000000 0.000000 0.000000 0.029488
#
#
# Mechanical properties :
#
#
# Convention : Reuss Voigt Hill
#
# Bulk Modulus (GPa) = 50.16341 52.83212 51.49777
# Shear Modulus (GPa) = 22.42676 24.53402 23.48039
#
# Velocity S-wave (km/s) = 3.45226 3.61081 3.53243
# Velocity P-wave (km/s) = 6.52295 6.74242 6.63359
#
# Compressibility (1/GPa) = 0.01993485
#
# Stress axis : x y z
#
# Youngs Moduli (GPa) = 44.17970 51.47650 44.48293
#
# Poissons Ratio (x) = 0.20960 0.34290
# Poissons Ratio (y) = 0.17989 0.46810
# Poissons Ratio (z) = 0.34056 0.54169
#
# Static dielectric constant tensor:
#      x y z
#    x 3.556380 0.000000 0.000000 
#    y 0.000000 3.378410 0.000000 
#    z 0.000000 0.000000 3.652220 
# 
# 
# High freq. dielectric constant tensor:
#      x y z
#    x 1.735260 0.000000 0.000000 
#    y 0.000000 1.718220 0.000000 
#    z 0.000000 0.000000 1.739330 
# 
# From -- ./inp_files/38199.got.cif
#   From: 2010.03.12/outbox.cif.g09.slc.cpg/sg53_20_cif.got.tgz:38199.got - 2010.04.16 14:36:59.
