data_PCOD8218341
_publ_section_title
;
Structure prediction by ZEFSAII (Michael W. Deem and Ramdas Pophale) SiO2 
 PCOD8218341
Probable space group: P M N A
;
_chemical_formula_sum "Si O2"
_cell_formula_units_Z 56
_cell_length_a 8.923494
_cell_length_b 13.661935
_cell_length_c 28.221106
_cell_angle_alpha 90.000000
_cell_angle_beta 90.000000
_cell_angle_gamma 90.000000
_cell_volume 3440.496978
_symmetry_space_group_name_H-M "P M N A"
_symmetry_group_IT_number 53
_symmetry_cell_setting 'orthorhombic'
loop_
_space_group_symop_operation_xyz
x,y,z
1/2-x,-y,1/2+z
x,-y,-z
1/2-x,y,1/2-z
-x,-y,-z
1/2+x,y,1/2-z
-x,y,z
1/2+x,-y,1/2+z
loop_
_atom_site_type_symbol
_atom_site_label
_atom_site_fract_x
_atom_site_fract_y
_atom_site_fract_z
Si Si1 0.322299 0.009155 0.298731
Si Si2 0.825918 0.078673 0.610492
Si Si3 0.673414 0.279314 0.397686
Si Si4 0.172860 0.111391 0.450159
Si Si5 0.322311 0.200965 0.536690
Si Si6 0.175308 0.603825 0.986274
Si Si7 0.828017 0.232664 0.203856
O O1 0.250000 0.970403 0.250000
O O2 0.500000 0.997202 0.296834
O O3 0.258744 0.943192 0.340874
O O4 0.272491 0.122047 0.306792
O O5 0.755433 0.176280 0.586853
O O6 0.000000 0.094879 0.621634
O O7 0.798655 0.993680 0.572438
O O8 0.500000 0.246786 0.405271
O O9 0.780660 0.190713 0.411265
O O10 0.709481 0.373047 0.430756
O O11 0.703602 0.301145 0.342094
O O12 0.272731 0.122248 0.497106
O O13 0.000000 0.125580 0.464417
O O14 0.500000 0.197176 0.542471
O O15 0.264612 0.308115 0.519437
O O16 0.000000 0.595660 0.995213
O O17 0.252274 0.500000 0.000000
O O18 0.750000 0.278779 0.250000
O O19 0.000000 0.229533 0.217022
#
# Coordination Sequence:
#
# PCOD8218341 Si02
#       7
#     8   8   8   8   8   8   8
#     4  10  19  31  46  64  91 124 160 193 224 265
#     4  11  21  31  44  64  92 124 157 190 226 265
#     4   9  16  28  45  66  90 119 152 185 226 273
#     4  10  19  29  42  62  91 123 153 184 221 264
#     4  10  20  31  46  66  89 118 153 189 228 275
#     4   8  15  29  49  70  90 112 146 192 236 281
#     4   9  17  27  41  62  89 120 152 184 216 260
#
# _framework density 16.276717999999999
#
# number of rings (size 3 to 8) (size 9 to 14) (size 15 to 20)
#    0.000    2.429    1.429    3.000    0.000    4.571 
#    0.000    0.000    0.000   10.714    0.000    1.000 
#    0.000    2.286    0.000    0.000    0.000    0.000 
#
# Total GULP energy -694155.517928 kJ/mol
# GULP energy per Si atom -12395.634249 kJ/mol
# Density = 1.623967 g / cm^3
# Si number density = 16.276718 Si / 1000 Ang^3
#
#
#
# Elastic Constant Matrix: (Units=GPa)
#
#
# Indices 1 2 3 4 5 6 
#
# 1 58.2375 27.4959 43.9936 0.0000 0.0000 0.0000
# 2 27.4959 70.6217 57.8124 0.0000 0.0000 0.0000
# 3 43.9936 57.8124 125.9983 0.0000 0.0000 0.0000
# 4 0.0000 0.0000 0.0000 17.4305 0.0000 0.0000
# 5 0.0000 0.0000 0.0000 0.0000 31.1231 0.0000
# 6 0.0000 0.0000 0.0000 0.0000 0.0000 9.5451
#
#
#
# Elastic Compliance Matrix: (Units=1/GPa)
#
#
# Indices 1 2 3 4 5 6 
#
# 1 0.024001 -0.003979 -0.006555 0.000000 0.000000 0.000000
# 2 -0.003979 0.023338 -0.009319 0.000000 0.000000 0.000000
# 3 -0.006555 -0.009319 0.014501 0.000000 0.000000 0.000000
# 4 0.000000 0.000000 0.000000 0.057371 0.000000 0.000000
# 5 0.000000 0.000000 0.000000 0.000000 0.032130 0.000000
# 6 0.000000 0.000000 0.000000 0.000000 0.000000 0.104765
#
#
# Mechanical properties :
#
#
# Convention : Reuss Voigt Hill
#
# Bulk Modulus (GPa) = 45.17700 57.05127 51.11413
# Shear Modulus (GPa) = 16.49132 19.99012 18.24072
#
# Velocity S-wave (km/s) = 3.18651 3.50829 3.35126
# Velocity P-wave (km/s) = 6.43073 7.17898 6.81513
#
# Compressibility (1/GPa) = 0.02213516
#
# Stress axis : x y z
#
# Youngs Moduli (GPa) = 41.66480 42.84906 68.96053
#
# Poissons Ratio (x) = 0.17049 0.45201
# Poissons Ratio (y) = 0.16578 0.64264
# Poissons Ratio (z) = 0.27310 0.39931
#
# Static dielectric constant tensor:
#      x y z
#    x 3.023920 0.000000 0.000000 
#    y 0.000000 2.959020 0.000000 
#    z 0.000000 0.000000 3.190580 
# 
# 
# High freq. dielectric constant tensor:
#      x y z
#    x 1.624050 0.000000 0.000000 
#    y 0.000000 1.576780 0.000000 
#    z 0.000000 0.000000 1.630930 
# 
# From -- ./inp_files/38367.got.cif
#   From: 2010.03.12/outbox.cif.g09.slc.cpg/sg53_20_cif.got.tgz:38367.got - 2010.04.16 14:36:59.
