data_PCOD8218057
_publ_section_title
;
Structure prediction by ZEFSAII (Michael W. Deem and Ramdas Pophale) SiO2 
 PCOD8218057
Probable space group: P M N A
;
_chemical_formula_sum "Si O2"
_cell_formula_units_Z 64
_cell_length_a 9.072509
_cell_length_b 19.963779
_cell_length_c 19.263150
_cell_angle_alpha 90.000000
_cell_angle_beta 90.000000
_cell_angle_gamma 90.000000
_cell_volume 3488.971868
_symmetry_space_group_name_H-M "P M N A"
_symmetry_group_IT_number 53
_symmetry_cell_setting 'orthorhombic'
loop_
_space_group_symop_operation_xyz
x,y,z
1/2-x,-y,1/2+z
x,-y,-z
1/2-x,y,1/2-z
-x,-y,-z
1/2+x,y,1/2-z
-x,y,z
1/2+x,-y,1/2+z
loop_
_atom_site_type_symbol
_atom_site_label
_atom_site_fract_x
_atom_site_fract_y
_atom_site_fract_z
Si Si1 0.327175 0.844559 0.068985
Si Si2 0.670985 0.901781 0.677093
Si Si3 0.333924 0.483776 0.080840
Si Si4 0.330123 0.643203 0.549347
Si Si5 0.826188 0.732595 0.319657
Si Si6 0.670888 0.794308 0.565999
Si Si7 0.673990 0.020408 0.577202
Si Si8 0.672358 0.613251 0.390441
O O1 0.500000 0.856117 0.063976
O O2 0.286051 0.784115 0.119766
O O3 0.253374 0.911316 0.099412
O O4 0.266823 0.828455 0.993150
O O5 0.750000 0.901442 0.750000
O O6 0.500000 0.910674 0.691846
O O7 0.703698 0.831961 0.637955
O O8 0.727889 0.963053 0.629888
O O9 0.500000 0.485168 0.110174
O O10 0.266129 0.410034 0.092559
O O11 0.235277 0.538484 0.120555
O O12 0.330978 0.500000 0.000000
O O13 0.500000 0.626166 0.563387
O O14 0.286444 0.716757 0.576274
O O15 0.295415 0.639515 0.467765
O O16 0.750000 0.759821 0.250000
O O17 0.757958 0.660615 0.337432
O O18 0.000000 0.725340 0.308681
O O19 0.500000 0.801879 0.544065
O O20 0.500000 0.031518 0.580574
O O21 0.723440 0.000000 0.500000
O O22 0.500000 0.613428 0.372862
#
# Coordination Sequence:
#
# PCOD8218057 Si02
#       8
#     8   8   8   8   8   8   8   8
#     4  11  23  36  56  86 115 142 183 239 285 329
#     4  10  22  39  60  85 114 148 185 226 276 333
#     4   9  17  28  45  73 111 144 174 224 279 329
#     4   9  17  29  51  80 106 139 185 232 274 328
#     4  11  24  39  54  77 111 150 191 233 285 343
#     4  10  19  36  59  82 112 151 190 227 279 341
#     4  10  20  38  62  83 110 149 190 227 271 333
#     4  10  18  31  53  77 105 142 184 232 281 332
#
# _framework density 18.343513000000002
#
# number of rings (size 3 to 8) (size 9 to 14) (size 15 to 20)
#    0.000    2.000    2.500    1.500    0.000    5.750 
#    0.000    2.500    0.000    0.750    0.000    3.500 
#    0.000    0.000    0.000    0.000    0.000    0.000 
#
# Total GULP energy -793804.778343 kJ/mol
# GULP energy per Si atom -12403.199662 kJ/mol
# Density = 1.830176 g / cm^3
# Si number density = 18.343513 Si / 1000 Ang^3
#
#
#
# Elastic Constant Matrix: (Units=GPa)
#
#
# Indices 1 2 3 4 5 6 
#
# 1 76.3729 52.1786 38.1642 0.0000 0.0000 0.0000
# 2 52.1786 141.5866 45.6682 0.0000 0.0000 0.0000
# 3 38.1642 45.6682 87.3578 0.0000 0.0000 0.0000
# 4 0.0000 0.0000 0.0000 17.5191 0.0000 0.0000
# 5 0.0000 0.0000 0.0000 0.0000 29.2086 0.0000
# 6 0.0000 0.0000 0.0000 0.0000 0.0000 28.7289
#
#
#
# Elastic Compliance Matrix: (Units=1/GPa)
#
#
# Indices 1 2 3 4 5 6 
#
# 1 0.019655 -0.005381 -0.005774 0.000000 0.000000 0.000000
# 2 -0.005381 0.009969 -0.002860 0.000000 0.000000 0.000000
# 3 -0.005774 -0.002860 0.015465 0.000000 0.000000 0.000000
# 4 0.000000 0.000000 0.000000 0.057080 0.000000 0.000000
# 5 0.000000 0.000000 0.000000 0.000000 0.034237 0.000000
# 6 0.000000 0.000000 0.000000 0.000000 0.000000 0.034808
#
#
# Mechanical properties :
#
#
# Convention : Reuss Voigt Hill
#
# Bulk Modulus (GPa) = 58.62310 64.14881 61.38596
# Shear Modulus (GPa) = 24.39852 26.37842 25.38847
#
# Velocity S-wave (km/s) = 3.65100 3.79624 3.72433
# Velocity P-wave (km/s) = 7.05698 7.36628 7.21328
#
# Compressibility (1/GPa) = 0.01705812
#
# Stress axis : x y z
#
# Youngs Moduli (GPa) = 50.87682 100.31545 64.66276
#
# Poissons Ratio (x) = 0.53982 0.37334
# Poissons Ratio (y) = 0.27378 0.18496
# Poissons Ratio (z) = 0.29375 0.28694
#
# Static dielectric constant tensor:
#      x y z
#    x 3.385020 0.000000 0.000000 
#    y 0.000000 3.601670 0.000000 
#    z 0.000000 0.000000 3.093170 
# 
# 
# High freq. dielectric constant tensor:
#      x y z
#    x 1.714570 0.000000 0.000000 
#    y 0.000000 1.725640 0.000000 
#    z 0.000000 0.000000 1.678210 
# 
# From -- ./inp_files/27022.got.cif
#   From: 2010.03.12/outbox.cif.g09.slc.cpg/sg53_14_cif.got.tgz:27022.got - 2010.04.16 14:36:59.
