data_PCOD8218167
_publ_section_title
;
Structure prediction by ZEFSAII (Michael W. Deem and Ramdas Pophale) SiO2 
 PCOD8218167
Probable space group: P M N A
;
_chemical_formula_sum "Si O2"
_cell_formula_units_Z 48
_cell_length_a 9.048959
_cell_length_b 9.602686
_cell_length_c 30.572673
_cell_angle_alpha 90.000000
_cell_angle_beta 90.000000
_cell_angle_gamma 90.000000
_cell_volume 2656.591383
_symmetry_space_group_name_H-M "P M N A"
_symmetry_group_IT_number 53
_symmetry_cell_setting 'orthorhombic'
loop_
_space_group_symop_operation_xyz
x,y,z
1/2-x,-y,1/2+z
x,-y,-z
1/2-x,y,1/2-z
-x,-y,-z
1/2+x,y,1/2-z
-x,y,z
1/2+x,-y,1/2+z
loop_
_atom_site_type_symbol
_atom_site_label
_atom_site_fract_x
_atom_site_fract_y
_atom_site_fract_z
Si Si1 0.828942 0.848259 0.019535
Si Si2 0.170971 0.689707 0.795435
Si Si3 0.325973 0.714604 0.568013
Si Si4 0.326378 0.524204 0.370890
Si Si5 0.674906 0.806448 0.110719
Si Si6 0.674399 0.073448 0.360384
O O1 0.728328 0.822175 0.061062
O O2 0.000000 0.829812 0.033151
O O3 0.781875 0.735205 0.982596
O O4 0.801121 0.000000 0.000000
O O5 0.250000 0.667251 0.750000
O O6 0.212753 0.564581 0.827991
O O7 0.213147 0.837997 0.817074
O O8 0.000000 0.686346 0.785235
O O9 0.500000 0.722699 0.574517
O O10 0.274287 0.564697 0.586325
O O11 0.264720 0.841602 0.597458
O O12 0.500000 0.560040 0.373487
O O13 0.231560 0.663136 0.368829
O O14 0.500000 0.810330 0.111979
O O15 0.738758 0.928508 0.141316
O O16 0.500000 0.043423 0.363986
#
# Coordination Sequence:
#
# PCOD8218167 Si02
#       6
#     8   8   8   8   8   8
#     4  10  18  32  56  78 101 141 188 231 265 309
#     4   9  19  36  63  89 108 132 171 219 268 325
#     4   8  15  31  56  79  96 131 190 231 253 296
#     4   9  19  37  57  77 105 144 184 219 259 319
#     4  12  24  34  48  78 115 146 176 222 275 316
#     4   9  17  35  58  79 103 137 180 219 256 315
#
# _framework density 18.068265
#
# number of rings (size 3 to 8) (size 9 to 14) (size 15 to 20)
#    0.000    2.500    1.667    3.500    0.000    2.333 
#    0.000    7.500    0.000    0.000    0.000    0.000 
#    0.000    0.000    0.000    0.000    0.000    0.000 
#
# Total GULP energy -595058.946198 kJ/mol
# GULP energy per Si atom -12397.061379 kJ/mol
# Density = 1.802714 g / cm^3
# Si number density = 18.068265 Si / 1000 Ang^3
#
#
#
# Elastic Constant Matrix: (Units=GPa)
#
#
# Indices 1 2 3 4 5 6 
#
# 1 83.3113 59.9308 50.6960 0.0000 0.0000 0.0000
# 2 59.9308 130.4777 54.5537 0.0000 0.0000 0.0000
# 3 50.6960 54.5537 102.5928 0.0000 0.0000 0.0000
# 4 0.0000 0.0000 0.0000 19.1788 0.0000 0.0000
# 5 0.0000 0.0000 0.0000 0.0000 28.4588 0.0000
# 6 0.0000 0.0000 0.0000 0.0000 0.0000 14.8634
#
#
#
# Elastic Compliance Matrix: (Units=1/GPa)
#
#
# Indices 1 2 3 4 5 6 
#
# 1 0.021033 -0.006835 -0.006759 0.000000 0.000000 0.000000
# 2 -0.006835 0.012076 -0.003044 0.000000 0.000000 0.000000
# 3 -0.006759 -0.003044 0.014706 0.000000 0.000000 0.000000
# 4 0.000000 0.000000 0.000000 0.052141 0.000000 0.000000
# 5 0.000000 0.000000 0.000000 0.000000 0.035139 0.000000
# 6 0.000000 0.000000 0.000000 0.000000 0.000000 0.067279
#
#
# Mechanical properties :
#
#
# Convention : Reuss Voigt Hill
#
# Bulk Modulus (GPa) = 68.77938 71.86030 70.31984
# Shear Modulus (GPa) = 20.79039 22.58028 21.68533
#
# Velocity S-wave (km/s) = 3.39581 3.53897 3.46813
# Velocity P-wave (km/s) = 7.31604 7.52044 7.41894
#
# Compressibility (1/GPa) = 0.01453924
#
# Stress axis : x y z
#
# Youngs Moduli (GPa) = 47.54507 82.80703 67.99995
#
# Poissons Ratio (x) = 0.56597 0.45960
# Poissons Ratio (y) = 0.32496 0.20700
# Poissons Ratio (z) = 0.32135 0.25208
#
# Static dielectric constant tensor:
#      x y z
#    x 3.013900 0.000000 0.000000 
#    y 0.000000 3.458920 0.000000 
#    z 0.000000 0.000000 4.228990 
# 
# 
# High freq. dielectric constant tensor:
#      x y z
#    x 1.669060 0.000000 0.000000 
#    y 0.000000 1.705980 0.000000 
#    z 0.000000 0.000000 1.691250 
# 
# From -- ./inp_files/37729.got.cif
#   From: 2010.03.12/outbox.cif.g09.slc.cpg/sg53_19_cif.got.tgz:37729.got - 2010.04.16 14:36:59.
