data_PCOD8218501
_publ_section_title
;
Structure prediction by ZEFSAII (Michael W. Deem and Ramdas Pophale) SiO2 
 PCOD8218501
Probable space group: P M N A
;
_chemical_formula_sum "Si O2"
_cell_formula_units_Z 64
_cell_length_a 9.133237
_cell_length_b 19.929359
_cell_length_c 19.120674
_cell_angle_alpha 90.000000
_cell_angle_beta 90.000000
_cell_angle_gamma 90.000000
_cell_volume 3480.336649
_symmetry_space_group_name_H-M "P M N A"
_symmetry_group_IT_number 53
_symmetry_cell_setting 'orthorhombic'
loop_
_space_group_symop_operation_xyz
x,y,z
1/2-x,-y,1/2+z
x,-y,-z
1/2-x,y,1/2-z
-x,-y,-z
1/2+x,y,1/2-z
-x,y,z
1/2+x,-y,1/2+z
loop_
_atom_site_type_symbol
_atom_site_label
_atom_site_fract_x
_atom_site_fract_y
_atom_site_fract_z
Si Si1 0.171712 0.348238 0.042944
Si Si2 0.668699 0.255711 0.821508
Si Si3 0.330595 0.200894 0.418675
Si Si4 0.671141 0.100182 0.177152
Si Si5 0.830174 0.976647 0.423156
Si Si6 0.337940 0.488748 0.417326
Si Si7 0.166708 0.615095 0.403877
Si Si8 0.671378 0.158066 0.575231
O O1 0.212543 0.279447 0.081741
O O2 0.214066 0.411302 0.093457
O O3 0.000000 0.350692 0.024666
O O4 0.253046 0.351714 0.969377
O O5 0.750000 0.239103 0.750000
O O6 0.500000 0.233510 0.814953
O O7 0.681376 0.334785 0.838425
O O8 0.743962 0.215265 0.883529
O O9 0.500000 0.190745 0.399058
O O10 0.231735 0.166491 0.360214
O O11 0.295908 0.168372 0.493556
O O12 0.750000 0.088581 0.250000
O O13 0.500000 0.110224 0.189767
O O14 0.705484 0.035764 0.130226
O O15 0.731552 0.913892 0.400653
O O16 0.000000 0.955439 0.421350
O O17 0.783339 0.000000 0.500000
O O18 0.337982 0.500000 0.500000
O O19 0.500000 0.499423 0.386039
O O20 0.232516 0.542902 0.380861
O O21 0.000000 0.603404 0.425767
O O22 0.500000 0.163130 0.592180
#
# Coordination Sequence:
#
# PCOD8218501 Si02
#       8
#     8   8   8   8   8   8   8   8
#     4   9  17  31  51  78 110 144 182 224 274 331
#     4  11  24  39  55  77 110 151 193 237 287 344
#     4  10  20  35  58  86 116 149 188 232 278 334
#     4  11  24  41  62  86 116 151 187 230 281 336
#     4  10  21  39  61  85 116 152 189 232 278 329
#     4   8  15  27  46  72 104 141 177 218 270 327
#     4  10  19  30  48  75 107 141 181 233 282 329
#     4  11  22  36  60  88 114 147 187 236 284 336
#
# _framework density 18.389026000000001
#
# number of rings (size 3 to 8) (size 9 to 14) (size 15 to 20)
#    0.000    2.000    2.500    2.250    0.000    6.500 
#    0.000    1.250    0.000    0.750    0.000    1.750 
#    0.000    0.000    0.000    0.000    0.000    0.000 
#
# Total GULP energy -793647.300785 kJ/mol
# GULP energy per Si atom -12400.739075 kJ/mol
# Density = 1.834717 g / cm^3
# Si number density = 18.389026 Si / 1000 Ang^3
#
#
#
# Elastic Constant Matrix: (Units=GPa)
#
#
# Indices 1 2 3 4 5 6 
#
# 1 101.7971 58.6684 47.9355 0.0000 0.0000 0.0000
# 2 58.6684 135.0599 37.4669 0.0000 0.0000 0.0000
# 3 47.9355 37.4669 79.3193 0.0000 0.0000 0.0000
# 4 0.0000 0.0000 0.0000 17.5386 0.0000 0.0000
# 5 0.0000 0.0000 0.0000 0.0000 24.2246 0.0000
# 6 0.0000 0.0000 0.0000 0.0000 0.0000 32.9417
#
#
#
# Elastic Compliance Matrix: (Units=1/GPa)
#
#
# Indices 1 2 3 4 5 6 
#
# 1 0.016189 -0.004969 -0.007436 0.000000 0.000000 0.000000
# 2 -0.004969 0.010046 -0.001742 0.000000 0.000000 0.000000
# 3 -0.007436 -0.001742 0.017924 0.000000 0.000000 0.000000
# 4 0.000000 0.000000 0.000000 0.057017 0.000000 0.000000
# 5 0.000000 0.000000 0.000000 0.000000 0.041280 0.000000
# 6 0.000000 0.000000 0.000000 0.000000 0.000000 0.030357
#
#
# Mechanical properties :
#
#
# Convention : Reuss Voigt Hill
#
# Bulk Modulus (GPa) = 63.03716 67.14642 65.09179
# Shear Modulus (GPa) = 24.22509 26.41467 25.31988
#
# Velocity S-wave (km/s) = 3.63349 3.79415 3.71469
# Velocity P-wave (km/s) = 7.20814 7.46912 7.33979
#
# Compressibility (1/GPa) = 0.01586366
#
# Stress axis : x y z
#
# Youngs Moduli (GPa) = 61.76933 99.54133 55.79041
#
# Poissons Ratio (x) = 0.49467 0.41488
# Poissons Ratio (y) = 0.30696 0.09719
# Poissons Ratio (z) = 0.45934 0.17341
#
# Static dielectric constant tensor:
#      x y z
#    x 3.447140 0.000000 0.000000 
#    y 0.000000 3.774460 0.000000 
#    z 0.000000 0.000000 3.040670 
# 
# 
# High freq. dielectric constant tensor:
#      x y z
#    x 1.719290 0.000000 0.000000 
#    y 0.000000 1.730170 0.000000 
#    z 0.000000 0.000000 1.675740 
# 
# From -- ./inp_files/26887.got.cif
#   From: 2010.03.12/outbox.cif.g09.slc.cpg/sg53_14_cif.got.tgz:26887.got - 2010.04.16 14:36:59.
