data_PCOD8218261
_publ_section_title
;
Structure prediction by ZEFSAII (Michael W. Deem and Ramdas Pophale) SiO2 
 PCOD8218261
Probable space group: P M N A
;
_chemical_formula_sum "Si O2"
_cell_formula_units_Z 32
_cell_length_a 9.986812
_cell_length_b 10.242303
_cell_length_c 17.598342
_cell_angle_alpha 90.000000
_cell_angle_beta 90.000000
_cell_angle_gamma 90.000000
_cell_volume 1800.098406
_symmetry_space_group_name_H-M "P M N A"
_symmetry_group_IT_number 53
_symmetry_cell_setting 'orthorhombic'
loop_
_space_group_symop_operation_xyz
x,y,z
1/2-x,-y,1/2+z
x,-y,-z
1/2-x,y,1/2-z
-x,-y,-z
1/2+x,y,1/2-z
-x,y,z
1/2+x,-y,1/2+z
loop_
_atom_site_type_symbol
_atom_site_label
_atom_site_fract_x
_atom_site_fract_y
_atom_site_fract_z
Si Si1 0.500000 0.365001 0.659266
Si Si2 0.000000 0.851869 0.270876
Si Si3 0.738371 0.494407 0.411703
Si Si4 0.750000 0.974753 0.750000
Si Si5 0.345844 0.273389 0.313549
Si Si6 0.000000 0.577492 0.325617
O O1 0.500000 0.213380 0.686018
O O2 0.631143 0.394277 0.609785
O O3 0.500000 0.457887 0.735064
O O4 0.868067 0.937212 0.283414
O O5 0.000000 0.735901 0.333435
O O6 0.770929 0.500000 0.500000
O O7 0.679118 0.350620 0.392132
O O8 0.872027 0.517441 0.365205
O O9 0.695964 0.880583 0.681505
O O10 0.250000 0.341054 0.250000
O O11 0.500000 0.282016 0.288596
#
# Coordination Sequence:
#
# PCOD8218261 Si02
#       6
#     4   4   8   4   8   4
#     4  10  21  36  61  83 114 150 193 238 284 334
#     4  10  20  34  60  84 112 140 206 240 268 328
#     4  12  23  37  57  89 125 149 183 236 300 348
#     4  10  18  34  56  90 104 148 192 252 272 320
#     4  10  21  35  59  85 116 144 194 237 287 338
#     4  10  23  38  59  85 114 154 191 238 282 340
#
# _framework density 17.776807999999999
#
# number of rings (size 3 to 8) (size 9 to 14) (size 15 to 20)
#    1.500    0.000    2.500    4.500    1.750    0.000 
#    0.000    0.000    0.000    9.000    0.000    0.000 
#    0.000    0.000    0.000    0.000    0.000    0.000 
#
# Total GULP energy -396539.647151 kJ/mol
# GULP energy per Si atom -12391.863973 kJ/mol
# Density = 1.773635 g / cm^3
# Si number density = 17.776808 Si / 1000 Ang^3
#
#
#
# Elastic Constant Matrix: (Units=GPa)
#
#
# Indices 1 2 3 4 5 6 
#
# 1 134.2432 30.8271 10.6664 0.0000 0.0000 0.0000
# 2 30.8271 92.2339 11.1227 0.0000 0.0000 0.0000
# 3 10.6664 11.1227 61.5760 0.0000 0.0000 0.0000
# 4 0.0000 0.0000 0.0000 10.6779 0.0000 0.0000
# 5 0.0000 0.0000 0.0000 0.0000 19.7903 0.0000
# 6 0.0000 0.0000 0.0000 0.0000 0.0000 31.5377
#
#
#
# Elastic Compliance Matrix: (Units=1/GPa)
#
#
# Indices 1 2 3 4 5 6 
#
# 1 0.008121 -0.002601 -0.000937 0.000000 0.000000 0.000000
# 2 -0.002601 0.011917 -0.001702 0.000000 0.000000 0.000000
# 3 -0.000937 -0.001702 0.016710 0.000000 0.000000 0.000000
# 4 0.000000 0.000000 0.000000 0.093651 0.000000 0.000000
# 5 0.000000 0.000000 0.000000 0.000000 0.050530 0.000000
# 6 0.000000 0.000000 0.000000 0.000000 0.000000 0.031708
#
#
# Mechanical properties :
#
#
# Convention : Reuss Voigt Hill
#
# Bulk Modulus (GPa) = 38.07020 43.69838 40.88429
# Shear Modulus (GPa) = 21.56359 28.09699 24.83029
#
# Velocity S-wave (km/s) = 3.48662 3.97992 3.74141
# Velocity P-wave (km/s) = 6.13766 6.76422 6.45854
#
# Compressibility (1/GPa) = 0.02626726
#
# Stress axis : x y z
#
# Youngs Moduli (GPa) = 123.13832 83.91615 59.84511
#
# Poissons Ratio (x) = 0.21829 0.05607
# Poissons Ratio (y) = 0.32032 0.10185
# Poissons Ratio (z) = 0.11536 0.14282
#
# Static dielectric constant tensor:
#      x y z
#    x 3.319280 0.000000 0.000000 
#    y 0.000000 3.312280 0.000000 
#    z 0.000000 0.000000 2.897520 
# 
# 
# High freq. dielectric constant tensor:
#      x y z
#    x 1.713650 0.000000 0.000000 
#    y 0.000000 1.688460 0.000000 
#    z 0.000000 0.000000 1.637740 
# 
# From -- ./inp_files/25781.got.cif
#   From: 2010.03.12/outbox.cif.g09.slc.cpg/sg53_13_cif.got.tgz:25781.got - 2010.04.16 14:36:59.
