data_PCOD8218326
_publ_section_title
;
Structure prediction by ZEFSAII (Michael W. Deem and Ramdas Pophale) SiO2 
 PCOD8218326
Probable space group: P M N A
;
_chemical_formula_sum "Si O2"
_cell_formula_units_Z 64
_cell_length_a 8.911832
_cell_length_b 18.381493
_cell_length_c 26.229804
_cell_angle_alpha 90.000000
_cell_angle_beta 90.000000
_cell_angle_gamma 90.000000
_cell_volume 4296.777047
_symmetry_space_group_name_H-M "P M N A"
_symmetry_group_IT_number 53
_symmetry_cell_setting 'orthorhombic'
loop_
_space_group_symop_operation_xyz
x,y,z
1/2-x,-y,1/2+z
x,-y,-z
1/2-x,y,1/2-z
-x,-y,-z
1/2+x,y,1/2-z
-x,y,z
1/2+x,-y,1/2+z
loop_
_atom_site_type_symbol
_atom_site_label
_atom_site_fract_x
_atom_site_fract_y
_atom_site_fract_z
Si Si1 0.323787 0.670241 0.008580
Si Si2 0.335091 0.461245 0.053982
Si Si3 0.327345 0.094699 0.607188
Si Si4 0.822636 0.341579 0.697252
Si Si5 0.675289 0.824815 0.197957
Si Si6 0.822930 0.961492 0.951458
Si Si7 0.323379 0.588476 0.398788
Si Si8 0.327298 0.820791 0.498558
O O1 0.500000 0.664409 0.021211
O O2 0.283462 0.621476 0.958542
O O3 0.233508 0.643111 0.057761
O O4 0.280512 0.752289 0.995928
O O5 0.500000 0.462293 0.080203
O O6 0.217147 0.504203 0.089136
O O7 0.346754 0.500000 0.000000
O O8 0.500000 0.100497 0.624497
O O9 0.223813 0.125004 0.651422
O O10 0.301655 0.140025 0.555501
O O11 0.278586 0.009348 0.598363
O O12 0.750000 0.367629 0.750000
O O13 0.777191 0.258078 0.686009
O O14 0.755016 0.391942 0.653798
O O15 0.000000 0.351979 0.699855
O O16 0.750000 0.852677 0.250000
O O17 0.500000 0.831694 0.205641
O O18 0.000000 0.968242 0.957813
O O19 0.781123 0.875687 0.954586
O O20 0.745845 0.000000 0.000000
O O21 0.500000 0.596852 0.393445
O O22 0.500000 0.795975 0.503801
#
# Coordination Sequence:
#
# PCOD8218326 Si02
#       8
#     8   8   8   8   8   8   8   8
#     4  10  19  29  41  59  85 114 141 171 209 248
#     4   8  16  30  43  56  79 110 139 169 207 247
#     4   9  16  27  43  60  81 110 141 171 204 242
#     4  10  20  33  46  61  84 111 140 174 209 244
#     4  10  20  31  43  59  80 107 139 174 208 241
#     4   7  12  24  40  58  80 107 137 167 200 239
#     4  11  20  29  44  63  82 108 142 175 208 246
#     4   9  16  26  42  62  83 109 141 172 201 240
#
# _framework density 14.894885
#
# number of rings (size 3 to 8) (size 9 to 14) (size 15 to 20)
#    0.000    2.750    0.000    5.250    0.000    6.750 
#    0.000    0.625    0.000    2.250    0.000    0.000 
#    0.000    1.000    0.000    7.750    0.000    4.750 
#
# Total GULP energy -793064.359962 kJ/mol
# GULP energy per Si atom -12391.630624 kJ/mol
# Density = 1.486098 g / cm^3
# Si number density = 14.894885 Si / 1000 Ang^3
#
#
#
# Elastic Constant Matrix: (Units=GPa)
#
#
# Indices 1 2 3 4 5 6 
#
# 1 62.0757 31.2061 32.5997 0.0000 0.0000 0.0000
# 2 31.2061 84.2938 45.2614 0.0000 0.0000 0.0000
# 3 32.5997 45.2614 69.6416 0.0000 0.0000 0.0000
# 4 0.0000 0.0000 0.0000 20.1939 0.0000 0.0000
# 5 0.0000 0.0000 0.0000 0.0000 21.6314 0.0000
# 6 0.0000 0.0000 0.0000 0.0000 0.0000 1.6042
#
#
#
# Elastic Compliance Matrix: (Units=1/GPa)
#
#
# Indices 1 2 3 4 5 6 
#
# 1 0.022229 -0.004058 -0.007768 0.000000 0.000000 0.000000
# 2 -0.004058 0.018963 -0.010425 0.000000 0.000000 0.000000
# 3 -0.007768 -0.010425 0.024771 0.000000 0.000000 0.000000
# 4 0.000000 0.000000 0.000000 0.049520 0.000000 0.000000
# 5 0.000000 0.000000 0.000000 0.000000 0.046229 0.000000
# 6 0.000000 0.000000 0.000000 0.000000 0.000000 0.623374
#
#
# Mechanical properties :
#
#
# Convention : Reuss Voigt Hill
#
# Bulk Modulus (GPa) = 46.59670 48.23838 47.41754
# Shear Modulus (GPa) = 5.97556 15.81549 10.89552
#
# Velocity S-wave (km/s) = 2.00513 3.26207 2.70755
# Velocity P-wave (km/s) = 6.05907 6.82967 6.45587
#
# Compressibility (1/GPa) = 0.02146075
#
# Stress axis : x y z
#
# Youngs Moduli (GPa) = 44.98638 52.73342 40.37015
#
# Poissons Ratio (x) = 0.21401 0.31359
# Poissons Ratio (y) = 0.18257 0.42085
# Poissons Ratio (z) = 0.34945 0.54974
#
# Static dielectric constant tensor:
#      x y z
#    x 2.815180 0.000000 0.000000 
#    y 0.000000 3.162480 0.000000 
#    z 0.000000 0.000000 2.721720 
# 
# 
# High freq. dielectric constant tensor:
#      x y z
#    x 1.569550 0.000000 0.000000 
#    y 0.000000 1.563130 0.000000 
#    z 0.000000 0.000000 1.535450 
# 
# From -- ./inp_files/34514.got.cif
#   From: 2010.03.12/outbox.cif.g09.slc.cpg/sg53_18_cif.got.tgz:34514.got - 2010.04.16 14:36:59.
