data_PCOD8218134
_publ_section_title
;
Structure prediction by ZEFSAII (Michael W. Deem and Ramdas Pophale) SiO2 
 PCOD8218134
Probable space group: P M N A
;
_chemical_formula_sum "Si O2"
_cell_formula_units_Z 64
_cell_length_a 8.915462
_cell_length_b 12.597240
_cell_length_c 29.179459
_cell_angle_alpha 90.000000
_cell_angle_beta 90.000000
_cell_angle_gamma 90.000000
_cell_volume 3277.151300
_symmetry_space_group_name_H-M "P M N A"
_symmetry_group_IT_number 53
_symmetry_cell_setting 'orthorhombic'
loop_
_space_group_symop_operation_xyz
x,y,z
1/2-x,-y,1/2+z
x,-y,-z
1/2-x,y,1/2-z
-x,-y,-z
1/2+x,y,1/2-z
-x,y,z
1/2+x,-y,1/2+z
loop_
_atom_site_type_symbol
_atom_site_label
_atom_site_fract_x
_atom_site_fract_y
_atom_site_fract_z
Si Si1 0.821001 0.755201 0.199381
Si Si2 0.676342 0.961005 0.354364
Si Si3 0.326932 0.949607 0.549325
Si Si4 0.173717 0.429194 0.641917
Si Si5 0.825485 0.188917 0.172012
Si Si6 0.169508 0.616794 0.708051
Si Si7 0.174401 0.755059 0.580693
Si Si8 0.823778 0.523315 0.549221
O O1 0.750000 0.752923 0.250000
O O2 0.774417 0.652433 0.170093
O O3 0.000000 0.756338 0.204643
O O4 0.757145 0.856884 0.170847
O O5 0.500000 0.949651 0.352579
O O6 0.724910 0.973425 0.408130
O O7 0.726971 0.065505 0.325481
O O8 0.500000 0.915936 0.558037
O O9 0.215887 0.849110 0.545777
O O10 0.307654 0.000000 0.500000
O O11 0.189785 0.548040 0.662351
O O12 0.234013 0.443968 0.589674
O O13 0.000000 0.392565 0.644238
O O14 0.735757 0.264244 0.206217
O O15 0.788891 0.231325 0.121905
O O16 0.000000 0.200261 0.182303
O O17 0.250000 0.555606 0.750000
O O18 0.000000 0.630261 0.722056
O O19 0.214440 0.644806 0.557652
O O20 0.000000 0.760486 0.596303
O O21 0.747952 0.500000 0.500000
O O22 0.000000 0.504307 0.546981
#
# Coordination Sequence:
#
# PCOD8218134 Si02
#       8
#     8   8   8   8   8   8   8   8
#     4  11  23  40  60  82 112 152 196 244 294 346
#     4   8  18  36  56  80 111 147 187 234 288 344
#     4   9  18  34  56  81 112 153 193 235 293 354
#     4  10  21  39  59  82 114 150 191 234 285 344
#     4  10  19  35  58  81 109 147 184 226 285 344
#     4  11  22  36  55  83 113 144 183 231 279 335
#     4  10  18  32  53  79 110 146 186 234 285 337
#     4   9  18  34  56  82 114 152 188 231 288 343
#
# _framework density 19.529157000000001
#
# number of rings (size 3 to 8) (size 9 to 14) (size 15 to 20)
#    0.000    2.250    1.250    2.625    0.000    3.750 
#    0.000    7.500    0.000    2.625    0.000    0.000 
#    0.000    0.000    0.000    0.000    0.000    0.000 
#
# Total GULP energy -793040.242782 kJ/mol
# GULP energy per Si atom -12391.253793 kJ/mol
# Density = 1.948471 g / cm^3
# Si number density = 19.529157 Si / 1000 Ang^3
#
#
#
# Elastic Constant Matrix: (Units=GPa)
#
#
# Indices 1 2 3 4 5 6 
#
# 1 58.5892 39.6767 32.0555 0.0000 0.0000 0.0000
# 2 39.6767 114.1524 63.9466 0.0000 0.0000 0.0000
# 3 32.0555 63.9466 130.6824 0.0000 0.0000 0.0000
# 4 0.0000 0.0000 0.0000 25.0046 0.0000 0.0000
# 5 0.0000 0.0000 0.0000 0.0000 20.4018 0.0000
# 6 0.0000 0.0000 0.0000 0.0000 0.0000 23.7288
#
#
#
# Elastic Compliance Matrix: (Units=1/GPa)
#
#
# Indices 1 2 3 4 5 6 
#
# 1 0.022841 -0.006613 -0.002367 0.000000 0.000000 0.000000
# 2 -0.006613 0.013983 -0.005220 0.000000 0.000000 0.000000
# 3 -0.002367 -0.005220 0.010787 0.000000 0.000000 0.000000
# 4 0.000000 0.000000 0.000000 0.039993 0.000000 0.000000
# 5 0.000000 0.000000 0.000000 0.000000 0.049015 0.000000
# 6 0.000000 0.000000 0.000000 0.000000 0.000000 0.042143
#
#
# Mechanical properties :
#
#
# Convention : Reuss Voigt Hill
#
# Bulk Modulus (GPa) = 52.05305 63.86460 57.95882
# Shear Modulus (GPa) = 23.41190 25.01005 24.21097
#
# Velocity S-wave (km/s) = 3.46615 3.58250 3.52481
# Velocity P-wave (km/s) = 6.53688 7.06297 6.80501
#
# Compressibility (1/GPa) = 0.01921117
#
# Stress axis : x y z
#
# Youngs Moduli (GPa) = 43.78008 71.51490 92.70381
#
# Poissons Ratio (x) = 0.47295 0.21941
# Poissons Ratio (y) = 0.28953 0.48393
# Poissons Ratio (z) = 0.10362 0.37332
#
# Static dielectric constant tensor:
#      x y z
#    x 3.467830 0.000000 0.000000 
#    y 0.000000 3.890770 0.000000 
#    z 0.000000 0.000000 4.015020 
# 
# 
# High freq. dielectric constant tensor:
#      x y z
#    x 1.738240 0.000000 0.000000 
#    y 0.000000 1.760470 0.000000 
#    z 0.000000 0.000000 1.769010 
# 
# From -- ./inp_files/38175.got.cif
#   From: 2010.03.12/outbox.cif.g09.slc.cpg/sg53_20_cif.got.tgz:38175.got - 2010.04.16 14:36:59.
