data_PCOD8218352
_publ_section_title
;
Structure prediction by ZEFSAII (Michael W. Deem and Ramdas Pophale) SiO2 
 PCOD8218352
Probable space group: P M N A
;
_chemical_formula_sum "Si O2"
_cell_formula_units_Z 64
_cell_length_a 8.830395
_cell_length_b 13.669547
_cell_length_c 32.407526
_cell_angle_alpha 90.000000
_cell_angle_beta 90.000000
_cell_angle_gamma 90.000000
_cell_volume 3911.831428
_symmetry_space_group_name_H-M "P M N A"
_symmetry_group_IT_number 53
_symmetry_cell_setting 'orthorhombic'
loop_
_space_group_symop_operation_xyz
x,y,z
1/2-x,-y,1/2+z
x,-y,-z
1/2-x,y,1/2-z
-x,-y,-z
1/2+x,y,1/2-z
-x,y,z
1/2+x,-y,1/2+z
loop_
_atom_site_type_symbol
_atom_site_label
_atom_site_fract_x
_atom_site_fract_y
_atom_site_fract_z
Si Si1 0.829436 0.722440 0.209430
Si Si2 0.829963 0.503519 0.624393
Si Si3 0.679382 0.565036 0.539137
Si Si4 0.168272 0.043236 0.045937
Si Si5 0.331654 0.727511 0.129102
Si Si6 0.676080 0.771956 0.976724
Si Si7 0.829337 0.510694 0.791955
Si Si8 0.175715 0.835379 0.059418
O O1 0.750000 0.763803 0.250000
O O2 0.728048 0.765255 0.172807
O O3 0.829955 0.605738 0.209071
O O4 0.000000 0.762793 0.206277
O O5 0.740598 0.526428 0.582609
O O6 0.835463 0.388166 0.628489
O O7 0.753044 0.547684 0.665963
O O8 0.000000 0.546605 0.621292
O O9 0.738937 0.500000 0.500000
O O10 0.500000 0.559889 0.540523
O O11 0.730809 0.676338 0.534881
O O12 0.279569 0.135521 0.052537
O O13 0.000000 0.081281 0.056352
O O14 0.211532 0.947953 0.073428
O O15 0.174824 0.000000 0.000000
O O16 0.500000 0.769852 0.120762
O O17 0.208908 0.764031 0.096722
O O18 0.500000 0.749031 0.971844
O O19 0.714708 0.801603 0.023050
O O20 0.750000 0.550659 0.750000
O O21 0.000000 0.551772 0.792702
O O22 0.000000 0.825316 0.045692
#
# Coordination Sequence:
#
# PCOD8218352 Si02
#       8
#     8   8   8   8   8   8   8   8
#     4   9  16  26  40  58  83 115 149 181 216 262
#     4  10  20  32  45  64  91 121 155 193 230 269
#     4  11  23  36  49  64  87 123 162 194 226 269
#     4   8  16  31  48  65  86 112 142 178 219 262
#     4  10  19  29  43  64  90 118 148 185 225 264
#     4  11  21  32  48  67  88 115 147 186 228 267
#     4   9  16  27  44  64  86 114 148 186 229 273
#     4  10  19  31  47  66  89 116 147 183 222 264
#
# _framework density 16.360621999999999
#
# number of rings (size 3 to 8) (size 9 to 14) (size 15 to 20)
#    0.000    2.250    0.000    4.875    0.000   10.250 
#    0.000    0.000    0.000    0.000    0.000    0.000 
#    0.000    1.000    0.000    5.500    0.000    5.875 
#
# Total GULP energy -793209.957073 kJ/mol
# GULP energy per Si atom -12393.905579 kJ/mol
# Density = 1.632338 g / cm^3
# Si number density = 16.360622 Si / 1000 Ang^3
#
#
#
# Elastic Constant Matrix: (Units=GPa)
#
#
# Indices 1 2 3 4 5 6 
#
# 1 99.2545 26.2358 43.5442 0.0000 0.0000 0.0000
# 2 26.2358 23.2306 9.6938 0.0000 0.0000 0.0000
# 3 43.5442 9.6938 93.1067 0.0000 0.0000 0.0000
# 4 0.0000 0.0000 0.0000 8.0198 0.0000 0.0000
# 5 0.0000 0.0000 0.0000 0.0000 26.9997 0.0000
# 6 0.0000 0.0000 0.0000 0.0000 0.0000 17.3596
#
#
#
# Elastic Compliance Matrix: (Units=1/GPa)
#
#
# Indices 1 2 3 4 5 6 
#
# 1 0.017333 -0.016928 -0.006344 0.000000 0.000000 0.000000
# 2 -0.016928 0.061534 0.001510 0.000000 0.000000 0.000000
# 3 -0.006344 0.001510 0.013550 0.000000 0.000000 0.000000
# 4 0.000000 0.000000 0.000000 0.124692 0.000000 0.000000
# 5 0.000000 0.000000 0.000000 0.000000 0.037037 0.000000
# 6 0.000000 0.000000 0.000000 0.000000 0.000000 0.057605
#
#
# Mechanical properties :
#
#
# Convention : Reuss Voigt Hill
#
# Bulk Modulus (GPa) = 20.45240 41.61550 31.03395
# Shear Modulus (GPa) = 13.45635 19.55035 16.50335
#
# Velocity S-wave (km/s) = 2.87101 3.46057 3.17949
# Velocity P-wave (km/s) = 4.84958 6.43887 5.69989
#
# Compressibility (1/GPa) = 0.04889403
#
# Stress axis : x y z
#
# Youngs Moduli (GPa) = 57.69459 16.25118 73.80093
#
# Poissons Ratio (x) = 0.27510 0.46817
# Poissons Ratio (y) = 0.97664 -0.11145
# Poissons Ratio (z) = 0.36600 -0.02454
#
# Static dielectric constant tensor:
#      x y z
#    x 3.329260 0.000000 0.000000 
#    y 0.000000 3.004710 0.000000 
#    z 0.000000 0.000000 3.141590 
# 
# 
# High freq. dielectric constant tensor:
#      x y z
#    x 1.647300 0.000000 0.000000 
#    y 0.000000 1.586170 0.000000 
#    z 0.000000 0.000000 1.615750 
# 
# From -- ./inp_files/38507.got.cif
#   From: 2010.03.12/outbox.cif.g09.slc.cpg/sg53_20_cif.got.tgz:38507.got - 2010.04.16 14:36:59.
