data_PCOD8218109
_publ_section_title
;
Structure prediction by ZEFSAII (Michael W. Deem and Ramdas Pophale) SiO2 
 PCOD8218109
Probable space group: P M N A
;
_chemical_formula_sum "Si O2"
_cell_formula_units_Z 48
_cell_length_a 30.426262
_cell_length_b 13.851892
_cell_length_c 6.117678
_cell_angle_alpha 90.000000
_cell_angle_beta 90.000000
_cell_angle_gamma 90.000000
_cell_volume 2578.364493
_symmetry_space_group_name_H-M "P M N A"
_symmetry_group_IT_number 53
_symmetry_cell_setting 'orthorhombic'
loop_
_space_group_symop_operation_xyz
x,y,z
1/2-x,-y,1/2+z
x,-y,-z
1/2-x,y,1/2-z
-x,-y,-z
1/2+x,y,1/2-z
-x,y,z
1/2+x,-y,1/2+z
loop_
_atom_site_type_symbol
_atom_site_label
_atom_site_fract_x
_atom_site_fract_y
_atom_site_fract_z
Si Si1 0.163135 0.772523 0.706990
Si Si2 0.049521 0.598889 0.621815
Si Si3 0.095864 0.264870 0.666490
Si Si4 0.371926 0.099881 0.589367
Si Si5 0.628854 0.607649 0.545269
Si Si6 0.289301 0.898631 0.101026
O O1 0.124451 0.768368 0.535129
O O2 0.166639 0.665832 0.818668
O O3 0.205949 0.813859 0.582341
O O4 0.151448 0.849404 0.889245
O O5 0.060904 0.500000 0.500000
O O6 0.053124 0.685044 0.440507
O O7 0.082498 0.610098 0.824813
O O8 0.000000 0.599443 0.715044
O O9 0.088558 0.167830 0.813598
O O10 0.122011 0.342702 0.811578
O O11 0.334685 0.082083 0.771317
O O12 0.392521 0.000000 0.500000
O O13 0.645937 0.500000 0.500000
O O14 0.250000 0.859344 0.250000
O O15 0.274014 0.000000 0.000000
#
# Coordination Sequence:
#
# PCOD8218109 Si02
#       6
#     8   8   8   8   8   8
#     4   9  20  33  48  74 109 134 171 212 259 312
#     4  10  19  30  47  75 109 139 167 217 280 328
#     4   9  19  32  48  73 104 134 174 215 256 315
#     4  10  18  33  52  73 104 137 171 209 257 311
#     4  10  18  32  52  74 105 136 181 221 261 313
#     4  11  21  31  49  78 114 139 161 199 263 323
#
# _framework density 18.616451000000001
#
# number of rings (size 3 to 8) (size 9 to 14) (size 15 to 20)
#    0.000    2.167    3.333    0.500    0.000    1.000 
#    0.000    0.000    0.000    0.500    0.000   10.500 
#  180.000    0.000    0.000    0.000    0.000    0.000 
#
# Total GULP energy -594641.505030 kJ/mol
# GULP energy per Si atom -12388.364688 kJ/mol
# Density = 1.857408 g / cm^3
# Si number density = 18.616451 Si / 1000 Ang^3
#
#
#
# Elastic Constant Matrix: (Units=GPa)
#
#
# Indices 1 2 3 4 5 6 
#
# 1 40.0661 24.9638 13.0051 0.0000 0.0000 0.0000
# 2 24.9638 144.1620 35.7719 0.0000 0.0000 0.0000
# 3 13.0051 35.7719 73.6388 0.0000 0.0000 0.0000
# 4 0.0000 0.0000 0.0000 35.0086 0.0000 0.0000
# 5 0.0000 0.0000 0.0000 0.0000 19.1839 0.0000
# 6 0.0000 0.0000 0.0000 0.0000 0.0000 14.7240
#
#
#
# Elastic Compliance Matrix: (Units=1/GPa)
#
#
# Indices 1 2 3 4 5 6 
#
# 1 0.028549 -0.004199 -0.003002 0.000000 0.000000 0.000000
# 2 -0.004199 0.008505 -0.003390 0.000000 0.000000 0.000000
# 3 -0.003002 -0.003390 0.015757 0.000000 0.000000 0.000000
# 4 0.000000 0.000000 0.000000 0.028564 0.000000 0.000000
# 5 0.000000 0.000000 0.000000 0.000000 0.052127 0.000000
# 6 0.000000 0.000000 0.000000 0.000000 0.000000 0.067916
#
#
# Mechanical properties :
#
#
# Convention : Reuss Voigt Hill
#
# Bulk Modulus (GPa) = 31.61662 45.03871 38.32767
# Shear Modulus (GPa) = 21.44599 26.05838 23.75219
#
# Velocity S-wave (km/s) = 3.39778 3.74538 3.57581
# Velocity P-wave (km/s) = 5.69326 6.55357 6.13851
#
# Compressibility (1/GPa) = 0.03162893
#
# Stress axis : x y z
#
# Youngs Moduli (GPa) = 35.02706 117.57954 63.46472
#
# Poissons Ratio (x) = 0.49369 0.19054
# Poissons Ratio (y) = 0.14707 0.21514
# Poissons Ratio (z) = 0.10516 0.39859
#
# Static dielectric constant tensor:
#      x y z
#    x 3.004820 0.000000 0.000000 
#    y 0.000000 3.893230 0.000000 
#    z 0.000000 0.000000 3.876050 
# 
# 
# High freq. dielectric constant tensor:
#      x y z
#    x 1.657830 0.000000 0.000000 
#    y 0.000000 1.732830 0.000000 
#    z 0.000000 0.000000 1.751140 
# 
# From -- ./inp_files/5280.got.cif
#   From: 2010.03.12/outbox.cif.g09.slc.cpg/sg53_3_cif.got.tgz:5280.got - 2010.04.16 14:36:59.
