data_PCOD8218617
_publ_section_title
;
Structure prediction by ZEFSAII (Michael W. Deem and Ramdas Pophale) SiO2 
 PCOD8218617
Probable space group: P M N A
;
_chemical_formula_sum "Si O2"
_cell_formula_units_Z 40
_cell_length_a 8.942642
_cell_length_b 25.491071
_cell_length_c 10.000428
_cell_angle_alpha 90.000000
_cell_angle_beta 90.000000
_cell_angle_gamma 90.000000
_cell_volume 2279.672787
_symmetry_space_group_name_H-M "P M N A"
_symmetry_group_IT_number 53
_symmetry_cell_setting 'orthorhombic'
loop_
_space_group_symop_operation_xyz
x,y,z
1/2-x,-y,1/2+z
x,-y,-z
1/2-x,y,1/2-z
-x,-y,-z
1/2+x,y,1/2-z
-x,y,z
1/2+x,-y,1/2+z
loop_
_atom_site_type_symbol
_atom_site_label
_atom_site_fract_x
_atom_site_fract_y
_atom_site_fract_z
Si Si1 0.825342 0.657022 0.392829
Si Si2 0.676215 0.038620 0.386234
Si Si3 0.824678 0.842412 0.886767
Si Si4 0.822533 0.758804 0.104606
Si Si5 0.674305 0.541185 0.106915
O O1 0.750000 0.654093 0.250000
O O2 0.741546 0.705417 0.466153
O O3 0.799086 0.599429 0.456729
O O4 0.000000 0.670266 0.380814
O O5 0.750000 0.019252 0.250000
O O6 0.500000 0.033843 0.370605
O O7 0.724951 0.098132 0.420314
O O8 0.737577 0.000000 0.500000
O O9 0.750000 0.822484 0.750000
O O10 0.000000 0.838211 0.864536
O O11 0.772733 0.806672 0.010364
O O12 0.750000 0.767722 0.250000
O O13 0.000000 0.754825 0.119295
O O14 0.750000 0.533169 0.250000
O O15 0.500000 0.531095 0.130657
O O16 0.740804 0.500000 0.000000
#
# Coordination Sequence:
#
# PCOD8218617 Si02
#       5
#     8   8   8   8   8
#     4   9  16  28  47  68  92 122 155 191 231 273
#     4   9  18  33  51  71  96 124 156 194 233 275
#     4   9  19  34  50  69  95 127 158 190 232 279
#     4  10  19  31  48  71  96 121 155 195 232 274
#     4   9  18  32  49  70  95 122 154 192 232 276
#
# _framework density 17.546378000000001
#
# number of rings (size 3 to 8) (size 9 to 14) (size 15 to 20)
#    0.000    2.800    0.000    2.400    0.000    4.000 
#    0.000    1.000    0.000    4.800    0.000    0.000 
#    0.000    0.000    0.000    0.000    0.000    0.000 
#
# Total GULP energy -495730.181234 kJ/mol
# GULP energy per Si atom -12393.254531 kJ/mol
# Density = 1.750644 g / cm^3
# Si number density = 17.546378 Si / 1000 Ang^3
#
#
#
# Elastic Constant Matrix: (Units=GPa)
#
#
# Indices 1 2 3 4 5 6 
#
# 1 56.4160 44.4153 38.9316 0.0000 0.0000 0.0000
# 2 44.4153 139.5045 87.9721 0.0000 0.0000 0.0000
# 3 38.9316 87.9721 109.4176 0.0000 0.0000 0.0000
# 4 0.0000 0.0000 0.0000 34.6855 0.0000 0.0000
# 5 0.0000 0.0000 0.0000 0.0000 24.8072 0.0000
# 6 0.0000 0.0000 0.0000 0.0000 0.0000 28.4770
#
#
#
# Elastic Compliance Matrix: (Units=1/GPa)
#
#
# Indices 1 2 3 4 5 6 
#
# 1 0.024961 -0.004760 -0.005054 0.000000 0.000000 0.000000
# 2 -0.004760 0.015448 -0.010727 0.000000 0.000000 0.000000
# 3 -0.005054 -0.010727 0.019562 0.000000 0.000000 0.000000
# 4 0.000000 0.000000 0.000000 0.028831 0.000000 0.000000
# 5 0.000000 0.000000 0.000000 0.000000 0.040311 0.000000
# 6 0.000000 0.000000 0.000000 0.000000 0.000000 0.035116
#
#
# Mechanical properties :
#
#
# Convention : Reuss Voigt Hill
#
# Bulk Modulus (GPa) = 52.94066 71.99733 62.46899
# Shear Modulus (GPa) = 23.62890 26.52854 25.07872
#
# Velocity S-wave (km/s) = 3.67366 3.89255 3.78469
# Velocity P-wave (km/s) = 6.94491 7.83098 7.40121
#
# Compressibility (1/GPa) = 0.01888907
#
# Stress axis : x y z
#
# Youngs Moduli (GPa) = 40.06320 64.73418 51.11970
#
# Poissons Ratio (x) = 0.30810 0.25838
# Poissons Ratio (y) = 0.19068 0.54834
# Poissons Ratio (z) = 0.20250 0.69438
#
# Static dielectric constant tensor:
#      x y z
#    x 3.247360 0.000000 0.000000 
#    y 0.000000 4.104930 0.000000 
#    z 0.000000 0.000000 3.070150 
# 
# 
# High freq. dielectric constant tensor:
#      x y z
#    x 1.680530 0.000000 0.000000 
#    y 0.000000 1.694450 0.000000 
#    z 0.000000 0.000000 1.648480 
# 
# From -- ./inp_files/6428.got.cif
#   From: 2010.03.12/outbox.cif.g09.slc.cpg/sg53_4_cif.got.tgz:6428.got - 2010.04.16 14:36:59.
