data_PCOD8218423
_publ_section_title
;
Structure prediction by ZEFSAII (Michael W. Deem and Ramdas Pophale) SiO2 
 PCOD8218423
Probable space group: P M N A
;
_chemical_formula_sum "Si O2"
_cell_formula_units_Z 64
_cell_length_a 9.411337
_cell_length_b 19.671586
_cell_length_c 20.027179
_cell_angle_alpha 90.000000
_cell_angle_beta 90.000000
_cell_angle_gamma 90.000000
_cell_volume 3707.750313
_symmetry_space_group_name_H-M "P M N A"
_symmetry_group_IT_number 53
_symmetry_cell_setting 'orthorhombic'
loop_
_space_group_symop_operation_xyz
x,y,z
1/2-x,-y,1/2+z
x,-y,-z
1/2-x,y,1/2-z
-x,-y,-z
1/2+x,y,1/2-z
-x,y,z
1/2+x,-y,1/2+z
loop_
_atom_site_type_symbol
_atom_site_label
_atom_site_fract_x
_atom_site_fract_y
_atom_site_fract_z
Si Si1 0.661854 0.099078 0.393486
Si Si2 0.666136 0.384060 0.684280
Si Si3 0.168970 0.301558 0.943109
Si Si4 0.839217 0.023727 0.576034
Si Si5 0.331817 0.654263 0.584468
Si Si6 0.665237 0.769022 0.684327
Si Si7 0.335370 0.147899 0.541867
Si Si8 0.665706 0.459429 0.315686
O O1 0.500000 0.073136 0.390466
O O2 0.695220 0.153359 0.336087
O O3 0.690067 0.135826 0.463732
O O4 0.762859 0.034559 0.380504
O O5 0.750000 0.360660 0.750000
O O6 0.500000 0.371394 0.696958
O O7 0.725289 0.340204 0.622386
O O8 0.697609 0.462463 0.667082
O O9 0.219251 0.223332 0.940554
O O10 0.000000 0.304188 0.945585
O O11 0.231113 0.339101 0.009380
O O12 0.756843 0.094790 0.585039
O O13 0.000000 0.032738 0.601440
O O14 0.833218 0.000000 0.500000
O O15 0.500000 0.655248 0.579133
O O16 0.279495 0.719216 0.626375
O O17 0.281543 0.584966 0.620941
O O18 0.750000 0.750308 0.750000
O O19 0.500000 0.756534 0.698311
O O20 0.500000 0.137945 0.560891
O O21 0.750000 0.435896 0.250000
O O22 0.500000 0.446743 0.301262
#
# Coordination Sequence:
#
# PCOD8218423 Si02
#       8
#     8   8   8   8   8   8   8   8
#     4   9  16  28  45  64  87 119 158 193 227 274
#     4   9  18  32  50  72  95 123 158 195 240 291
#     4   9  16  28  49  73  96 122 157 202 242 277
#     4   9  17  27  42  66  94 119 145 186 235 277
#     4   9  16  28  46  70  97 123 159 204 239 272
#     4  10  19  30  45  66  94 129 164 197 236 281
#     4   9  15  27  47  68  89 117 153 193 234 277
#     4   9  17  29  47  69  96 129 162 197 235 279
#
# _framework density 17.261140999999999
#
# number of rings (size 3 to 8) (size 9 to 14) (size 15 to 20)
#    0.000    2.875    1.250    0.750    0.000    2.500 
#    0.000    3.125    0.000    3.000    0.000    5.250 
#    0.000    0.000    0.000    0.000    0.000    0.000 
#
# Total GULP energy -793457.204206 kJ/mol
# GULP energy per Si atom -12397.768816 kJ/mol
# Density = 1.722185 g / cm^3
# Si number density = 17.261141 Si / 1000 Ang^3
#
#
#
# Elastic Constant Matrix: (Units=GPa)
#
#
# Indices 1 2 3 4 5 6 
#
# 1 52.8431 41.8155 36.9182 0.0000 0.0000 0.0000
# 2 41.8155 118.7640 69.1106 0.0000 0.0000 0.0000
# 3 36.9182 69.1106 113.4707 0.0000 0.0000 0.0000
# 4 0.0000 0.0000 0.0000 15.5164 0.0000 0.0000
# 5 0.0000 0.0000 0.0000 0.0000 20.3955 0.0000
# 6 0.0000 0.0000 0.0000 0.0000 0.0000 16.2287
#
#
#
# Elastic Compliance Matrix: (Units=1/GPa)
#
#
# Indices 1 2 3 4 5 6 
#
# 1 0.027810 -0.007011 -0.004778 0.000000 0.000000 0.000000
# 2 -0.007011 0.014810 -0.006739 0.000000 0.000000 0.000000
# 3 -0.004778 -0.006739 0.014472 0.000000 0.000000 0.000000
# 4 0.000000 0.000000 0.000000 0.064448 0.000000 0.000000
# 5 0.000000 0.000000 0.000000 0.000000 0.049030 0.000000
# 6 0.000000 0.000000 0.000000 0.000000 0.000000 0.061619
#
#
# Mechanical properties :
#
#
# Convention : Reuss Voigt Hill
#
# Bulk Modulus (GPa) = 49.91116 64.52960 57.22038
# Shear Modulus (GPa) = 18.12086 19.57703 18.84895
#
# Velocity S-wave (km/s) = 3.24359 3.37139 3.30811
# Velocity P-wave (km/s) = 6.55789 7.25400 6.91471
#
# Compressibility (1/GPa) = 0.02003560
#
# Stress axis : x y z
#
# Youngs Moduli (GPa) = 35.95816 67.52043 69.09933
#
# Poissons Ratio (x) = 0.47341 0.33014
# Poissons Ratio (y) = 0.25212 0.46568
# Poissons Ratio (z) = 0.17180 0.45503
#
# Static dielectric constant tensor:
#      x y z
#    x 2.991900 0.000000 0.000000 
#    y 0.000000 3.354020 0.000000 
#    z 0.000000 0.000000 3.146790 
# 
# 
# High freq. dielectric constant tensor:
#      x y z
#    x 1.636080 0.000000 0.000000 
#    y 0.000000 1.674700 0.000000 
#    z 0.000000 0.000000 1.641960 
# 
# From -- ./inp_files/26970.got.cif
#   From: 2010.03.12/outbox.cif.g09.slc.cpg/sg53_14_cif.got.tgz:26970.got - 2010.04.16 14:36:59.
