data_PCOD8218496
_publ_section_title
;
Structure prediction by ZEFSAII (Michael W. Deem and Ramdas Pophale) SiO2 
 PCOD8218496
Probable space group: P M N A
;
_chemical_formula_sum "Si O2"
_cell_formula_units_Z 40
_cell_length_a 9.016957
_cell_length_b 12.663401
_cell_length_c 18.902634
_cell_angle_alpha 90.000000
_cell_angle_beta 90.000000
_cell_angle_gamma 90.000000
_cell_volume 2158.403733
_symmetry_space_group_name_H-M "P M N A"
_symmetry_group_IT_number 53
_symmetry_cell_setting 'orthorhombic'
loop_
_space_group_symop_operation_xyz
x,y,z
1/2-x,-y,1/2+z
x,-y,-z
1/2-x,y,1/2-z
-x,-y,-z
1/2+x,y,1/2-z
-x,y,z
1/2+x,-y,1/2+z
loop_
_atom_site_type_symbol
_atom_site_label
_atom_site_fract_x
_atom_site_fract_y
_atom_site_fract_z
Si Si1 0.676498 0.210009 0.064888
Si Si2 0.176507 0.034708 0.325997
Si Si3 0.323990 0.829372 0.091267
Si Si4 0.675139 0.375302 0.824969
Si Si5 0.176083 0.553794 0.570698
O O1 0.500000 0.211579 0.062762
O O2 0.731689 0.133656 0.127229
O O3 0.739185 0.327739 0.079510
O O4 0.736680 0.167979 0.989209
O O5 0.250000 0.044123 0.250000
O O6 0.000000 0.033143 0.317374
O O7 0.235674 0.929429 0.364902
O O8 0.500000 0.832422 0.089567
O O9 0.267574 0.722452 0.128117
O O10 0.750000 0.368788 0.750000
O O11 0.500000 0.369649 0.815261
O O12 0.724817 0.484152 0.862169
O O13 0.241709 0.500000 0.500000
O O14 0.000000 0.557714 0.564037
#
# Coordination Sequence:
#
# PCOD8218496 Si02
#       5
#     8   8   8   8   8
#     4   9  16  28  49  73  93 119 162 205 234 268
#     4  10  20  32  48  71  99 127 155 193 240 284
#     4   9  16  29  49  72  94 120 160 204 235 268
#     4  10  19  30  48  73  98 124 155 194 240 283
#     4   9  15  27  47  71  95 120 155 199 236 269
#
# _framework density 18.532212999999999
#
# number of rings (size 3 to 8) (size 9 to 14) (size 15 to 20)
#    0.000    2.600    2.000    1.200    0.000    3.200 
#    0.000    0.000    0.000    4.200    0.000    0.000 
#    0.000    0.000    0.000    0.000    0.000    0.000 
#
# Total GULP energy -495897.945595 kJ/mol
# GULP energy per Si atom -12397.448640 kJ/mol
# Density = 1.849003 g / cm^3
# Si number density = 18.532213 Si / 1000 Ang^3
#
#
#
# Elastic Constant Matrix: (Units=GPa)
#
#
# Indices 1 2 3 4 5 6 
#
# 1 11.3988 18.1787 23.4729 0.0000 0.0000 0.0000
# 2 18.1787 178.0356 105.0393 0.0000 0.0000 0.0000
# 3 23.4729 105.0393 175.9733 0.0000 0.0000 0.0000
# 4 0.0000 0.0000 0.0000 35.6356 0.0000 0.0000
# 5 0.0000 0.0000 0.0000 0.0000 26.0393 0.0000
# 6 0.0000 0.0000 0.0000 0.0000 0.0000 7.9428
#
#
#
# Elastic Compliance Matrix: (Units=1/GPa)
#
#
# Indices 1 2 3 4 5 6 
#
# 1 0.123195 -0.004452 -0.013776 0.000000 0.000000 0.000000
# 2 -0.004452 0.008831 -0.004678 0.000000 0.000000 0.000000
# 3 -0.013776 -0.004678 0.010312 0.000000 0.000000 0.000000
# 4 0.000000 0.000000 0.000000 0.028062 0.000000 0.000000
# 5 0.000000 0.000000 0.000000 0.000000 0.038403 0.000000
# 6 0.000000 0.000000 0.000000 0.000000 0.000000 0.125899
#
#
# Mechanical properties :
#
#
# Convention : Reuss Voigt Hill
#
# Bulk Modulus (GPa) = 10.35959 73.19884 41.77921
# Shear Modulus (GPa) = 12.11566 28.50468 20.31017
#
# Velocity S-wave (km/s) = 2.55965 3.92614 3.31409
# Velocity P-wave (km/s) = 3.78655 7.75478 6.10224
#
# Compressibility (1/GPa) = 0.09652894
#
# Stress axis : x y z
#
# Youngs Moduli (GPa) = 8.11720 113.23632 96.97210
#
# Poissons Ratio (x) = 0.50408 1.33586
# Poissons Ratio (y) = 0.03613 0.45359
# Poissons Ratio (z) = 0.11182 0.52967
#
# Static dielectric constant tensor:
#      x y z
#    x 2.713650 0.000000 0.000000 
#    y 0.000000 3.923960 0.000000 
#    z 0.000000 0.000000 3.490580 
# 
# 
# High freq. dielectric constant tensor:
#      x y z
#    x 1.642790 0.000000 0.000000 
#    y 0.000000 1.739030 0.000000 
#    z 0.000000 0.000000 1.731390 
# 
# From -- ./inp_files/14803.got.cif
#   From: 2010.03.12/outbox.cif.g09.slc.cpg/sg53_8_cif.got.tgz:14803.got - 2010.04.16 14:36:59.
