data_PCOD8218237
_publ_section_title
;
Structure prediction by ZEFSAII (Michael W. Deem and Ramdas Pophale) SiO2 
 PCOD8218237
Probable space group: P M N A
;
_chemical_formula_sum "Si O2"
_cell_formula_units_Z 56
_cell_length_a 8.798081
_cell_length_b 17.697843
_cell_length_c 19.468551
_cell_angle_alpha 90.000000
_cell_angle_beta 90.000000
_cell_angle_gamma 90.000000
_cell_volume 3031.390765
_symmetry_space_group_name_H-M "P M N A"
_symmetry_group_IT_number 53
_symmetry_cell_setting 'orthorhombic'
loop_
_space_group_symop_operation_xyz
x,y,z
1/2-x,-y,1/2+z
x,-y,-z
1/2-x,y,1/2-z
-x,-y,-z
1/2+x,y,1/2-z
-x,y,z
1/2+x,-y,1/2+z
loop_
_atom_site_type_symbol
_atom_site_label
_atom_site_fract_x
_atom_site_fract_y
_atom_site_fract_z
Si Si1 0.178963 0.809664 0.677621
Si Si2 0.319172 0.606589 0.324660
Si Si3 0.180038 0.938669 0.903593
Si Si4 0.678559 0.692684 0.574391
Si Si5 0.180112 0.099495 0.944053
Si Si6 0.319770 0.263461 0.577312
Si Si7 0.179057 0.521459 0.925912
O O1 0.250000 0.786714 0.750000
O O2 0.235998 0.892857 0.655968
O O3 0.227669 0.747619 0.622624
O O4 0.000000 0.810838 0.684856
O O5 0.250000 0.603303 0.250000
O O6 0.500000 0.606402 0.319454
O O7 0.258018 0.682267 0.362670
O O8 0.257810 0.534418 0.367295
O O9 0.000000 0.930208 0.893531
O O10 0.233170 0.026733 0.899902
O O11 0.234039 0.905899 0.977018
O O12 0.500000 0.710298 0.582808
O O13 0.732731 0.705205 0.496348
O O14 0.719162 0.606954 0.595001
O O15 0.242905 0.177768 0.911630
O O16 0.000000 0.099250 0.945609
O O17 0.500000 0.263613 0.579425
O O18 0.000000 0.509804 0.931633
O O19 0.251054 0.500000 0.000000
#
# Coordination Sequence:
#
# PCOD8218237 Si02
#       7
#     8   8   8   8   8   8   8
#     4  12  25  39  54  76 110 148 184 226 281 335
#     4  10  20  34  53  79 111 145 179 217 267 321
#     4   9  16  31  55  81 107 136 176 221 265 320
#     4  10  18  33  59  84 106 136 184 234 270 319
#     4   8  14  26  53  86 107 132 174 219 262 315
#     4   9  15  28  55  83 107 140 181 220 260 317
#     4   9  16  30  56  86 107 136 184 228 263 314
#
# _framework density 18.473369000000002
#
# number of rings (size 3 to 8) (size 9 to 14) (size 15 to 20)
#    0.000    2.429    2.857    2.143    0.000    0.571 
#    0.000    5.000    0.000    2.571    0.000    0.000 
#    0.000    0.000    0.000    0.000    0.000    0.000 
#
# Total GULP energy -694176.892034 kJ/mol
# GULP energy per Si atom -12396.015929 kJ/mol
# Density = 1.843132 g / cm^3
# Si number density = 18.473369 Si / 1000 Ang^3
#
#
#
# Elastic Constant Matrix: (Units=GPa)
#
#
# Indices 1 2 3 4 5 6 
#
# 1 50.1929 29.9110 30.9024 0.0000 0.0000 0.0000
# 2 29.9110 163.4934 74.5362 0.0000 0.0000 0.0000
# 3 30.9024 74.5362 129.1013 0.0000 0.0000 0.0000
# 4 0.0000 0.0000 0.0000 28.9897 0.0000 0.0000
# 5 0.0000 0.0000 0.0000 0.0000 25.3036 0.0000
# 6 0.0000 0.0000 0.0000 0.0000 0.0000 17.7277
#
#
#
# Elastic Compliance Matrix: (Units=1/GPa)
#
#
# Indices 1 2 3 4 5 6 
#
# 1 0.024046 -0.002409 -0.004365 0.000000 0.000000 0.000000
# 2 -0.002409 0.008543 -0.004356 0.000000 0.000000 0.000000
# 3 -0.004365 -0.004356 0.011305 0.000000 0.000000 0.000000
# 4 0.000000 0.000000 0.000000 0.034495 0.000000 0.000000
# 5 0.000000 0.000000 0.000000 0.000000 0.039520 0.000000
# 6 0.000000 0.000000 0.000000 0.000000 0.000000 0.056409
#
#
# Mechanical properties :
#
#
# Convention : Reuss Voigt Hill
#
# Bulk Modulus (GPa) = 46.22120 68.16519 57.19319
# Shear Modulus (GPa) = 24.53512 28.23338 26.38425
#
# Velocity S-wave (km/s) = 3.64831 3.91363 3.78330
# Velocity P-wave (km/s) = 6.54383 7.57636 7.07894
#
# Compressibility (1/GPa) = 0.02163509
#
# Stress axis : x y z
#
# Youngs Moduli (GPa) = 41.58660 117.05628 88.45425
#
# Poissons Ratio (x) = 0.28203 0.38609
# Poissons Ratio (y) = 0.10020 0.38526
# Poissons Ratio (z) = 0.18152 0.50984
#
# Static dielectric constant tensor:
#      x y z
#    x 2.886210 0.000000 0.000000 
#    y 0.000000 3.955350 0.000000 
#    z 0.000000 0.000000 3.357180 
# 
# 
# High freq. dielectric constant tensor:
#      x y z
#    x 1.663770 0.000000 0.000000 
#    y 0.000000 1.739070 0.000000 
#    z 0.000000 0.000000 1.702350 
# 
# From -- ./inp_files/31046.got.cif
#   From: 2010.03.12/outbox.cif.g09.slc.cpg/sg53_16_cif.got.tgz:31046.got - 2010.04.16 14:36:59.
