data_PCOD8218552
_publ_section_title
;
Structure prediction by ZEFSAII (Michael W. Deem and Ramdas Pophale) SiO2 
 PCOD8218552
Probable space group: P M N A
;
_chemical_formula_sum "Si O2"
_cell_formula_units_Z 64
_cell_length_a 14.572174
_cell_length_b 11.419181
_cell_length_c 22.570124
_cell_angle_alpha 90.000000
_cell_angle_beta 90.000000
_cell_angle_gamma 90.000000
_cell_volume 3755.720375
_symmetry_space_group_name_H-M "P M N A"
_symmetry_group_IT_number 53
_symmetry_cell_setting 'orthorhombic'
loop_
_space_group_symop_operation_xyz
x,y,z
1/2-x,-y,1/2+z
x,-y,-z
1/2-x,y,1/2-z
-x,-y,-z
1/2+x,y,1/2-z
-x,y,z
1/2+x,-y,1/2+z
loop_
_atom_site_type_symbol
_atom_site_label
_atom_site_fract_x
_atom_site_fract_y
_atom_site_fract_z
Si Si1 0.601099 0.278643 0.162579
Si Si2 0.104886 0.136682 0.000469
Si Si3 0.745423 0.481838 0.936039
Si Si4 0.897805 0.557488 0.344765
Si Si5 0.395075 0.316213 0.595796
Si Si6 0.392768 0.312916 0.294419
Si Si7 0.220923 0.741188 0.899758
Si Si8 0.608242 0.575134 0.283905
O O1 0.500000 0.226374 0.147995
O O2 0.597136 0.417889 0.156831
O O3 0.628955 0.254440 0.230788
O O4 0.674744 0.219958 0.117560
O O5 0.180747 0.192173 0.043676
O O6 0.000000 0.163026 0.021752
O O7 0.117812 0.187216 0.933210
O O8 0.124528 0.000000 0.000000
O O9 0.672825 0.408464 0.896472
O O10 0.836285 0.404040 0.944217
O O11 0.777888 0.603271 0.909403
O O12 0.698979 0.500000 0.000000
O O13 0.857104 0.609385 0.282402
O O14 0.000000 0.607895 0.358177
O O15 0.500000 0.357446 0.591124
O O16 0.364330 0.329293 0.665401
O O17 0.500000 0.311880 0.307675
O O18 0.343544 0.233021 0.343417
O O19 0.353183 0.446109 0.299903
O O20 0.500000 0.563040 0.276673
#
# Coordination Sequence:
#
# PCOD8218552 Si02
#       8
#     8   8   8   8   8   8   8   8
#     4   8  16  28  42  67 101 130 155 189 233 283
#     4  10  22  37  50  67  92 126 163 202 250 298
#     4  11  20  28  42  73 101 126 161 192 237 288
#     4   8  16  29  43  64 101 135 160 187 223 284
#     4  10  19  31  47  68  98 124 152 197 241 289
#     4   9  15  24  41  71 104 126 150 183 233 292
#     4  11  18  28  48  69  96 128 160 195 236 288
#     4   8  14  26  44  68  96 128 156 185 230 281
#
# _framework density 17.040672000000001
#
# number of rings (size 3 to 8) (size 9 to 14) (size 15 to 20)
#    0.000    2.625    2.500    2.250    0.000    1.500 
#    0.000    0.000    0.000    0.375    6.500    0.000 
#    0.000    0.000    0.000    0.000    0.000    0.000 
#
# Total GULP energy -792888.172321 kJ/mol
# GULP energy per Si atom -12388.877693 kJ/mol
# Density = 1.700189 g / cm^3
# Si number density = 17.040672 Si / 1000 Ang^3
#
#
#
# Elastic Constant Matrix: (Units=GPa)
#
#
# Indices 1 2 3 4 5 6 
#
# 1 80.7723 29.8292 60.1372 0.0000 0.0000 0.0000
# 2 29.8292 44.3586 29.8598 0.0000 0.0000 0.0000
# 3 60.1372 29.8598 126.7622 0.0000 0.0000 0.0000
# 4 0.0000 0.0000 0.0000 11.9716 0.0000 0.0000
# 5 0.0000 0.0000 0.0000 0.0000 30.6611 0.0000
# 6 0.0000 0.0000 0.0000 0.0000 0.0000 8.9312
#
#
#
# Elastic Compliance Matrix: (Units=1/GPa)
#
#
# Indices 1 2 3 4 5 6 
#
# 1 0.021896 -0.009189 -0.008223 0.000000 0.000000 0.000000
# 2 -0.009189 0.030648 -0.002860 0.000000 0.000000 0.000000
# 3 -0.008223 -0.002860 0.012464 0.000000 0.000000 0.000000
# 4 0.000000 0.000000 0.000000 0.083531 0.000000 0.000000
# 5 0.000000 0.000000 0.000000 0.000000 0.032615 0.000000
# 6 0.000000 0.000000 0.000000 0.000000 0.000000 0.111968
#
#
# Mechanical properties :
#
#
# Convention : Reuss Voigt Hill
#
# Bulk Modulus (GPa) = 40.87724 54.61616 47.74670
# Shear Modulus (GPa) = 14.62756 19.11723 16.87239
#
# Velocity S-wave (km/s) = 2.93301 3.35305 3.15004
# Velocity P-wave (km/s) = 5.95904 6.86372 6.42732
#
# Compressibility (1/GPa) = 0.02446349
#
# Stress axis : x y z
#
# Youngs Moduli (GPa) = 45.66941 32.62864 80.23261
#
# Poissons Ratio (x) = 0.29982 0.65978
# Poissons Ratio (y) = 0.41965 0.22947
# Poissons Ratio (z) = 0.37556 0.09332
#
# Static dielectric constant tensor:
#      x y z
#    x 3.475300 0.000000 0.000000 
#    y 0.000000 2.584360 0.000000 
#    z 0.000000 0.000000 3.468640 
# 
# 
# High freq. dielectric constant tensor:
#      x y z
#    x 1.665180 0.000000 0.000000 
#    y 0.000000 1.572830 0.000000 
#    z 0.000000 0.000000 1.667700 
# 
# From -- ./inp_files/35333.got.cif
#   From: 2010.03.12/outbox.cif.g09.slc.cpg/sg53_18_cif.got.tgz:35333.got - 2010.04.16 14:36:59.
