data_PCOD8218855
_publ_section_title
;
Structure prediction by ZEFSAII (Michael W. Deem and Ramdas Pophale) SiO2 
 PCOD8218855
Probable space group: P M N A
;
_chemical_formula_sum "Si O2"
_cell_formula_units_Z 56
_cell_length_a 8.929451
_cell_length_b 15.517023
_cell_length_c 23.108371
_cell_angle_alpha 90.000000
_cell_angle_beta 90.000000
_cell_angle_gamma 90.000000
_cell_volume 3201.861143
_symmetry_space_group_name_H-M "P M N A"
_symmetry_group_IT_number 53
_symmetry_cell_setting 'orthorhombic'
loop_
_space_group_symop_operation_xyz
x,y,z
1/2-x,-y,1/2+z
x,-y,-z
1/2-x,y,1/2-z
-x,-y,-z
1/2+x,y,1/2-z
-x,y,z
1/2+x,-y,1/2+z
loop_
_atom_site_type_symbol
_atom_site_label
_atom_site_fract_x
_atom_site_fract_y
_atom_site_fract_z
Si Si1 0.176942 0.818292 0.686770
Si Si2 0.323540 0.808447 0.187464
Si Si3 0.324135 0.402784 0.496330
Si Si4 0.672024 0.005322 0.810243
Si Si5 0.822901 0.659942 0.869663
Si Si6 0.822995 0.501740 0.690473
Si Si7 0.175901 0.345214 0.608438
O O1 0.250000 0.809142 0.750000
O O2 0.207383 0.914006 0.658360
O O3 0.256275 0.753643 0.642806
O O4 0.000000 0.798862 0.691639
O O5 0.250000 0.796572 0.250000
O O6 0.500000 0.795274 0.195764
O O7 0.260236 0.736598 0.143822
O O8 0.284333 0.903409 0.159335
O O9 0.260708 0.500000 0.500000
O O10 0.500000 0.402606 0.506624
O O11 0.278895 0.362953 0.435024
O O12 0.250472 0.344411 0.545654
O O13 0.750000 0.001656 0.750000
O O14 0.500000 0.008992 0.794875
O O15 0.747301 0.593170 0.825907
O O16 0.000000 0.658478 0.859672
O O17 0.750000 0.469378 0.750000
O O18 0.780127 0.432472 0.641738
O O19 0.000000 0.511071 0.698256
O O20 0.000000 0.337284 0.599880
#
# Coordination Sequence:
#
# PCOD8218855 Si02
#       7
#     8   8   8   8   8   8   8
#     4  10  19  32  51  77 105 134 166 203 249 298
#     4   9  17  31  50  77 107 135 166 201 246 297
#     4  10  21  38  56  72  93 128 173 214 254 297
#     4   8  15  28  48  72 102 134 164 199 241 294
#     4  11  22  36  53  72  97 130 167 210 252 296
#     4  11  22  34  49  73 103 134 163 198 245 296
#     4  10  21  34  52  76 102 131 166 208 248 291
#
# _framework density 17.489827999999999
#
# number of rings (size 3 to 8) (size 9 to 14) (size 15 to 20)
#    0.000    2.143    1.429    2.143    0.000    3.143 
#    0.000    0.000    0.000    0.857    0.000    6.000 
#    0.000    0.000    0.000    0.000    0.000    0.000 
#
# Total GULP energy -694090.533189 kJ/mol
# GULP energy per Si atom -12394.473807 kJ/mol
# Density = 1.745002 g / cm^3
# Si number density = 17.489828 Si / 1000 Ang^3
#
#
#
# Elastic Constant Matrix: (Units=GPa)
#
#
# Indices 1 2 3 4 5 6 
#
# 1 49.8856 33.9167 33.8466 0.0000 0.0000 0.0000
# 2 33.9167 134.1138 45.9426 0.0000 0.0000 0.0000
# 3 33.8466 45.9426 89.2768 0.0000 0.0000 0.0000
# 4 0.0000 0.0000 0.0000 16.7702 0.0000 0.0000
# 5 0.0000 0.0000 0.0000 0.0000 29.4669 0.0000
# 6 0.0000 0.0000 0.0000 0.0000 0.0000 20.9898
#
#
#
# Elastic Compliance Matrix: (Units=1/GPa)
#
#
# Indices 1 2 3 4 5 6 
#
# 1 0.028910 -0.004318 -0.008739 0.000000 0.000000 0.000000
# 2 -0.004318 0.009697 -0.003353 0.000000 0.000000 0.000000
# 3 -0.008739 -0.003353 0.016240 0.000000 0.000000 0.000000
# 4 0.000000 0.000000 0.000000 0.059630 0.000000 0.000000
# 5 0.000000 0.000000 0.000000 0.000000 0.033936 0.000000
# 6 0.000000 0.000000 0.000000 0.000000 0.000000 0.047642
#
#
# Mechanical properties :
#
#
# Convention : Reuss Voigt Hill
#
# Bulk Modulus (GPa) = 45.39671 55.63200 50.51435
# Shear Modulus (GPa) = 21.16698 24.08341 22.62520
#
# Velocity S-wave (km/s) = 3.48263 3.71481 3.60060
# Velocity P-wave (km/s) = 6.49492 7.09063 6.79930
#
# Compressibility (1/GPa) = 0.02202803
#
# Stress axis : x y z
#
# Youngs Moduli (GPa) = 34.58954 103.12491 61.57766
#
# Poissons Ratio (x) = 0.44527 0.53810
# Poissons Ratio (y) = 0.14935 0.20648
# Poissons Ratio (z) = 0.30226 0.34580
#
# Static dielectric constant tensor:
#      x y z
#    x 3.134910 0.000000 0.000000 
#    y 0.000000 3.904160 0.000000 
#    z 0.000000 0.000000 3.028020 
# 
# 
# High freq. dielectric constant tensor:
#      x y z
#    x 1.680710 0.000000 0.000000 
#    y 0.000000 1.691540 0.000000 
#    z 0.000000 0.000000 1.646240 
# 
# From -- ./inp_files/30859.got.cif
#   From: 2010.03.12/outbox.cif.g09.slc.cpg/sg53_16_cif.got.tgz:30859.got - 2010.04.16 14:36:59.
