data_PCOD8218642
_publ_section_title
;
Structure prediction by ZEFSAII (Michael W. Deem and Ramdas Pophale) SiO2 
 PCOD8218642
Probable space group: P M N A
;
_chemical_formula_sum "Si O2"
_cell_formula_units_Z 64
_cell_length_a 9.203523
_cell_length_b 22.624609
_cell_length_c 16.435148
_cell_angle_alpha 90.000000
_cell_angle_beta 90.000000
_cell_angle_gamma 90.000000
_cell_volume 3422.226924
_symmetry_space_group_name_H-M "P M N A"
_symmetry_group_IT_number 53
_symmetry_cell_setting 'orthorhombic'
loop_
_space_group_symop_operation_xyz
x,y,z
1/2-x,-y,1/2+z
x,-y,-z
1/2-x,y,1/2-z
-x,-y,-z
1/2+x,y,1/2-z
-x,y,z
1/2+x,-y,1/2+z
loop_
_atom_site_type_symbol
_atom_site_label
_atom_site_fract_x
_atom_site_fract_y
_atom_site_fract_z
Si Si1 0.664590 0.413931 0.377366
Si Si2 0.168600 0.258461 0.489744
Si Si3 0.331667 0.538832 0.326232
Si Si4 0.332433 0.123266 0.994876
Si Si5 0.831514 0.938142 0.331532
Si Si6 0.331643 0.077214 0.168182
Si Si7 0.830011 0.636798 0.042216
Si Si8 0.666086 0.712448 0.673815
O O1 0.500000 0.432153 0.398370
O O2 0.739615 0.474406 0.346508
O O3 0.736637 0.391544 0.460442
O O4 0.672064 0.359076 0.315189
O O5 0.189486 0.192445 0.522052
O O6 0.238899 0.302882 0.556924
O O7 0.255654 0.265091 0.406326
O O8 0.000000 0.273554 0.475427
O O9 0.250000 0.565455 0.250000
O O10 0.500000 0.532028 0.306374
O O11 0.299227 0.587414 0.392650
O O12 0.500000 0.104614 0.999856
O O13 0.266154 0.105304 0.083848
O O14 0.265647 0.090366 0.915195
O O15 0.750000 0.914807 0.250000
O O16 0.000000 0.920751 0.321588
O O17 0.808905 0.007646 0.340269
O O18 0.250000 0.100594 0.250000
O O19 0.500000 0.094731 0.178731
O O20 0.000000 0.653428 0.034184
O O21 0.750000 0.740973 0.750000
O O22 0.500000 0.734392 0.672627
#
# Coordination Sequence:
#
# PCOD8218642 Si02
#       8
#     8   8   8   8   8   8   8   8
#     4   8  15  29  50  72  92 118 153 193 238 291
#     4  10  20  34  51  70  95 128 169 209 241 282
#     4  10  19  31  49  72  96 120 150 193 243 294
#     4   9  18  33  53  75 100 135 173 206 246 297
#     4   9  17  32  54  78 103 131 166 208 252 298
#     4   9  17  31  52  78 107 136 165 199 244 298
#     4   9  18  34  52  68  91 125 161 195 238 290
#     4  10  19  32  50  72 100 131 163 199 243 294
#
# _framework density 18.701273
#
# number of rings (size 3 to 8) (size 9 to 14) (size 15 to 20)
#    0.000    2.750    0.000    2.625    0.000    4.000 
#    0.000    7.500    0.000    9.750    0.000    0.000 
#    0.000    0.000    0.000    0.000    0.000    0.000 
#
# Total GULP energy -793058.550641 kJ/mol
# GULP energy per Si atom -12391.539854 kJ/mol
# Density = 1.865871 g / cm^3
# Si number density = 18.701273 Si / 1000 Ang^3
#
#
#
# Elastic Constant Matrix: (Units=GPa)
#
#
# Indices 1 2 3 4 5 6 
#
# 1 52.0524 19.2607 25.6851 0.0000 0.0000 0.0000
# 2 19.2607 50.2436 17.0370 0.0000 0.0000 0.0000
# 3 25.6851 17.0370 91.2919 0.0000 0.0000 0.0000
# 4 0.0000 0.0000 0.0000 2.4231 0.0000 0.0000
# 5 0.0000 0.0000 0.0000 0.0000 28.9404 0.0000
# 6 0.0000 0.0000 0.0000 0.0000 0.0000 22.0131
#
#
#
# Elastic Compliance Matrix: (Units=1/GPa)
#
#
# Indices 1 2 3 4 5 6 
#
# 1 0.024766 -0.007613 -0.005547 0.000000 0.000000 0.000000
# 2 -0.007613 0.023588 -0.002260 0.000000 0.000000 0.000000
# 3 -0.005547 -0.002260 0.012936 0.000000 0.000000 0.000000
# 4 0.000000 0.000000 0.000000 0.412691 0.000000 0.000000
# 5 0.000000 0.000000 0.000000 0.000000 0.034554 0.000000
# 6 0.000000 0.000000 0.000000 0.000000 0.000000 0.045427
#
#
# Mechanical properties :
#
#
# Convention : Reuss Voigt Hill
#
# Bulk Modulus (GPa) = 32.84117 35.28373 34.06245
# Shear Modulus (GPa) = 8.40404 19.44902 13.92653
#
# Velocity S-wave (km/s) = 2.12217 3.22838 2.73185
# Velocity P-wave (km/s) = 4.85838 5.72752 5.31076
#
# Compressibility (1/GPa) = 0.03044958
#
# Stress axis : x y z
#
# Youngs Moduli (GPa) = 40.37869 42.39491 77.30164
#
# Poissons Ratio (x) = 0.32274 0.42880
# Poissons Ratio (y) = 0.30740 0.17471
# Poissons Ratio (z) = 0.22398 0.09582
#
# Static dielectric constant tensor:
#      x y z
#    x 3.312130 0.000000 0.000000 
#    y 0.000000 3.477140 0.000000 
#    z 0.000000 0.000000 3.607020 
# 
# 
# High freq. dielectric constant tensor:
#      x y z
#    x 1.698010 0.000000 0.000000 
#    y 0.000000 1.722680 0.000000 
#    z 0.000000 0.000000 1.723300 
# 
# From -- ./inp_files/26824.got.cif
#   From: 2010.03.12/outbox.cif.g09.slc.cpg/sg53_14_cif.got.tgz:26824.got - 2010.04.16 14:36:59.
