data_PCOD8218143
_publ_section_title
;
Structure prediction by ZEFSAII (Michael W. Deem and Ramdas Pophale) SiO2 
 PCOD8218143
Probable space group: P M N A
;
_chemical_formula_sum "Si O2"
_cell_formula_units_Z 48
_cell_length_a 8.488296
_cell_length_b 11.898295
_cell_length_c 26.210423
_cell_angle_alpha 90.000000
_cell_angle_beta 90.000000
_cell_angle_gamma 90.000000
_cell_volume 2647.154430
_symmetry_space_group_name_H-M "P M N A"
_symmetry_group_IT_number 53
_symmetry_cell_setting 'orthorhombic'
loop_
_space_group_symop_operation_xyz
x,y,z
1/2-x,-y,1/2+z
x,-y,-z
1/2-x,y,1/2-z
-x,-y,-z
1/2+x,y,1/2-z
-x,y,z
1/2+x,-y,1/2+z
loop_
_atom_site_type_symbol
_atom_site_label
_atom_site_fract_x
_atom_site_fract_y
_atom_site_fract_z
Si Si1 0.185300 0.296320 0.936251
Si Si2 0.684458 0.953542 0.446656
Si Si3 0.818075 0.354635 0.459409
Si Si4 0.816101 0.172009 0.107027
Si Si5 0.679918 0.500104 0.374633
Si Si6 0.816673 0.680877 0.693797
O O1 0.251744 0.169125 0.930913
O O2 0.218061 0.367250 0.883967
O O3 0.000000 0.298389 0.948895
O O4 0.278452 0.359693 0.981128
O O5 0.500000 0.939412 0.455229
O O6 0.757889 0.000000 0.500000
O O7 0.719972 0.039192 0.399872
O O8 0.781433 0.230589 0.438172
O O9 0.708104 0.440476 0.428778
O O10 0.000000 0.385658 0.450423
O O11 0.763931 0.218358 0.162020
O O12 0.000000 0.197234 0.099168
O O13 0.500000 0.483067 0.357604
O O14 0.786164 0.441876 0.331196
O O15 0.750000 0.682886 0.750000
O O16 0.000000 0.704836 0.694923
#
# Coordination Sequence:
#
# PCOD8218143 Si02
#       6
#     8   8   8   8   8   8
#     4  10  19  32  49  71 101 141 179 209 247 301
#     4   9  16  29  51  75 103 141 180 213 245 294
#     4  11  20  29  44  69 104 140 175 213 253 296
#     4  10  18  32  54  77 104 136 175 214 256 302
#     4  10  20  33  51  74 101 132 171 212 257 308
#     4  11  22  38  59  80 103 127 164 213 267 314
#
# _framework density 18.132679
#
# number of rings (size 3 to 8) (size 9 to 14) (size 15 to 20)
#    0.000    1.833    1.667    6.500    0.000    3.333 
#    0.000    2.500    0.000    1.000    0.000    0.000 
#    0.000    0.000    0.000    0.000    0.000    0.000 
#
# Total GULP energy -594948.784326 kJ/mol
# GULP energy per Si atom -12394.766340 kJ/mol
# Density = 1.809141 g / cm^3
# Si number density = 18.132679 Si / 1000 Ang^3
#
#
#
# Elastic Constant Matrix: (Units=GPa)
#
#
# Indices 1 2 3 4 5 6 
#
# 1 49.2330 5.2969 14.8292 0.0000 0.0000 0.0000
# 2 5.2969 95.3671 42.2314 0.0000 0.0000 0.0000
# 3 14.8292 42.2314 99.4374 0.0000 0.0000 0.0000
# 4 0.0000 0.0000 0.0000 16.3833 0.0000 0.0000
# 5 0.0000 0.0000 0.0000 0.0000 24.6476 0.0000
# 6 0.0000 0.0000 0.0000 0.0000 0.0000 8.6335
#
#
#
# Elastic Compliance Matrix: (Units=1/GPa)
#
#
# Indices 1 2 3 4 5 6 
#
# 1 0.021273 0.000275 -0.003289 0.000000 0.000000 0.000000
# 2 0.000275 0.012918 -0.005527 0.000000 0.000000 0.000000
# 3 -0.003289 -0.005527 0.012895 0.000000 0.000000 0.000000
# 4 0.000000 0.000000 0.000000 0.061038 0.000000 0.000000
# 5 0.000000 0.000000 0.000000 0.000000 0.040572 0.000000
# 6 0.000000 0.000000 0.000000 0.000000 0.000000 0.115828
#
#
# Mechanical properties :
#
#
# Convention : Reuss Voigt Hill
#
# Bulk Modulus (GPa) = 33.33074 40.97249 37.15161
# Shear Modulus (GPa) = 17.14638 22.04490 19.59564
#
# Velocity S-wave (km/s) = 3.07841 3.49055 3.29094
# Velocity P-wave (km/s) = 5.57288 6.23621 5.91385
#
# Compressibility (1/GPa) = 0.03000234
#
# Stress axis : x y z
#
# Youngs Moduli (GPa) = 47.00855 77.41002 77.55174
#
# Poissons Ratio (x) = -0.02129 0.25509
# Poissons Ratio (y) = -0.01293 0.42866
# Poissons Ratio (z) = 0.15462 0.42788
#
# Static dielectric constant tensor:
#      x y z
#    x 3.270210 0.000000 0.000000 
#    y 0.000000 3.678480 0.000000 
#    z 0.000000 0.000000 3.073320 
# 
# 
# High freq. dielectric constant tensor:
#      x y z
#    x 1.694890 0.000000 0.000000 
#    y 0.000000 1.706980 0.000000 
#    z 0.000000 0.000000 1.665210 
# 
# From -- ./inp_files/36159.got.cif
#   From: 2010.03.12/outbox.cif.g09.slc.cpg/sg53_19_cif.got.tgz:36159.got - 2010.04.16 14:36:59.
