data_PCOD8218543
_publ_section_title
;
Structure prediction by ZEFSAII (Michael W. Deem and Ramdas Pophale) SiO2 
 PCOD8218543
Probable space group: P M N A
;
_chemical_formula_sum "Si O2"
_cell_formula_units_Z 64
_cell_length_a 8.974584
_cell_length_b 15.004122
_cell_length_c 29.593819
_cell_angle_alpha 90.000000
_cell_angle_beta 90.000000
_cell_angle_gamma 90.000000
_cell_volume 3984.977989
_symmetry_space_group_name_H-M "P M N A"
_symmetry_group_IT_number 53
_symmetry_cell_setting 'orthorhombic'
loop_
_space_group_symop_operation_xyz
x,y,z
1/2-x,-y,1/2+z
x,-y,-z
1/2-x,y,1/2-z
-x,-y,-z
1/2+x,y,1/2-z
-x,y,z
1/2+x,-y,1/2+z
loop_
_atom_site_type_symbol
_atom_site_label
_atom_site_fract_x
_atom_site_fract_y
_atom_site_fract_z
Si Si1 0.826877 0.701153 0.614309
Si Si2 0.323302 0.867199 0.944110
Si Si3 0.174506 0.984692 0.794606
Si Si4 0.675912 0.446444 0.434456
Si Si5 0.671894 0.972688 0.393632
Si Si6 0.676514 0.372124 0.529705
Si Si7 0.325316 0.825864 0.464176
Si Si8 0.675425 0.794914 0.794164
O O1 0.766911 0.776534 0.579789
O O2 0.747960 0.606152 0.607115
O O3 0.789209 0.729236 0.665011
O O4 0.000000 0.687628 0.606600
O O5 0.500000 0.870171 0.947563
O O6 0.273022 0.949860 0.913834
O O7 0.254738 0.873923 0.993975
O O8 0.250000 0.029626 0.750000
O O9 0.000000 0.973606 0.785006
O O10 0.204009 0.041936 0.840129
O O11 0.247174 0.889032 0.803426
O O12 0.500000 0.440627 0.429984
O O13 0.733243 0.397790 0.479911
O O14 0.729104 0.550280 0.435365
O O15 0.500000 0.999697 0.401371
O O16 0.710000 0.880158 0.418639
O O17 0.500000 0.371410 0.529480
O O18 0.737948 0.274580 0.543257
O O19 0.500000 0.824195 0.475186
O O20 0.750000 0.750626 0.750000
O O21 0.500000 0.810161 0.787607
#
# Coordination Sequence:
#
# PCOD8218543 Si02
#       8
#     8   8   8   8   8   8   8   8
#     4  10  20  31  44  66  96 124 150 183 228 273
#     4  11  21  32  44  64  96 129 159 188 223 267
#     4  10  19  31  47  67  89 115 150 190 230 272
#     4   9  16  28  48  69  87 115 154 188 225 268
#     4  10  21  33  47  67  90 122 160 190 225 272
#     4   8  15  28  46  68  90 113 149 196 229 256
#     4  10  19  33  49  65  91 125 159 196 230 264
#     4  10  19  32  47  66  91 120 151 187 229 273
#
# _framework density 16.060314999999999
#
# number of rings (size 3 to 8) (size 9 to 14) (size 15 to 20)
#    0.000    2.250    2.500    3.000    0.000    4.000 
#    0.000    1.875    0.000    0.000    0.000    0.875 
#    0.000    4.000    0.000    0.000    0.000    0.000 
#
# Total GULP energy -793346.993104 kJ/mol
# GULP energy per Si atom -12396.046767 kJ/mol
# Density = 1.602376 g / cm^3
# Si number density = 16.060315 Si / 1000 Ang^3
#
#
#
# Elastic Constant Matrix: (Units=GPa)
#
#
# Indices 1 2 3 4 5 6 
#
# 1 52.7408 26.3016 43.7167 0.0000 0.0000 0.0000
# 2 26.3016 81.1327 54.7277 0.0000 0.0000 0.0000
# 3 43.7167 54.7277 120.9826 0.0000 0.0000 0.0000
# 4 0.0000 0.0000 0.0000 22.5952 0.0000 0.0000
# 5 0.0000 0.0000 0.0000 0.0000 24.3993 0.0000
# 6 0.0000 0.0000 0.0000 0.0000 0.0000 15.4408
#
#
#
# Elastic Compliance Matrix: (Units=1/GPa)
#
#
# Indices 1 2 3 4 5 6 
#
# 1 0.027633 -0.003199 -0.008538 0.000000 0.000000 0.000000
# 2 -0.003199 0.018108 -0.007036 0.000000 0.000000 0.000000
# 3 -0.008538 -0.007036 0.014534 0.000000 0.000000 0.000000
# 4 0.000000 0.000000 0.000000 0.044257 0.000000 0.000000
# 5 0.000000 0.000000 0.000000 0.000000 0.040985 0.000000
# 6 0.000000 0.000000 0.000000 0.000000 0.000000 0.064764
#
#
# Mechanical properties :
#
#
# Convention : Reuss Voigt Hill
#
# Bulk Modulus (GPa) = 43.99489 56.03866 50.01678
# Shear Modulus (GPa) = 19.57699 21.16107 20.36903
#
# Velocity S-wave (km/s) = 3.49516 3.63381 3.56516
# Velocity P-wave (km/s) = 6.61371 7.25083 6.93959
#
# Compressibility (1/GPa) = 0.02272991
#
# Stress axis : x y z
#
# Youngs Moduli (GPa) = 36.18852 55.22329 68.80644
#
# Poissons Ratio (x) = 0.17664 0.58748
# Poissons Ratio (y) = 0.11576 0.48410
# Poissons Ratio (z) = 0.30898 0.38853
#
# Static dielectric constant tensor:
#      x y z
#    x 2.948000 0.000000 0.000000 
#    y 0.000000 3.163720 0.000000 
#    z 0.000000 0.000000 3.181860 
# 
# 
# High freq. dielectric constant tensor:
#      x y z
#    x 1.612460 0.000000 0.000000 
#    y 0.000000 1.597560 0.000000 
#    z 0.000000 0.000000 1.607760 
# 
# From -- ./inp_files/38512.got.cif
#   From: 2010.03.12/outbox.cif.g09.slc.cpg/sg53_20_cif.got.tgz:38512.got - 2010.04.16 14:36:59.
