data_PCOD8218808
_publ_section_title
;
Structure prediction by ZEFSAII (Michael W. Deem and Ramdas Pophale) SiO2 
 PCOD8218808
Probable space group: P M N A
;
_chemical_formula_sum "Si O2"
_cell_formula_units_Z 56
_cell_length_a 8.854829
_cell_length_b 15.107959
_cell_length_c 20.744185
_cell_angle_alpha 90.000000
_cell_angle_beta 90.000000
_cell_angle_gamma 90.000000
_cell_volume 2775.123743
_symmetry_space_group_name_H-M "P M N A"
_symmetry_group_IT_number 53
_symmetry_cell_setting 'orthorhombic'
loop_
_space_group_symop_operation_xyz
x,y,z
1/2-x,-y,1/2+z
x,-y,-z
1/2-x,y,1/2-z
-x,-y,-z
1/2+x,y,1/2-z
-x,y,z
1/2+x,-y,1/2+z
loop_
_atom_site_type_symbol
_atom_site_label
_atom_site_fract_x
_atom_site_fract_y
_atom_site_fract_z
Si Si1 0.174214 0.945112 0.562158
Si Si2 0.178784 0.545282 0.682305
Si Si3 0.670862 0.759340 0.990397
Si Si4 0.826388 0.027244 0.816225
Si Si5 0.669368 0.362175 0.690735
Si Si6 0.666538 0.804178 0.389874
Si Si7 0.321972 0.418310 0.453095
O O1 0.194670 0.838361 0.560358
O O2 0.266375 0.970457 0.624792
O O3 0.000000 0.970736 0.571335
O O4 0.237063 0.000000 0.500000
O O5 0.250000 0.582699 0.750000
O O6 0.221335 0.443073 0.674523
O O7 0.243179 0.588425 0.616964
O O8 0.000000 0.560479 0.684392
O O9 0.500000 0.723251 0.989501
O O10 0.783780 0.676451 0.984625
O O11 0.704355 0.811143 0.056935
O O12 0.750000 0.998904 0.750000
O O13 0.000000 0.005657 0.807507
O O14 0.794430 0.130836 0.830855
O O15 0.750000 0.311477 0.750000
O O16 0.500000 0.396305 0.707981
O O17 0.662111 0.297385 0.631238
O O18 0.500000 0.829430 0.417557
O O19 0.267398 0.500000 0.500000
O O20 0.500000 0.427907 0.442479
#
# Coordination Sequence:
#
# PCOD8218808 Si02
#       7
#     8   8   8   8   8   8   8
#     4  10  21  41  64  89 122 160 201 250 303 360
#     4  11  22  38  60  85 116 157 206 255 309 370
#     4  11  23  38  62  91 118 156 204 252 305 366
#     4  11  23  38  60  89 123 163 206 255 309 366
#     4  10  19  32  50  76 112 153 196 242 298 361
#     4  10  21  35  53  82 119 157 197 245 303 367
#     4  11  24  42  63  90 127 165 204 257 314 368
#
# _framework density 20.179279999999999
#
# number of rings (size 3 to 8) (size 9 to 14) (size 15 to 20)
#    0.000    1.429    1.429    5.143    0.000    7.714 
#    0.000    0.714    0.000    3.429    0.000    0.000 
#    0.000    0.000    0.000    0.000    0.000    0.000 
#
# Total GULP energy -694055.335541 kJ/mol
# GULP energy per Si atom -12393.845278 kJ/mol
# Density = 2.013335 g / cm^3
# Si number density = 20.179280 Si / 1000 Ang^3
#
#
#
# Elastic Constant Matrix: (Units=GPa)
#
#
# Indices 1 2 3 4 5 6 
#
# 1 110.4582 36.0495 60.5428 0.0000 0.0000 0.0000
# 2 36.0495 73.5409 28.9412 0.0000 0.0000 0.0000
# 3 60.5428 28.9412 134.7844 0.0000 0.0000 0.0000
# 4 0.0000 0.0000 0.0000 19.5237 0.0000 0.0000
# 5 0.0000 0.0000 0.0000 0.0000 37.7885 0.0000
# 6 0.0000 0.0000 0.0000 0.0000 0.0000 26.6318
#
#
#
# Elastic Compliance Matrix: (Units=1/GPa)
#
#
# Indices 1 2 3 4 5 6 
#
# 1 0.013267 -0.004542 -0.004984 0.000000 0.000000 0.000000
# 2 -0.004542 0.016408 -0.001483 0.000000 0.000000 0.000000
# 3 -0.004984 -0.001483 0.009976 0.000000 0.000000 0.000000
# 4 0.000000 0.000000 0.000000 0.051220 0.000000 0.000000
# 5 0.000000 0.000000 0.000000 0.000000 0.026463 0.000000
# 6 0.000000 0.000000 0.000000 0.000000 0.000000 0.037549
#
#
# Mechanical properties :
#
#
# Convention : Reuss Voigt Hill
#
# Bulk Modulus (GPa) = 56.71059 63.31672 60.01366
# Shear Modulus (GPa) = 27.35526 29.67215 28.51370
#
# Velocity S-wave (km/s) = 3.68586 3.83877 3.76309
# Velocity P-wave (km/s) = 6.80283 7.14797 6.97753
#
# Compressibility (1/GPa) = 0.01763339
#
# Stress axis : x y z
#
# Youngs Moduli (GPa) = 75.37225 60.94582 100.23574
#
# Poissons Ratio (x) = 0.27683 0.49960
# Poissons Ratio (y) = 0.34236 0.14864
# Poissons Ratio (z) = 0.37567 0.09038
#
# Static dielectric constant tensor:
#      x y z
#    x 3.766270 0.000000 0.000000 
#    y 0.000000 3.548240 0.000000 
#    z 0.000000 0.000000 3.920870 
# 
# 
# High freq. dielectric constant tensor:
#      x y z
#    x 1.795970 0.000000 0.000000 
#    y 0.000000 1.774630 0.000000 
#    z 0.000000 0.000000 1.788770 
# 
# From -- ./inp_files/30840.got.cif
#   From: 2010.03.12/outbox.cif.g09.slc.cpg/sg53_16_cif.got.tgz:30840.got - 2010.04.16 14:36:59.
