data_PCOD8218932
_publ_section_title
;
Structure prediction by ZEFSAII (Michael W. Deem and Ramdas Pophale) SiO2 
 PCOD8218932
Probable space group: P M N A
;
_chemical_formula_sum "Si O2"
_cell_formula_units_Z 64
_cell_length_a 8.779958
_cell_length_b 15.408477
_cell_length_c 23.915451
_cell_angle_alpha 90.000000
_cell_angle_beta 90.000000
_cell_angle_gamma 90.000000
_cell_volume 3235.420464
_symmetry_space_group_name_H-M "P M N A"
_symmetry_group_IT_number 53
_symmetry_cell_setting 'orthorhombic'
loop_
_space_group_symop_operation_xyz
x,y,z
1/2-x,-y,1/2+z
x,-y,-z
1/2-x,y,1/2-z
-x,-y,-z
1/2+x,y,1/2-z
-x,y,z
1/2+x,-y,1/2+z
loop_
_atom_site_type_symbol
_atom_site_label
_atom_site_fract_x
_atom_site_fract_y
_atom_site_fract_z
Si Si1 0.824704 0.368599 0.630054
Si Si2 0.824254 0.119635 0.105828
Si Si3 0.320199 0.209869 0.690384
Si Si4 0.672391 0.304289 0.985570
Si Si5 0.177095 0.696162 0.610571
Si Si6 0.678087 0.051892 0.872738
Si Si7 0.319026 0.457446 0.189000
Si Si8 0.173842 0.872095 0.023091
O O1 0.727956 0.285868 0.648489
O O2 0.809735 0.377941 0.562305
O O3 0.760065 0.455310 0.658731
O O4 0.000000 0.353364 0.647336
O O5 0.763300 0.214234 0.121929
O O6 0.000000 0.115677 0.122584
O O7 0.733812 0.046087 0.140341
O O8 0.799725 0.098752 0.040424
O O9 0.250000 0.231860 0.750000
O O10 0.500000 0.206792 0.695266
O O11 0.262389 0.117356 0.668743
O O12 0.500000 0.266224 0.984239
O O13 0.790361 0.229051 0.970764
O O14 0.707022 0.340381 0.047687
O O15 0.240392 0.624348 0.653276
O O16 0.000000 0.713677 0.620710
O O17 0.500000 0.059339 0.861849
O O18 0.716491 0.073269 0.937035
O O19 0.250000 0.451414 0.250000
O O20 0.500000 0.457501 0.192300
O O21 0.000000 0.888240 0.041996
#
# Coordination Sequence:
#
# PCOD8218932 Si02
#       8
#     8   8   8   8   8   8   8   8
#     4  10  20  36  59  89 119 151 190 236 290 355
#     4  10  21  36  56  84 117 152 192 239 291 347
#     4  12  25  41  60  83 116 156 196 243 293 348
#     4   9  17  31  55  84 118 154 190 232 291 355
#     4   9  19  37  58  84 116 153 195 245 295 350
#     4  12  23  36  56  83 115 153 197 239 284 342
#     4  10  22  39  60  85 115 150 198 246 291 344
#     4  10  19  32  52  82 119 155 191 232 283 341
#
# _framework density 19.781046
#
# number of rings (size 3 to 8) (size 9 to 14) (size 15 to 20)
#    0.000    1.750    1.250    3.750    0.000    5.500 
#    0.000    3.125    0.000    1.500    0.000    5.250 
#    0.000    0.000    0.000    0.000    0.000    0.000 
#
# Total GULP energy -793636.543127 kJ/mol
# GULP energy per Si atom -12400.570986 kJ/mol
# Density = 1.973602 g / cm^3
# Si number density = 19.781046 Si / 1000 Ang^3
#
#
#
# Elastic Constant Matrix: (Units=GPa)
#
#
# Indices 1 2 3 4 5 6 
#
# 1 91.5475 36.2128 27.5042 0.0000 0.0000 0.0000
# 2 36.2128 91.3893 62.5495 0.0000 0.0000 0.0000
# 3 27.5042 62.5495 86.0225 0.0000 0.0000 0.0000
# 4 0.0000 0.0000 0.0000 26.4834 0.0000 0.0000
# 5 0.0000 0.0000 0.0000 0.0000 27.7196 0.0000
# 6 0.0000 0.0000 0.0000 0.0000 0.0000 18.8638
#
#
#
# Elastic Compliance Matrix: (Units=1/GPa)
#
#
# Indices 1 2 3 4 5 6 
#
# 1 0.012982 -0.004585 -0.000817 0.000000 0.000000 0.000000
# 2 -0.004585 0.023402 -0.015550 0.000000 0.000000 0.000000
# 3 -0.000817 -0.015550 0.023193 0.000000 0.000000 0.000000
# 4 0.000000 0.000000 0.000000 0.037759 0.000000 0.000000
# 5 0.000000 0.000000 0.000000 0.000000 0.036076 0.000000
# 6 0.000000 0.000000 0.000000 0.000000 0.000000 0.053012
#
#
# Mechanical properties :
#
#
# Convention : Reuss Voigt Hill
#
# Bulk Modulus (GPa) = 56.58372 57.94358 57.26365
# Shear Modulus (GPa) = 21.34740 24.12621 22.73681
#
# Velocity S-wave (km/s) = 3.28866 3.49616 3.39399
# Velocity P-wave (km/s) = 6.56411 6.75674 6.66112
#
# Compressibility (1/GPa) = 0.01767293
#
# Stress axis : x y z
#
# Youngs Moduli (GPa) = 77.02717 42.73100 43.11598
#
# Poissons Ratio (x) = 0.19593 0.03522
# Poissons Ratio (y) = 0.35318 0.67047
# Poissons Ratio (z) = 0.06293 0.66449
#
# Static dielectric constant tensor:
#      x y z
#    x 3.556580 0.000000 0.000000 
#    y 0.000000 3.598200 0.000000 
#    z 0.000000 0.000000 3.662420 
# 
# 
# High freq. dielectric constant tensor:
#      x y z
#    x 1.768920 0.000000 0.000000 
#    y 0.000000 1.767640 0.000000 
#    z 0.000000 0.000000 1.763410 
# 
# From -- ./inp_files/34268.got.cif
#   From: 2010.03.12/outbox.cif.g09.slc.cpg/sg53_18_cif.got.tgz:34268.got - 2010.04.16 14:36:59.
