data_PCOD8218124
_publ_section_title
;
Structure prediction by ZEFSAII (Michael W. Deem and Ramdas Pophale) SiO2 
 PCOD8218124
Probable space group: P M N A
;
_chemical_formula_sum "Si O2"
_cell_formula_units_Z 64
_cell_length_a 17.908630
_cell_length_b 11.077830
_cell_length_c 17.331798
_cell_angle_alpha 90.000000
_cell_angle_beta 90.000000
_cell_angle_gamma 90.000000
_cell_volume 3438.433891
_symmetry_space_group_name_H-M "P M N A"
_symmetry_group_IT_number 53
_symmetry_cell_setting 'orthorhombic'
loop_
_space_group_symop_operation_xyz
x,y,z
1/2-x,-y,1/2+z
x,-y,-z
1/2-x,y,1/2-z
-x,-y,-z
1/2+x,y,1/2-z
-x,y,z
1/2+x,-y,1/2+z
loop_
_atom_site_type_symbol
_atom_site_label
_atom_site_fract_x
_atom_site_fract_y
_atom_site_fract_z
Si Si1 0.178575 0.374826 0.588946
Si Si2 0.414512 0.780275 0.790102
Si Si3 0.411254 0.916753 0.571107
Si Si4 0.168512 0.701981 0.861022
Si Si5 0.673155 0.661869 0.915439
Si Si6 0.585804 0.971808 0.271111
Si Si7 0.411733 0.715666 0.223652
Si Si8 0.806831 0.445167 0.818215
O O1 0.167766 0.518559 0.592033
O O2 0.174299 0.310601 0.506311
O O3 0.112395 0.314650 0.637128
O O4 0.260535 0.353216 0.626527
O O5 0.500000 0.749688 0.766823
O O6 0.358902 0.729873 0.725234
O O7 0.398001 0.721789 0.873387
O O8 0.403729 0.925258 0.794031
O O9 0.500000 0.900411 0.569493
O O10 0.376357 0.780689 0.574388
O O11 0.383919 0.000000 0.500000
O O12 0.380378 0.982993 0.647667
O O13 0.256392 0.725463 0.873974
O O14 0.160496 0.556456 0.869067
O O15 0.500000 0.943651 0.287117
O O16 0.622499 0.847674 0.242824
O O17 0.500000 0.708262 0.229539
O O18 0.378133 0.622068 0.284404
O O19 0.750000 0.489742 0.750000
#
# Coordination Sequence:
#
# PCOD8218124 Si02
#       8
#     8   8   8   8   8   8   8   8
#     4   9  20  36  51  72 106 143 168 206 269 318
#     4  10  19  33  54  78 102 131 171 221 270 309
#     4   9  18  33  53  77 106 139 174 217 267 311
#     4  10  18  32  53  76 102 132 172 215 256 310
#     4  10  20  35  54  75 104 138 174 215 262 316
#     4   8  17  33  50  71 102 137 168 206 260 313
#     4  10  19  33  55  78 102 136 179 216 252 313
#     4   9  18  33  52  75 105 139 173 214 266 314
#
# _framework density 18.613125
#
# number of rings (size 3 to 8) (size 9 to 14) (size 15 to 20)
#    0.000    2.625    0.000    3.750    0.000    4.000 
#    0.000   10.625    0.000    3.000    0.000   12.250 
#    0.000    0.000    0.000    0.000    0.000    0.000 
#
# Total GULP energy -793033.058961 kJ/mol
# GULP energy per Si atom -12391.141546 kJ/mol
# Density = 1.857076 g / cm^3
# Si number density = 18.613125 Si / 1000 Ang^3
#
#
#
# Elastic Constant Matrix: (Units=GPa)
#
#
# Indices 1 2 3 4 5 6 
#
# 1 76.8491 49.9851 40.9552 0.0000 0.0000 0.0000
# 2 49.9851 86.9552 45.6833 0.0000 0.0000 0.0000
# 3 40.9552 45.6833 116.4990 0.0000 0.0000 0.0000
# 4 0.0000 0.0000 0.0000 33.5256 0.0000 0.0000
# 5 0.0000 0.0000 0.0000 0.0000 25.2574 0.0000
# 6 0.0000 0.0000 0.0000 0.0000 0.0000 17.5517
#
#
#
# Elastic Compliance Matrix: (Units=1/GPa)
#
#
# Indices 1 2 3 4 5 6 
#
# 1 0.021843 -0.010733 -0.003470 0.000000 0.000000 0.000000
# 2 -0.010733 0.019758 -0.003975 0.000000 0.000000 0.000000
# 3 -0.003470 -0.003975 0.011362 0.000000 0.000000 0.000000
# 4 0.000000 0.000000 0.000000 0.029828 0.000000 0.000000
# 5 0.000000 0.000000 0.000000 0.000000 0.039592 0.000000
# 6 0.000000 0.000000 0.000000 0.000000 0.000000 0.056974
#
#
# Mechanical properties :
#
#
# Convention : Reuss Voigt Hill
#
# Bulk Modulus (GPa) = 60.21289 61.50562 60.85925
# Shear Modulus (GPa) = 22.59891 24.84558 23.72225
#
# Velocity S-wave (km/s) = 3.48823 3.65751 3.57387
# Velocity P-wave (km/s) = 6.97449 7.13810 7.05677
#
# Compressibility (1/GPa) = 0.01660774
#
# Stress axis : x y z
#
# Youngs Moduli (GPa) = 45.78130 50.61219 88.01079
#
# Poissons Ratio (x) = 0.54323 0.30540
# Poissons Ratio (y) = 0.49138 0.34981
# Poissons Ratio (z) = 0.15886 0.20116
#
# Static dielectric constant tensor:
#      x y z
#    x 3.289210 0.000000 0.000000 
#    y 0.000000 3.536480 0.000000 
#    z 0.000000 0.000000 3.517620 
# 
# 
# High freq. dielectric constant tensor:
#      x y z
#    x 1.708270 0.000000 0.000000 
#    y 0.000000 1.717510 0.000000 
#    z 0.000000 0.000000 1.712160 
# 
# From -- ./inp_files/29102.got.cif
#   From: 2010.03.12/outbox.cif.g09.slc.cpg/sg53_15_cif.got.tgz:29102.got - 2010.04.16 14:36:59.
