data_PCOD8218191
_publ_section_title
;
Structure prediction by ZEFSAII (Michael W. Deem and Ramdas Pophale) SiO2 
 PCOD8218191
Probable space group: P M N A
;
_chemical_formula_sum "Si O2"
_cell_formula_units_Z 56
_cell_length_a 20.358044
_cell_length_b 13.700435
_cell_length_c 9.693831
_cell_angle_alpha 90.000000
_cell_angle_beta 90.000000
_cell_angle_gamma 90.000000
_cell_volume 2703.745747
_symmetry_space_group_name_H-M "P M N A"
_symmetry_group_IT_number 53
_symmetry_cell_setting 'orthorhombic'
loop_
_space_group_symop_operation_xyz
x,y,z
1/2-x,-y,1/2+z
x,-y,-z
1/2-x,y,1/2-z
-x,-y,-z
1/2+x,y,1/2-z
-x,y,z
1/2+x,-y,1/2+z
loop_
_atom_site_type_symbol
_atom_site_label
_atom_site_fract_x
_atom_site_fract_y
_atom_site_fract_z
Si Si1 0.203706 0.925587 0.625228
Si Si2 0.426442 0.567740 0.187522
Si Si3 0.425408 0.107502 0.528329
Si Si4 0.273166 0.263408 0.970749
Si Si5 0.381987 0.628510 0.898745
Si Si6 0.649192 0.259817 0.698276
Si Si7 0.074315 0.169741 0.273338
O O1 0.250000 0.964636 0.750000
O O2 0.237513 0.825909 0.574540
O O3 0.127674 0.906771 0.667477
O O4 0.204678 0.000000 0.500000
O O5 0.500000 0.542770 0.232966
O O6 0.383689 0.467869 0.197296
O O7 0.399472 0.648627 0.292604
O O8 0.426740 0.609657 0.032572
O O9 0.500000 0.094911 0.580677
O O10 0.385826 0.161112 0.648866
O O11 0.420997 0.172303 0.391516
O O12 0.394926 0.000000 0.500000
O O13 0.203793 0.296071 0.910223
O O14 0.321348 0.231014 0.846483
O O15 0.306587 0.352777 0.053936
O O16 0.411135 0.721035 0.820804
O O17 0.000000 0.138513 0.318599
#
# Coordination Sequence:
#
# PCOD8218191 Si02
#       7
#     8   8   8   8   8   8   8
#     4  11  25  40  63  91 121 168 213 257 315 377
#     4  10  18  32  63  92 114 152 198 250 312 372
#     4  10  22  38  60  87 123 168 204 251 320 378
#     4   9  21  37  58  82 118 163 203 254 308 363
#     4   9  18  36  60  85 118 152 200 253 311 373
#     4  10  20  36  60  84 124 158 207 258 300 371
#     4  10  21  39  62  90 124 159 204 261 315 371
#
# _framework density 20.712007
#
# number of rings (size 3 to 8) (size 9 to 14) (size 15 to 20)
#    0.000    2.143    0.000    3.000    4.000    1.429 
#    0.000    1.429   69.143    2.571    0.000    0.000 
#    0.000    0.000    0.000    0.000    0.000    0.000 
#
# Total GULP energy -694372.376591 kJ/mol
# GULP energy per Si atom -12399.506725 kJ/mol
# Density = 2.066487 g / cm^3
# Si number density = 20.712007 Si / 1000 Ang^3
#
#
#
# Elastic Constant Matrix: (Units=GPa)
#
#
# Indices 1 2 3 4 5 6 
#
# 1 91.7393 64.3583 36.3948 0.0000 0.0000 0.0000
# 2 64.3583 131.9770 47.8659 0.0000 0.0000 0.0000
# 3 36.3948 47.8659 69.1649 0.0000 0.0000 0.0000
# 4 0.0000 0.0000 0.0000 37.0616 0.0000 0.0000
# 5 0.0000 0.0000 0.0000 0.0000 25.3418 0.0000
# 6 0.0000 0.0000 0.0000 0.0000 0.0000 18.7542
#
#
#
# Elastic Compliance Matrix: (Units=1/GPa)
#
#
# Indices 1 2 3 4 5 6 
#
# 1 0.017524 -0.006944 -0.004415 0.000000 0.000000 0.000000
# 2 -0.006944 0.012868 -0.005251 0.000000 0.000000 0.000000
# 3 -0.004415 -0.005251 0.020416 0.000000 0.000000 0.000000
# 4 0.000000 0.000000 0.000000 0.026982 0.000000 0.000000
# 5 0.000000 0.000000 0.000000 0.000000 0.039460 0.000000
# 6 0.000000 0.000000 0.000000 0.000000 0.000000 0.053321
#
#
# Mechanical properties :
#
#
# Convention : Reuss Voigt Hill
#
# Bulk Modulus (GPa) = 56.86369 65.56880 61.21625
# Shear Modulus (GPa) = 23.84877 25.84900 24.84889
#
# Velocity S-wave (km/s) = 3.39698 3.53657 3.46747
# Velocity P-wave (km/s) = 6.54981 6.95719 6.75657
#
# Compressibility (1/GPa) = 0.01758592
#
# Stress axis : x y z
#
# Youngs Moduli (GPa) = 57.06613 77.71312 48.98169
#
# Poissons Ratio (x) = 0.53963 0.21627
# Poissons Ratio (y) = 0.39626 0.25722
# Poissons Ratio (z) = 0.25197 0.40810
#
# Static dielectric constant tensor:
#      x y z
#    x 3.871310 0.000000 0.000000 
#    y 0.000000 3.704810 0.000000 
#    z 0.000000 0.000000 3.693930 
# 
# 
# High freq. dielectric constant tensor:
#      x y z
#    x 1.815060 0.000000 0.000000 
#    y 0.000000 1.804880 0.000000 
#    z 0.000000 0.000000 1.798660 
# 
# From -- ./inp_files/11076.got.cif
#   From: 2010.03.12/outbox.cif.g09.slc.cpg/sg53_6_cif.got.tgz:11076.got - 2010.04.16 14:36:59.
