data_PCOD8218040
_publ_section_title
;
Structure prediction by ZEFSAII (Michael W. Deem and Ramdas Pophale) SiO2 
 PCOD8218040
Probable space group: P M N A
;
_chemical_formula_sum "Si O2"
_cell_formula_units_Z 40
_cell_length_a 14.292776
_cell_length_b 7.880317
_cell_length_c 19.489746
_cell_angle_alpha 90.000000
_cell_angle_beta 90.000000
_cell_angle_gamma 90.000000
_cell_volume 2195.161386
_symmetry_space_group_name_H-M "P M N A"
_symmetry_group_IT_number 53
_symmetry_cell_setting 'orthorhombic'
loop_
_space_group_symop_operation_xyz
x,y,z
1/2-x,-y,1/2+z
x,-y,-z
1/2-x,y,1/2-z
-x,-y,-z
1/2+x,y,1/2-z
-x,y,z
1/2+x,-y,1/2+z
loop_
_atom_site_type_symbol
_atom_site_label
_atom_site_fract_x
_atom_site_fract_y
_atom_site_fract_z
Si Si1 0.608875 0.750525 0.195272
Si Si2 0.896242 0.134909 0.847069
Si Si3 0.776437 0.935766 0.671348
Si Si4 0.270848 0.566657 0.829238
Si Si5 0.605034 0.533250 0.423111
O O1 0.500000 0.728257 0.181431
O O2 0.631776 0.762365 0.276879
O O3 0.658991 0.590235 0.158489
O O4 0.644066 0.922690 0.158178
O O5 0.895994 0.265400 0.909870
O O6 0.000000 0.053904 0.837617
O O7 0.820849 0.990523 0.865738
O O8 0.750000 0.925509 0.750000
O O9 0.813214 0.750335 0.646999
O O10 0.250000 0.574951 0.750000
O O11 0.174457 0.554063 0.870211
O O12 0.640538 0.500000 0.500000
O O13 0.500000 0.459032 0.412394
#
# Coordination Sequence:
#
# PCOD8218040 Si02
#       5
#     8   8   8   8   8
#     4  10  18  31  51  76 106 136 173 223 271 309
#     4   9  16  31  51  72 106 141 169 211 267 319
#     4   9  18  30  48  77 106 134 176 224 268 315
#     4  11  19  32  55  79 105 141 184 224 268 316
#     4  10  20  34  54  81 113 146 178 215 266 329
#
# _framework density 18.221895
#
# number of rings (size 3 to 8) (size 9 to 14) (size 15 to 20)
#    0.000    2.200    4.000    0.600    0.000    1.600 
#    0.000    5.000    0.000    4.200    0.000    1.400 
#    0.000    0.000    0.000    0.000    0.000    0.000 
#
# Total GULP energy -495661.599212 kJ/mol
# GULP energy per Si atom -12391.539980 kJ/mol
# Density = 1.818042 g / cm^3
# Si number density = 18.221895 Si / 1000 Ang^3
#
#
#
# Elastic Constant Matrix: (Units=GPa)
#
#
# Indices 1 2 3 4 5 6 
#
# 1 95.8249 55.8040 36.3817 0.0000 0.0000 0.0000
# 2 55.8040 145.2850 16.8778 0.0000 0.0000 0.0000
# 3 36.3817 16.8778 60.0502 0.0000 0.0000 0.0000
# 4 0.0000 0.0000 0.0000 -47.2069 0.0000 0.0000
# 5 0.0000 0.0000 0.0000 0.0000 21.7977 0.0000
# 6 0.0000 0.0000 0.0000 0.0000 0.0000 15.5020
#
#
#
# Elastic Compliance Matrix: (Units=1/GPa)
#
#
# Indices 1 2 3 4 5 6 
#
# 1 0.016949 -0.005497 -0.008724 0.000000 0.000000 0.000000
# 2 -0.005497 0.008898 0.000829 0.000000 0.000000 0.000000
# 3 -0.008724 0.000829 0.021705 0.000000 0.000000 0.000000
# 4 0.000000 0.000000 0.000000 -0.021183 0.000000 0.000000
# 5 0.000000 0.000000 0.000000 0.000000 0.045876 0.000000
# 6 0.000000 0.000000 0.000000 0.000000 0.000000 0.064508
#
#
# Mechanical properties :
#
#
# Convention : Reuss Voigt Hill
#
# Bulk Modulus (GPa) = 48.14700 57.69855 52.92278
# Shear Modulus (GPa) = 29.33278 10.82498 20.07888
#
# Velocity S-wave (km/s) = 4.01653 2.43999 3.32310
# Velocity P-wave (km/s) = 6.92748 6.29851 6.62047
#
# Compressibility (1/GPa) = 0.02076973
#
# Stress axis : x y z
#
# Youngs Moduli (GPa) = 59.00143 112.38564 46.07263
#
# Poissons Ratio (x) = 0.61774 0.40192
# Poissons Ratio (y) = 0.32431 -0.03821
# Poissons Ratio (z) = 0.51470 -0.09320
#
# Static dielectric constant tensor:
#      x y z
#    x 3.457310 0.000000 0.000000 
#    y 0.000000 3.832880 0.000000 
#    z 0.000000 0.000000 2.932040 
# 
# 
# High freq. dielectric constant tensor:
#      x y z
#    x 1.704840 0.000000 0.000000 
#    y 0.000000 1.710380 0.000000 
#    z 0.000000 0.000000 1.648940 
# 
# From -- ./inp_files/28071.got.cif
#   From: 2010.03.12/outbox.cif.g09.slc.cpg/sg53_15_cif.got.tgz:28071.got - 2010.04.16 14:36:59.
