data_PCOD8218445
_publ_section_title
;
Structure prediction by ZEFSAII (Michael W. Deem and Ramdas Pophale) SiO2 
 PCOD8218445
Probable space group: P M N A
;
_chemical_formula_sum "Si O2"
_cell_formula_units_Z 56
_cell_length_a 8.862595
_cell_length_b 20.420788
_cell_length_c 18.132550
_cell_angle_alpha 90.000000
_cell_angle_beta 90.000000
_cell_angle_gamma 90.000000
_cell_volume 3281.650180
_symmetry_space_group_name_H-M "P M N A"
_symmetry_group_IT_number 53
_symmetry_cell_setting 'orthorhombic'
loop_
_space_group_symop_operation_xyz
x,y,z
1/2-x,-y,1/2+z
x,-y,-z
1/2-x,y,1/2-z
-x,-y,-z
1/2+x,y,1/2-z
-x,y,z
1/2+x,-y,1/2+z
loop_
_atom_site_type_symbol
_atom_site_label
_atom_site_fract_x
_atom_site_fract_y
_atom_site_fract_z
Si Si1 0.678023 0.510686 0.171917
Si Si2 0.178431 0.018680 0.174547
Si Si3 0.166021 0.436999 0.050994
Si Si4 0.666451 0.074246 0.474032
Si Si5 0.322914 0.252300 0.827867
Si Si6 0.179031 0.632703 0.090542
Si Si7 0.674692 0.109577 0.886454
O O1 0.750000 0.493312 0.250000
O O2 0.500000 0.517817 0.179166
O O3 0.716856 0.450194 0.116989
O O4 0.745916 0.578513 0.142828
O O5 0.250000 0.044834 0.250000
O O6 0.234352 0.945611 0.157033
O O7 0.000000 0.014829 0.182064
O O8 0.225425 0.070751 0.110618
O O9 0.000000 0.421734 0.084565
O O10 0.153368 0.500000 0.000000
O O11 0.219375 0.378822 0.996101
O O12 0.500000 0.106635 0.478029
O O13 0.778159 0.114208 0.527197
O O14 0.655252 0.000000 0.500000
O O15 0.250000 0.270243 0.750000
O O16 0.500000 0.266668 0.824934
O O17 0.245922 0.296806 0.889978
O O18 0.287354 0.177614 0.847632
O O19 0.000000 0.630056 0.103272
O O20 0.500000 0.091694 0.882243
#
# Coordination Sequence:
#
# PCOD8218445 Si02
#       7
#     8   8   8   8   8   8   8
#     4  11  20  30  47  70  97 125 153 189 231 273
#     4  10  19  30  46  69  95 122 152 189 232 276
#     4   8  16  31  48  67  91 118 151 189 230 276
#     4   8  16  30  46  65  90 119 151 188 230 275
#     4  11  23  35  47  67  94 124 160 194 225 266
#     4  10  20  34  50  67  92 125 157 191 230 272
#     4  10  20  32  47  67  92 124 158 192 228 270
#
# _framework density 17.064585999999998
#
# number of rings (size 3 to 8) (size 9 to 14) (size 15 to 20)
#    0.000    2.286    0.000    5.571    0.000    9.714 
#    0.000    0.000    0.000    0.000    0.000    1.000 
#    0.000    4.571    0.000    0.000    0.000    0.000 
#
# Total GULP energy -694236.779211 kJ/mol
# GULP energy per Si atom -12397.085343 kJ/mol
# Density = 1.702575 g / cm^3
# Si number density = 17.064586 Si / 1000 Ang^3
#
#
#
# Elastic Constant Matrix: (Units=GPa)
#
#
# Indices 1 2 3 4 5 6 
#
# 1 93.7028 21.2441 40.3644 0.0000 0.0000 0.0000
# 2 21.2441 25.2525 11.6178 0.0000 0.0000 0.0000
# 3 40.3644 11.6178 97.7263 0.0000 0.0000 0.0000
# 4 0.0000 0.0000 0.0000 25.9706 0.0000 0.0000
# 5 0.0000 0.0000 0.0000 0.0000 31.9016 0.0000
# 6 0.0000 0.0000 0.0000 0.0000 0.0000 19.0128
#
#
#
# Elastic Compliance Matrix: (Units=1/GPa)
#
#
# Indices 1 2 3 4 5 6 
#
# 1 0.015220 -0.010486 -0.005040 0.000000 0.000000 0.000000
# 2 -0.010486 0.049115 -0.001508 0.000000 0.000000 0.000000
# 3 -0.005040 -0.001508 0.012494 0.000000 0.000000 0.000000
# 4 0.000000 0.000000 0.000000 0.038505 0.000000 0.000000
# 5 0.000000 0.000000 0.000000 0.000000 0.031346 0.000000
# 6 0.000000 0.000000 0.000000 0.000000 0.000000 0.052596
#
#
# Mechanical properties :
#
#
# Convention : Reuss Voigt Hill
#
# Bulk Modulus (GPa) = 23.38533 40.34823 31.86678
# Shear Modulus (GPa) = 20.19407 24.94072 22.56739
#
# Velocity S-wave (km/s) = 3.44378 3.82717 3.64052
# Velocity P-wave (km/s) = 5.43567 6.57460 6.03208
#
# Compressibility (1/GPa) = 0.04276185
#
# Stress axis : x y z
#
# Youngs Moduli (GPa) = 65.70124 20.36040 80.04084
#
# Poissons Ratio (x) = 0.21349 0.40341
# Poissons Ratio (y) = 0.68892 0.12069
# Poissons Ratio (z) = 0.33114 0.03070
#
# Static dielectric constant tensor:
#      x y z
#    x 3.287760 0.000000 0.000000 
#    y 0.000000 2.954170 0.000000 
#    z 0.000000 0.000000 3.648760 
# 
# 
# High freq. dielectric constant tensor:
#      x y z
#    x 1.670460 0.000000 0.000000 
#    y 0.000000 1.611040 0.000000 
#    z 0.000000 0.000000 1.664750 
# 
# From -- ./inp_files/26662.got.cif
#   From: 2010.03.12/outbox.cif.g09.slc.cpg/sg53_14_cif.got.tgz:26662.got - 2010.04.16 14:36:59.
