data_PCOD8218050
_publ_section_title
;
Structure prediction by ZEFSAII (Michael W. Deem and Ramdas Pophale) SiO2 
 PCOD8218050
Probable space group: P M N A
;
_chemical_formula_sum "Si O2"
_cell_formula_units_Z 40
_cell_length_a 8.734620
_cell_length_b 9.697249
_cell_length_c 25.779796
_cell_angle_alpha 90.000000
_cell_angle_beta 90.000000
_cell_angle_gamma 90.000000
_cell_volume 2183.594740
_symmetry_space_group_name_H-M "P M N A"
_symmetry_group_IT_number 53
_symmetry_cell_setting 'orthorhombic'
loop_
_space_group_symop_operation_xyz
x,y,z
1/2-x,-y,1/2+z
x,-y,-z
1/2-x,y,1/2-z
-x,-y,-z
1/2+x,y,1/2-z
-x,y,z
1/2+x,-y,1/2+z
loop_
_atom_site_type_symbol
_atom_site_label
_atom_site_fract_x
_atom_site_fract_y
_atom_site_fract_z
Si Si1 0.181363 0.758902 0.585861
Si Si2 0.319487 0.777195 0.033778
Si Si3 0.680788 0.754843 0.193642
Si Si4 0.680011 0.458030 0.891300
Si Si5 0.319567 0.966671 0.383726
O O1 0.227036 0.774429 0.525841
O O2 0.247999 0.612057 0.605801
O O3 0.000000 0.772544 0.593653
O O4 0.266179 0.874949 0.619314
O O5 0.500000 0.798491 0.042012
O O6 0.263331 0.634579 0.060237
O O7 0.236534 0.904702 0.061567
O O8 0.750000 0.740490 0.250000
O O9 0.500000 0.771482 0.196940
O O10 0.727679 0.616773 0.162127
O O11 0.746331 0.888589 0.165016
O O12 0.500000 0.472977 0.896058
O O13 0.500000 0.956088 0.379295
#
# Coordination Sequence:
#
# PCOD8218050 Si02
#       5
#     8   8   8   8   8
#     4  10  18  31  52  77 107 141 174 211 255 301
#     4   9  17  31  52  76 103 140 181 214 249 298
#     4  10  20  38  61  80  98 126 167 212 260 311
#     4   8  16  31  53  79 103 131 170 212 254 306
#     4  11  22  34  49  74 107 141 176 212 253 301
#
# _framework density 18.318417
#
# number of rings (size 3 to 8) (size 9 to 14) (size 15 to 20)
#    0.000    2.400    0.000    4.800    0.000    5.600 
#    0.000    6.000    0.000    8.400    0.000    0.000 
#    0.000    0.000    0.000    0.000    0.000    0.000 
#
# Total GULP energy -495983.298150 kJ/mol
# GULP energy per Si atom -12399.582454 kJ/mol
# Density = 1.827672 g / cm^3
# Si number density = 18.318417 Si / 1000 Ang^3
#
#
#
# Elastic Constant Matrix: (Units=GPa)
#
#
# Indices 1 2 3 4 5 6 
#
# 1 63.2335 35.8539 44.9524 0.0000 0.0000 0.0000
# 2 35.8539 152.7258 52.4132 0.0000 0.0000 0.0000
# 3 44.9524 52.4132 106.1143 0.0000 0.0000 0.0000
# 4 0.0000 0.0000 0.0000 11.5409 0.0000 0.0000
# 5 0.0000 0.0000 0.0000 0.0000 25.9227 0.0000
# 6 0.0000 0.0000 0.0000 0.0000 0.0000 11.0938
#
#
#
# Elastic Compliance Matrix: (Units=1/GPa)
#
#
# Indices 1 2 3 4 5 6 
#
# 1 0.023407 -0.002519 -0.008672 0.000000 0.000000 0.000000
# 2 -0.002519 0.008155 -0.002961 0.000000 0.000000 0.000000
# 3 -0.008672 -0.002961 0.014560 0.000000 0.000000 0.000000
# 4 0.000000 0.000000 0.000000 0.086648 0.000000 0.000000
# 5 0.000000 0.000000 0.000000 0.000000 0.038576 0.000000
# 6 0.000000 0.000000 0.000000 0.000000 0.000000 0.090140
#
#
# Mechanical properties :
#
#
# Convention : Reuss Voigt Hill
#
# Bulk Modulus (GPa) = 56.11992 65.39029 60.75511
# Shear Modulus (GPa) = 16.90729 22.30176 19.60452
#
# Velocity S-wave (km/s) = 3.04133 3.49298 3.27495
# Velocity P-wave (km/s) = 6.56012 7.21401 6.89482
#
# Compressibility (1/GPa) = 0.01781899
#
# Stress axis : x y z
#
# Youngs Moduli (GPa) = 42.72162 122.62058 68.68234
#
# Poissons Ratio (x) = 0.30890 0.59558
# Poissons Ratio (y) = 0.10762 0.20337
# Poissons Ratio (z) = 0.37046 0.36308
#
# Static dielectric constant tensor:
#      x y z
#    x 3.128910 0.000000 0.000000 
#    y 0.000000 3.699560 0.000000 
#    z 0.000000 0.000000 3.221480 
# 
# 
# High freq. dielectric constant tensor:
#      x y z
#    x 1.688220 0.000000 0.000000 
#    y 0.000000 1.721270 0.000000 
#    z 0.000000 0.000000 1.696240 
# 
# From -- ./inp_files/36016.got.cif
#   From: 2010.03.12/outbox.cif.g09.slc.cpg/sg53_19_cif.got.tgz:36016.got - 2010.04.16 14:36:59.
