data_PCOD8218230
_publ_section_title
;
Structure prediction by ZEFSAII (Michael W. Deem and Ramdas Pophale) SiO2 
 PCOD8218230
Probable space group: P M N A
;
_chemical_formula_sum "Si O2"
_cell_formula_units_Z 40
_cell_length_a 27.412567
_cell_length_b 7.791706
_cell_length_c 7.819396
_cell_angle_alpha 90.000000
_cell_angle_beta 90.000000
_cell_angle_gamma 90.000000
_cell_volume 1670.149974
_symmetry_space_group_name_H-M "P M N A"
_symmetry_group_IT_number 53
_symmetry_cell_setting 'orthorhombic'
loop_
_space_group_symop_operation_xyz
x,y,z
1/2-x,-y,1/2+z
x,-y,-z
1/2-x,y,1/2-z
-x,-y,-z
1/2+x,y,1/2-z
-x,y,z
1/2+x,-y,1/2+z
loop_
_atom_site_type_symbol
_atom_site_label
_atom_site_fract_x
_atom_site_fract_y
_atom_site_fract_z
Si Si1 0.708156 0.382377 0.143344
Si Si2 0.118988 0.802208 0.174771
Si Si3 0.445304 0.204652 0.985489
Si Si4 0.720980 0.166651 0.589071
Si Si5 0.382994 0.199686 0.295949
O O1 0.750000 0.491048 0.250000
O O2 0.668975 0.294751 0.268138
O O3 0.682058 0.500000 0.000000
O O4 0.741985 0.245440 0.046804
O O5 0.085493 0.720479 0.323134
O O6 0.174006 0.721257 0.158011
O O7 0.124358 0.998781 0.233658
O O8 0.095305 0.770819 0.987015
O O9 0.500000 0.277577 0.968192
O O10 0.421050 0.276670 0.159139
O O11 0.446698 0.000000 0.000000
O O12 0.750000 0.098680 0.750000
O O13 0.695937 0.000000 0.500000
#
# Coordination Sequence:
#
# PCOD8218230 Si02
#       5
#     8   8   8   8   8
#     4  12  24  40  56  86 124 161 201 246 303 365
#     4  10  18  33  57  84 114 153 199 250 292 353
#     4   9  19  33  54  87 120 148 189 249 315 369
#     4  12  21  34  57  84 116 160 206 248 293 351
#     4  10  19  36  56  82 117 155 198 246 300 354
#
# _framework density 23.949946000000001
#
# number of rings (size 3 to 8) (size 9 to 14) (size 15 to 20)
#    0.000    1.400    4.000    3.600    0.000    2.400 
#    0.000    4.000    0.000    0.600    0.000    1.400 
#    0.000    0.000    0.000    0.000    0.000    0.000 
#
# Total GULP energy -495553.683397 kJ/mol
# GULP energy per Si atom -12388.842085 kJ/mol
# Density = 2.389543 g / cm^3
# Si number density = 23.949946 Si / 1000 Ang^3
#
#
#
# Elastic Constant Matrix: (Units=GPa)
#
#
# Indices 1 2 3 4 5 6 
#
# 1 160.9434 1.4338 87.0832 0.0000 0.0000 0.0000
# 2 1.4338 14.3056 -0.0442 0.0000 0.0000 0.0000
# 3 87.0832 -0.0442 178.8020 0.0000 0.0000 0.0000
# 4 0.0000 0.0000 0.0000 14.3802 0.0000 0.0000
# 5 0.0000 0.0000 0.0000 0.0000 45.1808 0.0000
# 6 0.0000 0.0000 0.0000 0.0000 0.0000 -6.1826
#
#
#
# Elastic Compliance Matrix: (Units=1/GPa)
#
#
# Indices 1 2 3 4 5 6 
#
# 1 0.008447 -0.000859 -0.004114 0.000000 0.000000 0.000000
# 2 -0.000859 0.069990 0.000436 0.000000 0.000000 0.000000
# 3 -0.004114 0.000436 0.007597 0.000000 0.000000 0.000000
# 4 0.000000 0.000000 0.000000 0.069540 0.000000 0.000000
# 5 0.000000 0.000000 0.000000 0.000000 0.022133 0.000000
# 6 0.000000 0.000000 0.000000 0.000000 0.000000 -0.161745
#
#
# Mechanical properties :
#
#
# Convention : Reuss Voigt Hill
#
# Bulk Modulus (GPa) = 12.99401 58.99964 35.99682
# Shear Modulus (GPa) = 98.63639 28.38090 63.50865
#
# Velocity S-wave (km/s) = 6.42447 3.44613 5.15508
# Velocity P-wave (km/s) = 7.77618 6.36573 7.10603
#
# Compressibility (1/GPa) = 0.07695854
#
# Stress axis : x y z
#
# Youngs Moduli (GPa) = 118.38256 14.28769 131.63594
#
# Poissons Ratio (x) = 0.01228 0.54159
# Poissons Ratio (y) = 0.10173 -0.05737
# Poissons Ratio (z) = 0.48706 -0.00623
#
# Static dielectric constant tensor:
#      x y z
#    x 4.339060 0.000000 0.000000 
#    y 0.000000 3.763270 0.000000 
#    z 0.000000 0.000000 5.125500 
# 
# 
# High freq. dielectric constant tensor:
#      x y z
#    x 1.932500 0.000000 0.000000 
#    y 0.000000 1.902390 0.000000 
#    z 0.000000 0.000000 1.981840 
# 
# From -- ./inp_files/11554.got.cif
#   From: 2010.03.12/outbox.cif.g09.slc.cpg/sg53_6_cif.got.tgz:11554.got - 2010.04.16 14:36:59.
