data_PCOD8218301
_publ_section_title
;
Structure prediction by ZEFSAII (Michael W. Deem and Ramdas Pophale) SiO2 
 PCOD8218301
Probable space group: P M N A
;
_chemical_formula_sum "Si O2"
_cell_formula_units_Z 48
_cell_length_a 26.721621
_cell_length_b 9.010990
_cell_length_c 9.630180
_cell_angle_alpha 90.000000
_cell_angle_beta 90.000000
_cell_angle_gamma 90.000000
_cell_volume 2318.834282
_symmetry_space_group_name_H-M "P M N A"
_symmetry_group_IT_number 53
_symmetry_cell_setting 'orthorhombic'
loop_
_space_group_symop_operation_xyz
x,y,z
1/2-x,-y,1/2+z
x,-y,-z
1/2-x,y,1/2-z
-x,-y,-z
1/2+x,y,1/2-z
-x,y,z
1/2+x,-y,1/2+z
loop_
_atom_site_type_symbol
_atom_site_label
_atom_site_fract_x
_atom_site_fract_y
_atom_site_fract_z
Si Si1 0.642407 0.372871 0.787547
Si Si2 0.190535 0.826172 0.514763
Si Si3 0.553748 0.379913 0.602435
Si Si4 0.554580 0.875641 0.600270
Si Si5 0.143119 0.710083 0.772217
Si Si6 0.210275 0.662576 0.032113
O O1 0.589216 0.322726 0.725595
O O2 0.635822 0.550741 0.803258
O O3 0.688558 0.334270 0.686759
O O4 0.652307 0.278765 0.927013
O O5 0.182434 0.796551 0.677192
O O6 0.247412 0.787473 0.476132
O O7 0.179970 0.000000 0.500000
O O8 0.581223 0.500000 0.500000
O O9 0.500000 0.443047 0.660482
O O10 0.539514 0.247410 0.506689
O O11 0.500000 0.926557 0.665846
O O12 0.592394 0.809398 0.716926
O O13 0.579767 0.000000 0.500000
O O14 0.165289 0.695036 0.926262
O O15 0.234099 0.500000 0.000000
#
# Coordination Sequence:
#
# PCOD8218301 Si02
#       6
#     8   8   8   8   8   8
#     4  11  21  40  63  91 118 158 200 249 302 357
#     4  12  28  40  55  85 125 163 200 248 305 362
#     4  10  18  35  64  97 121 147 198 252 296 356
#     4  10  21  36  61  96 127 156 195 249 306 358
#     4  11  22  40  64  88 120 160 201 246 302 358
#     4  10  21  41  66  89 112 152 205 252 299 358
#
# _framework density 20.700054999999999
#
# number of rings (size 3 to 8) (size 9 to 14) (size 15 to 20)
#    0.000    1.333    3.333    3.000    2.333    6.000 
#    0.000    0.833    0.000    3.000    0.000    0.000 
#    0.000    0.000    0.000    0.000    0.000    0.000 
#
# Total GULP energy -594682.673953 kJ/mol
# GULP energy per Si atom -12389.222374 kJ/mol
# Density = 2.065294 g / cm^3
# Si number density = 20.700055 Si / 1000 Ang^3
#
#
#
# Elastic Constant Matrix: (Units=GPa)
#
#
# Indices 1 2 3 4 5 6 
#
# 1 101.6673 18.8910 19.1409 0.0000 0.0000 0.0000
# 2 18.8910 99.0020 29.0310 0.0000 0.0000 0.0000
# 3 19.1409 29.0310 56.2441 0.0000 0.0000 0.0000
# 4 0.0000 0.0000 0.0000 20.1540 0.0000 0.0000
# 5 0.0000 0.0000 0.0000 0.0000 20.6799 0.0000
# 6 0.0000 0.0000 0.0000 0.0000 0.0000 26.8068
#
#
#
# Elastic Compliance Matrix: (Units=1/GPa)
#
#
# Indices 1 2 3 4 5 6 
#
# 1 0.010617 -0.001139 -0.003025 0.000000 0.000000 0.000000
# 2 -0.001139 0.012024 -0.005819 0.000000 0.000000 0.000000
# 3 -0.003025 -0.005819 0.021813 0.000000 0.000000 0.000000
# 4 0.000000 0.000000 0.000000 0.049618 0.000000 0.000000
# 5 0.000000 0.000000 0.000000 0.000000 0.048356 0.000000
# 6 0.000000 0.000000 0.000000 0.000000 0.000000 0.037304
#
#
# Mechanical properties :
#
#
# Convention : Reuss Voigt Hill
#
# Bulk Modulus (GPa) = 40.83625 43.44879 42.14252
# Shear Modulus (GPa) = 24.05445 26.18482 25.11963
#
# Velocity S-wave (km/s) = 3.41258 3.56049 3.48732
# Velocity P-wave (km/s) = 5.94122 6.15939 6.05128
#
# Compressibility (1/GPa) = 0.02448804
#
# Stress axis : x y z
#
# Youngs Moduli (GPa) = 94.18678 83.16391 45.84462
#
# Poissons Ratio (x) = 0.09470 0.13870
# Poissons Ratio (y) = 0.10726 0.26677
# Poissons Ratio (z) = 0.28496 0.48393
#
# Static dielectric constant tensor:
#      x y z
#    x 3.671230 0.000000 0.000000 
#    y 0.000000 3.623610 0.000000 
#    z 0.000000 0.000000 3.518240 
# 
# 
# High freq. dielectric constant tensor:
#      x y z
#    x 1.816930 0.000000 0.000000 
#    y 0.000000 1.812640 0.000000 
#    z 0.000000 0.000000 1.778690 
# 
# From -- ./inp_files/12990.got.cif
#   From: 2010.03.12/outbox.cif.g09.slc.cpg/sg53_7_cif.got.tgz:12990.got - 2010.04.16 14:36:59.
