data_PCOD8218974
_publ_section_title
;
Structure prediction by ZEFSAII (Michael W. Deem and Ramdas Pophale) SiO2 
 PCOD8218974
Probable space group: P M N A
;
_chemical_formula_sum "Si O2"
_cell_formula_units_Z 56
_cell_length_a 9.160793
_cell_length_b 17.526691
_cell_length_c 19.393589
_cell_angle_alpha 90.000000
_cell_angle_beta 90.000000
_cell_angle_gamma 90.000000
_cell_volume 3113.803392
_symmetry_space_group_name_H-M "P M N A"
_symmetry_group_IT_number 53
_symmetry_cell_setting 'orthorhombic'
loop_
_space_group_symop_operation_xyz
x,y,z
1/2-x,-y,1/2+z
x,-y,-z
1/2-x,y,1/2-z
-x,-y,-z
1/2+x,y,1/2-z
-x,y,z
1/2+x,-y,1/2+z
loop_
_atom_site_type_symbol
_atom_site_label
_atom_site_fract_x
_atom_site_fract_y
_atom_site_fract_z
Si Si1 0.170570 0.019972 0.925830
Si Si2 0.171902 0.559576 0.410053
Si Si3 0.327563 0.893114 0.677251
Si Si4 0.327426 0.302902 0.821157
Si Si5 0.172699 0.605101 0.559313
Si Si6 0.830634 0.243917 0.078653
Si Si7 0.331101 0.194748 0.574932
O O1 0.200843 0.107181 0.906274
O O2 0.000000 0.001779 0.931794
O O3 0.233858 0.965475 0.866005
O O4 0.242724 0.000000 0.000000
O O5 0.219481 0.611891 0.345642
O O6 0.232764 0.596198 0.481009
O O7 0.222660 0.471897 0.399718
O O8 0.000000 0.559507 0.419372
O O9 0.250000 0.892010 0.750000
O O10 0.500000 0.898785 0.688735
O O11 0.284563 0.816603 0.636388
O O12 0.250000 0.283981 0.750000
O O13 0.500000 0.295506 0.811755
O O14 0.275882 0.243420 0.878062
O O15 0.245679 0.678022 0.594456
O O16 0.000000 0.616503 0.562197
O O17 0.000000 0.263022 0.082633
O O18 0.789942 0.209198 0.004379
O O19 0.500000 0.215705 0.589547
#
# Coordination Sequence:
#
# PCOD8218974 Si02
#       7
#     8   8   8   8   8   8   8
#     4   9  16  32  58  82 104 139 182 220 262 315
#     4   8  16  31  52  76 102 135 175 215 261 317
#     4  10  21  37  56  79 109 144 179 217 265 320
#     4  11  22  37  54  76 109 146 180 219 270 323
#     4   9  16  31  55  79 102 134 175 218 264 314
#     4  10  19  32  53  82 111 137 175 223 267 314
#     4  10  19  33  56  83 107 137 180 224 267 318
#
# _framework density 17.984437
#
# number of rings (size 3 to 8) (size 9 to 14) (size 15 to 20)
#    0.000    2.429    2.857    1.286    0.000    1.143 
#    0.000    5.714    0.000    4.286    0.000    0.000 
#    0.000    0.000    0.000    0.000    0.000    0.000 
#
# Total GULP energy -694253.484300 kJ/mol
# GULP energy per Si atom -12397.383648 kJ/mol
# Density = 1.794350 g / cm^3
# Si number density = 17.984437 Si / 1000 Ang^3
#
#
#
# Elastic Constant Matrix: (Units=GPa)
#
#
# Indices 1 2 3 4 5 6 
#
# 1 45.6707 46.3214 43.1151 0.0000 0.0000 0.0000
# 2 46.3214 141.5576 68.5375 0.0000 0.0000 0.0000
# 3 43.1151 68.5375 126.6955 0.0000 0.0000 0.0000
# 4 0.0000 0.0000 0.0000 26.3103 0.0000 0.0000
# 5 0.0000 0.0000 0.0000 0.0000 24.6964 0.0000
# 6 0.0000 0.0000 0.0000 0.0000 0.0000 22.9588
#
#
#
# Elastic Compliance Matrix: (Units=1/GPa)
#
#
# Indices 1 2 3 4 5 6 
#
# 1 0.038556 -0.008487 -0.008530 0.000000 0.000000 0.000000
# 2 -0.008487 0.011439 -0.003300 0.000000 0.000000 0.000000
# 3 -0.008530 -0.003300 0.012581 0.000000 0.000000 0.000000
# 4 0.000000 0.000000 0.000000 0.038008 0.000000 0.000000
# 5 0.000000 0.000000 0.000000 0.000000 0.040492 0.000000
# 6 0.000000 0.000000 0.000000 0.000000 0.000000 0.043556
#
#
# Mechanical properties :
#
#
# Convention : Reuss Voigt Hill
#
# Bulk Modulus (GPa) = 45.57296 69.98576 57.77936
# Shear Modulus (GPa) = 21.49805 25.18975 23.34390
#
# Velocity S-wave (km/s) = 3.46116 3.74658 3.60669
# Velocity P-wave (km/s) = 6.43180 7.59703 7.03857
#
# Compressibility (1/GPa) = 0.02194284
#
# Stress axis : x y z
#
# Youngs Moduli (GPa) = 25.93635 87.41923 79.48571
#
# Poissons Ratio (x) = 0.74190 0.67799
# Poissons Ratio (y) = 0.22011 0.26231
# Poissons Ratio (z) = 0.22123 0.28849
#
# Static dielectric constant tensor:
#      x y z
#    x 2.996040 0.000000 0.000000 
#    y 0.000000 3.588920 0.000000 
#    z 0.000000 0.000000 3.361340 
# 
# 
# High freq. dielectric constant tensor:
#      x y z
#    x 1.663860 0.000000 0.000000 
#    y 0.000000 1.713030 0.000000 
#    z 0.000000 0.000000 1.683120 
# 
# From -- ./inp_files/30973.got.cif
#   From: 2010.03.12/outbox.cif.g09.slc.cpg/sg53_16_cif.got.tgz:30973.got - 2010.04.16 14:36:59.
