data_PCOD8218771
_publ_section_title
;
Structure prediction by ZEFSAII (Michael W. Deem and Ramdas Pophale) SiO2 
 PCOD8218771
Probable space group: P M N A
;
_chemical_formula_sum "Si O2"
_cell_formula_units_Z 48
_cell_length_a 8.773404
_cell_length_b 14.983474
_cell_length_c 20.561050
_cell_angle_alpha 90.000000
_cell_angle_beta 90.000000
_cell_angle_gamma 90.000000
_cell_volume 2702.874843
_symmetry_space_group_name_H-M "P M N A"
_symmetry_group_IT_number 53
_symmetry_cell_setting 'orthorhombic'
loop_
_space_group_symop_operation_xyz
x,y,z
1/2-x,-y,1/2+z
x,-y,-z
1/2-x,y,1/2-z
-x,-y,-z
1/2+x,y,1/2-z
-x,y,z
1/2+x,-y,1/2+z
loop_
_atom_site_type_symbol
_atom_site_label
_atom_site_fract_x
_atom_site_fract_y
_atom_site_fract_z
Si Si1 0.819103 0.617077 0.816657
Si Si2 0.673992 0.194287 0.157545
Si Si3 0.180686 0.577309 0.549673
Si Si4 0.679919 0.930036 0.447604
Si Si5 0.328808 0.770149 0.989343
Si Si6 0.680514 0.990014 0.686270
O O1 0.750000 0.574919 0.750000
O O2 0.765904 0.719109 0.820366
O O3 0.758749 0.563007 0.879978
O O4 0.000000 0.610614 0.814667
O O5 0.500000 0.201665 0.182677
O O6 0.677402 0.182636 0.080281
O O7 0.757540 0.110296 0.187824
O O8 0.229302 0.500000 0.500000
O O9 0.237096 0.669827 0.517004
O O10 0.000000 0.581140 0.561734
O O11 0.500000 0.934760 0.450163
O O12 0.729436 0.828608 0.461300
O O13 0.748885 0.000000 0.500000
O O14 0.740823 0.957038 0.376605
O O15 0.500000 0.766844 0.016754
O O16 0.750000 0.038653 0.750000
O O17 0.500000 0.988643 0.689175
#
# Coordination Sequence:
#
# PCOD8218771 Si02
#       6
#     8   8   8   8   8   8
#     4  11  21  33  51  76 108 141 175 213 259 316
#     4  10  19  32  49  73 104 137 172 208 257 312
#     4   9  19  37  58  81 110 139 171 215 268 321
#     4  10  20  34  51  72 101 136 174 214 257 300
#     4   9  18  31  52  79 102 132 171 211 255 304
#     4  11  22  34  48  69 100 137 175 216 263 306
#
# _framework density 17.758870000000002
#
# number of rings (size 3 to 8) (size 9 to 14) (size 15 to 20)
#    0.000    2.000    1.667    4.000    0.000    4.667 
#    0.000    0.000    0.000    1.000    0.000    2.333 
#    0.000    0.000    0.000    0.000    0.000    0.000 
#
# Total GULP energy -595149.942737 kJ/mol
# GULP energy per Si atom -12398.957140 kJ/mol
# Density = 1.771845 g / cm^3
# Si number density = 17.758870 Si / 1000 Ang^3
#
#
#
# Elastic Constant Matrix: (Units=GPa)
#
#
# Indices 1 2 3 4 5 6 
#
# 1 75.1684 22.9826 52.5043 0.0000 0.0000 0.0000
# 2 22.9826 73.6996 63.5198 0.0000 0.0000 0.0000
# 3 52.5043 63.5198 153.0844 0.0000 0.0000 0.0000
# 4 0.0000 0.0000 0.0000 26.2773 0.0000 0.0000
# 5 0.0000 0.0000 0.0000 0.0000 28.9756 0.0000
# 6 0.0000 0.0000 0.0000 0.0000 0.0000 23.3905
#
#
#
# Elastic Compliance Matrix: (Units=1/GPa)
#
#
# Indices 1 2 3 4 5 6 
#
# 1 0.017504 -0.000443 -0.005820 0.000000 0.000000 0.000000
# 2 -0.000443 0.021134 -0.008617 0.000000 0.000000 0.000000
# 3 -0.005820 -0.008617 0.012104 0.000000 0.000000 0.000000
# 4 0.000000 0.000000 0.000000 0.038056 0.000000 0.000000
# 5 0.000000 0.000000 0.000000 0.000000 0.034512 0.000000
# 6 0.000000 0.000000 0.000000 0.000000 0.000000 0.042752
#
#
# Mechanical properties :
#
#
# Convention : Reuss Voigt Hill
#
# Bulk Modulus (GPa) = 47.65924 64.44065 56.04995
# Shear Modulus (GPa) = 24.65308 26.59172 25.62240
#
# Velocity S-wave (km/s) = 3.72991 3.87379 3.80253
# Velocity P-wave (km/s) = 6.74128 7.50824 7.13507
#
# Compressibility (1/GPa) = 0.02098229
#
# Stress axis : x y z
#
# Youngs Moduli (GPa) = 57.13039 47.31804 82.61747
#
# Poissons Ratio (x) = 0.02094 0.48082
# Poissons Ratio (y) = 0.02528 0.71194
# Poissons Ratio (z) = 0.33249 0.40775
#
# Static dielectric constant tensor:
#      x y z
#    x 3.223690 0.000000 0.000000 
#    y 0.000000 3.058000 0.000000 
#    z 0.000000 0.000000 3.590910 
# 
# 
# High freq. dielectric constant tensor:
#      x y z
#    x 1.687830 0.000000 0.000000 
#    y 0.000000 1.651000 0.000000 
#    z 0.000000 0.000000 1.693600 
# 
# From -- ./inp_files/30543.got.cif
#   From: 2010.03.12/outbox.cif.g09.slc.cpg/sg53_16_cif.got.tgz:30543.got - 2010.04.16 14:36:59.
