data_PCOD8218202
_publ_section_title
;
Structure prediction by ZEFSAII (Michael W. Deem and Ramdas Pophale) SiO2 
 PCOD8218202
Probable space group: P M N A
;
_chemical_formula_sum "Si O2"
_cell_formula_units_Z 64
_cell_length_a 9.054361
_cell_length_b 15.032822
_cell_length_c 24.480696
_cell_angle_alpha 90.000000
_cell_angle_beta 90.000000
_cell_angle_gamma 90.000000
_cell_volume 3332.131115
_symmetry_space_group_name_H-M "P M N A"
_symmetry_group_IT_number 53
_symmetry_cell_setting 'orthorhombic'
loop_
_space_group_symop_operation_xyz
x,y,z
1/2-x,-y,1/2+z
x,-y,-z
1/2-x,y,1/2-z
-x,-y,-z
1/2+x,y,1/2-z
-x,y,z
1/2+x,-y,1/2+z
loop_
_atom_site_type_symbol
_atom_site_label
_atom_site_fract_x
_atom_site_fract_y
_atom_site_fract_z
Si Si1 0.841136 0.950760 0.945582
Si Si2 0.176253 0.772492 0.116485
Si Si3 0.828940 0.569366 0.695204
Si Si4 0.673639 0.283101 0.110907
Si Si5 0.171060 0.951457 0.359380
Si Si6 0.674253 0.364959 0.806413
Si Si7 0.327496 0.236118 0.490921
Si Si8 0.327252 0.867481 0.805402
O O1 0.783482 0.854600 0.961299
O O2 0.000000 0.947719 0.912693
O O3 0.709977 0.003079 0.916565
O O4 0.881342 0.000000 0.000000
O O5 0.232337 0.862175 0.146811
O O6 0.249842 0.688715 0.145102
O O7 0.000000 0.770165 0.121275
O O8 0.229513 0.765909 0.053344
O O9 0.750000 0.601034 0.750000
O O10 0.776400 0.631414 0.645836
O O11 0.791090 0.467583 0.680743
O O12 0.000000 0.582152 0.706747
O O13 0.500000 0.278881 0.102209
O O14 0.745110 0.302363 0.050966
O O15 0.727939 0.193335 0.143433
O O16 0.000000 0.924436 0.357842
O O17 0.209309 0.027636 0.314742
O O18 0.750000 0.335233 0.750000
O O19 0.500000 0.344872 0.803323
O O20 0.500000 0.257076 0.490983
O O21 0.250000 0.835608 0.750000
O O22 0.500000 0.851999 0.797816
#
# Coordination Sequence:
#
# PCOD8218202 Si02
#       8
#     8   8   8   8   8   8   8   8
#     4  10  18  33  53  75 105 144 189 234 276 323
#     4  11  23  40  59  83 114 151 191 237 283 333
#     4   9  19  36  61  88 115 144 184 233 283 338
#     4  10  20  36  56  83 116 148 183 230 281 334
#     4  11  22  35  52  79 110 144 188 235 279 332
#     4  10  21  40  64  90 113 143 184 232 286 339
#     4  10  21  35  54  81 113 150 192 231 278 335
#     4  10  22  36  51  76 110 146 186 228 276 331
#
# _framework density 19.206927
#
# number of rings (size 3 to 8) (size 9 to 14) (size 15 to 20)
#    0.000    1.875    2.500    1.500    0.000    4.250 
#    0.000    1.875    0.000    3.750    0.000    0.000 
#    0.000    0.000    0.000    0.000    0.000    0.000 
#
# Total GULP energy -793201.020648 kJ/mol
# GULP energy per Si atom -12393.765948 kJ/mol
# Density = 1.916321 g / cm^3
# Si number density = 19.206927 Si / 1000 Ang^3
#
#
#
# Elastic Constant Matrix: (Units=GPa)
#
#
# Indices 1 2 3 4 5 6 
#
# 1 62.0946 37.1738 41.6498 0.0000 0.0000 0.0000
# 2 37.1738 85.1277 41.1081 0.0000 0.0000 0.0000
# 3 41.6498 41.1081 92.7349 0.0000 0.0000 0.0000
# 4 0.0000 0.0000 0.0000 27.5270 0.0000 0.0000
# 5 0.0000 0.0000 0.0000 0.0000 35.1725 0.0000
# 6 0.0000 0.0000 0.0000 0.0000 0.0000 25.3110
#
#
#
# Elastic Compliance Matrix: (Units=1/GPa)
#
#
# Indices 1 2 3 4 5 6 
#
# 1 0.026208 -0.007330 -0.008522 0.000000 0.000000 0.000000
# 2 -0.007330 0.016996 -0.004242 0.000000 0.000000 0.000000
# 3 -0.008522 -0.004242 0.016491 0.000000 0.000000 0.000000
# 4 0.000000 0.000000 0.000000 0.036328 0.000000 0.000000
# 5 0.000000 0.000000 0.000000 0.000000 0.028431 0.000000
# 6 0.000000 0.000000 0.000000 0.000000 0.000000 0.039509
#
#
# Mechanical properties :
#
#
# Convention : Reuss Voigt Hill
#
# Bulk Modulus (GPa) = 51.25922 53.31340 52.28631
# Shear Modulus (GPa) = 23.73557 25.60380 24.66968
#
# Velocity S-wave (km/s) = 3.51918 3.65506 3.58776
# Velocity P-wave (km/s) = 6.57713 6.75502 6.66667
#
# Compressibility (1/GPa) = 0.01950869
#
# Stress axis : x y z
#
# Youngs Moduli (GPa) = 38.15570 58.83600 60.63772
#
# Poissons Ratio (x) = 0.43124 0.51674
# Poissons Ratio (y) = 0.27967 0.25725
# Poissons Ratio (z) = 0.32516 0.24960
#
# Static dielectric constant tensor:
#      x y z
#    x 3.500380 0.000000 0.000000 
#    y 0.000000 3.605510 0.000000 
#    z 0.000000 0.000000 3.553490 
# 
# 
# High freq. dielectric constant tensor:
#      x y z
#    x 1.747600 0.000000 0.000000 
#    y 0.000000 1.741070 0.000000 
#    z 0.000000 0.000000 1.742680 
# 
# From -- ./inp_files/34323.got.cif
#   From: 2010.03.12/outbox.cif.g09.slc.cpg/sg53_18_cif.got.tgz:34323.got - 2010.04.16 14:36:59.
