data_PCOD8218673
_publ_section_title
;
Structure prediction by ZEFSAII (Michael W. Deem and Ramdas Pophale) SiO2 
 PCOD8218673
Probable space group: P M N A
;
_chemical_formula_sum "Si O2"
_cell_formula_units_Z 64
_cell_length_a 9.039693
_cell_length_b 22.964602
_cell_length_c 17.150375
_cell_angle_alpha 90.000000
_cell_angle_beta 90.000000
_cell_angle_gamma 90.000000
_cell_volume 3560.296973
_symmetry_space_group_name_H-M "P M N A"
_symmetry_group_IT_number 53
_symmetry_cell_setting 'orthorhombic'
loop_
_space_group_symop_operation_xyz
x,y,z
1/2-x,-y,1/2+z
x,-y,-z
1/2-x,y,1/2-z
-x,-y,-z
1/2+x,y,1/2-z
-x,y,z
1/2+x,-y,1/2+z
loop_
_atom_site_type_symbol
_atom_site_label
_atom_site_fract_x
_atom_site_fract_y
_atom_site_fract_z
Si Si1 0.832522 0.180267 0.326403
Si Si2 0.166669 0.537239 0.077825
Si Si3 0.669107 0.132430 0.543514
Si Si4 0.174533 0.236754 0.484298
Si Si5 0.670536 0.064449 0.091305
Si Si6 0.824826 0.558525 0.668978
Si Si7 0.168655 0.040562 0.831163
Si Si8 0.172868 0.370705 0.484353
O O1 0.750000 0.201440 0.250000
O O2 0.768026 0.214745 0.400358
O O3 0.815616 0.110950 0.338461
O O4 0.000000 0.199154 0.314442
O O5 0.260227 0.504534 0.144585
O O6 0.000000 0.547784 0.108544
O O7 0.165996 0.500000 0.000000
O O8 0.242477 0.598169 0.055390
O O9 0.500000 0.136608 0.514487
O O10 0.740804 0.197115 0.548126
O O11 0.761046 0.091404 0.486163
O O12 0.677670 0.103888 0.628934
O O13 0.218807 0.303706 0.492180
O O14 0.000000 0.226435 0.493798
O O15 0.500000 0.049209 0.074777
O O16 0.757118 0.006495 0.112657
O O17 0.750000 0.578899 0.750000
O O18 0.783649 0.605334 0.601599
O O19 0.000000 0.553420 0.680777
O O20 0.250000 0.044467 0.750000
O O21 0.000000 0.021451 0.816716
O O22 0.000000 0.380938 0.497635
#
# Coordination Sequence:
#
# PCOD8218673 Si02
#       8
#     8   8   8   8   8   8   8   8
#     4   9  18  30  44  66  96 129 163 199 240 289
#     4   9  17  30  49  73 100 130 166 205 243 287
#     4  10  21  36  53  75 102 131 167 212 256 300
#     4   9  19  35  52  71  97 132 173 210 248 297
#     4  10  20  34  53  75 100 132 168 205 251 308
#     4  10  19  31  49  75 108 140 167 200 246 295
#     4  11  23  36  52  76 103 129 161 205 257 310
#     4   9  18  33  52  73  99 133 171 210 251 297
#
# _framework density 17.976027999999999
#
# number of rings (size 3 to 8) (size 9 to 14) (size 15 to 20)
#    0.000    2.375    0.000    3.375    0.000   10.000 
#    0.000    0.000    0.000    0.750    0.000    1.750 
#    0.000    0.000    0.000    0.000    0.000    0.000 
#
# Total GULP energy -793581.932901 kJ/mol
# GULP energy per Si atom -12399.717702 kJ/mol
# Density = 1.793511 g / cm^3
# Si number density = 17.976028 Si / 1000 Ang^3
#
#
#
# Elastic Constant Matrix: (Units=GPa)
#
#
# Indices 1 2 3 4 5 6 
#
# 1 107.0206 52.4470 32.3801 0.0000 0.0000 0.0000
# 2 52.4470 121.3383 32.7072 0.0000 0.0000 0.0000
# 3 32.3801 32.7072 43.0714 0.0000 0.0000 0.0000
# 4 0.0000 0.0000 0.0000 15.9316 0.0000 0.0000
# 5 0.0000 0.0000 0.0000 0.0000 28.2269 0.0000
# 6 0.0000 0.0000 0.0000 0.0000 0.0000 30.9601
#
#
#
# Elastic Compliance Matrix: (Units=1/GPa)
#
#
# Indices 1 2 3 4 5 6 
#
# 1 0.013398 -0.003868 -0.007135 0.000000 0.000000 0.000000
# 2 -0.003868 0.011479 -0.005809 0.000000 0.000000 0.000000
# 3 -0.007135 -0.005809 0.032993 0.000000 0.000000 0.000000
# 4 0.000000 0.000000 0.000000 0.062768 0.000000 0.000000
# 5 0.000000 0.000000 0.000000 0.000000 0.035427 0.000000
# 6 0.000000 0.000000 0.000000 0.000000 0.000000 0.032300
#
#
# Mechanical properties :
#
#
# Convention : Reuss Voigt Hill
#
# Bulk Modulus (GPa) = 41.24491 56.27766 48.76128
# Shear Modulus (GPa) = 21.73228 25.28344 23.50786
#
# Velocity S-wave (km/s) = 3.48078 3.75441 3.62018
# Velocity P-wave (km/s) = 6.25689 7.08302 6.68273
#
# Compressibility (1/GPa) = 0.02424542
#
# Stress axis : x y z
#
# Youngs Moduli (GPa) = 74.63569 87.11439 30.30963
#
# Poissons Ratio (x) = 0.33695 0.21627
# Poissons Ratio (y) = 0.28869 0.17607
# Poissons Ratio (z) = 0.53256 0.50606
#
# Static dielectric constant tensor:
#      x y z
#    x 3.448680 0.000000 0.000000 
#    y 0.000000 3.366980 0.000000 
#    z 0.000000 0.000000 3.156620 
# 
# 
# High freq. dielectric constant tensor:
#      x y z
#    x 1.706690 0.000000 0.000000 
#    y 0.000000 1.685630 0.000000 
#    z 0.000000 0.000000 1.674410 
# 
# From -- ./inp_files/26854.got.cif
#   From: 2010.03.12/outbox.cif.g09.slc.cpg/sg53_14_cif.got.tgz:26854.got - 2010.04.16 14:36:59.
