data_PCOD8218646
_publ_section_title
;
Structure prediction by ZEFSAII (Michael W. Deem and Ramdas Pophale) SiO2 
 PCOD8218646
Probable space group: P M N A
;
_chemical_formula_sum "Si O2"
_cell_formula_units_Z 64
_cell_length_a 9.034594
_cell_length_b 26.841122
_cell_length_c 14.744438
_cell_angle_alpha 90.000000
_cell_angle_beta 90.000000
_cell_angle_gamma 90.000000
_cell_volume 3575.506159
_symmetry_space_group_name_H-M "P M N A"
_symmetry_group_IT_number 53
_symmetry_cell_setting 'orthorhombic'
loop_
_space_group_symop_operation_xyz
x,y,z
1/2-x,-y,1/2+z
x,-y,-z
1/2-x,y,1/2-z
-x,-y,-z
1/2+x,y,1/2-z
-x,y,z
1/2+x,-y,1/2+z
loop_
_atom_site_type_symbol
_atom_site_label
_atom_site_fract_x
_atom_site_fract_y
_atom_site_fract_z
Si Si1 0.828643 0.033966 0.657830
Si Si2 0.671507 0.190887 0.659961
Si Si3 0.672533 0.467897 0.839411
Si Si4 0.671446 0.916635 0.842192
Si Si5 0.327220 0.619962 0.030600
Si Si6 0.826367 0.419605 0.340235
Si Si7 0.325078 0.105748 0.522553
Si Si8 0.825624 0.304344 0.842610
O O1 0.750000 0.051846 0.750000
O O2 0.748652 0.059180 0.573102
O O3 0.000000 0.049929 0.661674
O O4 0.810561 0.975397 0.643952
O O5 0.750000 0.170298 0.750000
O O6 0.500000 0.188141 0.681624
O O7 0.714040 0.156574 0.575082
O O8 0.720573 0.247281 0.638043
O O9 0.750000 0.446068 0.750000
O O10 0.500000 0.467704 0.820007
O O11 0.713289 0.432734 0.923424
O O12 0.728485 0.523930 0.860103
O O13 0.750000 0.899160 0.750000
O O14 0.500000 0.900931 0.839433
O O15 0.753910 0.888564 0.923656
O O16 0.500000 0.632216 0.043292
O O17 0.231921 0.664258 0.072518
O O18 0.283372 0.615187 0.925053
O O19 0.750000 0.397904 0.250000
O O20 0.000000 0.419074 0.324156
O O21 0.500000 0.096522 0.514753
O O22 0.750000 0.323472 0.750000
O O23 0.000000 0.311233 0.832461
#
# Coordination Sequence:
#
# PCOD8218646 Si02
#       8
#     8   8   8   8   8   8   8   8
#     4  10  20  33  49  73 105 137 169 204 244 292
#     4   9  20  36  53  75 102 130 159 196 242 292
#     4   9  17  29  45  67  97 130 160 194 237 284
#     4  10  21  36  52  72 101 136 171 207 246 289
#     4  10  19  31  49  72  97 127 164 201 240 288
#     4   9  18  32  48  67  95 130 165 201 240 282
#     4  11  21  33  52  76 101 131 168 207 248 294
#     4  10  20  35  53  74 101 129 158 195 242 292
#
# _framework density 17.899563000000001
#
# number of rings (size 3 to 8) (size 9 to 14) (size 15 to 20)
#    0.000    2.250    0.000    3.000    0.000    9.000 
#    0.000    0.000    0.000    4.500    0.000    1.750 
#    0.000    0.000    0.000    0.000    0.000    0.000 
#
# Total GULP energy -793781.225526 kJ/mol
# GULP energy per Si atom -12402.831649 kJ/mol
# Density = 1.785882 g / cm^3
# Si number density = 17.899563 Si / 1000 Ang^3
#
#
#
# Elastic Constant Matrix: (Units=GPa)
#
#
# Indices 1 2 3 4 5 6 
#
# 1 87.9301 40.7578 68.6909 0.0000 0.0000 0.0000
# 2 40.7578 59.5162 54.5068 0.0000 0.0000 0.0000
# 3 68.6909 54.5068 159.6135 0.0000 0.0000 0.0000
# 4 0.0000 0.0000 0.0000 23.5963 0.0000 0.0000
# 5 0.0000 0.0000 0.0000 0.0000 36.7620 0.0000
# 6 0.0000 0.0000 0.0000 0.0000 0.0000 11.9266
#
#
#
# Elastic Compliance Matrix: (Units=1/GPa)
#
#
# Indices 1 2 3 4 5 6 
#
# 1 0.019588 -0.008285 -0.005601 0.000000 0.000000 0.000000
# 2 -0.008285 0.027953 -0.005980 0.000000 0.000000 0.000000
# 3 -0.005601 -0.005980 0.010718 0.000000 0.000000 0.000000
# 4 0.000000 0.000000 0.000000 0.042380 0.000000 0.000000
# 5 0.000000 0.000000 0.000000 0.000000 0.027202 0.000000
# 6 0.000000 0.000000 0.000000 0.000000 0.000000 0.083846
#
#
# Mechanical properties :
#
#
# Convention : Reuss Voigt Hill
#
# Bulk Modulus (GPa) = 53.97584 70.55231 62.26407
# Shear Modulus (GPa) = 19.41044 23.99727 21.70386
#
# Velocity S-wave (km/s) = 3.29661 3.66548 3.48593
# Velocity P-wave (km/s) = 6.68659 7.57730 7.14584
#
# Compressibility (1/GPa) = 0.01852681
#
# Stress axis : x y z
#
# Youngs Moduli (GPa) = 51.05100 35.77466 93.30486
#
# Poissons Ratio (x) = 0.29640 0.52257
# Poissons Ratio (y) = 0.42297 0.55797
# Poissons Ratio (z) = 0.28592 0.21393
#
# Static dielectric constant tensor:
#      x y z
#    x 3.352090 0.000000 0.000000 
#    y 0.000000 3.212780 0.000000 
#    z 0.000000 0.000000 3.643410 
# 
# 
# High freq. dielectric constant tensor:
#      x y z
#    x 1.697830 0.000000 0.000000 
#    y 0.000000 1.668810 0.000000 
#    z 0.000000 0.000000 1.694870 
# 
# From -- ./inp_files/20982.got.cif
#   From: 2010.03.12/outbox.cif.g09.slc.cpg/sg53_11_cif.got.tgz:20982.got - 2010.04.16 14:36:59.
