data_PCOD8218004
_publ_section_title
;
Structure prediction by ZEFSAII (Michael W. Deem and Ramdas Pophale) SiO2 
 PCOD8218004
Probable space group: P M N A
;
_chemical_formula_sum "Si O2"
_cell_formula_units_Z 48
_cell_length_a 9.051586
_cell_length_b 15.243984
_cell_length_c 19.683623
_cell_angle_alpha 90.000000
_cell_angle_beta 90.000000
_cell_angle_gamma 90.000000
_cell_volume 2715.990239
_symmetry_space_group_name_H-M "P M N A"
_symmetry_group_IT_number 53
_symmetry_cell_setting 'orthorhombic'
loop_
_space_group_symop_operation_xyz
x,y,z
1/2-x,-y,1/2+z
x,-y,-z
1/2-x,y,1/2-z
-x,-y,-z
1/2+x,y,1/2-z
-x,y,z
1/2+x,-y,1/2+z
loop_
_atom_site_type_symbol
_atom_site_label
_atom_site_fract_x
_atom_site_fract_y
_atom_site_fract_z
Si Si1 0.670560 0.726364 0.455250
Si Si2 0.675782 0.409073 0.180044
Si Si3 0.825495 0.749126 0.890465
Si Si4 0.169893 0.531468 0.075879
Si Si5 0.334276 0.108572 0.930668
Si Si6 0.832140 0.919026 0.590707
O O1 0.500000 0.748071 0.456886
O O2 0.725312 0.722935 0.533378
O O3 0.705296 0.634746 0.418620
O O4 0.742856 0.804638 0.411241
O O5 0.750000 0.439316 0.250000
O O6 0.500000 0.403934 0.187105
O O7 0.739925 0.314317 0.160497
O O8 0.718400 0.481587 0.124617
O O9 0.775537 0.848851 0.873341
O O10 0.000000 0.739087 0.879371
O O11 0.000000 0.511028 0.096256
O O12 0.199408 0.500000 0.000000
O O13 0.500000 0.125692 0.906281
O O14 0.276281 0.018924 0.894324
O O15 0.326501 0.095547 0.010737
O O16 0.000000 0.906312 0.616913
#
# Coordination Sequence:
#
# PCOD8218004 Si02
#       6
#     8   8   8   8   8   8
#     4   9  17  28  47  72 101 135 169 208 258 309
#     4  12  25  39  55  76 103 137 177 220 265 319
#     4  10  18  31  49  72 100 134 170 209 257 308
#     4  10  19  36  56  76 106 139 173 218 268 316
#     4   8  14  24  39  62  98 133 165 206 248 292
#     4   8  14  25  40  63  95 133 167 202 248 294
#
# _framework density 17.673113000000001
#
# number of rings (size 3 to 8) (size 9 to 14) (size 15 to 20)
#    0.000    2.500    1.667    3.000    0.000    2.333 
#    0.000    3.333    0.000    0.000    0.000    1.167 
#    0.000    2.667    0.000    0.000    0.000    0.000 
#
# Total GULP energy -594968.042991 kJ/mol
# GULP energy per Si atom -12395.167562 kJ/mol
# Density = 1.763289 g / cm^3
# Si number density = 17.673113 Si / 1000 Ang^3
#
#
#
# Elastic Constant Matrix: (Units=GPa)
#
#
# Indices 1 2 3 4 5 6 
#
# 1 91.6933 58.7155 30.0653 0.0000 0.0000 0.0000
# 2 58.7155 132.2112 34.2938 0.0000 0.0000 0.0000
# 3 30.0653 34.2938 38.3175 0.0000 0.0000 0.0000
# 4 0.0000 0.0000 0.0000 11.6395 0.0000 0.0000
# 5 0.0000 0.0000 0.0000 0.0000 17.7352 0.0000
# 6 0.0000 0.0000 0.0000 0.0000 0.0000 37.6514
#
#
#
# Elastic Compliance Matrix: (Units=1/GPa)
#
#
# Indices 1 2 3 4 5 6 
#
# 1 0.017201 -0.005389 -0.008673 0.000000 0.000000 0.000000
# 2 -0.005389 0.011539 -0.006099 0.000000 0.000000 0.000000
# 3 -0.008673 -0.006099 0.038361 0.000000 0.000000 0.000000
# 4 0.000000 0.000000 0.000000 0.085914 0.000000 0.000000
# 5 0.000000 0.000000 0.000000 0.000000 0.056385 0.000000
# 6 0.000000 0.000000 0.000000 0.000000 0.000000 0.026559
#
#
# Mechanical properties :
#
#
# Convention : Reuss Voigt Hill
#
# Bulk Modulus (GPa) = 37.34269 56.48569 46.91419
# Shear Modulus (GPa) = 17.53110 22.68170 20.10640
#
# Velocity S-wave (km/s) = 3.15296 3.58635 3.37661
# Velocity P-wave (km/s) = 5.86775 7.01284 6.46569
#
# Compressibility (1/GPa) = 0.02677900
#
# Stress axis : x y z
#
# Youngs Moduli (GPa) = 58.13721 86.66304 26.06808
#
# Poissons Ratio (x) = 0.46705 0.22609
# Poissons Ratio (y) = 0.31332 0.15898
# Poissons Ratio (z) = 0.50422 0.52853
#
# Static dielectric constant tensor:
#      x y z
#    x 3.278030 0.000000 0.000000 
#    y 0.000000 3.819800 0.000000 
#    z 0.000000 0.000000 -0.215290 
# 
# 
# High freq. dielectric constant tensor:
#      x y z
#    x 1.680780 0.000000 0.000000 
#    y 0.000000 1.703600 0.000000 
#    z 0.000000 0.000000 1.619960 
# 
# From -- ./inp_files/30528.got.cif
#   From: 2010.03.12/outbox.cif.g09.slc.cpg/sg53_16_cif.got.tgz:30528.got - 2010.04.16 14:36:59.
