data_PCOD8218688
_publ_section_title
;
Structure prediction by ZEFSAII (Michael W. Deem and Ramdas Pophale) SiO2 
 PCOD8218688
Probable space group: P M N A
;
_chemical_formula_sum "Si O2"
_cell_formula_units_Z 48
_cell_length_a 8.953407
_cell_length_b 16.758368
_cell_length_c 18.264166
_cell_angle_alpha 90.000000
_cell_angle_beta 90.000000
_cell_angle_gamma 90.000000
_cell_volume 2740.437461
_symmetry_space_group_name_H-M "P M N A"
_symmetry_group_IT_number 53
_symmetry_cell_setting 'orthorhombic'
loop_
_space_group_symop_operation_xyz
x,y,z
1/2-x,-y,1/2+z
x,-y,-z
1/2-x,y,1/2-z
-x,-y,-z
1/2+x,y,1/2-z
-x,y,z
1/2+x,-y,1/2+z
loop_
_atom_site_type_symbol
_atom_site_label
_atom_site_fract_x
_atom_site_fract_y
_atom_site_fract_z
Si Si1 0.164715 0.926887 0.444836
Si Si2 0.676465 0.977310 0.671583
Si Si3 0.674558 0.160707 0.082231
Si Si4 0.673304 0.656886 0.918008
Si Si5 0.323390 0.520886 0.672834
Si Si6 0.836004 0.417917 0.956924
O O1 0.219022 0.853317 0.496337
O O2 0.000000 0.909959 0.411297
O O3 0.155728 0.000000 0.500000
O O4 0.278069 0.946942 0.379110
O O5 0.750000 0.989428 0.750000
O O6 0.500000 0.975176 0.679972
O O7 0.730568 0.894133 0.636728
O O8 0.500000 0.139285 0.092669
O O9 0.707919 0.251906 0.102408
O O10 0.500000 0.636394 0.910771
O O11 0.763767 0.603057 0.861392
O O12 0.721871 0.640955 0.002272
O O13 0.250000 0.504858 0.750000
O O14 0.500000 0.529977 0.680232
O O15 0.280261 0.443110 0.624061
O O16 0.000000 0.377179 0.953844
O O17 0.849349 0.500000 0.000000
#
# Coordination Sequence:
#
# PCOD8218688 Si02
#       6
#     8   8   8   8   8   8
#     4   8  15  31  51  68  92 124 157 194 233 275
#     4  11  21  32  49  72  97 126 160 196 235 280
#     4   9  19  34  50  71  99 128 156 191 236 282
#     4  10  19  31  50  74  98 126 159 192 232 284
#     4  10  20  33  49  70  97 128 160 197 239 281
#     4   8  16  31  48  67  93 124 159 197 235 275
#
# _framework density 17.515452
#
# number of rings (size 3 to 8) (size 9 to 14) (size 15 to 20)
#    0.000    2.667    0.000    4.500    0.000    8.667 
#    0.000    0.000    0.000    1.000    0.000    2.333 
#    0.000    0.000    0.000    0.000    0.000    0.000 
#
# Total GULP energy -594916.966427 kJ/mol
# GULP energy per Si atom -12394.103467 kJ/mol
# Density = 1.747559 g / cm^3
# Si number density = 17.515452 Si / 1000 Ang^3
#
#
#
# Elastic Constant Matrix: (Units=GPa)
#
#
# Indices 1 2 3 4 5 6 
#
# 1 92.0318 9.2704 50.2617 0.0000 0.0000 0.0000
# 2 9.2704 5.6827 13.3206 0.0000 0.0000 0.0000
# 3 50.2617 13.3206 121.1082 0.0000 0.0000 0.0000
# 4 0.0000 0.0000 0.0000 18.6902 0.0000 0.0000
# 5 0.0000 0.0000 0.0000 0.0000 30.6712 0.0000
# 6 0.0000 0.0000 0.0000 0.0000 0.0000 5.5826
#
#
#
# Elastic Compliance Matrix: (Units=1/GPa)
#
#
# Indices 1 2 3 4 5 6 
#
# 1 0.014738 -0.013077 -0.004678 0.000000 0.000000 0.000000
# 2 -0.013077 0.248704 -0.021928 0.000000 0.000000 0.000000
# 3 -0.004678 -0.021928 0.012610 0.000000 0.000000 0.000000
# 4 0.000000 0.000000 0.000000 0.053504 0.000000 0.000000
# 5 0.000000 0.000000 0.000000 0.000000 0.032604 0.000000
# 6 0.000000 0.000000 0.000000 0.000000 0.000000 0.179127
#
#
# Mechanical properties :
#
#
# Convention : Reuss Voigt Hill
#
# Bulk Modulus (GPa) = 5.08422 40.50312 22.79367
# Shear Modulus (GPa) = 7.28635 20.72015 14.00325
#
# Velocity S-wave (km/s) = 2.04181 3.44316 2.83057
# Velocity P-wave (km/s) = 2.90992 6.24352 4.87079
#
# Compressibility (1/GPa) = 0.19668708
#
# Stress axis : x y z
#
# Youngs Moduli (GPa) = 67.85218 4.02085 79.29961
#
# Poissons Ratio (x) = 0.05258 0.37098
# Poissons Ratio (y) = 0.88727 1.73886
# Poissons Ratio (z) = 0.31742 0.08817
#
# Static dielectric constant tensor:
#      x y z
#    x 3.300220 0.000000 0.000000 
#    y 0.000000 3.286190 0.000000 
#    z 0.000000 0.000000 3.573730 
# 
# 
# High freq. dielectric constant tensor:
#      x y z
#    x 1.681510 0.000000 0.000000 
#    y 0.000000 1.647680 0.000000 
#    z 0.000000 0.000000 1.673210 
# 
# From -- ./inp_files/26415.got.cif
#   From: 2010.03.12/outbox.cif.g09.slc.cpg/sg53_14_cif.got.tgz:26415.got - 2010.04.16 14:36:59.
