data_PCOD8218483
_publ_section_title
;
Structure prediction by ZEFSAII (Michael W. Deem and Ramdas Pophale) SiO2 
 PCOD8218483
Probable space group: P M N A
;
_chemical_formula_sum "Si O2"
_cell_formula_units_Z 56
_cell_length_a 9.179586
_cell_length_b 21.101648
_cell_length_c 15.248039
_cell_angle_alpha 90.000000
_cell_angle_beta 90.000000
_cell_angle_gamma 90.000000
_cell_volume 2953.612132
_symmetry_space_group_name_H-M "P M N A"
_symmetry_group_IT_number 53
_symmetry_cell_setting 'orthorhombic'
loop_
_space_group_symop_operation_xyz
x,y,z
1/2-x,-y,1/2+z
x,-y,-z
1/2-x,y,1/2-z
-x,-y,-z
1/2+x,y,1/2-z
-x,y,z
1/2+x,-y,1/2+z
loop_
_atom_site_type_symbol
_atom_site_label
_atom_site_fract_x
_atom_site_fract_y
_atom_site_fract_z
Si Si1 0.169885 0.891348 0.838077
Si Si2 0.836724 0.562183 0.939020
Si Si3 0.662343 0.359904 0.938258
Si Si4 0.169811 0.038606 0.836952
Si Si5 0.325724 0.252175 0.659282
Si Si6 0.328864 0.859727 0.472493
Si Si7 0.157794 0.480301 0.674309
O O1 0.250000 0.866571 0.750000
O O2 0.000000 0.878147 0.823392
O O3 0.202355 0.965270 0.854055
O O4 0.231350 0.857079 0.926879
O O5 0.743058 0.543627 0.854209
O O6 0.000000 0.581736 0.912848
O O7 0.840585 0.500000 0.000000
O O8 0.762200 0.626349 0.977162
O O9 0.500000 0.331529 0.958989
O O10 0.751597 0.317560 0.869674
O O11 0.638270 0.429924 0.901742
O O12 0.250000 0.063015 0.750000
O O13 0.230227 0.078899 0.919603
O O14 0.000000 0.052298 0.822609
O O15 0.250000 0.230064 0.750000
O O16 0.500000 0.259870 0.672637
O O17 0.287713 0.202829 0.581976
O O18 0.500000 0.867660 0.481949
O O19 0.250000 0.446250 0.750000
O O20 0.000000 0.501422 0.709564
#
# Coordination Sequence:
#
# PCOD8218483 Si02
#       7
#     8   8   8   8   8   8   8
#     4   9  17  31  51  74  98 126 164 207 251 301
#     4   9  17  30  49  72  97 125 158 197 243 293
#     4  10  20  34  51  71  98 131 167 204 243 292
#     4   9  16  28  48  73 101 132 164 201 248 302
#     4  11  22  35  51  72  99 132 170 209 251 301
#     4   9  18  32  50  71  98 134 170 204 248 304
#     4  10  19  30  47  72 101 131 162 199 243 291
#
# _framework density 18.959835999999999
#
# number of rings (size 3 to 8) (size 9 to 14) (size 15 to 20)
#    0.000    2.429    0.000    3.000    0.000    6.286 
#    0.000    2.857    0.000    4.286    0.000    4.000 
#    0.000    0.000    0.000    0.000    0.000    0.000 
#
# Total GULP energy -693915.473442 kJ/mol
# GULP energy per Si atom -12391.347740 kJ/mol
# Density = 1.891668 g / cm^3
# Si number density = 18.959836 Si / 1000 Ang^3
#
#
#
# Elastic Constant Matrix: (Units=GPa)
#
#
# Indices 1 2 3 4 5 6 
#
# 1 122.7918 33.3784 48.4569 0.0000 0.0000 0.0000
# 2 33.3784 45.4109 44.2396 0.0000 0.0000 0.0000
# 3 48.4569 44.2396 124.4190 0.0000 0.0000 0.0000
# 4 0.0000 0.0000 0.0000 28.2579 0.0000 0.0000
# 5 0.0000 0.0000 0.0000 0.0000 32.5591 0.0000
# 6 0.0000 0.0000 0.0000 0.0000 0.0000 15.3868
#
#
#
# Elastic Compliance Matrix: (Units=1/GPa)
#
#
# Indices 1 2 3 4 5 6 
#
# 1 0.010512 -0.005719 -0.002060 0.000000 0.000000 0.000000
# 2 -0.005719 0.036804 -0.010859 0.000000 0.000000 0.000000
# 3 -0.002060 -0.010859 0.012701 0.000000 0.000000 0.000000
# 4 0.000000 0.000000 0.000000 0.035388 0.000000 0.000000
# 5 0.000000 0.000000 0.000000 0.000000 0.030713 0.000000
# 6 0.000000 0.000000 0.000000 0.000000 0.000000 0.064991
#
#
# Mechanical properties :
#
#
# Convention : Reuss Voigt Hill
#
# Bulk Modulus (GPa) = 43.97651 60.53018 52.25334
# Shear Modulus (GPa) = 21.18959 26.34388 23.76673
#
# Velocity S-wave (km/s) = 3.34669 3.73159 3.54436
# Velocity P-wave (km/s) = 6.17889 7.11063 6.66107
#
# Compressibility (1/GPa) = 0.02273941
#
# Stress axis : x y z
#
# Youngs Moduli (GPa) = 95.13337 27.17126 78.73475
#
# Poissons Ratio (x) = 0.15540 0.16222
# Poissons Ratio (y) = 0.54408 0.85497
# Poissons Ratio (z) = 0.19601 0.29505
#
# Static dielectric constant tensor:
#      x y z
#    x 3.645290 0.000000 0.000000 
#    y 0.000000 3.149990 0.000000 
#    z 0.000000 0.000000 3.634930 
# 
# 
# High freq. dielectric constant tensor:
#      x y z
#    x 1.735610 0.000000 0.000000 
#    y 0.000000 1.701130 0.000000 
#    z 0.000000 0.000000 1.733260 
# 
# From -- ./inp_files/20632.got.cif
#   From: 2010.03.12/outbox.cif.g09.slc.cpg/sg53_11_cif.got.tgz:20632.got - 2010.04.16 14:36:59.
