data_PCOD8218724
_publ_section_title
;
Structure prediction by ZEFSAII (Michael W. Deem and Ramdas Pophale) SiO2 
 PCOD8218724
Probable space group: P M N A
;
_chemical_formula_sum "Si O2"
_cell_formula_units_Z 48
_cell_length_a 9.079960
_cell_length_b 15.782406
_cell_length_c 18.512284
_cell_angle_alpha 90.000000
_cell_angle_beta 90.000000
_cell_angle_gamma 90.000000
_cell_volume 2652.877223
_symmetry_space_group_name_H-M "P M N A"
_symmetry_group_IT_number 53
_symmetry_cell_setting 'orthorhombic'
loop_
_space_group_symop_operation_xyz
x,y,z
1/2-x,-y,1/2+z
x,-y,-z
1/2-x,y,1/2-z
-x,-y,-z
1/2+x,y,1/2-z
-x,y,z
1/2+x,-y,1/2+z
loop_
_atom_site_type_symbol
_atom_site_label
_atom_site_fract_x
_atom_site_fract_y
_atom_site_fract_z
Si Si1 0.826681 0.680106 0.675557
Si Si2 0.330663 0.747411 0.542005
Si Si3 0.170566 0.669811 0.414066
Si Si4 0.327293 0.163593 0.826620
Si Si5 0.329685 0.488024 0.822181
Si Si6 0.170085 0.917830 0.042912
O O1 0.750000 0.705483 0.750000
O O2 0.762168 0.741609 0.615072
O O3 0.786729 0.583130 0.654331
O O4 0.000000 0.694337 0.682947
O O5 0.500000 0.726337 0.557992
O O6 0.269872 0.680293 0.484409
O O7 0.307664 0.841072 0.512109
O O8 0.206125 0.741285 0.354226
O O9 0.213756 0.577396 0.384724
O O10 0.000000 0.675073 0.437175
O O11 0.250000 0.149763 0.750000
O O12 0.500000 0.147123 0.817483
O O13 0.264088 0.096158 0.884404
O O14 0.250000 0.459184 0.750000
O O15 0.500000 0.481515 0.803993
O O16 0.000000 0.927868 0.065914
O O17 0.227628 0.000000 0.000000
#
# Coordination Sequence:
#
# PCOD8218724 Si02
#       6
#     8   8   8   8   8   8
#     4  10  20  35  53  72  98 132 170 210 248 288
#     4  10  20  34  53  76  99 126 162 203 250 300
#     4   9  18  32  49  72 102 135 168 202 244 292
#     4  10  19  31  51  78 107 136 166 202 245 296
#     4   9  18  31  48  70  98 134 172 208 245 285
#     4   9  19  37  58  77 100 130 164 205 252 301
#
# _framework density 18.093561999999999
#
# number of rings (size 3 to 8) (size 9 to 14) (size 15 to 20)
#    0.000    2.500    0.000    2.000    0.000    3.667 
#    0.000    4.167    0.000    0.000    0.000    0.000 
#    0.000    0.000    0.000    0.000    0.000    0.000 
#
# Total GULP energy -595306.627754 kJ/mol
# GULP energy per Si atom -12402.221412 kJ/mol
# Density = 1.805238 g / cm^3
# Si number density = 18.093562 Si / 1000 Ang^3
#
#
#
# Elastic Constant Matrix: (Units=GPa)
#
#
# Indices 1 2 3 4 5 6 
#
# 1 93.0763 32.2888 72.1108 0.0000 0.0000 0.0000
# 2 32.2888 48.5762 46.4959 0.0000 0.0000 0.0000
# 3 72.1108 46.4959 136.3091 0.0000 0.0000 0.0000
# 4 0.0000 0.0000 0.0000 20.1685 0.0000 0.0000
# 5 0.0000 0.0000 0.0000 0.0000 40.9506 0.0000
# 6 0.0000 0.0000 0.0000 0.0000 0.0000 2.5209
#
#
#
# Elastic Compliance Matrix: (Units=1/GPa)
#
#
# Indices 1 2 3 4 5 6 
#
# 1 0.018825 -0.004426 -0.008449 0.000000 0.000000 0.000000
# 2 -0.004426 0.031606 -0.008440 0.000000 0.000000 0.000000
# 3 -0.008449 -0.008440 0.014685 0.000000 0.000000 0.000000
# 4 0.000000 0.000000 0.000000 0.049582 0.000000 0.000000
# 5 0.000000 0.000000 0.000000 0.000000 0.024420 0.000000
# 6 0.000000 0.000000 0.000000 0.000000 0.000000 0.396688
#
#
# Mechanical properties :
#
#
# Convention : Reuss Voigt Hill
#
# Bulk Modulus (GPa) = 44.47037 64.41697 54.44367
# Shear Modulus (GPa) = 8.53340 21.19906 14.86623
#
# Velocity S-wave (km/s) = 2.17405 3.42663 2.86952
# Velocity P-wave (km/s) = 5.56178 7.16486 6.41360
#
# Compressibility (1/GPa) = 0.02248688
#
# Stress axis : x y z
#
# Youngs Moduli (GPa) = 53.11978 31.63918 68.09622
#
# Poissons Ratio (x) = 0.14003 0.57537
# Poissons Ratio (y) = 0.23509 0.57472
# Poissons Ratio (z) = 0.44883 0.26703
#
# Static dielectric constant tensor:
#      x y z
#    x 3.401810 0.000000 0.000000 
#    y 0.000000 3.305140 0.000000 
#    z 0.000000 0.000000 3.293080 
# 
# 
# High freq. dielectric constant tensor:
#      x y z
#    x 1.707560 0.000000 0.000000 
#    y 0.000000 1.686910 0.000000 
#    z 0.000000 0.000000 1.700730 
# 
# From -- ./inp_files/20173.got.cif
#   From: 2010.03.12/outbox.cif.g09.slc.cpg/sg53_11_cif.got.tgz:20173.got - 2010.04.16 14:36:59.
