data_PCOD8218275
_publ_section_title
;
Structure prediction by ZEFSAII (Michael W. Deem and Ramdas Pophale) SiO2 
 PCOD8218275
Probable space group: P M N A
;
_chemical_formula_sum "Si O2"
_cell_formula_units_Z 64
_cell_length_a 8.886910
_cell_length_b 15.295112
_cell_length_c 23.792350
_cell_angle_alpha 90.000000
_cell_angle_beta 90.000000
_cell_angle_gamma 90.000000
_cell_volume 3234.005718
_symmetry_space_group_name_H-M "P M N A"
_symmetry_group_IT_number 53
_symmetry_cell_setting 'orthorhombic'
loop_
_space_group_symop_operation_xyz
x,y,z
1/2-x,-y,1/2+z
x,-y,-z
1/2-x,y,1/2-z
-x,-y,-z
1/2+x,y,1/2-z
-x,y,z
1/2+x,-y,1/2+z
loop_
_atom_site_type_symbol
_atom_site_label
_atom_site_fract_x
_atom_site_fract_y
_atom_site_fract_z
Si Si1 0.821656 0.006812 0.189843
Si Si2 0.173073 0.603492 0.999470
Si Si3 0.322102 0.503264 0.690249
Si Si4 0.826587 0.355227 0.386637
Si Si5 0.323223 0.342086 0.620372
Si Si6 0.323207 0.900577 0.999119
Si Si7 0.323619 0.149359 0.611304
Si Si8 0.326832 0.156757 0.122970
O O1 0.750000 0.990812 0.250000
O O2 0.772498 0.100244 0.165586
O O3 0.000000 0.004187 0.195586
O O4 0.759995 0.929083 0.149625
O O5 0.275776 0.644986 0.951220
O O6 0.000000 0.632064 0.989837
O O7 0.187950 0.500000 0.000000
O O8 0.240596 0.639267 0.058114
O O9 0.250000 0.521369 0.750000
O O10 0.500000 0.502207 0.697106
O O11 0.278500 0.580714 0.648436
O O12 0.258533 0.411317 0.665538
O O13 0.806633 0.258076 0.361432
O O14 0.000000 0.384830 0.382630
O O15 0.500000 0.358250 0.616681
O O16 0.283593 0.243227 0.639561
O O17 0.500000 0.893667 0.007961
O O18 0.246117 0.849182 0.049580
O O19 0.270699 0.858291 0.940639
O O20 0.266967 0.000000 0.000000
O O21 0.500000 0.138227 0.603982
O O22 0.500000 0.126739 0.128802
#
# Coordination Sequence:
#
# PCOD8218275 Si02
#       8
#     8   8   8   8   8   8   8   8
#     4  11  24  40  60  84 112 149 195 241 288 337
#     4  10  18  34  60  88 118 158 193 228 287 346
#     4  11  23  42  63  84 114 153 197 241 289 344
#     4  11  23  38  59  89 120 152 191 239 288 340
#     4   9  19  37  60  85 118 154 189 232 285 344
#     4  10  19  34  59  87 119 155 185 228 289 344
#     4  10  21  37  59  88 117 150 192 236 280 338
#     4  10  22  40  60  85 119 154 190 233 287 345
#
# _framework density 19.789698000000001
#
# number of rings (size 3 to 8) (size 9 to 14) (size 15 to 20)
#    0.000    1.750    2.500    1.875    0.000    3.500 
#    0.000    1.250    0.000    0.000    0.000    0.000 
#    0.000    0.000    0.000    0.000    0.000    0.000 
#
# Total GULP energy -793773.640704 kJ/mol
# GULP energy per Si atom -12402.713136 kJ/mol
# Density = 1.974466 g / cm^3
# Si number density = 19.789698 Si / 1000 Ang^3
#
#
#
# Elastic Constant Matrix: (Units=GPa)
#
#
# Indices 1 2 3 4 5 6 
#
# 1 52.9649 25.4823 25.4609 0.0000 0.0000 0.0000
# 2 25.4823 96.5974 22.5116 0.0000 0.0000 0.0000
# 3 25.4609 22.5116 93.0661 0.0000 0.0000 0.0000
# 4 0.0000 0.0000 0.0000 15.0318 0.0000 0.0000
# 5 0.0000 0.0000 0.0000 0.0000 34.0104 0.0000
# 6 0.0000 0.0000 0.0000 0.0000 0.0000 11.6813
#
#
#
# Elastic Compliance Matrix: (Units=1/GPa)
#
#
# Indices 1 2 3 4 5 6 
#
# 1 0.023865 -0.005059 -0.005305 0.000000 0.000000 0.000000
# 2 -0.005059 0.012043 -0.001529 0.000000 0.000000 0.000000
# 3 -0.005305 -0.001529 0.012566 0.000000 0.000000 0.000000
# 4 0.000000 0.000000 0.000000 0.066526 0.000000 0.000000
# 5 0.000000 0.000000 0.000000 0.000000 0.029403 0.000000
# 6 0.000000 0.000000 0.000000 0.000000 0.000000 0.085607
#
#
# Mechanical properties :
#
#
# Convention : Reuss Voigt Hill
#
# Bulk Modulus (GPa) = 40.50626 43.28201 41.89414
# Shear Modulus (GPa) = 19.08210 23.42292 21.25251
#
# Velocity S-wave (km/s) = 3.10860 3.44407 3.28062
# Velocity P-wave (km/s) = 5.77904 6.14280 5.96369
#
# Compressibility (1/GPa) = 0.02468754
#
# Stress axis : x y z
#
# Youngs Moduli (GPa) = 41.90289 83.03449 79.57803
#
# Poissons Ratio (x) = 0.42008 0.42217
# Poissons Ratio (y) = 0.21199 0.12168
# Poissons Ratio (z) = 0.22230 0.12696
#
# Static dielectric constant tensor:
#      x y z
#    x 3.402750 0.000000 0.000000 
#    y 0.000000 3.759390 0.000000 
#    z 0.000000 0.000000 3.637970 
# 
# 
# High freq. dielectric constant tensor:
#      x y z
#    x 1.755010 0.000000 0.000000 
#    y 0.000000 1.785520 0.000000 
#    z 0.000000 0.000000 1.769110 
# 
# From -- ./inp_files/34354.got.cif
#   From: 2010.03.12/outbox.cif.g09.slc.cpg/sg53_18_cif.got.tgz:34354.got - 2010.04.16 14:36:59.
