data_PCOD8218090
_publ_section_title
;
Structure prediction by ZEFSAII (Michael W. Deem and Ramdas Pophale) SiO2 
 PCOD8218090
Probable space group: P M N A
;
_chemical_formula_sum "Si O2"
_cell_formula_units_Z 48
_cell_length_a 27.750374
_cell_length_b 15.182718
_cell_length_c 6.162958
_cell_angle_alpha 90.000000
_cell_angle_beta 90.000000
_cell_angle_gamma 90.000000
_cell_volume 2596.615076
_symmetry_space_group_name_H-M "P M N A"
_symmetry_group_IT_number 53
_symmetry_cell_setting 'orthorhombic'
loop_
_space_group_symop_operation_xyz
x,y,z
1/2-x,-y,1/2+z
x,-y,-z
1/2-x,y,1/2-z
-x,-y,-z
1/2+x,y,1/2-z
-x,y,z
1/2+x,-y,1/2+z
loop_
_atom_site_type_symbol
_atom_site_label
_atom_site_fract_x
_atom_site_fract_y
_atom_site_fract_z
Si Si1 0.700118 0.915099 0.632788
Si Si2 0.054994 0.585748 0.625777
Si Si3 0.198654 0.748837 0.183669
Si Si4 0.554191 0.756249 0.176573
Si Si5 0.362930 0.818961 0.933534
Si Si6 0.886569 0.686801 0.941132
O O1 0.750000 0.935632 0.750000
O O2 0.705687 0.828557 0.485439
O O3 0.657325 0.904755 0.810829
O O4 0.683970 0.000000 0.500000
O O5 0.074187 0.500000 0.500000
O O6 0.057896 0.667193 0.461815
O O7 0.088830 0.599026 0.839669
O O8 0.000000 0.571686 0.705417
O O9 0.250000 0.705789 0.250000
O O10 0.177907 0.787215 0.403712
O O11 0.162176 0.673871 0.086498
O O12 0.500000 0.792124 0.190930
O O13 0.573224 0.737605 0.418058
O O14 0.586829 0.832811 0.064444
O O15 0.371079 0.743911 0.760101
#
# Coordination Sequence:
#
# PCOD8218090 Si02
#       6
#     8   8   8   8   8   8
#     4  11  21  30  48  76 107 137 160 202 265 317
#     4   9  17  29  46  72 107 133 158 202 259 315
#     4  10  18  32  49  69 102 128 166 211 253 302
#     4   9  17  31  51  73 101 136 171 209 253 296
#     4   9  19  33  47  72 104 131 169 207 245 302
#     4   9  18  29  46  70 100 127 170 206 251 304
#
# _framework density 18.485603000000001
#
# number of rings (size 3 to 8) (size 9 to 14) (size 15 to 20)
#    0.000    2.500    1.667    1.000    0.000    1.333 
#    0.000    2.500    0.000    0.500    0.000   10.500 
#  180.000    0.000    0.000    0.000    0.000    0.000 
#
# Total GULP energy -594719.175776 kJ/mol
# GULP energy per Si atom -12389.982829 kJ/mol
# Density = 1.844353 g / cm^3
# Si number density = 18.485603 Si / 1000 Ang^3
#
#
#
# Elastic Constant Matrix: (Units=GPa)
#
#
# Indices 1 2 3 4 5 6 
#
# 1 154.1428 40.5122 60.3346 0.0000 0.0000 0.0000
# 2 40.5122 54.2069 29.9951 0.0000 0.0000 0.0000
# 3 60.3346 29.9951 103.2863 0.0000 0.0000 0.0000
# 4 0.0000 0.0000 0.0000 31.2328 0.0000 0.0000
# 5 0.0000 0.0000 0.0000 0.0000 19.6839 0.0000
# 6 0.0000 0.0000 0.0000 0.0000 0.0000 17.5155
#
#
#
# Elastic Compliance Matrix: (Units=1/GPa)
#
#
# Indices 1 2 3 4 5 6 
#
# 1 0.009321 -0.004710 -0.004077 0.000000 0.000000 0.000000
# 2 -0.004710 0.024360 -0.004323 0.000000 0.000000 0.000000
# 3 -0.004077 -0.004323 0.013319 0.000000 0.000000 0.000000
# 4 0.000000 0.000000 0.000000 0.032018 0.000000 0.000000
# 5 0.000000 0.000000 0.000000 0.000000 0.050803 0.000000
# 6 0.000000 0.000000 0.000000 0.000000 0.000000 0.057092
#
#
# Mechanical properties :
#
#
# Convention : Reuss Voigt Hill
#
# Bulk Modulus (GPa) = 48.12376 63.70222 55.91299
# Shear Modulus (GPa) = 22.72102 25.73938 24.23020
#
# Velocity S-wave (km/s) = 3.50968 3.73554 3.62437
# Velocity P-wave (km/s) = 6.52023 7.28978 6.91572
#
# Compressibility (1/GPa) = 0.02077976
#
# Stress axis : x y z
#
# Youngs Moduli (GPa) = 107.28061 41.05056 75.08143
#
# Poissons Ratio (x) = 0.19336 0.30612
# Poissons Ratio (y) = 0.50533 0.32457
# Poissons Ratio (z) = 0.43740 0.17746
#
# Static dielectric constant tensor:
#      x y z
#    x 3.908620 0.000000 0.000000 
#    y 0.000000 3.062710 0.000000 
#    z 0.000000 0.000000 3.858720 
# 
# 
# High freq. dielectric constant tensor:
#      x y z
#    x 1.726910 0.000000 0.000000 
#    y 0.000000 1.655730 0.000000 
#    z 0.000000 0.000000 1.743550 
# 
# From -- ./inp_files/4501.got.cif
#   From: 2010.03.12/outbox.cif.g09.slc.cpg/sg53_3_cif.got.tgz:4501.got - 2010.04.16 14:36:59.
