data_PCOD8218333
_publ_section_title
;
Structure prediction by ZEFSAII (Michael W. Deem and Ramdas Pophale) SiO2 
 PCOD8218333
Probable space group: P M N A
;
_chemical_formula_sum "Si O2"
_cell_formula_units_Z 64
_cell_length_a 8.791029
_cell_length_b 18.336693
_cell_length_c 26.018813
_cell_angle_alpha 90.000000
_cell_angle_beta 90.000000
_cell_angle_gamma 90.000000
_cell_volume 4194.191024
_symmetry_space_group_name_H-M "P M N A"
_symmetry_group_IT_number 53
_symmetry_cell_setting 'orthorhombic'
loop_
_space_group_symop_operation_xyz
x,y,z
1/2-x,-y,1/2+z
x,-y,-z
1/2-x,y,1/2-z
-x,-y,-z
1/2+x,y,1/2-z
-x,y,z
1/2+x,-y,1/2+z
loop_
_atom_site_type_symbol
_atom_site_label
_atom_site_fract_x
_atom_site_fract_y
_atom_site_fract_z
Si Si1 0.332567 0.460586 0.554315
Si Si2 0.680260 0.828492 0.695623
Si Si3 0.320954 0.323668 0.494969
Si Si4 0.174614 0.590716 0.595934
Si Si5 0.322939 0.675122 0.802771
Si Si6 0.829147 0.041956 0.946638
Si Si7 0.178140 0.086485 0.395367
Si Si8 0.178010 0.832097 0.500593
O O1 0.341601 0.500000 0.500000
O O2 0.500000 0.460209 0.579949
O O3 0.278259 0.377972 0.542343
O O4 0.218476 0.505027 0.591226
O O5 0.750000 0.852588 0.750000
O O6 0.500000 0.824995 0.699934
O O7 0.743642 0.749630 0.679054
O O8 0.728312 0.887401 0.653667
O O9 0.500000 0.307507 0.493502
O O10 0.275998 0.358809 0.440570
O O11 0.228668 0.250711 0.504691
O O12 0.203616 0.613620 0.654528
O O13 0.000000 0.601413 0.579899
O O14 0.250000 0.645884 0.750000
O O15 0.500000 0.691711 0.793965
O O16 0.759141 0.121899 0.955585
O O17 0.000000 0.049766 0.925042
O O18 0.727005 0.996843 0.906375
O O19 0.827800 0.000000 0.000000
O O20 0.222873 0.138146 0.443182
O O21 0.000000 0.089703 0.383530
O O22 0.000000 0.839216 0.491660
#
# Coordination Sequence:
#
# PCOD8218333 Si02
#       8
#     8   8   8   8   8   8   8   8
#     4   8  16  29  42  58  81 109 140 172 207 248
#     4  11  21  32  46  63  84 112 145 180 217 252
#     4  10  19  29  42  61  85 113 144 175 207 249
#     4  10  19  29  43  62  83 109 142 177 212 251
#     4  10  20  32  44  61  84 110 142 178 214 250
#     4   9  17  29  44  62  84 111 143 176 210 250
#     4  10  19  31  45  62  86 114 145 178 212 252
#     4  10  19  29  43  63  87 115 144 176 213 250
#
# _framework density 15.2592
#
# number of rings (size 3 to 8) (size 9 to 14) (size 15 to 20)
#    0.000    2.250    0.000    5.625    0.000   10.750 
#    0.000    0.000    0.000    0.000    0.000    0.000 
#    0.000    1.000    0.000    7.000    0.000    6.125 
#
# Total GULP energy -793549.122723 kJ/mol
# GULP energy per Si atom -12399.205043 kJ/mol
# Density = 1.522447 g / cm^3
# Si number density = 15.259200 Si / 1000 Ang^3
#
#
#
# Elastic Constant Matrix: (Units=GPa)
#
#
# Indices 1 2 3 4 5 6 
#
# 1 81.8781 26.8430 35.6696 0.0000 0.0000 0.0000
# 2 26.8430 83.8451 38.1099 0.0000 0.0000 0.0000
# 3 35.6696 38.1099 64.1427 0.0000 0.0000 0.0000
# 4 0.0000 0.0000 0.0000 23.3074 0.0000 0.0000
# 5 0.0000 0.0000 0.0000 0.0000 22.3885 0.0000
# 6 0.0000 0.0000 0.0000 0.0000 0.0000 28.8009
#
#
#
# Elastic Compliance Matrix: (Units=1/GPa)
#
#
# Indices 1 2 3 4 5 6 
#
# 1 0.016255 -0.001501 -0.008148 0.000000 0.000000 0.000000
# 2 -0.001501 0.016478 -0.008956 0.000000 0.000000 0.000000
# 3 -0.008148 -0.008956 0.025442 0.000000 0.000000 0.000000
# 4 0.000000 0.000000 0.000000 0.042905 0.000000 0.000000
# 5 0.000000 0.000000 0.000000 0.000000 0.044666 0.000000
# 6 0.000000 0.000000 0.000000 0.000000 0.000000 0.034721
#
#
# Mechanical properties :
#
#
# Convention : Reuss Voigt Hill
#
# Bulk Modulus (GPa) = 47.69462 47.90122 47.79792
# Shear Modulus (GPa) = 22.25557 23.51559 22.88558
#
# Velocity S-wave (km/s) = 3.82318 3.92991 3.87691
# Velocity P-wave (km/s) = 7.12833 7.21472 7.17165
#
# Compressibility (1/GPa) = 0.02096673
#
# Stress axis : x y z
#
# Youngs Moduli (GPa) = 61.52075 60.68783 39.30507
#
# Poissons Ratio (x) = 0.09107 0.32024
# Poissons Ratio (y) = 0.09232 0.35200
# Poissons Ratio (z) = 0.50125 0.54350
#
# Static dielectric constant tensor:
#      x y z
#    x 3.091670 0.000000 0.000000 
#    y 0.000000 3.048950 0.000000 
#    z 0.000000 0.000000 2.732540 
# 
# 
# High freq. dielectric constant tensor:
#      x y z
#    x 1.604720 0.000000 0.000000 
#    y 0.000000 1.574590 0.000000 
#    z 0.000000 0.000000 1.547030 
# 
# From -- ./inp_files/34465.got.cif
#   From: 2010.03.12/outbox.cif.g09.slc.cpg/sg53_18_cif.got.tgz:34465.got - 2010.04.16 14:36:59.
