data_PCOD8218380
_publ_section_title
;
Structure prediction by ZEFSAII (Michael W. Deem and Ramdas Pophale) SiO2 
 PCOD8218380
Probable space group: P M N A
;
_chemical_formula_sum "Si O2"
_cell_formula_units_Z 64
_cell_length_a 9.048075
_cell_length_b 21.615400
_cell_length_c 19.133344
_cell_angle_alpha 90.000000
_cell_angle_beta 90.000000
_cell_angle_gamma 90.000000
_cell_volume 3742.056568
_symmetry_space_group_name_H-M "P M N A"
_symmetry_group_IT_number 53
_symmetry_cell_setting 'orthorhombic'
loop_
_space_group_symop_operation_xyz
x,y,z
1/2-x,-y,1/2+z
x,-y,-z
1/2-x,y,1/2-z
-x,-y,-z
1/2+x,y,1/2-z
-x,y,z
1/2+x,-y,1/2+z
loop_
_atom_site_type_symbol
_atom_site_label
_atom_site_fract_x
_atom_site_fract_y
_atom_site_fract_z
Si Si1 0.332615 0.190494 0.504746
Si Si2 0.172693 0.592716 0.176602
Si Si3 0.826452 0.519150 0.922542
Si Si4 0.672785 0.356377 0.074546
Si Si5 0.825037 0.114866 0.181348
Si Si6 0.670292 0.939492 0.534218
Si Si7 0.330749 0.313409 0.564755
Si Si8 0.170337 0.228079 0.371775
O O1 0.500000 0.197410 0.472628
O O2 0.308575 0.117565 0.520966
O O3 0.316749 0.237923 0.570169
O O4 0.206911 0.209615 0.450923
O O5 0.250000 0.589656 0.250000
O O6 0.221790 0.534609 0.130118
O O7 0.223441 0.655619 0.136739
O O8 0.000000 0.592308 0.190603
O O9 0.745027 0.581053 0.896674
O O10 0.000000 0.531659 0.921052
O O11 0.774156 0.500000 0.000000
O O12 0.500000 0.366177 0.063612
O O13 0.702451 0.301944 0.132067
O O14 0.740146 0.339745 0.999721
O O15 0.750000 0.084122 0.250000
O O16 0.767697 0.079255 0.111251
O O17 0.773212 0.186951 0.178769
O O18 0.000000 0.112117 0.188759
O O19 0.500000 0.955715 0.545830
O O20 0.749390 0.000000 0.500000
O O21 0.500000 0.333770 0.551489
O O22 0.000000 0.212864 0.355248
#
# Coordination Sequence:
#
# PCOD8218380 Si02
#       8
#     8   8   8   8   8   8   8   8
#     4   8  14  25  46  71  92 120 157 194 232 276
#     4  10  21  35  50  68  92 123 156 199 248 293
#     4  10  19  34  52  69  92 126 165 201 241 292
#     4  10  19  29  47  75  98 118 151 199 245 282
#     4  10  19  31  49  71  96 131 169 205 246 291
#     4   8  14  26  46  74 102 126 160 203 240 277
#     4   9  16  30  49  68  92 122 158 196 237 288
#     4   9  17  29  44  67  98 124 150 190 238 286
#
# _framework density 17.102893999999999
#
# number of rings (size 3 to 8) (size 9 to 14) (size 15 to 20)
#    0.000    2.750    1.250    1.875    0.000    2.750 
#    0.000    0.625    0.000   11.625    0.000    0.000 
#    0.000    0.000    0.000    0.000    0.000    0.000 
#
# Total GULP energy -792872.612858 kJ/mol
# GULP energy per Si atom -12388.634576 kJ/mol
# Density = 1.706397 g / cm^3
# Si number density = 17.102894 Si / 1000 Ang^3
#
#
#
# Elastic Constant Matrix: (Units=GPa)
#
#
# Indices 1 2 3 4 5 6 
#
# 1 46.5230 35.1667 26.5183 0.0000 0.0000 0.0000
# 2 35.1667 141.4758 62.6801 0.0000 0.0000 0.0000
# 3 26.5183 62.6801 98.8554 0.0000 0.0000 0.0000
# 4 0.0000 0.0000 0.0000 20.1281 0.0000 0.0000
# 5 0.0000 0.0000 0.0000 0.0000 22.8542 0.0000
# 6 0.0000 0.0000 0.0000 0.0000 0.0000 12.8390
#
#
#
# Elastic Compliance Matrix: (Units=1/GPa)
#
#
# Indices 1 2 3 4 5 6 
#
# 1 0.027702 -0.004997 -0.004262 0.000000 0.000000 0.000000
# 2 -0.004997 0.010731 -0.005464 0.000000 0.000000 0.000000
# 3 -0.004262 -0.005464 0.014723 0.000000 0.000000 0.000000
# 4 0.000000 0.000000 0.000000 0.049682 0.000000 0.000000
# 5 0.000000 0.000000 0.000000 0.000000 0.043756 0.000000
# 6 0.000000 0.000000 0.000000 0.000000 0.000000 0.077887
#
#
# Mechanical properties :
#
#
# Convention : Reuss Voigt Hill
#
# Bulk Modulus (GPa) = 42.17715 59.50938 50.84326
# Shear Modulus (GPa) = 19.09625 21.99689 20.54657
#
# Velocity S-wave (km/s) = 3.34511 3.59018 3.46981
# Velocity P-wave (km/s) = 6.29556 7.21501 6.77091
#
# Compressibility (1/GPa) = 0.02370952
#
# Stress axis : x y z
#
# Youngs Moduli (GPa) = 36.09861 93.18643 67.91884
#
# Poissons Ratio (x) = 0.46569 0.28950
# Poissons Ratio (y) = 0.18040 0.37108
# Poissons Ratio (z) = 0.15387 0.50913
#
# Static dielectric constant tensor:
#      x y z
#    x 3.082100 0.000000 0.000000 
#    y 0.000000 3.616250 0.000000 
#    z 0.000000 0.000000 3.015920 
# 
# 
# High freq. dielectric constant tensor:
#      x y z
#    x 1.649940 0.000000 0.000000 
#    y 0.000000 1.663890 0.000000 
#    z 0.000000 0.000000 1.622540 
# 
# From -- ./inp_files/27070.got.cif
#   From: 2010.03.12/outbox.cif.g09.slc.cpg/sg53_14_cif.got.tgz:27070.got - 2010.04.16 14:36:59.
