data_PCOD8218670
_publ_section_title
;
Structure prediction by ZEFSAII (Michael W. Deem and Ramdas Pophale) SiO2 
 PCOD8218670
Probable space group: P M N A
;
_chemical_formula_sum "Si O2"
_cell_formula_units_Z 64
_cell_length_a 9.185355
_cell_length_b 12.697532
_cell_length_c 29.278854
_cell_angle_alpha 90.000000
_cell_angle_beta 90.000000
_cell_angle_gamma 90.000000
_cell_volume 3414.831948
_symmetry_space_group_name_H-M "P M N A"
_symmetry_group_IT_number 53
_symmetry_cell_setting 'orthorhombic'
loop_
_space_group_symop_operation_xyz
x,y,z
1/2-x,-y,1/2+z
x,-y,-z
1/2-x,y,1/2-z
-x,-y,-z
1/2+x,y,1/2-z
-x,y,z
1/2+x,-y,1/2+z
loop_
_atom_site_type_symbol
_atom_site_label
_atom_site_fract_x
_atom_site_fract_y
_atom_site_fract_z
Si Si1 0.830134 0.053306 0.792764
Si Si2 0.827065 0.464639 0.391578
Si Si3 0.328260 0.315697 0.933645
Si Si4 0.836393 0.148007 0.314956
Si Si5 0.171700 0.884937 0.106486
Si Si6 0.834976 0.911600 0.582124
Si Si7 0.672205 0.295883 0.037062
Si Si8 0.829657 0.613748 0.705325
O O1 0.750000 0.110493 0.750000
O O2 0.785999 0.109133 0.839993
O O3 0.000000 0.057957 0.784026
O O4 0.779041 0.932050 0.793554
O O5 0.777561 0.580354 0.406966
O O6 0.759785 0.379023 0.426870
O O7 0.769839 0.444256 0.340174
O O8 0.000000 0.454742 0.392634
O O9 0.500000 0.294944 0.928893
O O10 0.242190 0.219597 0.912384
O O11 0.281946 0.329575 0.986311
O O12 0.828488 0.146219 0.369431
O O13 0.792286 0.263328 0.298566
O O14 0.000000 0.117591 0.298978
O O15 0.000000 0.883147 0.099188
O O16 0.234079 0.985709 0.079560
O O17 0.774870 0.824069 0.546559
O O18 0.000000 0.946967 0.570479
O O19 0.500000 0.297693 0.043004
O O20 0.750000 0.566899 0.750000
O O21 0.000000 0.593539 0.711014
#
# Coordination Sequence:
#
# PCOD8218670 Si02
#       8
#     8   8   8   8   8   8   8   8
#     4  10  20  33  51  74  99 133 175 218 262 309
#     4   9  17  33  55  80 109 136 170 220 269 309
#     4  10  20  34  57  82 102 135 183 225 260 307
#     4   9  16  28  48  74 106 139 165 201 254 312
#     4  10  22  38  52  72 109 146 175 213 263 316
#     4   9  16  30  54  80 107 137 170 210 258 312
#     4   9  16  30  56  87 109 129 168 223 273 311
#     4  10  19  31  49  75 107 140 171 206 257 314
#
# _framework density 18.741772000000001
#
# number of rings (size 3 to 8) (size 9 to 14) (size 15 to 20)
#    0.000    2.500    1.250    1.500    0.000    5.000 
#    0.000    4.375    0.000    6.000    0.000    0.000 
#    0.000    0.000    0.000    0.000    0.000    0.000 
#
# Total GULP energy -793510.770337 kJ/mol
# GULP energy per Si atom -12398.605787 kJ/mol
# Density = 1.869912 g / cm^3
# Si number density = 18.741772 Si / 1000 Ang^3
#
#
#
# Elastic Constant Matrix: (Units=GPa)
#
#
# Indices 1 2 3 4 5 6 
#
# 1 50.2330 41.1584 39.8282 0.0000 0.0000 0.0000
# 2 41.1584 122.6602 79.9030 0.0000 0.0000 0.0000
# 3 39.8282 79.9030 132.5928 0.0000 0.0000 0.0000
# 4 0.0000 0.0000 0.0000 0.8285 0.0000 0.0000
# 5 0.0000 0.0000 0.0000 0.0000 24.4837 0.0000
# 6 0.0000 0.0000 0.0000 0.0000 0.0000 9.9899
#
#
#
# Elastic Compliance Matrix: (Units=1/GPa)
#
#
# Indices 1 2 3 4 5 6 
#
# 1 0.029139 -0.006710 -0.004709 0.000000 0.000000 0.000000
# 2 -0.006710 0.014966 -0.007003 0.000000 0.000000 0.000000
# 3 -0.004709 -0.007003 0.013177 0.000000 0.000000 0.000000
# 4 0.000000 0.000000 0.000000 1.206978 0.000000 0.000000
# 5 0.000000 0.000000 0.000000 0.000000 0.040844 0.000000
# 6 0.000000 0.000000 0.000000 0.000000 0.000000 0.100101
#
#
# Mechanical properties :
#
#
# Convention : Reuss Voigt Hill
#
# Bulk Modulus (GPa) = 48.93120 69.69614 59.31367
# Shear Modulus (GPa) = 3.45099 16.70017 10.07558
#
# Velocity S-wave (km/s) = 1.35843 2.98831 2.32114
# Velocity P-wave (km/s) = 5.35025 7.01249 6.23700
#
# Compressibility (1/GPa) = 0.02043686
#
# Stress axis : x y z
#
# Youngs Moduli (GPa) = 34.31864 66.81705 75.89052
#
# Poissons Ratio (x) = 0.44833 0.35739
# Poissons Ratio (y) = 0.23027 0.53150
# Poissons Ratio (z) = 0.16161 0.46795
#
# Static dielectric constant tensor:
#      x y z
#    x 3.110010 0.000000 0.000000 
#    y 0.000000 3.328040 0.000000 
#    z 0.000000 0.000000 3.758590 
# 
# 
# High freq. dielectric constant tensor:
#      x y z
#    x 1.692190 0.000000 0.000000 
#    y 0.000000 1.713990 0.000000 
#    z 0.000000 0.000000 1.741470 
# 
# From -- ./inp_files/38201.got.cif
#   From: 2010.03.12/outbox.cif.g09.slc.cpg/sg53_20_cif.got.tgz:38201.got - 2010.04.16 14:36:59.
