data_PCOD8218653
_publ_section_title
;
Structure prediction by ZEFSAII (Michael W. Deem and Ramdas Pophale) SiO2 
 PCOD8218653
Probable space group: P M N A
;
_chemical_formula_sum "Si O2"
_cell_formula_units_Z 56
_cell_length_a 9.002579
_cell_length_b 15.405786
_cell_length_c 23.131055
_cell_angle_alpha 90.000000
_cell_angle_beta 90.000000
_cell_angle_gamma 90.000000
_cell_volume 3208.087782
_symmetry_space_group_name_H-M "P M N A"
_symmetry_group_IT_number 53
_symmetry_cell_setting 'orthorhombic'
loop_
_space_group_symop_operation_xyz
x,y,z
1/2-x,-y,1/2+z
x,-y,-z
1/2-x,y,1/2-z
-x,-y,-z
1/2+x,y,1/2-z
-x,y,z
1/2+x,-y,1/2+z
loop_
_atom_site_type_symbol
_atom_site_label
_atom_site_fract_x
_atom_site_fract_y
_atom_site_fract_z
Si Si1 0.173716 0.833297 0.688237
Si Si2 0.173207 0.809929 0.188554
Si Si3 0.174638 0.401437 0.496461
Si Si4 0.673765 0.998669 0.688199
Si Si5 0.672069 0.653454 0.869511
Si Si6 0.825288 0.499415 0.809190
Si Si7 0.325353 0.343565 0.607983
O O1 0.250000 0.815726 0.750000
O O2 0.245887 0.917940 0.655844
O O3 0.203962 0.752733 0.646258
O O4 0.000000 0.848804 0.698203
O O5 0.250000 0.797062 0.250000
O O6 0.234835 0.739715 0.143235
O O7 0.000000 0.794953 0.200031
O O8 0.202043 0.905941 0.160890
O O9 0.234279 0.500000 0.500000
O O10 0.222064 0.360768 0.435398
O O11 0.249399 0.343238 0.545669
O O12 0.000000 0.398627 0.506438
O O13 0.750000 0.000048 0.750000
O O14 0.500000 0.978830 0.693456
O O15 0.500000 0.628476 0.860978
O O16 0.767864 0.593816 0.827159
O O17 0.750000 0.468929 0.750000
O O18 0.779911 0.430601 0.858133
O O19 0.000000 0.503209 0.799345
O O20 0.500000 0.337271 0.598785
#
# Coordination Sequence:
#
# PCOD8218653 Si02
#       7
#     8   8   8   8   8   8   8
#     4  10  19  31  49  73 102 130 161 200 245 296
#     4   9  18  32  50  75 105 134 164 202 247 298
#     4  10  20  36  56  73  94 129 173 214 251 293
#     4   9  16  28  48  72 100 131 163 198 242 295
#     4  10  21  36  52  72  99 131 167 208 250 295
#     4  11  22  33  49  73 102 133 163 199 245 296
#     4  10  21  35  51  74 102 131 166 207 248 292
#
# _framework density 17.455881000000002
#
# number of rings (size 3 to 8) (size 9 to 14) (size 15 to 20)
#    0.000    2.143    1.429    3.000    0.000    4.857 
#    0.000    0.000    0.000    0.857    0.000    6.000 
#    0.000    0.000    0.000    0.000    0.000    0.000 
#
# Total GULP energy -694315.162753 kJ/mol
# GULP energy per Si atom -12398.485049 kJ/mol
# Density = 1.741615 g / cm^3
# Si number density = 17.455881 Si / 1000 Ang^3
#
#
#
# Elastic Constant Matrix: (Units=GPa)
#
#
# Indices 1 2 3 4 5 6 
#
# 1 65.5939 41.6059 32.4775 0.0000 0.0000 0.0000
# 2 41.6059 127.1938 42.5289 0.0000 0.0000 0.0000
# 3 32.4775 42.5289 88.2686 0.0000 0.0000 0.0000
# 4 0.0000 0.0000 0.0000 18.1730 0.0000 0.0000
# 5 0.0000 0.0000 0.0000 0.0000 26.6779 0.0000
# 6 0.0000 0.0000 0.0000 0.0000 0.0000 11.7753
#
#
#
# Elastic Compliance Matrix: (Units=1/GPa)
#
#
# Indices 1 2 3 4 5 6 
#
# 1 0.021129 -0.005140 -0.005298 0.000000 0.000000 0.000000
# 2 -0.005140 0.010622 -0.003227 0.000000 0.000000 0.000000
# 3 -0.005298 -0.003227 0.014833 0.000000 0.000000 0.000000
# 4 0.000000 0.000000 0.000000 0.055027 0.000000 0.000000
# 5 0.000000 0.000000 0.000000 0.000000 0.037484 0.000000
# 6 0.000000 0.000000 0.000000 0.000000 0.000000 0.084924
#
#
# Mechanical properties :
#
#
# Convention : Reuss Voigt Hill
#
# Bulk Modulus (GPa) = 51.93394 57.14232 54.53813
# Shear Modulus (GPa) = 19.39748 22.28815 20.84282
#
# Velocity S-wave (km/s) = 3.33713 3.57715 3.45922
# Velocity P-wave (km/s) = 6.68316 7.06170 6.87504
#
# Compressibility (1/GPa) = 0.01925523
#
# Stress axis : x y z
#
# Youngs Moduli (GPa) = 47.32928 94.14215 67.41766
#
# Poissons Ratio (x) = 0.48389 0.35715
# Poissons Ratio (y) = 0.24327 0.21754
# Poissons Ratio (z) = 0.25073 0.30377
#
# Static dielectric constant tensor:
#      x y z
#    x 3.250640 0.000000 0.000000 
#    y 0.000000 3.840530 0.000000 
#    z 0.000000 0.000000 3.044860 
# 
# 
# High freq. dielectric constant tensor:
#      x y z
#    x 1.679070 0.000000 0.000000 
#    y 0.000000 1.686660 0.000000 
#    z 0.000000 0.000000 1.645420 
# 
# From -- ./inp_files/30860.got.cif
#   From: 2010.03.12/outbox.cif.g09.slc.cpg/sg53_16_cif.got.tgz:30860.got - 2010.04.16 14:36:59.
