data_PCOD8218163
_publ_section_title
;
Structure prediction by ZEFSAII (Michael W. Deem and Ramdas Pophale) SiO2 
 PCOD8218163
Probable space group: P M N A
;
_chemical_formula_sum "Si O2"
_cell_formula_units_Z 64
_cell_length_a 8.751602
_cell_length_b 14.760275
_cell_length_c 25.037918
_cell_angle_alpha 90.000000
_cell_angle_beta 90.000000
_cell_angle_gamma 90.000000
_cell_volume 3234.299403
_symmetry_space_group_name_H-M "P M N A"
_symmetry_group_IT_number 53
_symmetry_cell_setting 'orthorhombic'
loop_
_space_group_symop_operation_xyz
x,y,z
1/2-x,-y,1/2+z
x,-y,-z
1/2-x,y,1/2-z
-x,-y,-z
1/2+x,y,1/2-z
-x,y,z
1/2+x,-y,1/2+z
loop_
_atom_site_type_symbol
_atom_site_label
_atom_site_fract_x
_atom_site_fract_y
_atom_site_fract_z
Si Si1 0.817620 0.203322 0.693861
Si Si2 0.171768 0.657385 0.392543
Si Si3 0.819546 0.819254 0.804444
Si Si4 0.317117 0.520708 0.940562
Si Si5 0.180362 0.282661 0.404501
Si Si6 0.324644 0.042093 0.556198
Si Si7 0.671086 0.790920 0.017028
Si Si8 0.321079 0.002746 0.838153
O O1 0.750000 0.235148 0.750000
O O2 0.749140 0.274065 0.649944
O O3 0.000000 0.203382 0.694163
O O4 0.761089 0.100988 0.681422
O O5 0.244426 0.557019 0.399071
O O6 0.173357 0.694959 0.453096
O O7 0.000000 0.646938 0.371427
O O8 0.750000 0.777654 0.750000
O O9 0.764319 0.758657 0.853724
O O10 0.767002 0.923707 0.807546
O O11 0.000000 0.815478 0.801833
O O12 0.500000 0.519108 0.942829
O O13 0.259129 0.616149 0.916876
O O14 0.252194 0.500000 0.000000
O O15 0.221889 0.221245 0.455817
O O16 0.000000 0.282165 0.393898
O O17 0.500000 0.027310 0.572479
O O18 0.288015 0.147880 0.550381
O O19 0.281151 0.000000 0.500000
O O20 0.217320 0.993848 0.599313
O O21 0.500000 0.832589 0.020207
O O22 0.500000 0.989174 0.828779
#
# Coordination Sequence:
#
# PCOD8218163 Si02
#       8
#     8   8   8   8   8   8   8   8
#     4  10  21  36  56  81 113 150 190 234 284 338
#     4   9  16  31  53  83 118 149 185 236 288 337
#     4  12  26  44  63  84 116 156 199 248 294 345
#     4   9  15  28  57  92 121 148 189 240 287 345
#     4  10  20  35  61  94 120 152 195 242 298 354
#     4  11  23  35  49  77 118 159 195 235 289 348
#     4  10  18  32  55  82 116 152 191 236 287 350
#     4  11  22  39  62  86 112 148 196 247 295 348
#
# _framework density 19.787903
#
# number of rings (size 3 to 8) (size 9 to 14) (size 15 to 20)
#    0.000    1.750    2.500    3.000    0.000    5.500 
#    0.000    0.625    0.000    3.375    0.000    0.000 
#    0.000    0.000    0.000    0.000    0.000    0.000 
#
# Total GULP energy -793384.782575 kJ/mol
# GULP energy per Si atom -12396.637228 kJ/mol
# Density = 1.974286 g / cm^3
# Si number density = 19.787903 Si / 1000 Ang^3
#
#
#
# Elastic Constant Matrix: (Units=GPa)
#
#
# Indices 1 2 3 4 5 6 
#
# 1 49.2020 19.5703 35.3676 0.0000 0.0000 0.0000
# 2 19.5703 100.1519 46.0966 0.0000 0.0000 0.0000
# 3 35.3676 46.0966 136.2113 0.0000 0.0000 0.0000
# 4 0.0000 0.0000 0.0000 21.3482 0.0000 0.0000
# 5 0.0000 0.0000 0.0000 0.0000 27.8674 0.0000
# 6 0.0000 0.0000 0.0000 0.0000 0.0000 12.9376
#
#
#
# Elastic Compliance Matrix: (Units=1/GPa)
#
#
# Indices 1 2 3 4 5 6 
#
# 1 0.025422 -0.002285 -0.005828 0.000000 0.000000 0.000000
# 2 -0.002285 0.012033 -0.003479 0.000000 0.000000 0.000000
# 3 -0.005828 -0.003479 0.010032 0.000000 0.000000 0.000000
# 4 0.000000 0.000000 0.000000 0.046842 0.000000 0.000000
# 5 0.000000 0.000000 0.000000 0.000000 0.035884 0.000000
# 6 0.000000 0.000000 0.000000 0.000000 0.000000 0.077294
#
#
# Mechanical properties :
#
#
# Convention : Reuss Voigt Hill
#
# Bulk Modulus (GPa) = 41.14617 54.18155 47.66386
# Shear Modulus (GPa) = 20.93876 24.73271 22.83573
#
# Velocity S-wave (km/s) = 3.25647 3.53921 3.40078
# Velocity P-wave (km/s) = 5.91423 6.64394 6.28968
#
# Compressibility (1/GPa) = 0.02430360
#
# Stress axis : x y z
#
# Youngs Moduli (GPa) = 39.33534 83.10816 99.68198
#
# Poissons Ratio (x) = 0.18994 0.58090
# Poissons Ratio (y) = 0.08990 0.34675
# Poissons Ratio (z) = 0.22923 0.28910
#
# Static dielectric constant tensor:
#      x y z
#    x 3.200340 0.000000 0.000000 
#    y 0.000000 3.843540 0.000000 
#    z 0.000000 0.000000 3.699490 
# 
# 
# High freq. dielectric constant tensor:
#      x y z
#    x 1.734340 0.000000 0.000000 
#    y 0.000000 1.772380 0.000000 
#    z 0.000000 0.000000 1.775810 
# 
# From -- ./inp_files/34164.got.cif
#   From: 2010.03.12/outbox.cif.g09.slc.cpg/sg53_18_cif.got.tgz:34164.got - 2010.04.16 14:36:59.
