data_PCOD8218897
_publ_section_title
;
Structure prediction by ZEFSAII (Michael W. Deem and Ramdas Pophale) SiO2 
 PCOD8218897
Probable space group: P M N A
;
_chemical_formula_sum "Si O2"
_cell_formula_units_Z 48
_cell_length_a 8.995386
_cell_length_b 9.550793
_cell_length_c 30.675367
_cell_angle_alpha 90.000000
_cell_angle_beta 90.000000
_cell_angle_gamma 90.000000
_cell_volume 2635.414941
_symmetry_space_group_name_H-M "P M N A"
_symmetry_group_IT_number 53
_symmetry_cell_setting 'orthorhombic'
loop_
_space_group_symop_operation_xyz
x,y,z
1/2-x,-y,1/2+z
x,-y,-z
1/2-x,y,1/2-z
-x,-y,-z
1/2+x,y,1/2-z
-x,y,z
1/2+x,-y,1/2+z
loop_
_atom_site_type_symbol
_atom_site_label
_atom_site_fract_x
_atom_site_fract_y
_atom_site_fract_z
Si Si1 0.675190 0.193996 0.203410
Si Si2 0.325734 0.658609 0.487672
Si Si3 0.672411 0.301028 0.609901
Si Si4 0.671086 0.435767 0.139160
Si Si5 0.674721 0.013245 0.368539
Si Si6 0.824525 0.213273 0.432637
O O1 0.750000 0.190367 0.250000
O O2 0.500000 0.166395 0.206979
O O3 0.708762 0.344750 0.181930
O O4 0.745542 0.071961 0.174256
O O5 0.288169 0.500000 0.500000
O O6 0.500000 0.691420 0.492560
O O7 0.264675 0.688948 0.439255
O O8 0.235521 0.763134 0.518899
O O9 0.500000 0.333333 0.607615
O O10 0.741495 0.418943 0.641058
O O11 0.707450 0.151612 0.630806
O O12 0.500000 0.475012 0.137408
O O13 0.717486 0.348051 0.096462
O O14 0.500000 0.046485 0.366851
O O15 0.743314 0.078610 0.412399
O O16 0.000000 0.185405 0.432718
#
# Coordination Sequence:
#
# PCOD8218897 Si02
#       6
#     8   8   8   8   8   8
#     4  10  21  39  62  88 110 137 177 218 267 329
#     4  10  19  32  52  77 107 146 191 235 275 318
#     4  10  21  35  53  80 110 144 186 226 273 325
#     4   9  19  34  54  79 108 138 174 220 268 317
#     4  10  21  37  56  79 111 148 182 224 275 325
#     4  10  20  34  52  77 107 145 190 230 270 321
#
# _framework density 18.213449000000001
#
# number of rings (size 3 to 8) (size 9 to 14) (size 15 to 20)
#    0.000    2.167    1.667    2.500    0.000    6.333 
#    0.000    4.167    0.000    2.000    0.000    0.000 
#    0.000    0.000    0.000    0.000    0.000    0.000 
#
# Total GULP energy -595331.089149 kJ/mol
# GULP energy per Si atom -12402.731024 kJ/mol
# Density = 1.817199 g / cm^3
# Si number density = 18.213449 Si / 1000 Ang^3
#
#
#
# Elastic Constant Matrix: (Units=GPa)
#
#
# Indices 1 2 3 4 5 6 
#
# 1 86.6237 64.0394 47.4819 0.0000 0.0000 0.0000
# 2 64.0394 109.0951 48.8559 0.0000 0.0000 0.0000
# 3 47.4819 48.8559 107.4057 0.0000 0.0000 0.0000
# 4 0.0000 0.0000 0.0000 18.7127 0.0000 0.0000
# 5 0.0000 0.0000 0.0000 0.0000 28.2487 0.0000
# 6 0.0000 0.0000 0.0000 0.0000 0.0000 29.3287
#
#
#
# Elastic Compliance Matrix: (Units=1/GPa)
#
#
# Indices 1 2 3 4 5 6 
#
# 1 0.022273 -0.010881 -0.004897 0.000000 0.000000 0.000000
# 2 -0.010881 0.016827 -0.002844 0.000000 0.000000 0.000000
# 3 -0.004897 -0.002844 0.012769 0.000000 0.000000 0.000000
# 4 0.000000 0.000000 0.000000 0.053440 0.000000 0.000000
# 5 0.000000 0.000000 0.000000 0.000000 0.035400 0.000000
# 6 0.000000 0.000000 0.000000 0.000000 0.000000 0.034096
#
#
# Mechanical properties :
#
#
# Convention : Reuss Voigt Hill
#
# Bulk Modulus (GPa) = 68.37589 69.31988 68.84788
# Shear Modulus (GPa) = 23.04965 24.77450 23.91207
#
# Velocity S-wave (km/s) = 3.56129 3.69213 3.62730
# Velocity P-wave (km/s) = 7.38467 7.50454 7.44484
#
# Compressibility (1/GPa) = 0.01462504
#
# Stress axis : x y z
#
# Youngs Moduli (GPa) = 44.89831 59.42744 78.31588
#
# Poissons Ratio (x) = 0.64664 0.38349
# Poissons Ratio (y) = 0.48855 0.22272
# Poissons Ratio (z) = 0.21985 0.16900
#
# Static dielectric constant tensor:
#      x y z
#    x 3.348040 0.000000 0.000000 
#    y 0.000000 3.283700 0.000000 
#    z 0.000000 0.000000 3.296580 
# 
# 
# High freq. dielectric constant tensor:
#      x y z
#    x 1.711230 0.000000 0.000000 
#    y 0.000000 1.701870 0.000000 
#    z 0.000000 0.000000 1.696480 
# 
# From -- ./inp_files/37730.got.cif
#   From: 2010.03.12/outbox.cif.g09.slc.cpg/sg53_19_cif.got.tgz:37730.got - 2010.04.16 14:36:59.
