data_PCOD8218913
_publ_section_title
;
Structure prediction by ZEFSAII (Michael W. Deem and Ramdas Pophale) SiO2 
 PCOD8218913
Probable space group: P M N A
;
_chemical_formula_sum "Si O2"
_cell_formula_units_Z 40
_cell_length_a 8.985028
_cell_length_b 13.486758
_cell_length_c 18.105562
_cell_angle_alpha 90.000000
_cell_angle_beta 90.000000
_cell_angle_gamma 90.000000
_cell_volume 2194.012056
_symmetry_space_group_name_H-M "P M N A"
_symmetry_group_IT_number 53
_symmetry_cell_setting 'orthorhombic'
loop_
_space_group_symop_operation_xyz
x,y,z
1/2-x,-y,1/2+z
x,-y,-z
1/2-x,y,1/2-z
-x,-y,-z
1/2+x,y,1/2-z
-x,y,z
1/2+x,-y,1/2+z
loop_
_atom_site_type_symbol
_atom_site_label
_atom_site_fract_x
_atom_site_fract_y
_atom_site_fract_z
Si Si1 0.827501 0.398557 0.538003
Si Si2 0.326726 0.888760 0.402295
Si Si3 0.826308 0.804987 0.539947
Si Si4 0.173421 0.685664 0.173802
Si Si5 0.324082 0.904960 0.671265
O O1 0.777255 0.500000 0.500000
O O2 0.793161 0.308007 0.482875
O O3 0.732483 0.389424 0.612139
O O4 0.000000 0.400040 0.560275
O O5 0.500000 0.889203 0.424065
O O6 0.234217 0.880436 0.477772
O O7 0.286605 0.798120 0.348391
O O8 0.278782 0.987431 0.359730
O O9 0.739745 0.822139 0.616196
O O10 0.000000 0.825529 0.551289
O O11 0.250000 0.658339 0.250000
O O12 0.000000 0.669535 0.183234
O O13 0.250000 0.888529 0.750000
O O14 0.500000 0.892914 0.678756
#
# Coordination Sequence:
#
# PCOD8218913 Si02
#       5
#     8   8   8   8   8
#     4   9  19  37  58  77 100 132 170 212 258 307
#     4   9  19  34  52  75 104 138 171 206 249 298
#     4  10  20  34  54  78 102 131 169 211 254 303
#     4  10  19  32  52  79 108 134 166 209 256 303
#     4  11  22  35  51  73 105 141 175 209 247 294
#
# _framework density 18.231439999999999
#
# number of rings (size 3 to 8) (size 9 to 14) (size 15 to 20)
#    0.000    2.200    0.000    3.000    0.000    6.000 
#    0.000    1.000    0.000    0.000    0.000    0.000 
#    0.000    0.000    0.000    0.000    0.000    0.000 
#
# Total GULP energy -496206.831306 kJ/mol
# GULP energy per Si atom -12405.170783 kJ/mol
# Density = 1.818994 g / cm^3
# Si number density = 18.231440 Si / 1000 Ang^3
#
#
#
# Elastic Constant Matrix: (Units=GPa)
#
#
# Indices 1 2 3 4 5 6 
#
# 1 88.0544 41.2532 78.7423 0.0000 0.0000 0.0000
# 2 41.2532 82.4694 65.9644 0.0000 0.0000 0.0000
# 3 78.7423 65.9644 168.1684 0.0000 0.0000 0.0000
# 4 0.0000 0.0000 0.0000 16.2195 0.0000 0.0000
# 5 0.0000 0.0000 0.0000 0.0000 40.9001 0.0000
# 6 0.0000 0.0000 0.0000 0.0000 0.0000 24.1647
#
#
#
# Elastic Compliance Matrix: (Units=1/GPa)
#
#
# Indices 1 2 3 4 5 6 
#
# 1 0.020290 -0.003716 -0.008043 0.000000 0.000000 0.000000
# 2 -0.003716 0.018350 -0.005458 0.000000 0.000000 0.000000
# 3 -0.008043 -0.005458 0.011853 0.000000 0.000000 0.000000
# 4 0.000000 0.000000 0.000000 0.061654 0.000000 0.000000
# 5 0.000000 0.000000 0.000000 0.000000 0.024450 0.000000
# 6 0.000000 0.000000 0.000000 0.000000 0.000000 0.041383
#
#
# Mechanical properties :
#
#
# Convention : Reuss Voigt Hill
#
# Bulk Modulus (GPa) = 62.26850 78.95689 70.61269
# Shear Modulus (GPa) = 22.96036 26.43902 24.69969
#
# Velocity S-wave (km/s) = 3.55263 3.81226 3.68473
# Velocity P-wave (km/s) = 7.14541 7.92338 7.54443
#
# Compressibility (1/GPa) = 0.01605949
#
# Stress axis : x y z
#
# Youngs Moduli (GPa) = 49.28572 54.49525 84.36639
#
# Poissons Ratio (x) = 0.20253 0.67853
# Poissons Ratio (y) = 0.18317 0.46045
# Poissons Ratio (z) = 0.39639 0.29742
#
# Static dielectric constant tensor:
#      x y z
#    x 3.393200 0.000000 0.000000 
#    y 0.000000 3.296950 0.000000 
#    z 0.000000 0.000000 3.356570 
# 
# 
# High freq. dielectric constant tensor:
#      x y z
#    x 1.715200 0.000000 0.000000 
#    y 0.000000 1.692470 0.000000 
#    z 0.000000 0.000000 1.710090 
# 
# From -- ./inp_files/19829.got.cif
#   From: 2010.03.12/outbox.cif.g09.slc.cpg/sg53_10_cif.got.tgz:19829.got - 2010.04.16 14:36:59.
