data_PCOD8218644
_publ_section_title
;
Structure prediction by ZEFSAII (Michael W. Deem and Ramdas Pophale) SiO2 
 PCOD8218644
Probable space group: P M N A
;
_chemical_formula_sum "Si O2"
_cell_formula_units_Z 48
_cell_length_a 9.154534
_cell_length_b 18.407781
_cell_length_c 15.679503
_cell_angle_alpha 90.000000
_cell_angle_beta 90.000000
_cell_angle_gamma 90.000000
_cell_volume 2642.226070
_symmetry_space_group_name_H-M "P M N A"
_symmetry_group_IT_number 53
_symmetry_cell_setting 'orthorhombic'
loop_
_space_group_symop_operation_xyz
x,y,z
1/2-x,-y,1/2+z
x,-y,-z
1/2-x,y,1/2-z
-x,-y,-z
1/2+x,y,1/2-z
-x,y,z
1/2+x,-y,1/2+z
loop_
_atom_site_type_symbol
_atom_site_label
_atom_site_fract_x
_atom_site_fract_y
_atom_site_fract_z
Si Si1 0.830079 0.166165 0.995614
Si Si2 0.664253 0.957046 0.087781
Si Si3 0.673451 0.331443 0.502379
Si Si4 0.329050 0.412293 0.335335
Si Si5 0.829771 0.082612 0.168326
Si Si6 0.829157 0.419543 0.835211
O O1 0.739103 0.121158 0.925831
O O2 0.000000 0.159428 0.971818
O O3 0.773668 0.248532 0.992267
O O4 0.800756 0.136333 0.090104
O O5 0.500000 0.946158 0.123007
O O6 0.759839 0.003143 0.153966
O O7 0.661739 0.000000 0.000000
O O8 0.500000 0.336954 0.500243
O O9 0.734318 0.367525 0.415654
O O10 0.733427 0.374418 0.584649
O O11 0.250000 0.384439 0.250000
O O12 0.500000 0.398753 0.322795
O O13 0.293904 0.496427 0.352791
O O14 0.750000 0.118069 0.250000
O O15 0.000000 0.072544 0.186682
O O16 0.750000 0.391693 0.750000
O O17 0.000000 0.405977 0.822772
#
# Coordination Sequence:
#
# PCOD8218644 Si02
#       6
#     8   8   8   8   8   8
#     4   9  18  32  49  69  95 127 160 195 238 290
#     4   9  17  31  50  69  90 118 153 191 230 275
#     4   9  17  31  51  72  97 134 172 201 241 300
#     4   9  17  30  49  73  99 129 167 208 248 292
#     4  10  19  31  49  72  96 123 157 196 238 286
#     4   9  17  31  51  72  95 126 167 212 251 291
#
# _framework density 18.166499000000002
#
# number of rings (size 3 to 8) (size 9 to 14) (size 15 to 20)
#    0.000    2.833    0.000    1.500    0.000    5.333 
#    0.000    3.333    0.000    6.000    0.000    0.000 
#    0.000    0.000    0.000    0.000    0.000    0.000 
#
# Total GULP energy -595204.633862 kJ/mol
# GULP energy per Si atom -12400.096539 kJ/mol
# Density = 1.812515 g / cm^3
# Si number density = 18.166499 Si / 1000 Ang^3
#
#
#
# Elastic Constant Matrix: (Units=GPa)
#
#
# Indices 1 2 3 4 5 6 
#
# 1 59.9104 29.7666 26.9782 0.0000 0.0000 0.0000
# 2 29.7666 108.7808 50.3361 0.0000 0.0000 0.0000
# 3 26.9782 50.3361 92.7239 0.0000 0.0000 0.0000
# 4 0.0000 0.0000 0.0000 16.9469 0.0000 0.0000
# 5 0.0000 0.0000 0.0000 0.0000 31.3974 0.0000
# 6 0.0000 0.0000 0.0000 0.0000 0.0000 18.4014
#
#
#
# Elastic Compliance Matrix: (Units=1/GPa)
#
#
# Indices 1 2 3 4 5 6 
#
# 1 0.020303 -0.003769 -0.003861 0.000000 0.000000 0.000000
# 2 -0.003769 0.012976 -0.005948 0.000000 0.000000 0.000000
# 3 -0.003861 -0.005948 0.015137 0.000000 0.000000 0.000000
# 4 0.000000 0.000000 0.000000 0.059008 0.000000 0.000000
# 5 0.000000 0.000000 0.000000 0.000000 0.031850 0.000000
# 6 0.000000 0.000000 0.000000 0.000000 0.000000 0.054344
#
#
# Mechanical properties :
#
#
# Convention : Reuss Voigt Hill
#
# Bulk Modulus (GPa) = 47.03576 52.84189 49.93882
# Shear Modulus (GPa) = 21.94330 23.63809 22.79069
#
# Velocity S-wave (km/s) = 3.47925 3.61112 3.54580
# Velocity P-wave (km/s) = 6.48752 6.82185 6.65678
#
# Compressibility (1/GPa) = 0.02126042
#
# Stress axis : x y z
#
# Youngs Moduli (GPa) = 49.25400 77.06331 66.06369
#
# Poissons Ratio (x) = 0.29045 0.25508
# Poissons Ratio (y) = 0.18564 0.39293
# Poissons Ratio (z) = 0.19018 0.45835
#
# Static dielectric constant tensor:
#      x y z
#    x 3.231480 0.000000 0.000000 
#    y 0.000000 3.334560 0.000000 
#    z 0.000000 0.000000 3.416120 
# 
# 
# High freq. dielectric constant tensor:
#      x y z
#    x 1.686790 0.000000 0.000000 
#    y 0.000000 1.694610 0.000000 
#    z 0.000000 0.000000 1.701750 
# 
# From -- ./inp_files/20146.got.cif
#   From: 2010.03.12/outbox.cif.g09.slc.cpg/sg53_11_cif.got.tgz:20146.got - 2010.04.16 14:36:59.
