data_PCOD8218032
_publ_section_title
;
Structure prediction by ZEFSAII (Michael W. Deem and Ramdas Pophale) SiO2 
 PCOD8218032
Probable space group: P M N A
;
_chemical_formula_sum "Si O2"
_cell_formula_units_Z 64
_cell_length_a 9.025561
_cell_length_b 13.934133
_cell_length_c 28.462920
_cell_angle_alpha 90.000000
_cell_angle_beta 90.000000
_cell_angle_gamma 90.000000
_cell_volume 3579.592664
_symmetry_space_group_name_H-M "P M N A"
_symmetry_group_IT_number 53
_symmetry_cell_setting 'orthorhombic'
loop_
_space_group_symop_operation_xyz
x,y,z
1/2-x,-y,1/2+z
x,-y,-z
1/2-x,y,1/2-z
-x,-y,-z
1/2+x,y,1/2-z
-x,y,z
1/2+x,-y,1/2+z
loop_
_atom_site_type_symbol
_atom_site_label
_atom_site_fract_x
_atom_site_fract_y
_atom_site_fract_z
Si Si1 0.325500 0.723344 0.571022
Si Si2 0.658706 0.288726 0.205137
Si Si3 0.322605 0.867208 0.866365
Si Si4 0.825023 0.991678 0.201255
Si Si5 0.826216 0.396024 0.983444
Si Si6 0.663808 0.436453 0.130008
Si Si7 0.824578 0.372706 0.878278
Si Si8 0.827791 0.231237 0.797233
O O1 0.500000 0.735936 0.579797
O O2 0.244004 0.824565 0.584564
O O3 0.288673 0.693959 0.517320
O O4 0.266646 0.631581 0.598981
O O5 0.750000 0.308501 0.250000
O O6 0.500000 0.246790 0.220336
O O7 0.732545 0.211706 0.170863
O O8 0.640966 0.390217 0.180543
O O9 0.500000 0.877915 0.871558
O O10 0.248132 0.963714 0.846178
O O11 0.750000 0.030365 0.250000
O O12 0.000000 0.013853 0.203060
O O13 0.789765 0.879991 0.195665
O O14 0.768153 0.362405 0.932209
O O15 0.000000 0.412537 0.981202
O O16 0.756774 0.500000 0.000000
O O17 0.500000 0.450712 0.106693
O O18 0.746528 0.533867 0.141696
O O19 0.773490 0.285048 0.844694
O O20 0.000000 0.385424 0.876336
O O21 0.750000 0.270914 0.750000
O O22 0.000000 0.248300 0.789329
#
# Coordination Sequence:
#
# PCOD8218032 Si02
#       8
#     8   8   8   8   8   8   8   8
#     4  10  18  31  51  74 101 134 168 208 257 308
#     4   9  19  31  42  60  91 125 159 196 238 289
#     4  10  20  33  49  73 103 132 165 210 258 308
#     4  10  19  33  53  78 102 131 172 214 260 310
#     4   9  16  29  52  79 102 129 173 221 256 299
#     4  10  20  32  44  66  99 132 166 208 252 302
#     4  10  19  34  54  75  99 133 174 214 259 305
#     4   9  20  36  55  77 104 135 171 216 259 307
#
# _framework density 17.87913
#
# number of rings (size 3 to 8) (size 9 to 14) (size 15 to 20)
#    0.000    2.375    1.250    2.625    0.000    5.500 
#    0.000    4.375    0.000    0.750    0.000    5.250 
#    0.000    0.000    0.000    0.000    0.000    0.000 
#
# Total GULP energy -792945.804916 kJ/mol
# GULP energy per Si atom -12389.778202 kJ/mol
# Density = 1.783844 g / cm^3
# Si number density = 17.879130 Si / 1000 Ang^3
#
#
#
# Elastic Constant Matrix: (Units=GPa)
#
#
# Indices 1 2 3 4 5 6 
#
# 1 65.0578 28.9366 33.4692 0.0000 0.0000 0.0000
# 2 28.9366 73.5049 47.4649 0.0000 0.0000 0.0000
# 3 33.4692 47.4649 114.0564 0.0000 0.0000 0.0000
# 4 0.0000 0.0000 0.0000 23.2837 0.0000 0.0000
# 5 0.0000 0.0000 0.0000 0.0000 21.2130 0.0000
# 6 0.0000 0.0000 0.0000 0.0000 0.0000 21.6450
#
#
#
# Elastic Compliance Matrix: (Units=1/GPa)
#
#
# Indices 1 2 3 4 5 6 
#
# 1 0.019590 -0.005470 -0.003472 0.000000 0.000000 0.000000
# 2 -0.005470 0.020131 -0.006773 0.000000 0.000000 0.000000
# 3 -0.003472 -0.006773 0.012605 0.000000 0.000000 0.000000
# 4 0.000000 0.000000 0.000000 0.042948 0.000000 0.000000
# 5 0.000000 0.000000 0.000000 0.000000 0.047141 0.000000
# 6 0.000000 0.000000 0.000000 0.000000 0.000000 0.046200
#
#
# Mechanical properties :
#
#
# Convention : Reuss Voigt Hill
#
# Bulk Modulus (GPa) = 47.85412 52.48449 50.16930
# Shear Modulus (GPa) = 22.02541 22.74492 22.38516
#
# Velocity S-wave (km/s) = 3.51366 3.57059 3.54224
# Velocity P-wave (km/s) = 6.57910 6.81305 6.69710
#
# Compressibility (1/GPa) = 0.02089684
#
# Stress axis : x y z
#
# Youngs Moduli (GPa) = 51.04602 49.67442 79.33402
#
# Poissons Ratio (x) = 0.27171 0.27547
# Poissons Ratio (y) = 0.27921 0.53729
# Poissons Ratio (z) = 0.17725 0.33642
#
# Static dielectric constant tensor:
#      x y z
#    x 3.307520 0.000000 0.000000 
#    y 0.000000 3.268590 0.000000 
#    z 0.000000 0.000000 3.490890 
# 
# 
# High freq. dielectric constant tensor:
#      x y z
#    x 1.690130 0.000000 0.000000 
#    y 0.000000 1.675050 0.000000 
#    z 0.000000 0.000000 1.682180 
# 
# From -- ./inp_files/38525.got.cif
#   From: 2010.03.12/outbox.cif.g09.slc.cpg/sg53_20_cif.got.tgz:38525.got - 2010.04.16 14:36:59.
