data_PCOD8218251
_publ_section_title
;
Structure prediction by ZEFSAII (Michael W. Deem and Ramdas Pophale) SiO2 
 PCOD8218251
Probable space group: P M N A
;
_chemical_formula_sum "Si O2"
_cell_formula_units_Z 48
_cell_length_a 9.279783
_cell_length_b 29.236788
_cell_length_c 8.797899
_cell_angle_alpha 90.000000
_cell_angle_beta 90.000000
_cell_angle_gamma 90.000000
_cell_volume 2386.967200
_symmetry_space_group_name_H-M "P M N A"
_symmetry_group_IT_number 53
_symmetry_cell_setting 'orthorhombic'
loop_
_space_group_symop_operation_xyz
x,y,z
1/2-x,-y,1/2+z
x,-y,-z
1/2-x,y,1/2-z
-x,-y,-z
1/2+x,y,1/2-z
-x,y,z
1/2+x,-y,1/2+z
loop_
_atom_site_type_symbol
_atom_site_label
_atom_site_fract_x
_atom_site_fract_y
_atom_site_fract_z
Si Si1 0.500000 0.448729 0.063097
Si Si2 0.000000 0.548108 0.922980
Si Si3 0.833705 0.119765 0.407347
Si Si4 0.334909 0.045336 0.598196
Si Si5 0.667429 0.789165 0.097428
Si Si6 0.325984 0.711914 0.587325
Si Si7 0.744689 0.611890 0.569828
O O1 0.500000 0.456215 0.242450
O O2 0.621769 0.415052 0.002274
O O3 0.500000 0.500000 0.000000
O O4 0.128217 0.577055 0.988510
O O5 0.000000 0.500000 0.000000
O O6 0.750000 0.121311 0.250000
O O7 0.751644 0.085259 0.516573
O O8 0.828689 0.169579 0.479644
O O9 0.000000 0.104153 0.382418
O O10 0.250000 0.033053 0.750000
O O11 0.500000 0.061001 0.631505
O O12 0.335395 0.000000 0.500000
O O13 0.750000 0.804451 0.250000
O O14 0.500000 0.775221 0.129222
O O15 0.760174 0.748130 0.028159
O O16 0.250000 0.718698 0.750000
O O17 0.500000 0.716644 0.604628
O O18 0.283603 0.663210 0.510971
O O19 0.750000 0.616172 0.750000
#
# Coordination Sequence:
#
# PCOD8218251 Si02
#       7
#     4   4   8   8   8   8   8
#     4  10  20  34  52  80 108 144 186 234 287 346
#     4  10  18  34  54  76 108 142 184 232 285 346
#     4  11  24  42  66  96 128 167 214 264 315 371
#     4  11  24  41  64  95 132 175 220 269 323 378
#     4  11  25  43  64  91 126 164 201 250 310 371
#     4  11  22  38  63  91 117 153 202 251 302 362
#     4   9  19  33  55  80 107 144 189 235 287 347
#
# _framework density 20.109199
#
# number of rings (size 3 to 8) (size 9 to 14) (size 15 to 20)
#    0.000    1.500    0.833    4.000    4.667    8.000 
#    0.000    1.667    0.000    0.000    0.000    0.000 
#    0.000    0.000    0.000    0.000    0.000    0.000 
#
# Total GULP energy -594755.813986 kJ/mol
# GULP energy per Si atom -12390.746125 kJ/mol
# Density = 2.006343 g / cm^3
# Si number density = 20.109199 Si / 1000 Ang^3
#
#
#
# Elastic Constant Matrix: (Units=GPa)
#
#
# Indices 1 2 3 4 5 6 
#
# 1 203.6950 60.1979 48.0978 0.0000 0.0000 0.0000
# 2 60.1979 108.7917 18.7273 0.0000 0.0000 0.0000
# 3 48.0978 18.7273 76.4667 0.0000 0.0000 0.0000
# 4 0.0000 0.0000 0.0000 37.2459 0.0000 0.0000
# 5 0.0000 0.0000 0.0000 0.0000 33.4595 0.0000
# 6 0.0000 0.0000 0.0000 0.0000 0.0000 45.4168
#
#
#
# Elastic Compliance Matrix: (Units=1/GPa)
#
#
# Indices 1 2 3 4 5 6 
#
# 1 0.006625 -0.003078 -0.003413 0.000000 0.000000 0.000000
# 2 -0.003078 0.011027 -0.000764 0.000000 0.000000 0.000000
# 3 -0.003413 -0.000764 0.015412 0.000000 0.000000 0.000000
# 4 0.000000 0.000000 0.000000 0.026849 0.000000 0.000000
# 5 0.000000 0.000000 0.000000 0.000000 0.029887 0.000000
# 6 0.000000 0.000000 0.000000 0.000000 0.000000 0.022018
#
#
# Mechanical properties :
#
#
# Convention : Reuss Voigt Hill
#
# Bulk Modulus (GPa) = 53.90302 71.44436 62.67369
# Shear Modulus (GPa) = 37.73225 40.68649 39.20937
#
# Velocity S-wave (km/s) = 4.33641 4.50297 4.42047
# Velocity P-wave (km/s) = 7.20666 7.91460 7.56891
#
# Compressibility (1/GPa) = 0.01855183
#
# Stress axis : x y z
#
# Youngs Moduli (GPa) = 150.94399 90.68861 64.88573
#
# Poissons Ratio (x) = 0.27916 0.22147
# Poissons Ratio (y) = 0.46464 0.04959
# Poissons Ratio (z) = 0.51521 0.06931
#
# Static dielectric constant tensor:
#      x y z
#    x 1.953790 0.000000 0.000000 
#    y 0.000000 3.898110 0.000000 
#    z 0.000000 0.000000 3.793790 
# 
# 
# High freq. dielectric constant tensor:
#      x y z
#    x 1.812570 0.000000 0.000000 
#    y 0.000000 1.802820 0.000000 
#    z 0.000000 0.000000 1.766130 
# 
# From -- ./inp_files/6842.got.cif
#   From: 2010.03.12/outbox.cif.g09.slc.cpg/sg53_4_cif.got.tgz:6842.got - 2010.04.16 14:36:59.
