data_PCOD8218592
_publ_section_title
;
Structure prediction by ZEFSAII (Michael W. Deem and Ramdas Pophale) SiO2 
 PCOD8218592
Probable space group: P M N A
;
_chemical_formula_sum "Si O2"
_cell_formula_units_Z 64
_cell_length_a 8.686720
_cell_length_b 14.791504
_cell_length_c 29.584894
_cell_angle_alpha 90.000000
_cell_angle_beta 90.000000
_cell_angle_gamma 90.000000
_cell_volume 3801.352783
_symmetry_space_group_name_H-M "P M N A"
_symmetry_group_IT_number 53
_symmetry_cell_setting 'orthorhombic'
loop_
_space_group_symop_operation_xyz
x,y,z
1/2-x,-y,1/2+z
x,-y,-z
1/2-x,y,1/2-z
-x,-y,-z
1/2+x,y,1/2-z
-x,y,z
1/2+x,-y,1/2+z
loop_
_atom_site_type_symbol
_atom_site_label
_atom_site_fract_x
_atom_site_fract_y
_atom_site_fract_z
Si Si1 0.681856 0.536214 0.110413
Si Si2 0.681832 0.497103 0.296687
Si Si3 0.180192 0.875005 0.026137
Si Si4 0.680574 0.955325 0.937305
Si Si5 0.322204 0.686375 0.039954
Si Si6 0.681421 0.291452 0.295636
Si Si7 0.819060 0.803716 0.885260
Si Si8 0.178122 0.354334 0.438690
O O1 0.500000 0.533988 0.115667
O O2 0.756863 0.550628 0.159629
O O3 0.734398 0.619553 0.079306
O O4 0.739189 0.443988 0.086482
O O5 0.750000 0.538128 0.250000
O O6 0.500000 0.505036 0.294723
O O7 0.740521 0.393948 0.301956
O O8 0.219833 0.775950 0.044166
O O9 0.000000 0.882900 0.015511
O O10 0.229179 0.949422 0.063433
O O11 0.276061 0.895935 0.981035
O O12 0.500000 0.974251 0.936709
O O13 0.731363 0.897846 0.893731
O O14 0.500000 0.713611 0.046220
O O15 0.298721 0.634770 0.992388
O O16 0.750000 0.248918 0.250000
O O17 0.500000 0.290054 0.292793
O O18 0.741454 0.232079 0.337185
O O19 0.779781 0.730253 0.923350
O O20 0.000000 0.821447 0.885803
O O21 0.000000 0.335489 0.426882
#
# Coordination Sequence:
#
# PCOD8218592 Si02
#       8
#     8   8   8   8   8   8   8   8
#     4  10  20  33  50  73 101 137 175 210 249 298
#     4  10  19  33  50  71  97 129 168 212 258 301
#     4  11  21  34  51  73  99 129 165 210 254 291
#     4  11  21  34  52  73  97 130 167 204 248 300
#     4  10  20  34  50  71 102 138 176 212 248 294
#     4   9  19  32  48  70  99 131 165 206 251 298
#     4  11  20  32  49  74 104 133 167 209 252 296
#     4  10  19  31  48  70 100 139 176 207 241 292
#
# _framework density 16.836112
#
# number of rings (size 3 to 8) (size 9 to 14) (size 15 to 20)
#    0.000    1.750    2.500    4.125    0.000    3.500 
#    0.000    0.000    0.000    2.250    0.000    0.875 
#    0.000    2.000    0.000    0.000    0.000    0.000 
#
# Total GULP energy -793755.266566 kJ/mol
# GULP energy per Si atom -12402.426040 kJ/mol
# Density = 1.679779 g / cm^3
# Si number density = 16.836112 Si / 1000 Ang^3
#
#
#
# Elastic Constant Matrix: (Units=GPa)
#
#
# Indices 1 2 3 4 5 6 
#
# 1 48.8631 18.0512 23.2321 0.0000 0.0000 0.0000
# 2 18.0512 75.0922 37.8297 0.0000 0.0000 0.0000
# 3 23.2321 37.8297 116.4858 0.0000 0.0000 0.0000
# 4 0.0000 0.0000 0.0000 22.2052 0.0000 0.0000
# 5 0.0000 0.0000 0.0000 0.0000 26.4653 0.0000
# 6 0.0000 0.0000 0.0000 0.0000 0.0000 19.8525
#
#
#
# Elastic Compliance Matrix: (Units=1/GPa)
#
#
# Indices 1 2 3 4 5 6 
#
# 1 0.023545 -0.003939 -0.003417 0.000000 0.000000 0.000000
# 2 -0.003939 0.016581 -0.004599 0.000000 0.000000 0.000000
# 3 -0.003417 -0.004599 0.010760 0.000000 0.000000 0.000000
# 4 0.000000 0.000000 0.000000 0.045034 0.000000 0.000000
# 5 0.000000 0.000000 0.000000 0.000000 0.037785 0.000000
# 6 0.000000 0.000000 0.000000 0.000000 0.000000 0.050371
#
#
# Mechanical properties :
#
#
# Convention : Reuss Voigt Hill
#
# Bulk Modulus (GPa) = 37.06957 44.29634 40.68295
# Shear Modulus (GPa) = 23.04385 24.45983 23.75184
#
# Velocity S-wave (km/s) = 3.70363 3.81572 3.76009
# Velocity P-wave (km/s) = 6.35255 6.76612 6.56259
#
# Compressibility (1/GPa) = 0.02697630
#
# Stress axis : x y z
#
# Youngs Moduli (GPa) = 42.47215 60.31101 92.93855
#
# Poissons Ratio (x) = 0.23754 0.31755
# Poissons Ratio (y) = 0.16728 0.42744
# Poissons Ratio (z) = 0.14512 0.27738
#
# Static dielectric constant tensor:
#      x y z
#    x 3.105620 0.000000 0.000000 
#    y 0.000000 3.138610 0.000000 
#    z 0.000000 0.000000 3.221710 
# 
# 
# High freq. dielectric constant tensor:
#      x y z
#    x 1.653380 0.000000 0.000000 
#    y 0.000000 1.627740 0.000000 
#    z 0.000000 0.000000 1.636460 
# 
# From -- ./inp_files/38408.got.cif
#   From: 2010.03.12/outbox.cif.g09.slc.cpg/sg53_20_cif.got.tgz:38408.got - 2010.04.16 14:36:59.
