data_PCOD8218366
_publ_section_title
;
Structure prediction by ZEFSAII (Michael W. Deem and Ramdas Pophale) SiO2 
 PCOD8218366
Probable space group: P M N A
;
_chemical_formula_sum "Si O2"
_cell_formula_units_Z 40
_cell_length_a 26.493914
_cell_length_b 17.128766
_cell_length_c 5.061690
_cell_angle_alpha 90.000000
_cell_angle_beta 90.000000
_cell_angle_gamma 90.000000
_cell_volume 2297.035685
_symmetry_space_group_name_H-M "P M N A"
_symmetry_group_IT_number 53
_symmetry_cell_setting 'orthorhombic'
loop_
_space_group_symop_operation_xyz
x,y,z
1/2-x,-y,1/2+z
x,-y,-z
1/2-x,y,1/2-z
-x,-y,-z
1/2+x,y,1/2-z
-x,y,z
1/2+x,-y,1/2+z
loop_
_atom_site_type_symbol
_atom_site_label
_atom_site_fract_x
_atom_site_fract_y
_atom_site_fract_z
Si Si1 0.558005 0.579927 0.124175
Si Si2 0.192733 0.553357 0.751511
Si Si3 0.399233 0.347243 0.361171
Si Si4 0.558106 0.916172 0.061473
Si Si5 0.058839 0.816557 0.955450
O O1 0.500000 0.571511 0.201723
O O2 0.586664 0.596622 0.395720
O O3 0.580089 0.500000 0.000000
O O4 0.564508 0.644752 0.895208
O O5 0.180686 0.500000 0.500000
O O6 0.250000 0.585032 0.750000
O O7 0.157109 0.630108 0.764584
O O8 0.182251 0.500000 0.000000
O O9 0.405217 0.258941 0.461218
O O10 0.500000 0.933207 0.125565
O O11 0.580682 0.874731 0.321014
O O12 0.565507 0.858094 0.821480
O O13 0.584454 0.000000 0.000000
O O14 0.000000 0.793324 0.008664
#
# Coordination Sequence:
#
# PCOD8218366 Si02
#       5
#     8   8   8   8   8
#     4  11  22  33  46  66  95 133 169 195 229 286
#     4  10  21  37  55  72  91 123 168 212 252 292
#     4  12  21  33  50  70  98 127 161 206 253 288
#     4   9  17  30  46  64  91 128 164 192 222 271
#     4  10  19  29  44  68  96 126 158 193 235 281
#
# _framework density 17.413747999999998
#
# number of rings (size 3 to 8) (size 9 to 14) (size 15 to 20)
#    0.000    1.600    0.000    7.200    0.000    5.600 
#    0.000    0.000    0.000    0.000    0.000    0.000 
#    0.000    3.200    0.000    0.200    0.000    0.000 
#
# Total GULP energy -495967.504234 kJ/mol
# GULP energy per Si atom -12399.187606 kJ/mol
# Density = 1.737411 g / cm^3
# Si number density = 17.413748 Si / 1000 Ang^3
#
#
#
# Elastic Constant Matrix: (Units=GPa)
#
#
# Indices 1 2 3 4 5 6 
#
# 1 65.2687 35.2212 16.1453 0.0000 0.0000 0.0000
# 2 35.2212 77.9146 -1.6073 0.0000 0.0000 0.0000
# 3 16.1453 -1.6073 87.7954 0.0000 0.0000 0.0000
# 4 0.0000 0.0000 0.0000 25.0552 0.0000 0.0000
# 5 0.0000 0.0000 0.0000 0.0000 18.2524 0.0000
# 6 0.0000 0.0000 0.0000 0.0000 0.0000 16.5654
#
#
#
# Elastic Compliance Matrix: (Units=1/GPa)
#
#
# Indices 1 2 3 4 5 6 
#
# 1 0.021690 -0.009891 -0.004170 0.000000 0.000000 0.000000
# 2 -0.009891 0.017350 0.002137 0.000000 0.000000 0.000000
# 3 -0.004170 0.002137 0.012196 0.000000 0.000000 0.000000
# 4 0.000000 0.000000 0.000000 0.039912 0.000000 0.000000
# 5 0.000000 0.000000 0.000000 0.000000 0.054787 0.000000
# 6 0.000000 0.000000 0.000000 0.000000 0.000000 0.060367
#
#
# Mechanical properties :
#
#
# Convention : Reuss Voigt Hill
#
# Bulk Modulus (GPa) = 36.51302 36.72191 36.61747
# Shear Modulus (GPa) = 20.89600 24.05590 22.47595
#
# Velocity S-wave (km/s) = 3.46782 3.72079 3.59653
# Velocity P-wave (km/s) = 6.08669 6.29228 6.19034
#
# Compressibility (1/GPa) = 0.02738749
#
# Stress axis : x y z
#
# Youngs Moduli (GPa) = 46.10344 57.63716 81.99377
#
# Poissons Ratio (x) = 0.57010 0.34190
# Poissons Ratio (y) = 0.45602 -0.17519
# Poissons Ratio (z) = 0.19224 -0.12315
#
# Static dielectric constant tensor:
#      x y z
#    x 2.984270 0.000000 0.000000 
#    y 0.000000 3.257790 0.000000 
#    z 0.000000 0.000000 3.461350 
# 
# 
# High freq. dielectric constant tensor:
#      x y z
#    x 1.620290 0.000000 0.000000 
#    y 0.000000 1.661420 0.000000 
#    z 0.000000 0.000000 1.703340 
# 
# From -- ./inp_files/4374.got.cif
#   From: 2010.03.12/outbox.cif.g09.slc.cpg/sg53_3_cif.got.tgz:4374.got - 2010.04.16 14:36:59.
