data_PCOD8218867
_publ_section_title
;
Structure prediction by ZEFSAII (Michael W. Deem and Ramdas Pophale) SiO2 
 PCOD8218867
Probable space group: P M N A
;
_chemical_formula_sum "Si O2"
_cell_formula_units_Z 56
_cell_length_a 9.160076
_cell_length_b 19.164220
_cell_length_c 18.425233
_cell_angle_alpha 90.000000
_cell_angle_beta 90.000000
_cell_angle_gamma 90.000000
_cell_volume 3234.470640
_symmetry_space_group_name_H-M "P M N A"
_symmetry_group_IT_number 53
_symmetry_cell_setting 'orthorhombic'
loop_
_space_group_symop_operation_xyz
x,y,z
1/2-x,-y,1/2+z
x,-y,-z
1/2-x,y,1/2-z
-x,-y,-z
1/2+x,y,1/2-z
-x,y,z
1/2+x,-y,1/2+z
loop_
_atom_site_type_symbol
_atom_site_label
_atom_site_fract_x
_atom_site_fract_y
_atom_site_fract_z
Si Si1 0.329586 0.529296 0.820986
Si Si2 0.165521 0.432883 0.045605
Si Si3 0.665812 0.050891 0.067859
Si Si4 0.837464 0.695411 0.058129
Si Si5 0.666613 0.855767 0.465262
Si Si6 0.825375 0.949712 0.171311
Si Si7 0.331388 0.630152 0.180399
O O1 0.250000 0.557632 0.750000
O O2 0.500000 0.539020 0.810708
O O3 0.272945 0.575554 0.886877
O O4 0.284302 0.449155 0.836280
O O5 0.000000 0.446515 0.071663
O O6 0.218929 0.500000 0.000000
O O7 0.180573 0.359457 0.006162
O O8 0.500000 0.066071 0.093900
O O9 0.757836 0.020276 0.135890
O O10 0.740307 0.119881 0.034981
O O11 0.667144 0.000000 0.000000
O O12 0.811945 0.773272 0.031548
O O13 0.712344 0.679880 0.115350
O O14 0.000000 0.687426 0.092207
O O15 0.500000 0.878380 0.479068
O O16 0.712709 0.887168 0.385962
O O17 0.750000 0.934965 0.250000
O O18 0.000000 0.957583 0.182250
O O19 0.250000 0.659675 0.250000
O O20 0.500000 0.636289 0.195944
#
# Coordination Sequence:
#
# PCOD8218867 Si02
#       7
#     8   8   8   8   8   8   8
#     4  10  20  33  51  72  96 125 163 212 264 315
#     4  10  19  32  52  75 100 132 172 219 264 308
#     4   9  17  31  52  76 101 131 168 207 244 289
#     4  10  20  34  51  73 103 138 174 212 258 308
#     4   9  19  34  51  73 104 141 174 207 251 303
#     4  10  19  32  52  78 107 137 170 206 246 293
#     4  10  20  32  47  68  96 130 167 208 255 309
#
# _framework density 17.313497999999999
#
# number of rings (size 3 to 8) (size 9 to 14) (size 15 to 20)
#    0.000    2.286    1.429    1.714    0.000    5.429 
#    0.000    1.429    0.000    0.857    0.000    4.000 
#    0.000    0.000    0.000    0.000    0.000    0.000 
#
# Total GULP energy -694197.259158 kJ/mol
# GULP energy per Si atom -12396.379628 kJ/mol
# Density = 1.727409 g / cm^3
# Si number density = 17.313498 Si / 1000 Ang^3
#
#
#
# Elastic Constant Matrix: (Units=GPa)
#
#
# Indices 1 2 3 4 5 6 
#
# 1 87.9986 39.1683 50.9227 0.0000 0.0000 0.0000
# 2 39.1683 83.2112 50.2311 0.0000 0.0000 0.0000
# 3 50.9227 50.2311 88.4503 0.0000 0.0000 0.0000
# 4 0.0000 0.0000 0.0000 16.7486 0.0000 0.0000
# 5 0.0000 0.0000 0.0000 0.0000 37.4504 0.0000
# 6 0.0000 0.0000 0.0000 0.0000 0.0000 22.3189
#
#
#
# Elastic Compliance Matrix: (Units=1/GPa)
#
#
# Indices 1 2 3 4 5 6 
#
# 1 0.017618 -0.003302 -0.008268 0.000000 0.000000 0.000000
# 2 -0.003302 0.018905 -0.008835 0.000000 0.000000 0.000000
# 3 -0.008268 -0.008835 0.021083 0.000000 0.000000 0.000000
# 4 0.000000 0.000000 0.000000 0.059706 0.000000 0.000000
# 5 0.000000 0.000000 0.000000 0.000000 0.026702 0.000000
# 6 0.000000 0.000000 0.000000 0.000000 0.000000 0.044805
#
#
# Mechanical properties :
#
#
# Convention : Reuss Voigt Hill
#
# Bulk Modulus (GPa) = 59.53680 60.03381 59.78531
# Shear Modulus (GPa) = 21.25585 23.25945 22.25765
#
# Velocity S-wave (km/s) = 3.50766 3.66926 3.58937
# Velocity P-wave (km/s) = 7.13212 7.25955 7.19612
#
# Compressibility (1/GPa) = 0.01679633
#
# Stress axis : x y z
#
# Youngs Moduli (GPa) = 56.76041 52.89479 47.43077
#
# Poissons Ratio (x) = 0.17466 0.39215
# Poissons Ratio (y) = 0.18742 0.41907
# Poissons Ratio (z) = 0.46928 0.46735
#
# Static dielectric constant tensor:
#      x y z
#    x 3.379350 0.000000 0.000000 
#    y 0.000000 3.062490 0.000000 
#    z 0.000000 0.000000 3.312430 
# 
# 
# High freq. dielectric constant tensor:
#      x y z
#    x 1.679980 0.000000 0.000000 
#    y 0.000000 1.643510 0.000000 
#    z 0.000000 0.000000 1.659760 
# 
# From -- ./inp_files/26646.got.cif
#   From: 2010.03.12/outbox.cif.g09.slc.cpg/sg53_14_cif.got.tgz:26646.got - 2010.04.16 14:36:59.
