data_PCOD8218687
_publ_section_title
;
Structure prediction by ZEFSAII (Michael W. Deem and Ramdas Pophale) SiO2 
 PCOD8218687
Probable space group: P M N A
;
_chemical_formula_sum "Si O2"
_cell_formula_units_Z 64
_cell_length_a 8.917883
_cell_length_b 26.989567
_cell_length_c 14.736600
_cell_angle_alpha 90.000000
_cell_angle_beta 90.000000
_cell_angle_gamma 90.000000
_cell_volume 3546.949317
_symmetry_space_group_name_H-M "P M N A"
_symmetry_group_IT_number 53
_symmetry_cell_setting 'orthorhombic'
loop_
_space_group_symop_operation_xyz
x,y,z
1/2-x,-y,1/2+z
x,-y,-z
1/2-x,y,1/2-z
-x,-y,-z
1/2+x,y,1/2-z
-x,y,z
1/2+x,-y,1/2+z
loop_
_atom_site_type_symbol
_atom_site_label
_atom_site_fract_x
_atom_site_fract_y
_atom_site_fract_z
Si Si1 0.823629 0.579292 0.341331
Si Si2 0.822543 0.886357 0.527981
Si Si3 0.324046 0.467574 0.158981
Si Si4 0.173571 0.694950 0.842480
Si Si5 0.336439 0.022939 0.401946
Si Si6 0.821809 0.081374 0.841635
Si Si7 0.675842 0.619679 0.970107
Si Si8 0.324338 0.189689 0.343933
O O1 0.750000 0.600789 0.250000
O O2 0.766474 0.523292 0.361272
O O3 0.777382 0.614622 0.424666
O O4 0.000000 0.579164 0.327988
O O5 0.782160 0.932300 0.595013
O O6 0.751170 0.892172 0.428529
O O7 0.755331 0.836988 0.571898
O O8 0.000000 0.882404 0.518781
O O9 0.250000 0.446351 0.250000
O O10 0.500000 0.467402 0.173287
O O11 0.276581 0.431781 0.077263
O O12 0.250000 0.676150 0.750000
O O13 0.237534 0.666050 0.928721
O O14 0.206200 0.752495 0.859069
O O15 0.000000 0.683355 0.832460
O O16 0.500000 0.043234 0.369722
O O17 0.357036 0.000000 0.500000
O O18 0.281590 0.977444 0.339436
O O19 0.750000 0.104348 0.750000
O O20 0.000000 0.090183 0.844355
O O21 0.500000 0.629337 0.958641
O O22 0.250000 0.171643 0.250000
O O23 0.500000 0.177001 0.341465
#
# Coordination Sequence:
#
# PCOD8218687 Si02
#       8
#     8   8   8   8   8   8   8   8
#     4   9  18  32  48  68  97 134 172 208 245 287
#     4  11  21  33  53  79 106 137 173 213 257 306
#     4   9  17  29  45  68  99 133 167 202 243 291
#     4  10  21  36  55  78 103 129 159 201 251 304
#     4   8  16  31  48  68  99 136 171 209 249 290
#     4  10  20  34  52  75 106 143 180 216 254 298
#     4  10  19  31  50  73  99 132 167 205 249 298
#     4  10  21  38  57  77 102 131 164 205 254 306
#
# _framework density 18.043673999999999
#
# number of rings (size 3 to 8) (size 9 to 14) (size 15 to 20)
#    0.000    2.375    0.000    3.750    0.000    8.250 
#    0.000    1.250    0.000    4.500    0.000    1.750 
#    0.000    0.000    0.000    0.000    0.000    0.000 
#
# Total GULP energy -793505.892183 kJ/mol
# GULP energy per Si atom -12398.529565 kJ/mol
# Density = 1.800261 g / cm^3
# Si number density = 18.043674 Si / 1000 Ang^3
#
#
#
# Elastic Constant Matrix: (Units=GPa)
#
#
# Indices 1 2 3 4 5 6 
#
# 1 98.1550 46.9832 64.5373 0.0000 0.0000 0.0000
# 2 46.9832 68.2626 57.5568 0.0000 0.0000 0.0000
# 3 64.5373 57.5568 137.6014 0.0000 0.0000 0.0000
# 4 0.0000 0.0000 0.0000 27.7969 0.0000 0.0000
# 5 0.0000 0.0000 0.0000 0.0000 31.8208 0.0000
# 6 0.0000 0.0000 0.0000 0.0000 0.0000 27.7543
#
#
#
# Elastic Compliance Matrix: (Units=1/GPa)
#
#
# Indices 1 2 3 4 5 6 
#
# 1 0.016994 -0.007687 -0.004755 0.000000 0.000000 0.000000
# 2 -0.007687 0.026108 -0.007315 0.000000 0.000000 0.000000
# 3 -0.004755 -0.007315 0.012557 0.000000 0.000000 0.000000
# 4 0.000000 0.000000 0.000000 0.035975 0.000000 0.000000
# 5 0.000000 0.000000 0.000000 0.000000 0.031426 0.000000
# 6 0.000000 0.000000 0.000000 0.000000 0.000000 0.036030
#
#
# Mechanical properties :
#
#
# Convention : Reuss Voigt Hill
#
# Bulk Modulus (GPa) = 61.94013 71.35263 66.64638
# Shear Modulus (GPa) = 24.51128 26.47053 25.49090
#
# Velocity S-wave (km/s) = 3.68970 3.83433 3.76271
# Velocity P-wave (km/s) = 7.24943 7.69630 7.47621
#
# Compressibility (1/GPa) = 0.01614462
#
# Stress axis : x y z
#
# Youngs Moduli (GPa) = 58.84428 38.30214 79.63424
#
# Poissons Ratio (x) = 0.29444 0.37866
# Poissons Ratio (y) = 0.45235 0.58255
# Poissons Ratio (z) = 0.27980 0.28019
#
# Static dielectric constant tensor:
#      x y z
#    x 3.337100 0.000000 0.000000 
#    y 0.000000 3.238230 0.000000 
#    z 0.000000 0.000000 3.344550 
# 
# 
# High freq. dielectric constant tensor:
#      x y z
#    x 1.701880 0.000000 0.000000 
#    y 0.000000 1.675470 0.000000 
#    z 0.000000 0.000000 1.696780 
# 
# From -- ./inp_files/21028.got.cif
#   From: 2010.03.12/outbox.cif.g09.slc.cpg/sg53_11_cif.got.tgz:21028.got - 2010.04.16 14:36:59.
