data_PCOD8218960
_publ_section_title
;
Structure prediction by ZEFSAII (Michael W. Deem and Ramdas Pophale) SiO2 
 PCOD8218960
Probable space group: P M N A
;
_chemical_formula_sum "Si O2"
_cell_formula_units_Z 48
_cell_length_a 9.215226
_cell_length_b 9.517178
_cell_length_c 30.281416
_cell_angle_alpha 90.000000
_cell_angle_beta 90.000000
_cell_angle_gamma 90.000000
_cell_volume 2655.769397
_symmetry_space_group_name_H-M "P M N A"
_symmetry_group_IT_number 53
_symmetry_cell_setting 'orthorhombic'
loop_
_space_group_symop_operation_xyz
x,y,z
1/2-x,-y,1/2+z
x,-y,-z
1/2-x,y,1/2-z
-x,-y,-z
1/2+x,y,1/2-z
-x,y,z
1/2+x,-y,1/2+z
loop_
_atom_site_type_symbol
_atom_site_label
_atom_site_fract_x
_atom_site_fract_y
_atom_site_fract_z
Si Si1 0.665703 0.405909 0.353116
Si Si2 0.666661 0.811016 0.570409
Si Si3 0.331261 0.201295 0.205309
Si Si4 0.328129 0.350426 0.514554
Si Si5 0.670526 0.708396 0.387700
Si Si6 0.668565 0.017590 0.871372
O O1 0.500000 0.388918 0.337301
O O2 0.689910 0.325435 0.399140
O O3 0.768726 0.345383 0.314989
O O4 0.706105 0.567790 0.360539
O O5 0.500000 0.861150 0.571716
O O6 0.714548 0.768725 0.521000
O O7 0.764628 0.940502 0.585925
O O8 0.250000 0.161797 0.250000
O O9 0.500000 0.223559 0.214876
O O10 0.301531 0.073806 0.172036
O O11 0.259944 0.500000 0.500000
O O12 0.500000 0.368197 0.517246
O O13 0.268723 0.305615 0.562374
O O14 0.500000 0.740610 0.387553
O O15 0.754487 0.833747 0.363584
O O16 0.500000 0.040779 0.880121
#
# Coordination Sequence:
#
# PCOD8218960 Si02
#       6
#     8   8   8   8   8   8
#     4   9  17  31  54  81 106 133 169 213 260 309
#     4   9  16  30  53  76 101 138 182 224 259 298
#     4  10  21  38  60  81 101 130 169 212 259 316
#     4   9  15  27  50  79 106 135 180 231 264 291
#     4  10  19  32  53  80 108 140 178 218 260 304
#     4  10  22  37  51  73 109 145 174 212 265 317
#
# _framework density 18.073858999999999
#
# number of rings (size 3 to 8) (size 9 to 14) (size 15 to 20)
#    0.000    2.500    1.667    1.000    0.000    3.333 
#    0.000    5.000    0.000    3.000    0.000    0.000 
#    0.000    0.000    0.000    0.000    0.000    0.000 
#
# Total GULP energy -595286.985300 kJ/mol
# GULP energy per Si atom -12401.812194 kJ/mol
# Density = 1.803272 g / cm^3
# Si number density = 18.073859 Si / 1000 Ang^3
#
#
#
# Elastic Constant Matrix: (Units=GPa)
#
#
# Indices 1 2 3 4 5 6 
#
# 1 83.4503 59.5040 46.3050 0.0000 0.0000 0.0000
# 2 59.5040 123.4582 36.8934 0.0000 0.0000 0.0000
# 3 46.3050 36.8934 86.9809 0.0000 0.0000 0.0000
# 4 0.0000 0.0000 0.0000 14.7539 0.0000 0.0000
# 5 0.0000 0.0000 0.0000 0.0000 18.7867 0.0000
# 6 0.0000 0.0000 0.0000 0.0000 0.0000 21.5946
#
#
#
# Elastic Compliance Matrix: (Units=1/GPa)
#
#
# Indices 1 2 3 4 5 6 
#
# 1 0.022697 -0.008392 -0.008523 0.000000 0.000000 0.000000
# 2 -0.008392 0.012379 -0.000783 0.000000 0.000000 0.000000
# 3 -0.008523 -0.000783 0.016366 0.000000 0.000000 0.000000
# 4 0.000000 0.000000 0.000000 0.067779 0.000000 0.000000
# 5 0.000000 0.000000 0.000000 0.000000 0.053229 0.000000
# 6 0.000000 0.000000 0.000000 0.000000 0.000000 0.046308
#
#
# Mechanical properties :
#
#
# Convention : Reuss Voigt Hill
#
# Bulk Modulus (GPa) = 62.32423 64.36604 63.34513
# Shear Modulus (GPa) = 19.26770 21.10618 20.18694
#
# Velocity S-wave (km/s) = 3.26859 3.42098 3.34565
# Velocity P-wave (km/s) = 6.98590 7.16200 7.07450
#
# Compressibility (1/GPa) = 0.01604512
#
# Stress axis : x y z
#
# Youngs Moduli (GPa) = 44.05963 80.78395 61.10181
#
# Poissons Ratio (x) = 0.67796 0.52077
# Poissons Ratio (y) = 0.36976 0.04783
# Poissons Ratio (z) = 0.37552 0.06324
#
# Static dielectric constant tensor:
#      x y z
#    x 3.152870 0.000000 0.000000 
#    y 0.000000 3.288300 0.000000 
#    z 0.000000 0.000000 3.277090 
# 
# 
# High freq. dielectric constant tensor:
#      x y z
#    x 1.678630 0.000000 0.000000 
#    y 0.000000 1.700590 0.000000 
#    z 0.000000 0.000000 1.690780 
# 
# From -- ./inp_files/37701.got.cif
#   From: 2010.03.12/outbox.cif.g09.slc.cpg/sg53_19_cif.got.tgz:37701.got - 2010.04.16 14:36:59.
