data_PCOD8218130
_publ_section_title
;
Structure prediction by ZEFSAII (Michael W. Deem and Ramdas Pophale) SiO2 
 PCOD8218130
Probable space group: P M N A
;
_chemical_formula_sum "Si O2"
_cell_formula_units_Z 64
_cell_length_a 8.732355
_cell_length_b 20.040624
_cell_length_c 19.777534
_cell_angle_alpha 90.000000
_cell_angle_beta 90.000000
_cell_angle_gamma 90.000000
_cell_volume 3461.104904
_symmetry_space_group_name_H-M "P M N A"
_symmetry_group_IT_number 53
_symmetry_cell_setting 'orthorhombic'
loop_
_space_group_symop_operation_xyz
x,y,z
1/2-x,-y,1/2+z
x,-y,-z
1/2-x,y,1/2-z
-x,-y,-z
1/2+x,y,1/2-z
-x,y,z
1/2+x,-y,1/2+z
loop_
_atom_site_type_symbol
_atom_site_label
_atom_site_fract_x
_atom_site_fract_y
_atom_site_fract_z
Si Si1 0.320444 0.149977 0.178789
Si Si2 0.672455 0.268583 0.090604
Si Si3 0.180212 0.033461 0.412857
Si Si4 0.319936 0.630242 0.420241
Si Si5 0.678972 0.597838 0.569505
Si Si6 0.327880 0.767419 0.064199
Si Si7 0.680431 0.904731 0.454557
Si Si8 0.819721 0.511040 0.175077
O O1 0.250000 0.161428 0.250000
O O2 0.500000 0.158676 0.180642
O O3 0.252761 0.208431 0.132303
O O4 0.276972 0.076801 0.152401
O O5 0.500000 0.287509 0.113293
O O6 0.781766 0.331399 0.102691
O O7 0.672166 0.243613 0.014851
O O8 0.228091 0.078006 0.477231
O O9 0.000000 0.017874 0.418527
O O10 0.276275 0.965335 0.404096
O O11 0.500000 0.640933 0.428730
O O12 0.257015 0.597871 0.491514
O O13 0.246848 0.701900 0.402014
O O14 0.279639 0.583041 0.356879
O O15 0.500000 0.585110 0.566009
O O16 0.748570 0.541935 0.620161
O O17 0.500000 0.776125 0.092447
O O18 0.232846 0.834957 0.079034
O O19 0.500000 0.902977 0.468541
O O20 0.750000 0.503081 0.250000
O O21 0.000000 0.500874 0.183046
#
# Coordination Sequence:
#
# PCOD8218130 Si02
#       8
#     8   8   8   8   8   8   8   8
#     4  10  21  35  50  69  99 140 178 211 251 302
#     4   9  18  33  49  71 102 134 169 209 252 303
#     4  10  19  34  51  71 102 138 172 211 259 305
#     4   9  18  34  55  79 104 135 176 223 268 311
#     4   9  18  33  54  78 102 136 177 219 264 310
#     4  10  18  32  53  77 106 135 165 208 263 316
#     4  11  20  30  50  80 106 130 166 214 259 305
#     4  10  21  36  54  76 107 140 175 218 266 323
#
# _framework density 18.491204
#
# number of rings (size 3 to 8) (size 9 to 14) (size 15 to 20)
#    0.000    2.250    1.250    3.000    0.000    5.000 
#    0.000    2.500    0.000    4.500    0.000    5.250 
#    0.000    0.000    0.000    0.000    0.000    0.000 
#
# Total GULP energy -793214.043606 kJ/mol
# GULP energy per Si atom -12393.969431 kJ/mol
# Density = 1.844912 g / cm^3
# Si number density = 18.491204 Si / 1000 Ang^3
#
#
#
# Elastic Constant Matrix: (Units=GPa)
#
#
# Indices 1 2 3 4 5 6 
#
# 1 39.9180 28.0869 11.8770 0.0000 0.0000 0.0000
# 2 28.0869 114.5252 29.3796 0.0000 0.0000 0.0000
# 3 11.8770 29.3796 49.9924 0.0000 0.0000 0.0000
# 4 0.0000 0.0000 0.0000 21.1695 0.0000 0.0000
# 5 0.0000 0.0000 0.0000 0.0000 14.1842 0.0000
# 6 0.0000 0.0000 0.0000 0.0000 0.0000 27.4004
#
#
#
# Elastic Compliance Matrix: (Units=1/GPa)
#
#
# Indices 1 2 3 4 5 6 
#
# 1 0.030754 -0.006674 -0.003384 0.000000 0.000000 0.000000
# 2 -0.006674 0.011730 -0.005308 0.000000 0.000000 0.000000
# 3 -0.003384 -0.005308 0.023926 0.000000 0.000000 0.000000
# 4 0.000000 0.000000 0.000000 0.047238 0.000000 0.000000
# 5 0.000000 0.000000 0.000000 0.000000 0.070501 0.000000
# 6 0.000000 0.000000 0.000000 0.000000 0.000000 0.036496
#
#
# Mechanical properties :
#
#
# Convention : Reuss Voigt Hill
#
# Bulk Modulus (GPa) = 28.02832 38.12473 33.07653
# Shear Modulus (GPa) = 18.99181 21.55695 20.27438
#
# Velocity S-wave (km/s) = 3.20827 3.41808 3.31484
# Velocity P-wave (km/s) = 5.37723 6.01998 5.70766
#
# Compressibility (1/GPa) = 0.03567820
#
# Stress axis : x y z
#
# Youngs Moduli (GPa) = 32.51572 85.24992 41.79474
#
# Poissons Ratio (x) = 0.56898 0.14144
# Poissons Ratio (y) = 0.21702 0.22185
# Poissons Ratio (z) = 0.11004 0.45251
#
# Static dielectric constant tensor:
#      x y z
#    x 3.356720 0.000000 0.000000 
#    y 0.000000 3.852100 0.000000 
#    z 0.000000 0.000000 3.164380 
# 
# 
# High freq. dielectric constant tensor:
#      x y z
#    x 1.709630 0.000000 0.000000 
#    y 0.000000 1.732650 0.000000 
#    z 0.000000 0.000000 1.681060 
# 
# From -- ./inp_files/31371.got.cif
#   From: 2010.03.12/outbox.cif.g09.slc.cpg/sg53_16_cif.got.tgz:31371.got - 2010.04.16 14:36:59.
