data_PCOD8218669
_publ_section_title
;
Structure prediction by ZEFSAII (Michael W. Deem and Ramdas Pophale) SiO2 
 PCOD8218669
Probable space group: P M N A
;
_chemical_formula_sum "Si O2"
_cell_formula_units_Z 64
_cell_length_a 8.677117
_cell_length_b 14.338286
_cell_length_c 27.875939
_cell_angle_alpha 90.000000
_cell_angle_beta 90.000000
_cell_angle_gamma 90.000000
_cell_volume 3468.184538
_symmetry_space_group_name_H-M "P M N A"
_symmetry_group_IT_number 53
_symmetry_cell_setting 'orthorhombic'
loop_
_space_group_symop_operation_xyz
x,y,z
1/2-x,-y,1/2+z
x,-y,-z
1/2-x,y,1/2-z
-x,-y,-z
1/2+x,y,1/2-z
-x,y,z
1/2+x,-y,1/2+z
loop_
_atom_site_type_symbol
_atom_site_label
_atom_site_fract_x
_atom_site_fract_y
_atom_site_fract_z
Si Si1 0.679113 0.855753 0.925387
Si Si2 0.323754 0.537492 0.118175
Si Si3 0.681763 0.849829 0.198498
Si Si4 0.175968 0.640698 0.032157
Si Si5 0.823230 0.856285 0.025586
Si Si6 0.819249 0.346513 0.801008
Si Si7 0.180130 0.972508 0.117798
Si Si8 0.322257 0.354305 0.067268
O O1 0.500000 0.873653 0.916502
O O2 0.726591 0.748538 0.914868
O O3 0.775184 0.919196 0.888414
O O4 0.719488 0.882157 0.980087
O O5 0.500000 0.557889 0.132109
O O6 0.287356 0.588294 0.068455
O O7 0.215466 0.572543 0.160892
O O8 0.295289 0.426858 0.110620
O O9 0.750000 0.876216 0.250000
O O10 0.500000 0.840973 0.202651
O O11 0.748548 0.750849 0.180414
O O12 0.726364 0.931191 0.162151
O O13 0.199792 0.749976 0.041161
O O14 0.000000 0.610774 0.041557
O O15 0.220095 0.613811 0.977909
O O16 0.768497 0.919048 0.069743
O O17 0.000000 0.877003 0.011560
O O18 0.750000 0.376239 0.750000
O O19 0.000000 0.333292 0.795506
O O20 0.000000 0.961145 0.128103
O O21 0.500000 0.353288 0.050536
#
# Coordination Sequence:
#
# PCOD8218669 Si02
#       8
#     8   8   8   8   8   8   8   8
#     4  10  20  34  51  73 102 138 180 223 264 307
#     4  11  21  34  53  76 103 139 179 217 262 313
#     4  11  22  38  59  83 110 139 170 207 255 309
#     4  10  19  31  49  75 106 139 176 218 263 314
#     4   9  19  33  48  70 104 141 173 210 259 312
#     4  11  22  38  58  82 110 137 167 207 257 311
#     4  11  21  34  53  77 106 140 177 216 260 310
#     4   9  20  36  51  70 103 143 180 221 266 311
#
# _framework density 18.453458999999999
#
# number of rings (size 3 to 8) (size 9 to 14) (size 15 to 20)
#    0.000    1.750    0.000    6.000    0.000    7.000 
#    0.000    0.000    0.000    0.750    0.000    3.500 
#    0.000    0.000    0.000    0.000    0.000    0.000 
#
# Total GULP energy -793909.668934 kJ/mol
# GULP energy per Si atom -12404.838577 kJ/mol
# Density = 1.841146 g / cm^3
# Si number density = 18.453459 Si / 1000 Ang^3
#
#
#
# Elastic Constant Matrix: (Units=GPa)
#
#
# Indices 1 2 3 4 5 6 
#
# 1 99.9315 37.0229 38.6031 0.0000 0.0000 0.0000
# 2 37.0229 94.6227 64.1776 0.0000 0.0000 0.0000
# 3 38.6031 64.1776 81.4613 0.0000 0.0000 0.0000
# 4 0.0000 0.0000 0.0000 28.4311 0.0000 0.0000
# 5 0.0000 0.0000 0.0000 0.0000 31.8954 0.0000
# 6 0.0000 0.0000 0.0000 0.0000 0.0000 27.6677
#
#
#
# Elastic Compliance Matrix: (Units=1/GPa)
#
#
# Indices 1 2 3 4 5 6 
#
# 1 0.012400 -0.001860 -0.004410 0.000000 0.000000 0.000000
# 2 -0.001860 0.022974 -0.017218 0.000000 0.000000 0.000000
# 3 -0.004410 -0.017218 0.027931 0.000000 0.000000 0.000000
# 4 0.000000 0.000000 0.000000 0.035173 0.000000 0.000000
# 5 0.000000 0.000000 0.000000 0.000000 0.031352 0.000000
# 6 0.000000 0.000000 0.000000 0.000000 0.000000 0.036143
#
#
# Mechanical properties :
#
#
# Convention : Reuss Voigt Hill
#
# Bulk Modulus (GPa) = 61.24842 61.73585 61.49214
# Shear Modulus (GPa) = 22.89438 26.67964 24.78701
#
# Velocity S-wave (km/s) = 3.52611 3.80647 3.66897
# Velocity P-wave (km/s) = 7.05980 7.26956 7.16545
#
# Compressibility (1/GPa) = 0.01632695
#
# Stress axis : x y z
#
# Youngs Moduli (GPa) = 80.64645 43.52659 35.80260
#
# Poissons Ratio (x) = 0.08097 0.15791
# Poissons Ratio (y) = 0.15002 0.61646
# Poissons Ratio (z) = 0.35569 0.74946
#
# Static dielectric constant tensor:
#      x y z
#    x 3.450930 0.000000 0.000000 
#    y 0.000000 3.525680 0.000000 
#    z 0.000000 0.000000 3.188850 
# 
# 
# High freq. dielectric constant tensor:
#      x y z
#    x 1.727450 0.000000 0.000000 
#    y 0.000000 1.717560 0.000000 
#    z 0.000000 0.000000 1.692000 
# 
# From -- ./inp_files/34166.got.cif
#   From: 2010.03.12/outbox.cif.g09.slc.cpg/sg53_18_cif.got.tgz:34166.got - 2010.04.16 14:36:59.
