data_PCOD8218908
_publ_section_title
;
Structure prediction by ZEFSAII (Michael W. Deem and Ramdas Pophale) SiO2 
 PCOD8218908
Probable space group: P M N A
;
_chemical_formula_sum "Si O2"
_cell_formula_units_Z 64
_cell_length_a 23.198697
_cell_length_b 12.284928
_cell_length_c 12.181541
_cell_angle_alpha 90.000000
_cell_angle_beta 90.000000
_cell_angle_gamma 90.000000
_cell_volume 3471.670022
_symmetry_space_group_name_H-M "P M N A"
_symmetry_group_IT_number 53
_symmetry_cell_setting 'orthorhombic'
loop_
_space_group_symop_operation_xyz
x,y,z
1/2-x,-y,1/2+z
x,-y,-z
1/2-x,y,1/2-z
-x,-y,-z
1/2+x,y,1/2-z
-x,y,z
1/2+x,-y,1/2+z
loop_
_atom_site_type_symbol
_atom_site_label
_atom_site_fract_x
_atom_site_fract_y
_atom_site_fract_z
Si Si1 0.432568 0.330488 0.213538
Si Si2 0.848483 0.103793 0.573758
Si Si3 0.726576 0.125662 0.516755
Si Si4 0.566913 0.294773 0.961950
Si Si5 0.568196 0.427520 0.756170
Si Si6 0.368632 0.066357 0.680781
Si Si7 0.566504 0.750008 0.409543
Si Si8 0.370512 0.819817 0.624173
O O1 0.500000 0.302315 0.238645
O O2 0.413779 0.447342 0.262401
O O3 0.388730 0.240690 0.263906
O O4 0.421740 0.338247 0.083952
O O5 0.789653 0.172907 0.546736
O O6 0.902231 0.180985 0.556591
O O7 0.846302 0.056688 0.696409
O O8 0.859233 0.000000 0.500000
O O9 0.680401 0.132616 0.614244
O O10 0.698112 0.184185 0.408635
O O11 0.740883 0.000000 0.500000
O O12 0.500000 0.271538 0.942483
O O13 0.590821 0.382440 0.873720
O O14 0.500000 0.419453 0.758944
O O15 0.592675 0.354394 0.655888
O O16 0.424761 0.142429 0.666003
O O17 0.384746 0.948236 0.632343
O O18 0.500000 0.731028 0.430423
O O19 0.593949 0.761195 0.528953
#
# Coordination Sequence:
#
# PCOD8218908 Si02
#       8
#     8   8   8   8   8   8   8   8
#     4  10  20  34  54  79 109 145 184 229 277 325
#     4  11  20  32  53  80 106 141 178 221 276 325
#     4   8  18  34  52  75 102 136 180 218 260 322
#     4  10  20  35  52  79 110 140 184 229 276 330
#     4   9  18  34  54  77 104 141 189 228 263 320
#     4  10  19  33  51  75 109 141 179 216 265 331
#     4  10  19  32  52  78 107 143 182 219 269 329
#     4  10  20  34  51  80 112 142 176 225 273 325
#
# _framework density 18.434933000000001
#
# number of rings (size 3 to 8) (size 9 to 14) (size 15 to 20)
#    0.000    2.250    1.250    3.000    0.000    3.750 
#    0.000    3.750    0.000    0.000   19.500    0.000 
#    0.000    0.000    0.000    0.000    0.000    0.000 
#
# Total GULP energy -793133.396782 kJ/mol
# GULP energy per Si atom -12392.709325 kJ/mol
# Density = 1.839297 g / cm^3
# Si number density = 18.434933 Si / 1000 Ang^3
#
#
#
# Elastic Constant Matrix: (Units=GPa)
#
#
# Indices 1 2 3 4 5 6 
#
# 1 50.3625 19.6953 20.1858 0.0000 0.0000 0.0000
# 2 19.6953 79.2805 12.2634 0.0000 0.0000 0.0000
# 3 20.1858 12.2634 57.5001 0.0000 0.0000 0.0000
# 4 0.0000 0.0000 0.0000 29.3243 0.0000 0.0000
# 5 0.0000 0.0000 0.0000 0.0000 20.9471 0.0000
# 6 0.0000 0.0000 0.0000 0.0000 0.0000 10.8381
#
#
#
# Elastic Compliance Matrix: (Units=1/GPa)
#
#
# Indices 1 2 3 4 5 6 
#
# 1 0.024884 -0.004995 -0.007670 0.000000 0.000000 0.000000
# 2 -0.004995 0.014047 -0.001242 0.000000 0.000000 0.000000
# 3 -0.007670 -0.001242 0.020349 0.000000 0.000000 0.000000
# 4 0.000000 0.000000 0.000000 0.034101 0.000000 0.000000
# 5 0.000000 0.000000 0.000000 0.000000 0.047739 0.000000
# 6 0.000000 0.000000 0.000000 0.000000 0.000000 0.092267
#
#
# Mechanical properties :
#
#
# Convention : Reuss Voigt Hill
#
# Bulk Modulus (GPa) = 31.78250 32.38132 32.08191
# Shear Modulus (GPa) = 18.40330 21.22182 19.81256
#
# Velocity S-wave (km/s) = 3.16299 3.39658 3.28186
# Velocity P-wave (km/s) = 5.53328 5.74331 5.63927
#
# Compressibility (1/GPa) = 0.03146386
#
# Stress axis : x y z
#
# Youngs Moduli (GPa) = 40.18666 71.19185 49.14268
#
# Poissons Ratio (x) = 0.35563 0.37694
# Poissons Ratio (y) = 0.20075 0.06104
# Poissons Ratio (z) = 0.30824 0.08843
#
# Static dielectric constant tensor:
#      x y z
#    x 3.404890 0.000000 0.000000 
#    y 0.000000 3.385110 0.000000 
#    z 0.000000 0.000000 3.614470 
# 
# 
# High freq. dielectric constant tensor:
#      x y z
#    x 1.690680 0.000000 0.000000 
#    y 0.000000 1.698620 0.000000 
#    z 0.000000 0.000000 1.728290 
# 
# From -- ./inp_files/18856.got.cif
#   From: 2010.03.12/outbox.cif.g09.slc.cpg/sg53_10_cif.got.tgz:18856.got - 2010.04.16 14:36:59.
