data_PCOD8218481
_publ_section_title
;
Structure prediction by ZEFSAII (Michael W. Deem and Ramdas Pophale) SiO2 
 PCOD8218481
Probable space group: P M N A
;
_chemical_formula_sum "Si O2"
_cell_formula_units_Z 56
_cell_length_a 8.863293
_cell_length_b 20.422939
_cell_length_c 18.327173
_cell_angle_alpha 90.000000
_cell_angle_beta 90.000000
_cell_angle_gamma 90.000000
_cell_volume 3317.483915
_symmetry_space_group_name_H-M "P M N A"
_symmetry_group_IT_number 53
_symmetry_cell_setting 'orthorhombic'
loop_
_space_group_symop_operation_xyz
x,y,z
1/2-x,-y,1/2+z
x,-y,-z
1/2-x,y,1/2-z
-x,-y,-z
1/2+x,y,1/2-z
-x,y,z
1/2+x,-y,1/2+z
loop_
_atom_site_type_symbol
_atom_site_label
_atom_site_fract_x
_atom_site_fract_y
_atom_site_fract_z
Si Si1 0.321698 0.562273 0.540274
Si Si2 0.670769 0.071890 0.033104
Si Si3 0.178215 0.756779 0.326281
Si Si4 0.324212 0.118570 0.605710
Si Si5 0.322773 0.356607 0.588242
Si Si6 0.176105 0.023409 0.171759
Si Si7 0.824033 0.488316 0.826681
O O1 0.248601 0.500000 0.500000
O O2 0.500000 0.556756 0.532585
O O3 0.275158 0.628456 0.496819
O O4 0.274689 0.552526 0.624940
O O5 0.500000 0.097925 0.041443
O O6 0.750349 0.072247 0.112213
O O7 0.761591 0.118122 0.977066
O O8 0.672541 0.000000 0.000000
O O9 0.250000 0.734227 0.250000
O O10 0.236319 0.828197 0.347360
O O11 0.225492 0.705279 0.387943
O O12 0.000000 0.758712 0.317861
O O13 0.500000 0.136027 0.602561
O O14 0.294063 0.050724 0.647028
O O15 0.500000 0.340187 0.595790
O O16 0.277260 0.419772 0.636213
O O17 0.250000 0.036419 0.250000
O O18 0.000000 0.039156 0.176550
O O19 0.750000 0.497273 0.750000
O O20 0.000000 0.488242 0.814480
#
# Coordination Sequence:
#
# PCOD8218481 Si02
#       7
#     8   8   8   8   8   8   8
#     4   7  12  25  44  63  84 114 150 184 221 269
#     4   9  17  30  48  69  94 123 154 189 231 278
#     4  12  24  35  47  66  93 124 158 191 226 268
#     4  10  20  34  50  68  93 125 160 194 230 273
#     4   9  17  31  48  64  87 120 156 190 224 266
#     4  10  19  30  47  71  97 124 155 193 234 275
#     4   9  16  26  43  67  92 118 148 184 227 272
#
# _framework density 16.880262999999999
#
# number of rings (size 3 to 8) (size 9 to 14) (size 15 to 20)
#    0.000    2.571    0.000    5.143    0.000    6.286 
#    0.000    0.714    0.000    2.571    0.000    1.000 
#    0.000    2.286    0.000    0.000    0.000    0.000 
#
# Total GULP energy -693945.767234 kJ/mol
# GULP energy per Si atom -12391.888701 kJ/mol
# Density = 1.684184 g / cm^3
# Si number density = 16.880263 Si / 1000 Ang^3
#
#
#
# Elastic Constant Matrix: (Units=GPa)
#
#
# Indices 1 2 3 4 5 6 
#
# 1 82.1627 17.2262 30.8338 0.0000 0.0000 0.0000
# 2 17.2262 31.1098 11.6582 0.0000 0.0000 0.0000
# 3 30.8338 11.6582 92.5155 0.0000 0.0000 0.0000
# 4 0.0000 0.0000 0.0000 25.1293 0.0000 0.0000
# 5 0.0000 0.0000 0.0000 0.0000 29.6062 0.0000
# 6 0.0000 0.0000 0.0000 0.0000 0.0000 21.4426
#
#
#
# Elastic Compliance Matrix: (Units=1/GPa)
#
#
# Indices 1 2 3 4 5 6 
#
# 1 0.015179 -0.006832 -0.004198 0.000000 0.000000 0.000000
# 2 -0.006832 0.036812 -0.002362 0.000000 0.000000 0.000000
# 3 -0.004198 -0.002362 0.012506 0.000000 0.000000 0.000000
# 4 0.000000 0.000000 0.000000 0.039794 0.000000 0.000000
# 5 0.000000 0.000000 0.000000 0.000000 0.033777 0.000000
# 6 0.000000 0.000000 0.000000 0.000000 0.000000 0.046636
#
#
# Mechanical properties :
#
#
# Convention : Reuss Voigt Hill
#
# Bulk Modulus (GPa) = 26.51566 36.13604 31.32585
# Shear Modulus (GPa) = 22.31566 24.97360 23.64463
#
# Velocity S-wave (km/s) = 3.63987 3.85054 3.74669
# Velocity P-wave (km/s) = 5.77989 6.42049 6.10859
#
# Compressibility (1/GPa) = 0.03771357
#
# Stress axis : x y z
#
# Youngs Moduli (GPa) = 65.88196 27.16493 79.96334
#
# Poissons Ratio (x) = 0.18558 0.33568
# Poissons Ratio (y) = 0.45008 0.18887
# Poissons Ratio (z) = 0.27657 0.06416
#
# Static dielectric constant tensor:
#      x y z
#    x 3.105070 0.000000 0.000000 
#    y 0.000000 2.912820 0.000000 
#    z 0.000000 0.000000 3.386510 
# 
# 
# High freq. dielectric constant tensor:
#      x y z
#    x 1.647490 0.000000 0.000000 
#    y 0.000000 1.608170 0.000000 
#    z 0.000000 0.000000 1.658260 
# 
# From -- ./inp_files/26727.got.cif
#   From: 2010.03.12/outbox.cif.g09.slc.cpg/sg53_14_cif.got.tgz:26727.got - 2010.04.16 14:36:59.
