data_PCOD8218667
_publ_section_title
;
Structure prediction by ZEFSAII (Michael W. Deem and Ramdas Pophale) SiO2 
 PCOD8218667
Probable space group: P M N A
;
_chemical_formula_sum "Si O2"
_cell_formula_units_Z 64
_cell_length_a 8.955214
_cell_length_b 12.655457
_cell_length_c 29.727512
_cell_angle_alpha 90.000000
_cell_angle_beta 90.000000
_cell_angle_gamma 90.000000
_cell_volume 3369.088072
_symmetry_space_group_name_H-M "P M N A"
_symmetry_group_IT_number 53
_symmetry_cell_setting 'orthorhombic'
loop_
_space_group_symop_operation_xyz
x,y,z
1/2-x,-y,1/2+z
x,-y,-z
1/2-x,y,1/2-z
-x,-y,-z
1/2+x,y,1/2-z
-x,y,z
1/2+x,-y,1/2+z
loop_
_atom_site_type_symbol
_atom_site_label
_atom_site_fract_x
_atom_site_fract_y
_atom_site_fract_z
Si Si1 0.677603 0.031366 0.890421
Si Si2 0.676467 0.888525 0.205598
Si Si3 0.672702 0.557102 0.705500
Si Si4 0.171958 0.680207 0.181417
Si Si5 0.174062 0.387407 0.385018
Si Si6 0.677953 0.182246 0.064236
Si Si7 0.172862 0.808380 0.464749
Si Si8 0.329488 0.619762 0.094085
O O1 0.500000 0.039354 0.889604
O O2 0.737067 0.055430 0.840019
O O3 0.743718 0.116116 0.926269
O O4 0.732843 0.915592 0.905442
O O5 0.750000 0.942362 0.250000
O O6 0.500000 0.897505 0.209756
O O7 0.724110 0.765887 0.205467
O O8 0.750000 0.603825 0.750000
O O9 0.500000 0.586082 0.706567
O O10 0.700693 0.431789 0.704823
O O11 0.743322 0.612874 0.662414
O O12 0.217569 0.671246 0.129500
O O13 0.000000 0.715500 0.184674
O O14 0.238410 0.290566 0.414062
O O15 0.205000 0.495621 0.412818
O O16 0.000000 0.372679 0.374982
O O17 0.500000 0.185777 0.061553
O O18 0.745618 0.171689 0.013758
O O19 0.194264 0.684498 0.452115
O O20 0.000000 0.838476 0.468094
O O21 0.500000 0.634811 0.111512
#
# Coordination Sequence:
#
# PCOD8218667 Si02
#       8
#     8   8   8   8   8   8   8   8
#     4   9  17  30  48  72 104 136 167 211 256 298
#     4  11  21  33  50  74 103 134 167 205 255 306
#     4  10  20  33  51  74  99 132 171 210 252 303
#     4  10  19  31  49  75 105 135 165 202 249 305
#     4   9  18  31  48  73 106 138 167 208 252 300
#     4   9  17  29  48  75 103 134 175 214 253 298
#     4   9  15  26  48  77 104 133 168 211 259 304
#     4   9  16  28  47  74 108 138 163 201 255 301
#
# _framework density 18.996238000000002
#
# number of rings (size 3 to 8) (size 9 to 14) (size 15 to 20)
#    0.000    2.500    1.250    1.875    0.000    4.500 
#    0.000    3.125    0.000    3.750    0.000    4.375 
#    0.000    0.000    0.000    0.000    0.000    0.000 
#
# Total GULP energy -793385.163199 kJ/mol
# GULP energy per Si atom -12396.643175 kJ/mol
# Density = 1.895300 g / cm^3
# Si number density = 18.996238 Si / 1000 Ang^3
#
#
#
# Elastic Constant Matrix: (Units=GPa)
#
#
# Indices 1 2 3 4 5 6 
#
# 1 38.5108 16.5065 35.1165 0.0000 0.0000 0.0000
# 2 16.5065 112.4830 76.2269 0.0000 0.0000 0.0000
# 3 35.1165 76.2269 169.1285 0.0000 0.0000 0.0000
# 4 0.0000 0.0000 0.0000 18.1749 0.0000 0.0000
# 5 0.0000 0.0000 0.0000 0.0000 21.5196 0.0000
# 6 0.0000 0.0000 0.0000 0.0000 0.0000 10.4421
#
#
#
# Elastic Compliance Matrix: (Units=1/GPa)
#
#
# Indices 1 2 3 4 5 6 
#
# 1 0.032037 -0.000279 -0.006526 0.000000 0.000000 0.000000
# 2 -0.000279 0.012802 -0.005712 0.000000 0.000000 0.000000
# 3 -0.006526 -0.005712 0.009842 0.000000 0.000000 0.000000
# 4 0.000000 0.000000 0.000000 0.055021 0.000000 0.000000
# 5 0.000000 0.000000 0.000000 0.000000 0.046469 0.000000
# 6 0.000000 0.000000 0.000000 0.000000 0.000000 0.095766
#
#
# Mechanical properties :
#
#
# Convention : Reuss Voigt Hill
#
# Bulk Modulus (GPa) = 33.72979 63.98024 48.85501
# Shear Modulus (GPa) = 17.43044 22.84548 20.13796
#
# Velocity S-wave (km/s) = 3.03243 3.47166 3.25945
# Velocity P-wave (km/s) = 5.48229 7.05858 6.31977
#
# Compressibility (1/GPa) = 0.02964739
#
# Stress axis : x y z
#
# Youngs Moduli (GPa) = 31.21361 78.11248 101.60309
#
# Poissons Ratio (x) = 0.02176 0.66310
# Poissons Ratio (y) = 0.00870 0.58037
# Poissons Ratio (z) = 0.20371 0.44619
#
# Static dielectric constant tensor:
#      x y z
#    x 3.087190 0.000000 0.000000 
#    y 0.000000 3.476230 0.000000 
#    z 0.000000 0.000000 3.656450 
# 
# 
# High freq. dielectric constant tensor:
#      x y z
#    x 1.693020 0.000000 0.000000 
#    y 0.000000 1.724370 0.000000 
#    z 0.000000 0.000000 1.745500 
# 
# From -- ./inp_files/38310.got.cif
#   From: 2010.03.12/outbox.cif.g09.slc.cpg/sg53_20_cif.got.tgz:38310.got - 2010.04.16 14:36:59.
