data_PCOD8218623
_publ_section_title
;
Structure prediction by ZEFSAII (Michael W. Deem and Ramdas Pophale) SiO2 
 PCOD8218623
Probable space group: P M N A
;
_chemical_formula_sum "Si O2"
_cell_formula_units_Z 64
_cell_length_a 8.696698
_cell_length_b 22.580224
_cell_length_c 17.665106
_cell_angle_alpha 90.000000
_cell_angle_beta 90.000000
_cell_angle_gamma 90.000000
_cell_volume 3468.956731
_symmetry_space_group_name_H-M "P M N A"
_symmetry_group_IT_number 53
_symmetry_cell_setting 'orthorhombic'
loop_
_space_group_symop_operation_xyz
x,y,z
1/2-x,-y,1/2+z
x,-y,-z
1/2-x,y,1/2-z
-x,-y,-z
1/2+x,y,1/2-z
-x,y,z
1/2+x,-y,1/2+z
loop_
_atom_site_type_symbol
_atom_site_label
_atom_site_fract_x
_atom_site_fract_y
_atom_site_fract_z
Si Si1 0.816880 0.254388 0.981032
Si Si2 0.817012 0.455292 0.172039
Si Si3 0.168973 0.953466 0.066861
Si Si4 0.321651 0.585027 0.370967
Si Si5 0.822475 0.621078 0.963863
Si Si6 0.819028 0.706425 0.328154
Si Si7 0.819767 0.135254 0.464428
Si Si8 0.817322 0.942864 0.832538
O O1 0.753906 0.313096 0.024062
O O2 0.755615 0.199298 0.028327
O O3 0.000000 0.253695 0.976642
O O4 0.753007 0.254833 0.895697
O O5 0.750000 0.430291 0.250000
O O6 0.761353 0.522843 0.161194
O O7 0.745387 0.413669 0.106220
O O8 0.000000 0.453397 0.171337
O O9 0.000000 0.925495 0.082582
O O10 0.228453 0.990376 0.140066
O O11 0.284783 0.901861 0.041348
O O12 0.153089 0.000000 0.000000
O O13 0.500000 0.597597 0.351385
O O14 0.297875 0.582206 0.461121
O O15 0.221103 0.636974 0.334770
O O16 0.000000 0.628426 0.944777
O O17 0.750000 0.731548 0.250000
O O18 0.000000 0.715255 0.328792
O O19 0.751362 0.105347 0.389629
O O20 0.000000 0.141485 0.454756
O O21 0.750000 0.931420 0.750000
O O22 0.000000 0.935544 0.831984
#
# Coordination Sequence:
#
# PCOD8218623 Si02
#       8
#     8   8   8   8   8   8   8   8
#     4  10  20  37  58  76  99 136 182 224 263 307
#     4  10  19  31  48  72 100 128 163 207 258 315
#     4   8  16  32  53  77 106 139 172 208 254 304
#     4   9  17  31  52  74  96 126 165 208 256 313
#     4   8  16  32  53  72  92 128 173 214 256 307
#     4  11  21  34  52  76 105 133 166 209 260 316
#     4  11  21  34  55  82 110 142 182 221 261 313
#     4  10  20  35  56  83 114 145 179 221 266 308
#
# _framework density 18.449351
#
# number of rings (size 3 to 8) (size 9 to 14) (size 15 to 20)
#    0.000    2.375    0.000    5.250    0.000    5.750 
#    0.000    4.375    0.000    6.750    0.000    0.000 
#    0.000    0.000    0.000    0.000    0.000    0.000 
#
# Total GULP energy -793437.839651 kJ/mol
# GULP energy per Si atom -12397.466245 kJ/mol
# Density = 1.840736 g / cm^3
# Si number density = 18.449351 Si / 1000 Ang^3
#
#
#
# Elastic Constant Matrix: (Units=GPa)
#
#
# Indices 1 2 3 4 5 6 
#
# 1 86.9276 30.9299 33.6637 0.0000 0.0000 0.0000
# 2 30.9299 76.4584 43.3956 0.0000 0.0000 0.0000
# 3 33.6637 43.3956 110.8673 0.0000 0.0000 0.0000
# 4 0.0000 0.0000 0.0000 22.1695 0.0000 0.0000
# 5 0.0000 0.0000 0.0000 0.0000 29.5733 0.0000
# 6 0.0000 0.0000 0.0000 0.0000 0.0000 14.1531
#
#
#
# Elastic Compliance Matrix: (Units=1/GPa)
#
#
# Indices 1 2 3 4 5 6 
#
# 1 0.014004 -0.004180 -0.002616 0.000000 0.000000 0.000000
# 2 -0.004180 0.018062 -0.005801 0.000000 0.000000 0.000000
# 3 -0.002616 -0.005801 0.012085 0.000000 0.000000 0.000000
# 4 0.000000 0.000000 0.000000 0.045107 0.000000 0.000000
# 5 0.000000 0.000000 0.000000 0.000000 0.033814 0.000000
# 6 0.000000 0.000000 0.000000 0.000000 0.000000 0.070656
#
#
# Mechanical properties :
#
#
# Convention : Reuss Voigt Hill
#
# Bulk Modulus (GPa) = 52.75031 54.47019 53.61025
# Shear Modulus (GPa) = 22.19838 24.26345 23.23092
#
# Velocity S-wave (km/s) = 3.47249 3.63042 3.55233
# Velocity P-wave (km/s) = 6.68817 6.86742 6.77839
#
# Compressibility (1/GPa) = 0.01895723
#
# Stress axis : x y z
#
# Youngs Moduli (GPa) = 71.40636 55.36366 82.75018
#
# Poissons Ratio (x) = 0.23145 0.21647
# Poissons Ratio (y) = 0.29851 0.48000
# Poissons Ratio (z) = 0.18680 0.32114
#
# Static dielectric constant tensor:
#      x y z
#    x 3.235630 0.000000 0.000000 
#    y 0.000000 3.492090 0.000000 
#    z 0.000000 0.000000 3.574020 
# 
# 
# High freq. dielectric constant tensor:
#      x y z
#    x 1.704920 0.000000 0.000000 
#    y 0.000000 1.703810 0.000000 
#    z 0.000000 0.000000 1.713690 
# 
# From -- ./inp_files/20859.got.cif
#   From: 2010.03.12/outbox.cif.g09.slc.cpg/sg53_11_cif.got.tgz:20859.got - 2010.04.16 14:36:59.
