data_PCOD8218391
_publ_section_title
;
Structure prediction by ZEFSAII (Michael W. Deem and Ramdas Pophale) SiO2 
 PCOD8218391
Probable space group: P M N A
;
_chemical_formula_sum "Si O2"
_cell_formula_units_Z 64
_cell_length_a 9.266694
_cell_length_b 13.539562
_cell_length_c 27.867715
_cell_angle_alpha 90.000000
_cell_angle_beta 90.000000
_cell_angle_gamma 90.000000
_cell_volume 3496.477983
_symmetry_space_group_name_H-M "P M N A"
_symmetry_group_IT_number 53
_symmetry_cell_setting 'orthorhombic'
loop_
_space_group_symop_operation_xyz
x,y,z
1/2-x,-y,1/2+z
x,-y,-z
1/2-x,y,1/2-z
-x,-y,-z
1/2+x,y,1/2-z
-x,y,z
1/2+x,-y,1/2+z
loop_
_atom_site_type_symbol
_atom_site_label
_atom_site_fract_x
_atom_site_fract_y
_atom_site_fract_z
Si Si1 0.328666 0.889723 0.017028
Si Si2 0.669849 0.540163 0.298091
Si Si3 0.339390 0.218519 0.292826
Si Si4 0.341511 0.748120 0.933036
Si Si5 0.828271 0.900336 0.112547
Si Si6 0.832510 0.232847 0.797337
Si Si7 0.340874 0.383292 0.372572
Si Si8 0.161613 0.087082 0.353705
O O1 0.500000 0.884789 0.026821
O O2 0.239287 0.857114 0.063846
O O3 0.277170 0.810135 0.977431
O O4 0.286262 0.000000 0.000000
O O5 0.750000 0.504520 0.250000
O O6 0.500000 0.520631 0.290585
O O7 0.706319 0.653813 0.308835
O O8 0.726444 0.476809 0.343845
O O9 0.250000 0.270214 0.250000
O O10 0.500000 0.188350 0.275700
O O11 0.350909 0.292409 0.336540
O O12 0.250475 0.119507 0.306628
O O13 0.500000 0.709286 0.946826
O O14 0.249818 0.650461 0.919198
O O15 0.352343 0.819453 0.887848
O O16 0.784903 0.829945 0.156668
O O17 0.000000 0.911941 0.107623
O O18 0.753611 0.005130 0.119422
O O19 0.750000 0.194989 0.750000
O O20 0.000000 0.219793 0.786221
O O21 0.500000 0.411435 0.391334
O O22 0.000000 0.049149 0.340499
#
# Coordination Sequence:
#
# PCOD8218391 Si02
#       8
#     8   8   8   8   8   8   8   8
#     4  10  19  35  55  76 102 135 176 214 254 304
#     4   9  17  32  53  76 101 132 168 212 258 305
#     4  10  19  30  43  66  97 129 164 204 246 300
#     4   9  18  32  50  72 100 131 165 205 250 301
#     4  11  22  34  51  78 105 132 170 216 258 303
#     4   9  20  37  55  76 104 134 171 213 256 304
#     4   9  18  30  48  73 101 129 163 205 253 304
#     4  10  19  33  49  66  93 132 168 205 251 300
#
# _framework density 18.304134999999999
#
# number of rings (size 3 to 8) (size 9 to 14) (size 15 to 20)
#    0.000    2.375    1.250    1.500    0.000    3.750 
#    0.000    1.250    0.000    0.750    0.000    5.250 
#    0.000    0.000    0.000    0.000    0.000    0.000 
#
# Total GULP energy -793354.843460 kJ/mol
# GULP energy per Si atom -12396.169429 kJ/mol
# Density = 1.826247 g / cm^3
# Si number density = 18.304135 Si / 1000 Ang^3
#
#
#
# Elastic Constant Matrix: (Units=GPa)
#
#
# Indices 1 2 3 4 5 6 
#
# 1 83.4602 21.2957 43.5521 0.0000 0.0000 0.0000
# 2 21.2957 37.4788 24.4731 0.0000 0.0000 0.0000
# 3 43.5521 24.4731 86.2913 0.0000 0.0000 0.0000
# 4 0.0000 0.0000 0.0000 27.8585 0.0000 0.0000
# 5 0.0000 0.0000 0.0000 0.0000 32.7360 0.0000
# 6 0.0000 0.0000 0.0000 0.0000 0.0000 20.4123
#
#
#
# Elastic Compliance Matrix: (Units=1/GPa)
#
#
# Indices 1 2 3 4 5 6 
#
# 1 0.016990 -0.004976 -0.007164 0.000000 0.000000 0.000000
# 2 -0.004976 0.034203 -0.007189 0.000000 0.000000 0.000000
# 3 -0.007164 -0.007189 0.017243 0.000000 0.000000 0.000000
# 4 0.000000 0.000000 0.000000 0.035896 0.000000 0.000000
# 5 0.000000 0.000000 0.000000 0.000000 0.030547 0.000000
# 6 0.000000 0.000000 0.000000 0.000000 0.000000 0.048990
#
#
# Mechanical properties :
#
#
# Convention : Reuss Voigt Hill
#
# Bulk Modulus (GPa) = 33.58071 42.87468 38.22770
# Shear Modulus (GPa) = 21.50975 24.06198 22.78586
#
# Velocity S-wave (km/s) = 3.43174 3.62963 3.53207
# Velocity P-wave (km/s) = 5.83851 6.40624 6.12895
#
# Compressibility (1/GPa) = 0.02977900
#
# Stress axis : x y z
#
# Youngs Moduli (GPa) = 58.85949 29.23688 57.99418
#
# Poissons Ratio (x) = 0.14548 0.41545
# Poissons Ratio (y) = 0.29288 0.41692
# Poissons Ratio (z) = 0.42165 0.21019
#
# Static dielectric constant tensor:
#      x y z
#    x 3.646520 0.000000 0.000000 
#    y 0.000000 3.229470 0.000000 
#    z 0.000000 0.000000 3.384000 
# 
# 
# High freq. dielectric constant tensor:
#      x y z
#    x 1.713740 0.000000 0.000000 
#    y 0.000000 1.687000 0.000000 
#    z 0.000000 0.000000 1.697450 
# 
# From -- ./inp_files/34247.got.cif
#   From: 2010.03.12/outbox.cif.g09.slc.cpg/sg53_18_cif.got.tgz:34247.got - 2010.04.16 14:36:59.
