data_PCOD8218235
_publ_section_title
;
Structure prediction by ZEFSAII (Michael W. Deem and Ramdas Pophale) SiO2 
 PCOD8218235
Probable space group: P M N A
;
_chemical_formula_sum "Si O2"
_cell_formula_units_Z 32
_cell_length_a 8.422790
_cell_length_b 10.061172
_cell_length_c 19.921283
_cell_angle_alpha 90.000000
_cell_angle_beta 90.000000
_cell_angle_gamma 90.000000
_cell_volume 1688.192053
_symmetry_space_group_name_H-M "P M N A"
_symmetry_group_IT_number 53
_symmetry_cell_setting 'orthorhombic'
loop_
_space_group_symop_operation_xyz
x,y,z
1/2-x,-y,1/2+z
x,-y,-z
1/2-x,y,1/2-z
-x,-y,-z
1/2+x,y,1/2-z
-x,y,z
1/2+x,-y,1/2+z
loop_
_atom_site_type_symbol
_atom_site_label
_atom_site_fract_x
_atom_site_fract_y
_atom_site_fract_z
Si Si1 0.688247 0.326940 0.323644
Si Si2 0.811709 0.544358 0.071582
Si Si3 0.184190 0.890046 0.584620
Si Si4 0.815136 0.838038 0.058399
O O1 0.750000 0.357583 0.250000
O O2 0.500000 0.315731 0.324319
O O3 0.751418 0.447058 0.370425
O O4 0.762221 0.188732 0.349319
O O5 0.759599 0.695727 0.087736
O O6 0.000000 0.536348 0.067160
O O7 0.738466 0.500000 0.000000
O O8 0.285565 0.838441 0.521550
O O9 0.000000 0.867480 0.569732
O O10 0.216508 0.046910 0.595885
O O11 0.000000 0.863208 0.071298
#
# Coordination Sequence:
#
# PCOD8218235 Si02
#       4
#     8   8   8   8
#     4  11  22  39  59  82 113 149 189 231 284 345
#     4   9  17  33  58  85 110 144 189 234 280 337
#     4  11  21  34  52  82 116 147 185 232 280 332
#     4  10  18  33  58  84 110 145 187 234 284 329
#
# _framework density 18.955190000000002
#
# number of rings (size 3 to 8) (size 9 to 14) (size 15 to 20)
#    0.000    1.750    2.500    5.250    0.000    0.000 
#    0.000    7.500    0.000    3.000    0.000    0.000 
#    0.000    0.000    0.000    0.000    0.000    0.000 
#
# Total GULP energy -396842.191936 kJ/mol
# GULP energy per Si atom -12401.318498 kJ/mol
# Density = 1.891205 g / cm^3
# Si number density = 18.955190 Si / 1000 Ang^3
#
#
#
# Elastic Constant Matrix: (Units=GPa)
#
#
# Indices 1 2 3 4 5 6 
#
# 1 56.8315 31.5332 12.5601 0.0000 0.0000 0.0000
# 2 31.5332 152.4334 76.4282 0.0000 0.0000 0.0000
# 3 12.5601 76.4282 116.7076 0.0000 0.0000 0.0000
# 4 0.0000 0.0000 0.0000 27.6439 0.0000 0.0000
# 5 0.0000 0.0000 0.0000 0.0000 25.4632 0.0000
# 6 0.0000 0.0000 0.0000 0.0000 0.0000 14.3991
#
#
#
# Elastic Compliance Matrix: (Units=1/GPa)
#
#
# Indices 1 2 3 4 5 6 
#
# 1 0.019931 -0.004537 0.000826 0.000000 0.000000 0.000000
# 2 -0.004537 0.010800 -0.006584 0.000000 0.000000 0.000000
# 3 0.000826 -0.006584 0.012791 0.000000 0.000000 0.000000
# 4 0.000000 0.000000 0.000000 0.036174 0.000000 0.000000
# 5 0.000000 0.000000 0.000000 0.000000 0.039272 0.000000
# 6 0.000000 0.000000 0.000000 0.000000 0.000000 0.069449
#
#
# Mechanical properties :
#
#
# Convention : Reuss Voigt Hill
#
# Bulk Modulus (GPa) = 43.60771 63.00171 53.30471
# Shear Modulus (GPa) = 23.07845 27.19798 25.13822
#
# Velocity S-wave (km/s) = 3.49309 3.79206 3.64564
# Velocity P-wave (km/s) = 6.27093 7.24447 6.77521
#
# Compressibility (1/GPa) = 0.02293172
#
# Stress axis : x y z
#
# Youngs Moduli (GPa) = 50.17361 92.59085 78.17746
#
# Poissons Ratio (x) = 0.42012 -0.06461
# Poissons Ratio (y) = 0.22765 0.51475
# Poissons Ratio (z) = -0.04146 0.60966
#
# Static dielectric constant tensor:
#      x y z
#    x 3.264690 0.000000 0.000000 
#    y 0.000000 3.857000 0.000000 
#    z 0.000000 0.000000 3.708230 
# 
# 
# High freq. dielectric constant tensor:
#      x y z
#    x 1.726580 0.000000 0.000000 
#    y 0.000000 1.755030 0.000000 
#    z 0.000000 0.000000 1.702370 
# 
# From -- ./inp_files/25749.got.cif
#   From: 2010.03.12/outbox.cif.g09.slc.cpg/sg53_13_cif.got.tgz:25749.got - 2010.04.16 14:36:59.
