data_PCOD8218715
_publ_section_title
;
Structure prediction by ZEFSAII (Michael W. Deem and Ramdas Pophale) SiO2 
 PCOD8218715
Probable space group: P M N A
;
_chemical_formula_sum "Si O2"
_cell_formula_units_Z 56
_cell_length_a 9.198865
_cell_length_b 22.339493
_cell_length_c 14.088685
_cell_angle_alpha 90.000000
_cell_angle_beta 90.000000
_cell_angle_gamma 90.000000
_cell_volume 2895.196312
_symmetry_space_group_name_H-M "P M N A"
_symmetry_group_IT_number 53
_symmetry_cell_setting 'orthorhombic'
loop_
_space_group_symop_operation_xyz
x,y,z
1/2-x,-y,1/2+z
x,-y,-z
1/2-x,y,1/2-z
-x,-y,-z
1/2+x,y,1/2-z
-x,y,z
1/2+x,-y,1/2+z
loop_
_atom_site_type_symbol
_atom_site_label
_atom_site_fract_x
_atom_site_fract_y
_atom_site_fract_z
Si Si1 0.674023 0.696551 0.852312
Si Si2 0.834380 0.203140 0.036872
Si Si3 0.331482 0.531462 0.348593
Si Si4 0.160556 0.900167 0.831954
Si Si5 0.829793 0.590342 0.955101
Si Si6 0.830439 0.974940 0.095814
Si Si7 0.169827 0.152607 0.841732
O O1 0.750000 0.692052 0.750000
O O2 0.500000 0.694571 0.840053
O O3 0.720728 0.756927 0.905910
O O4 0.727086 0.643162 0.919758
O O5 0.815129 0.133625 0.068374
O O6 0.000000 0.225591 0.055678
O O7 0.800710 0.200956 0.924885
O O8 0.250000 0.546088 0.250000
O O9 0.500000 0.537837 0.325078
O O10 0.289377 0.576502 0.434762
O O11 0.295714 0.465226 0.386124
O O12 0.250000 0.867451 0.750000
O O13 0.000000 0.889746 0.796623
O O14 0.195524 0.970702 0.831943
O O15 0.000000 0.607699 0.947876
O O16 0.761841 0.913104 0.134134
O O17 0.000000 0.962379 0.075140
O O18 0.755726 0.000000 0.000000
O O19 0.250000 0.178707 0.750000
O O20 0.000000 0.146757 0.820014
#
# Coordination Sequence:
#
# PCOD8218715 Si02
#       7
#     8   8   8   8   8   8   8
#     4  12  25  40  60  85 112 146 186 231 279 328
#     4  10  21  38  57  77 104 142 184 226 273 326
#     4   9  18  33  57  88 123 159 193 232 279 327
#     4  10  19  31  51  76 102 133 170 211 263 324
#     4   9  19  37  58  85 121 158 194 233 277 328
#     4   9  15  29  52  76 102 135 172 211 263 331
#     4  10  20  35  57  80 105 140 180 224 278 335
#
# _framework density 19.342383999999999
#
# number of rings (size 3 to 8) (size 9 to 14) (size 15 to 20)
#    0.000    2.143    1.429    3.429    0.000    4.571 
#    0.000    2.143    0.000    0.857    0.000    0.000 
#    0.000    0.000    0.000    0.000    0.000    0.000 
#
# Total GULP energy -693950.976917 kJ/mol
# GULP energy per Si atom -12391.981731 kJ/mol
# Density = 1.929836 g / cm^3
# Si number density = 19.342384 Si / 1000 Ang^3
#
#
#
# Elastic Constant Matrix: (Units=GPa)
#
#
# Indices 1 2 3 4 5 6 
#
# 1 87.5257 40.9766 63.1514 0.0000 0.0000 0.0000
# 2 40.9766 72.6344 32.5003 0.0000 0.0000 0.0000
# 3 63.1514 32.5003 145.1429 0.0000 0.0000 0.0000
# 4 0.0000 0.0000 0.0000 11.4129 0.0000 0.0000
# 5 0.0000 0.0000 0.0000 0.0000 36.4747 0.0000
# 6 0.0000 0.0000 0.0000 0.0000 0.0000 24.6438
#
#
#
# Elastic Compliance Matrix: (Units=1/GPa)
#
#
# Indices 1 2 3 4 5 6 
#
# 1 0.020396 -0.008375 -0.006999 0.000000 0.000000 0.000000
# 2 -0.008375 0.018739 -0.000552 0.000000 0.000000 0.000000
# 3 -0.006999 -0.000552 0.010059 0.000000 0.000000 0.000000
# 4 0.000000 0.000000 0.000000 0.087620 0.000000 0.000000
# 5 0.000000 0.000000 0.000000 0.000000 0.027416 0.000000
# 6 0.000000 0.000000 0.000000 0.000000 0.000000 0.040578
#
#
# Mechanical properties :
#
#
# Convention : Reuss Voigt Hill
#
# Bulk Modulus (GPa) = 57.66345 64.28441 60.97393
# Shear Modulus (GPa) = 20.62360 25.75127 23.18744
#
# Velocity S-wave (km/s) = 3.26887 3.65271 3.46611
# Velocity P-wave (km/s) = 6.64259 7.14821 6.90003
#
# Compressibility (1/GPa) = 0.01734201
#
# Stress axis : x y z
#
# Youngs Moduli (GPa) = 49.02984 53.36405 99.41690
#
# Poissons Ratio (x) = 0.44690 0.69581
# Poissons Ratio (y) = 0.41060 0.05491
# Poissons Ratio (z) = 0.34316 0.02947
#
# Static dielectric constant tensor:
#      x y z
#    x 3.274580 0.000000 0.000000 
#    y 0.000000 3.475130 0.000000 
#    z 0.000000 0.000000 3.597690 
# 
# 
# High freq. dielectric constant tensor:
#      x y z
#    x 1.726400 0.000000 0.000000 
#    y 0.000000 1.739520 0.000000 
#    z 0.000000 0.000000 1.765410 
# 
# From -- ./inp_files/20608.got.cif
#   From: 2010.03.12/outbox.cif.g09.slc.cpg/sg53_11_cif.got.tgz:20608.got - 2010.04.16 14:36:59.
