data_PCOD8218562
_publ_section_title
;
Structure prediction by ZEFSAII (Michael W. Deem and Ramdas Pophale) SiO2 
 PCOD8218562
Probable space group: P M N A
;
_chemical_formula_sum "Si O2"
_cell_formula_units_Z 64
_cell_length_a 8.752628
_cell_length_b 19.128765
_cell_length_c 21.527320
_cell_angle_alpha 90.000000
_cell_angle_beta 90.000000
_cell_angle_gamma 90.000000
_cell_volume 3604.253834
_symmetry_space_group_name_H-M "P M N A"
_symmetry_group_IT_number 53
_symmetry_cell_setting 'orthorhombic'
loop_
_space_group_symop_operation_xyz
x,y,z
1/2-x,-y,1/2+z
x,-y,-z
1/2-x,y,1/2-z
-x,-y,-z
1/2+x,y,1/2-z
-x,y,z
1/2+x,-y,1/2+z
loop_
_atom_site_type_symbol
_atom_site_label
_atom_site_fract_x
_atom_site_fract_y
_atom_site_fract_z
Si Si1 0.819115 0.837661 0.634613
Si Si2 0.324359 0.303010 0.188649
Si Si3 0.670989 0.534463 0.067722
Si Si4 0.670854 0.666624 0.471264
Si Si5 0.318429 0.048936 0.558278
Si Si6 0.832340 0.595726 0.896560
Si Si7 0.317715 0.815804 0.004612
Si Si8 0.818063 0.985866 0.683235
O O1 0.748056 0.771209 0.670265
O O2 0.757899 0.835896 0.564153
O O3 0.766192 0.906032 0.671556
O O4 0.000000 0.832096 0.631367
O O5 0.250000 0.333498 0.250000
O O6 0.500000 0.291471 0.200139
O O7 0.297631 0.358864 0.135527
O O8 0.500000 0.536387 0.095279
O O9 0.736863 0.613239 0.072847
O O10 0.780414 0.484735 0.108300
O O11 0.666730 0.500000 0.000000
O O12 0.500000 0.681800 0.445519
O O13 0.657353 0.624753 0.534689
O O14 0.762336 0.738772 0.476906
O O15 0.500000 0.047038 0.563409
O O16 0.259008 0.127558 0.549419
O O17 0.263453 0.000000 0.500000
O O18 0.248038 0.027508 0.624552
O O19 0.000000 0.602145 0.864983
O O20 0.500000 0.818926 0.010355
O O21 0.750000 0.010528 0.750000
O O22 0.000000 0.994951 0.684832
#
# Coordination Sequence:
#
# PCOD8218562 Si02
#       8
#     8   8   8   8   8   8   8   8
#     4   9  19  33  52  75 104 141 182 223 269 323
#     4  11  21  34  48  69 100 139 183 225 265 316
#     4   9  17  29  47  70  96 130 167 205 250 304
#     4  10  19  31  48  74 105 134 168 213 262 315
#     4  11  23  38  56  82 112 144 184 232 282 335
#     4  10  19  31  47  69  98 134 172 215 263 309
#     4  11  20  34  55  79 107 144 184 223 273 332
#     4  11  22  39  59  82 109 145 187 232 281 334
#
# _framework density 17.756796999999999
#
# number of rings (size 3 to 8) (size 9 to 14) (size 15 to 20)
#    0.000    1.750    2.500    3.000    0.000    3.000 
#    0.000    1.875    0.000    0.000    0.000    0.875 
#    0.000    0.000    0.000    0.000    0.000    0.000 
#
# Total GULP energy -793324.659476 kJ/mol
# GULP energy per Si atom -12395.697804 kJ/mol
# Density = 1.771638 g / cm^3
# Si number density = 17.756797 Si / 1000 Ang^3
#
#
#
# Elastic Constant Matrix: (Units=GPa)
#
#
# Indices 1 2 3 4 5 6 
#
# 1 90.8312 40.3509 33.1467 0.0000 0.0000 0.0000
# 2 40.3509 100.3233 34.8508 0.0000 0.0000 0.0000
# 3 33.1467 34.8508 67.7761 0.0000 0.0000 0.0000
# 4 0.0000 0.0000 0.0000 7.6329 0.0000 0.0000
# 5 0.0000 0.0000 0.0000 0.0000 23.0054 0.0000
# 6 0.0000 0.0000 0.0000 0.0000 0.0000 27.9262
#
#
#
# Elastic Compliance Matrix: (Units=1/GPa)
#
#
# Indices 1 2 3 4 5 6 
#
# 1 0.014700 -0.004158 -0.005051 0.000000 0.000000 0.000000
# 2 -0.004158 0.013311 -0.004811 0.000000 0.000000 0.000000
# 3 -0.005051 -0.004811 0.019699 0.000000 0.000000 0.000000
# 4 0.000000 0.000000 0.000000 0.131012 0.000000 0.000000
# 5 0.000000 0.000000 0.000000 0.000000 0.043468 0.000000
# 6 0.000000 0.000000 0.000000 0.000000 0.000000 0.035809
#
#
# Mechanical properties :
#
#
# Convention : Reuss Voigt Hill
#
# Bulk Modulus (GPa) = 50.84026 52.84750 51.84388
# Shear Modulus (GPa) = 17.08843 21.75171 19.42007
#
# Velocity S-wave (km/s) = 3.10556 3.50377 3.31066
# Velocity P-wave (km/s) = 6.44616 6.79669 6.62374
#
# Compressibility (1/GPa) = 0.01966945
#
# Stress axis : x y z
#
# Youngs Moduli (GPa) = 68.02834 75.12335 50.76428
#
# Poissons Ratio (x) = 0.31234 0.25642
# Poissons Ratio (y) = 0.28284 0.24425
# Poissons Ratio (z) = 0.34363 0.36145
#
# Static dielectric constant tensor:
#      x y z
#    x 3.424600 0.000000 0.000000 
#    y 0.000000 3.374540 0.000000 
#    z 0.000000 0.000000 3.054050 
# 
# 
# High freq. dielectric constant tensor:
#      x y z
#    x 1.696490 0.000000 0.000000 
#    y 0.000000 1.688010 0.000000 
#    z 0.000000 0.000000 1.646990 
# 
# From -- ./inp_files/31192.got.cif
#   From: 2010.03.12/outbox.cif.g09.slc.cpg/sg53_16_cif.got.tgz:31192.got - 2010.04.16 14:36:59.
