data_PCOD8218876
_publ_section_title
;
Structure prediction by ZEFSAII (Michael W. Deem and Ramdas Pophale) SiO2 
 PCOD8218876
Probable space group: P M N A
;
_chemical_formula_sum "Si O2"
_cell_formula_units_Z 48
_cell_length_a 8.937295
_cell_length_b 30.447483
_cell_length_c 9.572386
_cell_angle_alpha 90.000000
_cell_angle_beta 90.000000
_cell_angle_gamma 90.000000
_cell_volume 2604.819851
_symmetry_space_group_name_H-M "P M N A"
_symmetry_group_IT_number 53
_symmetry_cell_setting 'orthorhombic'
loop_
_space_group_symop_operation_xyz
x,y,z
1/2-x,-y,1/2+z
x,-y,-z
1/2-x,y,1/2-z
-x,-y,-z
1/2+x,y,1/2-z
-x,y,z
1/2+x,-y,1/2+z
loop_
_atom_site_type_symbol
_atom_site_label
_atom_site_fract_x
_atom_site_fract_y
_atom_site_fract_z
Si Si1 0.672397 0.632427 0.103749
Si Si2 0.823813 0.462347 0.599771
Si Si3 0.175563 0.959069 0.399982
Si Si4 0.672498 0.791604 0.608252
Si Si5 0.326405 0.894465 0.605314
Si Si6 0.823976 0.726949 0.400507
O O1 0.750000 0.632938 0.250000
O O2 0.500000 0.632064 0.140362
O O3 0.713773 0.585869 0.029326
O O4 0.709411 0.678840 0.025875
O O5 0.756724 0.500000 0.500000
O O6 0.750000 0.467165 0.750000
O O7 0.000000 0.468875 0.618814
O O8 0.250000 0.967617 0.250000
O O9 0.248195 0.916733 0.472738
O O10 0.000000 0.950974 0.378751
O O11 0.208706 0.000000 0.500000
O O12 0.750000 0.776434 0.750000
O O13 0.500000 0.778630 0.616805
O O14 0.695435 0.842973 0.581557
O O15 0.750227 0.766012 0.484437
O O16 0.250000 0.909854 0.750000
O O17 0.500000 0.907942 0.612794
O O18 0.750000 0.727507 0.250000
O O19 0.000000 0.735947 0.388108
#
# Coordination Sequence:
#
# PCOD8218876 Si02
#       6
#     8   8   8   8   8   8
#     4   8  15  28  46  68  94 126 164 204 248 298
#     4   9  17  30  48  69  95 126 161 203 249 299
#     4  11  24  40  60  86 115 147 182 221 264 310
#     4  10  21  37  56  79 107 140 176 214 261 313
#     4  10  21  38  60  83 109 142 179 219 262 311
#     4  10  19  32  52  76 102 133 171 215 259 306
#
# _framework density 18.427378000000001
#
# number of rings (size 3 to 8) (size 9 to 14) (size 15 to 20)
#    0.000    2.333    0.000    2.500    0.000    6.333 
#    0.000    0.833    0.000    2.000    0.000    0.000 
#    0.000    0.000    0.000    0.000    0.000    0.000 
#
# Total GULP energy -594806.420497 kJ/mol
# GULP energy per Si atom -12391.800427 kJ/mol
# Density = 1.838544 g / cm^3
# Si number density = 18.427378 Si / 1000 Ang^3
#
#
#
# Elastic Constant Matrix: (Units=GPa)
#
#
# Indices 1 2 3 4 5 6 
#
# 1 105.6281 58.8887 56.7504 0.0000 0.0000 0.0000
# 2 58.8887 90.8129 59.1086 0.0000 0.0000 0.0000
# 3 56.7504 59.1086 103.3131 0.0000 0.0000 0.0000
# 4 0.0000 0.0000 0.0000 31.6474 0.0000 0.0000
# 5 0.0000 0.0000 0.0000 0.0000 33.4819 0.0000
# 6 0.0000 0.0000 0.0000 0.0000 0.0000 33.8306
#
#
#
# Elastic Compliance Matrix: (Units=1/GPa)
#
#
# Indices 1 2 3 4 5 6 
#
# 1 0.016075 -0.007452 -0.004567 0.000000 0.000000 0.000000
# 2 -0.007452 0.021000 -0.007921 0.000000 0.000000 0.000000
# 3 -0.004567 -0.007921 0.016720 0.000000 0.000000 0.000000
# 4 0.000000 0.000000 0.000000 0.031598 0.000000 0.000000
# 5 0.000000 0.000000 0.000000 0.000000 0.029867 0.000000
# 6 0.000000 0.000000 0.000000 0.000000 0.000000 0.029559
#
#
# Mechanical properties :
#
#
# Convention : Reuss Voigt Hill
#
# Bulk Modulus (GPa) = 71.86430 72.13880 72.00155
# Shear Modulus (GPa) = 26.40800 28.12576 27.26688
#
# Velocity S-wave (km/s) = 3.78972 3.91103 3.85085
# Velocity P-wave (km/s) = 7.63103 7.72188 7.67659
#
# Compressibility (1/GPa) = 0.01391512
#
# Stress axis : x y z
#
# Youngs Moduli (GPa) = 62.20785 47.62004 59.80889
#
# Poissons Ratio (x) = 0.35485 0.27314
# Poissons Ratio (y) = 0.46355 0.47376
# Poissons Ratio (z) = 0.28409 0.37721
#
# Static dielectric constant tensor:
#      x y z
#    x 3.551570 0.000000 0.000000 
#    y 0.000000 3.978340 0.000000 
#    z 0.000000 0.000000 3.141660 
# 
# 
# High freq. dielectric constant tensor:
#      x y z
#    x 1.727270 0.000000 0.000000 
#    y 0.000000 1.735980 0.000000 
#    z 0.000000 0.000000 1.685800 
# 
# From -- ./inp_files/6563.got.cif
#   From: 2010.03.12/outbox.cif.g09.slc.cpg/sg53_4_cif.got.tgz:6563.got - 2010.04.16 14:36:59.
