data_PCOD8218514
_publ_section_title
;
Structure prediction by ZEFSAII (Michael W. Deem and Ramdas Pophale) SiO2 
 PCOD8218514
Probable space group: P M N A
;
_chemical_formula_sum "Si O2"
_cell_formula_units_Z 64
_cell_length_a 9.019740
_cell_length_b 20.437684
_cell_length_c 20.242051
_cell_angle_alpha 90.000000
_cell_angle_beta 90.000000
_cell_angle_gamma 90.000000
_cell_volume 3731.472227
_symmetry_space_group_name_H-M "P M N A"
_symmetry_group_IT_number 53
_symmetry_cell_setting 'orthorhombic'
loop_
_space_group_symop_operation_xyz
x,y,z
1/2-x,-y,1/2+z
x,-y,-z
1/2-x,y,1/2-z
-x,-y,-z
1/2+x,y,1/2-z
-x,y,z
1/2+x,-y,1/2+z
loop_
_atom_site_type_symbol
_atom_site_label
_atom_site_fract_x
_atom_site_fract_y
_atom_site_fract_z
Si Si1 0.171223 0.946857 0.552342
Si Si2 0.830504 0.179082 0.007372
Si Si3 0.670790 0.155604 0.647413
Si Si4 0.165732 0.717754 0.336070
Si Si5 0.172251 0.022334 0.685493
Si Si6 0.174290 0.586628 0.186888
Si Si7 0.335305 0.305798 0.989734
Si Si8 0.174427 0.435515 0.960951
O O1 0.258340 0.879229 0.548688
O O2 0.000000 0.933103 0.535536
O O3 0.234213 0.000000 0.500000
O O4 0.195259 0.972331 0.625987
O O5 0.752101 0.247633 0.026717
O O6 0.000000 0.185917 0.028764
O O7 0.813910 0.162434 0.930795
O O8 0.500000 0.155413 0.669564
O O9 0.755609 0.214637 0.684021
O O10 0.748735 0.090027 0.669869
O O11 0.271728 0.661233 0.309212
O O12 0.154151 0.713598 0.414119
O O13 0.000000 0.712863 0.305453
O O14 0.250000 0.991116 0.750000
O O15 0.000000 0.035721 0.698792
O O16 0.250000 0.549501 0.250000
O O17 0.223074 0.556322 0.116064
O O18 0.000000 0.582776 0.196164
O O19 0.500000 0.312411 0.020349
O O20 0.251927 0.374828 0.997233
O O21 0.000000 0.422717 0.964805
O O22 0.223463 0.500000 0.000000
#
# Coordination Sequence:
#
# PCOD8218514 Si02
#       8
#     8   8   8   8   8   8   8   8
#     4  10  20  35  54  74  97 127 165 208 255 301
#     4  10  19  30  50  76 101 128 163 209 251 293
#     4  10  19  31  47  69  96 127 164 203 244 289
#     4   9  17  29  45  65  92 127 165 201 237 279
#     4  11  23  37  51  68  95 128 162 205 254 306
#     4  10  19  31  47  68  96 129 166 203 239 283
#     4   9  17  29  47  72 102 131 162 201 245 294
#     4   9  18  33  52  74 102 135 168 204 246 292
#
# _framework density 17.151406000000001
#
# number of rings (size 3 to 8) (size 9 to 14) (size 15 to 20)
#    0.000    2.250    1.250    2.250    0.000    6.500 
#    0.000    2.500    0.000    0.000    0.000    0.875 
#    0.000    4.000    0.000    0.000    0.000    0.000 
#
# Total GULP energy -793511.175941 kJ/mol
# GULP energy per Si atom -12398.612124 kJ/mol
# Density = 1.711237 g / cm^3
# Si number density = 17.151406 Si / 1000 Ang^3
#
#
#
# Elastic Constant Matrix: (Units=GPa)
#
#
# Indices 1 2 3 4 5 6 
#
# 1 99.7010 56.2545 42.0057 0.0000 0.0000 0.0000
# 2 56.2545 115.5130 46.1283 0.0000 0.0000 0.0000
# 3 42.0057 46.1283 61.1806 0.0000 0.0000 0.0000
# 4 0.0000 0.0000 0.0000 5.2216 0.0000 0.0000
# 5 0.0000 0.0000 0.0000 0.0000 20.6651 0.0000
# 6 0.0000 0.0000 0.0000 0.0000 0.0000 27.0781
#
#
#
# Elastic Compliance Matrix: (Units=1/GPa)
#
#
# Indices 1 2 3 4 5 6 
#
# 1 0.015779 -0.004805 -0.007211 0.000000 0.000000 0.000000
# 2 -0.004805 0.013849 -0.007143 0.000000 0.000000 0.000000
# 3 -0.007211 -0.007143 0.026682 0.000000 0.000000 0.000000
# 4 0.000000 0.000000 0.000000 0.191514 0.000000 0.000000
# 5 0.000000 0.000000 0.000000 0.000000 0.048391 0.000000
# 6 0.000000 0.000000 0.000000 0.000000 0.000000 0.036930
#
#
# Mechanical properties :
#
#
# Convention : Reuss Voigt Hill
#
# Bulk Modulus (GPa) = 55.57917 62.79684 59.18801
# Shear Modulus (GPa) = 13.24641 19.39337 16.31989
#
# Velocity S-wave (km/s) = 2.78208 3.36626 3.08802
# Velocity P-wave (km/s) = 6.54182 7.19734 6.87739
#
# Compressibility (1/GPa) = 0.01799235
#
# Stress axis : x y z
#
# Youngs Moduli (GPa) = 63.37481 72.20502 37.47874
#
# Poissons Ratio (x) = 0.34693 0.27026
# Poissons Ratio (y) = 0.30450 0.26772
# Poissons Ratio (z) = 0.45700 0.51577
#
# Static dielectric constant tensor:
#      x y z
#    x 3.412830 0.000000 0.000000 
#    y 0.000000 3.066060 0.000000 
#    z 0.000000 0.000000 0.825890 
# 
# 
# High freq. dielectric constant tensor:
#      x y z
#    x 1.677600 0.000000 0.000000 
#    y 0.000000 1.641330 0.000000 
#    z 0.000000 0.000000 1.636840 
# 
# From -- ./inp_files/31394.got.cif
#   From: 2010.03.12/outbox.cif.g09.slc.cpg/sg53_16_cif.got.tgz:31394.got - 2010.04.16 14:36:59.
