data_PCOD8218017
_publ_section_title
;
Structure prediction by ZEFSAII (Michael W. Deem and Ramdas Pophale) SiO2 
 PCOD8218017
Probable space group: P M N A
;
_chemical_formula_sum "Si O2"
_cell_formula_units_Z 48
_cell_length_a 8.037299
_cell_length_b 15.256834
_cell_length_c 20.918523
_cell_angle_alpha 90.000000
_cell_angle_beta 90.000000
_cell_angle_gamma 90.000000
_cell_volume 2565.107455
_symmetry_space_group_name_H-M "P M N A"
_symmetry_group_IT_number 53
_symmetry_cell_setting 'orthorhombic'
loop_
_space_group_symop_operation_xyz
x,y,z
1/2-x,-y,1/2+z
x,-y,-z
1/2-x,y,1/2-z
-x,-y,-z
1/2+x,y,1/2-z
-x,y,z
1/2+x,-y,1/2+z
loop_
_atom_site_type_symbol
_atom_site_label
_atom_site_fract_x
_atom_site_fract_y
_atom_site_fract_z
Si Si1 0.000000 0.127537 0.442795
Si Si2 0.184617 0.771771 0.962702
Si Si3 0.500000 0.067327 0.910833
Si Si4 0.196412 0.681236 0.318208
Si Si5 0.807333 0.572816 0.951664
Si Si6 0.681278 0.834419 0.397169
Si Si7 0.693250 0.514513 0.817513
O O1 0.834835 0.183201 0.422642
O O2 0.000000 0.105495 0.517781
O O3 0.000000 0.037063 0.404262
O O4 0.230875 0.670334 0.977183
O O5 0.000000 0.776872 0.928963
O O6 0.174004 0.827015 0.026998
O O7 0.668150 0.101419 0.875717
O O8 0.250000 0.720596 0.250000
O O9 0.288303 0.737215 0.371579
O O10 0.269989 0.582950 0.324496
O O11 0.000000 0.686928 0.328850
O O12 0.739293 0.570835 0.879345
O O13 0.000000 0.551713 0.947709
O O14 0.725321 0.500000 0.000000
O O15 0.500000 0.869892 0.373302
O O16 0.750000 0.558336 0.750000
O O17 0.500000 0.503648 0.813369
#
# Coordination Sequence:
#
# PCOD8218017 Si02
#       7
#     4   8   4   8   8   8   8
#     4   9  18  32  51  70 102 132 161 210 254 304
#     4   9  19  32  49  74 103 137 171 209 254 307
#     4   9  18  32  48  74 100 128 164 204 252 311
#     4  10  19  31  46  69 101 134 172 208 246 302
#     4  10  20  34  51  75 108 140 178 221 266 308
#     4  10  18  31  50  72 103 134 166 202 254 307
#     4  10  21  34  50  72 103 142 180 219 258 304
#
# _framework density 18.712667
#
# number of rings (size 3 to 8) (size 9 to 14) (size 15 to 20)
#    0.000    2.333    0.833    2.000    1.167    4.333 
#    0.000    3.333    0.000    0.000    0.000    1.167 
#    0.000    0.000    0.000    0.000    0.000    0.000 
#
# Total GULP energy -594835.578075 kJ/mol
# GULP energy per Si atom -12392.407877 kJ/mol
# Density = 1.867008 g / cm^3
# Si number density = 18.712667 Si / 1000 Ang^3
#
#
#
# Elastic Constant Matrix: (Units=GPa)
#
#
# Indices 1 2 3 4 5 6 
#
# 1 127.1775 53.1005 13.1586 0.0000 0.0000 0.0000
# 2 53.1005 84.4366 3.0593 0.0000 0.0000 0.0000
# 3 13.1586 3.0593 47.3301 0.0000 0.0000 0.0000
# 4 0.0000 0.0000 0.0000 19.1434 0.0000 0.0000
# 5 0.0000 0.0000 0.0000 0.0000 21.3307 0.0000
# 6 0.0000 0.0000 0.0000 0.0000 0.0000 23.0661
#
#
#
# Elastic Compliance Matrix: (Units=1/GPa)
#
#
# Indices 1 2 3 4 5 6 
#
# 1 0.010976 -0.006808 -0.002611 0.000000 0.000000 0.000000
# 2 -0.006808 0.016094 0.000852 0.000000 0.000000 0.000000
# 3 -0.002611 0.000852 0.021799 0.000000 0.000000 0.000000
# 4 0.000000 0.000000 0.000000 0.052237 0.000000 0.000000
# 5 0.000000 0.000000 0.000000 0.000000 0.046881 0.000000
# 6 0.000000 0.000000 0.000000 0.000000 0.000000 0.043354
#
#
# Mechanical properties :
#
#
# Convention : Reuss Voigt Hill
#
# Bulk Modulus (GPa) = 31.51104 44.17567 37.84336
# Shear Modulus (GPa) = 22.82563 25.34975 24.08769
#
# Velocity S-wave (km/s) = 3.49635 3.68460 3.59170
# Velocity P-wave (km/s) = 5.75979 6.46222 6.12109
#
# Compressibility (1/GPa) = 0.03173491
#
# Stress axis : x y z
#
# Youngs Moduli (GPa) = 91.11063 62.13658 45.87341
#
# Poissons Ratio (x) = 0.42301 0.11979
# Poissons Ratio (y) = 0.62026 -0.03910
# Poissons Ratio (z) = 0.23792 -0.05297
#
# Static dielectric constant tensor:
#      x y z
#    x 3.872180 0.000000 0.000000 
#    y 0.000000 3.276870 0.000000 
#    z 0.000000 0.000000 3.020250 
# 
# 
# High freq. dielectric constant tensor:
#      x y z
#    x 1.745580 0.000000 0.000000 
#    y 0.000000 1.700840 0.000000 
#    z 0.000000 0.000000 1.681030 
# 
# From -- ./inp_files/26311.got.cif
#   From: 2010.03.12/outbox.cif.g09.slc.cpg/sg53_14_cif.got.tgz:26311.got - 2010.04.16 14:36:59.
