data_PCOD8218213
_publ_section_title
;
Structure prediction by ZEFSAII (Michael W. Deem and Ramdas Pophale) SiO2 
 PCOD8218213
Probable space group: P M N A
;
_chemical_formula_sum "Si O2"
_cell_formula_units_Z 64
_cell_length_a 9.396167
_cell_length_b 9.940848
_cell_length_c 38.290358
_cell_angle_alpha 90.000000
_cell_angle_beta 90.000000
_cell_angle_gamma 90.000000
_cell_volume 3576.544122
_symmetry_space_group_name_H-M "P M N A"
_symmetry_group_IT_number 53
_symmetry_cell_setting 'orthorhombic'
loop_
_space_group_symop_operation_xyz
x,y,z
1/2-x,-y,1/2+z
x,-y,-z
1/2-x,y,1/2-z
-x,-y,-z
1/2+x,y,1/2-z
-x,y,z
1/2+x,-y,1/2+z
loop_
_atom_site_type_symbol
_atom_site_label
_atom_site_fract_x
_atom_site_fract_y
_atom_site_fract_z
Si Si1 0.340184 0.771876 0.145496
Si Si2 0.668799 0.467006 0.899170
Si Si3 0.334264 0.184073 0.216154
Si Si4 0.839290 0.019236 0.403685
Si Si5 0.332848 0.094523 0.531881
Si Si6 0.332247 0.735413 0.859569
Si Si7 0.665515 0.594375 0.467252
Si Si8 0.834081 0.130818 0.717177
O O1 0.500000 0.718868 0.151033
O O2 0.264539 0.660855 0.121393
O O3 0.340211 0.915449 0.127733
O O4 0.270884 0.789851 0.183663
O O5 0.500000 0.457519 0.905935
O O6 0.710962 0.592916 0.875388
O O7 0.744698 0.471885 0.936305
O O8 0.250000 0.240959 0.250000
O O9 0.500000 0.216580 0.221945
O O10 0.274725 0.251804 0.180269
O O11 0.305205 0.026375 0.212136
O O12 0.742424 0.964050 0.434320
O O13 0.000000 0.041923 0.417978
O O14 0.771783 0.154033 0.386841
O O15 0.500000 0.083219 0.538054
O O16 0.288395 0.250449 0.525213
O O17 0.283924 0.000000 0.500000
O O18 0.500000 0.759464 0.857659
O O19 0.699819 0.500000 0.500000
O O20 0.500000 0.588639 0.457332
O O21 0.750000 0.189602 0.750000
O O22 0.000000 0.159114 0.722334
#
# Coordination Sequence:
#
# PCOD8218213 Si02
#       8
#     8   8   8   8   8   8   8   8
#     4   9  16  30  52  73  98 131 164 204 253 298
#     4  10  20  35  55  78 101 131 173 212 249 298
#     4   9  16  29  48  70  99 132 166 205 251 298
#     4  10  18  33  55  77 101 131 170 213 254 294
#     4  10  22  38  54  76 105 135 167 206 253 304
#     4   9  18  32  52  78 105 134 169 212 257 300
#     4  10  22  39  55  73 103 140 168 199 254 311
#     4   9  16  28  47  71  98 130 166 204 249 298
#
# _framework density 17.894369000000001
#
# number of rings (size 3 to 8) (size 9 to 14) (size 15 to 20)
#    0.000    2.500    2.500    0.000    1.750    0.500 
#    0.000    3.125    0.000    0.000    0.000    0.000 
#    0.000    0.000    0.000    0.000    0.000    0.000 
#
# Total GULP energy -793303.806005 kJ/mol
# GULP energy per Si atom -12395.371969 kJ/mol
# Density = 1.785364 g / cm^3
# Si number density = 17.894369 Si / 1000 Ang^3
#
#
#
# Elastic Constant Matrix: (Units=GPa)
#
#
# Indices 1 2 3 4 5 6 
#
# 1 31.8179 21.4914 44.9064 0.0000 0.0000 0.0000
# 2 21.4914 74.9582 45.3810 0.0000 0.0000 0.0000
# 3 44.9064 45.3810 148.6535 0.0000 0.0000 0.0000
# 4 0.0000 0.0000 0.0000 31.3614 0.0000 0.0000
# 5 0.0000 0.0000 0.0000 0.0000 27.5651 0.0000
# 6 0.0000 0.0000 0.0000 0.0000 0.0000 16.3347
#
#
#
# Elastic Compliance Matrix: (Units=1/GPa)
#
#
# Indices 1 2 3 4 5 6 
#
# 1 0.057934 -0.007379 -0.015249 0.000000 0.000000 0.000000
# 2 -0.007379 0.017305 -0.003054 0.000000 0.000000 0.000000
# 3 -0.015249 -0.003054 0.012266 0.000000 0.000000 0.000000
# 4 0.000000 0.000000 0.000000 0.031886 0.000000 0.000000
# 5 0.000000 0.000000 0.000000 0.000000 0.036278 0.000000
# 6 0.000000 0.000000 0.000000 0.000000 0.000000 0.061219
#
#
# Mechanical properties :
#
#
# Convention : Reuss Voigt Hill
#
# Bulk Modulus (GPa) = 27.66814 53.22080 40.44447
# Shear Modulus (GPa) = 17.83815 24.62895 21.23355
#
# Velocity S-wave (km/s) = 3.16073 3.71395 3.44845
# Velocity P-wave (km/s) = 5.36803 6.94244 6.20537
#
# Compressibility (1/GPa) = 0.03614266
#
# Stress axis : x y z
#
# Youngs Moduli (GPa) = 17.26105 57.78607 81.52756
#
# Poissons Ratio (x) = 0.42638 1.24318
# Poissons Ratio (y) = 0.12736 0.24898
# Poissons Ratio (z) = 0.26321 0.17648
#
# Static dielectric constant tensor:
#      x y z
#    x 3.050480 0.000000 0.000000 
#    y 0.000000 3.374260 0.000000 
#    z 0.000000 0.000000 3.496480 
# 
# 
# High freq. dielectric constant tensor:
#      x y z
#    x 1.656300 0.000000 0.000000 
#    y 0.000000 1.688840 0.000000 
#    z 0.000000 0.000000 1.706590 
# 
# From -- ./inp_files/38746.got.cif
#   From: 2010.03.12/outbox.cif.g09.slc.cpg/sg53_20_cif.got.tgz:38746.got - 2010.04.16 14:36:59.
