data_PCOD8218041
_publ_section_title
;
Structure prediction by ZEFSAII (Michael W. Deem and Ramdas Pophale) SiO2 
 PCOD8218041
Probable space group: P M N A
;
_chemical_formula_sum "Si O2"
_cell_formula_units_Z 64
_cell_length_a 14.425227
_cell_length_b 12.138627
_cell_length_c 19.276513
_cell_angle_alpha 90.000000
_cell_angle_beta 90.000000
_cell_angle_gamma 90.000000
_cell_volume 3375.364653
_symmetry_space_group_name_H-M "P M N A"
_symmetry_group_IT_number 53
_symmetry_cell_setting 'orthorhombic'
loop_
_space_group_symop_operation_xyz
x,y,z
1/2-x,-y,1/2+z
x,-y,-z
1/2-x,y,1/2-z
-x,-y,-z
1/2+x,y,1/2-z
-x,y,z
1/2+x,-y,1/2+z
loop_
_atom_site_type_symbol
_atom_site_label
_atom_site_fract_x
_atom_site_fract_y
_atom_site_fract_z
Si Si1 0.602572 0.268429 0.656480
Si Si2 0.395329 0.640864 0.821342
Si Si3 0.274305 0.009028 0.917025
Si Si4 0.110194 0.881010 0.689747
Si Si5 0.895014 0.018852 0.823277
Si Si6 0.107780 0.596251 0.291194
Si Si7 0.209310 0.257877 0.595704
Si Si8 0.604810 0.377833 0.016535
O O1 0.500000 0.284465 0.623568
O O2 0.609707 0.148964 0.692846
O O3 0.622023 0.360576 0.713958
O O4 0.679764 0.280783 0.596941
O O5 0.500000 0.634954 0.794736
O O6 0.353172 0.756328 0.793504
O O7 0.348059 0.527520 0.794379
O O8 0.388623 0.646941 0.903469
O O9 0.170439 0.987236 0.887979
O O10 0.310141 0.129042 0.893964
O O11 0.344027 0.922581 0.881798
O O12 0.273455 0.000000 0.000000
O O13 0.000000 0.881358 0.677431
O O14 0.140098 0.957128 0.754127
O O15 0.000000 0.982508 0.842179
O O16 0.159900 0.675754 0.343619
O O17 0.000000 0.594649 0.313672
O O18 0.172229 0.292458 0.521002
O O19 0.500000 0.363373 0.988511
O O20 0.640588 0.500000 0.000000
#
# Coordination Sequence:
#
# PCOD8218041 Si02
#       8
#     8   8   8   8   8   8   8   8
#     4   9  19  34  52  76 103 129 170 223 266 303
#     4   9  18  32  51  77 108 139 171 207 254 317
#     4  11  23  36  53  80 112 142 179 226 272 322
#     4  10  20  35  55  79 112 147 176 213 271 333
#     4   9  19  38  60  78 100 141 187 228 273 317
#     4  10  18  31  53  80 106 132 169 214 259 311
#     4  11  20  32  53  76 103 135 172 213 259 313
#     4  10  18  31  51  77 107 138 168 205 257 319
#
# _framework density 18.960915
#
# number of rings (size 3 to 8) (size 9 to 14) (size 15 to 20)
#    0.000    2.125    1.250    2.625    0.000    4.500 
#    0.000    2.500    0.000    0.375    0.000    0.000 
#    0.000    0.000    0.000    0.000    0.000    0.000 
#
# Total GULP energy -793390.742553 kJ/mol
# GULP energy per Si atom -12396.730352 kJ/mol
# Density = 1.891776 g / cm^3
# Si number density = 18.960915 Si / 1000 Ang^3
#
#
#
# Elastic Constant Matrix: (Units=GPa)
#
#
# Indices 1 2 3 4 5 6 
#
# 1 69.6685 44.6210 34.9498 0.0000 0.0000 0.0000
# 2 44.6210 123.1144 35.4364 0.0000 0.0000 0.0000
# 3 34.9498 35.4364 69.2871 0.0000 0.0000 0.0000
# 4 0.0000 0.0000 0.0000 27.1587 0.0000 0.0000
# 5 0.0000 0.0000 0.0000 0.0000 28.3184 0.0000
# 6 0.0000 0.0000 0.0000 0.0000 0.0000 -5.1795
#
#
#
# Elastic Compliance Matrix: (Units=1/GPa)
#
#
# Indices 1 2 3 4 5 6 
#
# 1 0.022111 -0.005633 -0.008273 0.000000 0.000000 0.000000
# 2 -0.005633 0.010960 -0.002764 0.000000 0.000000 0.000000
# 3 -0.008273 -0.002764 0.020019 0.000000 0.000000 0.000000
# 4 0.000000 0.000000 0.000000 0.036821 0.000000 0.000000
# 5 0.000000 0.000000 0.000000 0.000000 0.035313 0.000000
# 6 0.000000 0.000000 0.000000 0.000000 0.000000 -0.193068
#
#
# Mechanical properties :
#
#
# Convention : Reuss Voigt Hill
#
# Bulk Modulus (GPa) = 50.62896 54.67603 52.65250
# Shear Modulus (GPa) = -179.06870 19.86370 -79.60250
#
# Velocity S-wave (km/s) = -9.72862 3.24020 -6.48641
# Velocity P-wave (km/s) = 9.97171 6.54960 5.31684
#
# Compressibility (1/GPa) = 0.01975154
#
# Stress axis : x y z
#
# Youngs Moduli (GPa) = 45.22554 91.24422 49.95225
#
# Poissons Ratio (x) = 0.51396 0.41323
# Poissons Ratio (y) = 0.25475 0.13806
# Poissons Ratio (z) = 0.37413 0.25219
#
# Static dielectric constant tensor:
#      x y z
#    x 3.554540 0.000000 0.000000 
#    y 0.000000 3.816830 0.000000 
#    z 0.000000 0.000000 3.113710 
# 
# 
# High freq. dielectric constant tensor:
#      x y z
#    x 1.729300 0.000000 0.000000 
#    y 0.000000 1.750030 0.000000 
#    z 0.000000 0.000000 1.711790 
# 
# From -- ./inp_files/28557.got.cif
#   From: 2010.03.12/outbox.cif.g09.slc.cpg/sg53_15_cif.got.tgz:28557.got - 2010.04.16 14:36:59.
