data_PCOD8218463
_publ_section_title
;
Structure prediction by ZEFSAII (Michael W. Deem and Ramdas Pophale) SiO2 
 PCOD8218463
Probable space group: P M N A
;
_chemical_formula_sum "Si O2"
_cell_formula_units_Z 64
_cell_length_a 9.021174
_cell_length_b 14.303599
_cell_length_c 28.230656
_cell_angle_alpha 90.000000
_cell_angle_beta 90.000000
_cell_angle_gamma 90.000000
_cell_volume 3642.749907
_symmetry_space_group_name_H-M "P M N A"
_symmetry_group_IT_number 53
_symmetry_cell_setting 'orthorhombic'
loop_
_space_group_symop_operation_xyz
x,y,z
1/2-x,-y,1/2+z
x,-y,-z
1/2-x,y,1/2-z
-x,-y,-z
1/2+x,y,1/2-z
-x,y,z
1/2+x,-y,1/2+z
loop_
_atom_site_type_symbol
_atom_site_label
_atom_site_fract_x
_atom_site_fract_y
_atom_site_fract_z
Si Si1 0.674003 0.860203 0.927082
Si Si2 0.328998 0.538483 0.111716
Si Si3 0.674911 0.862060 0.200863
Si Si4 0.170305 0.642108 0.027819
Si Si5 0.829824 0.857197 0.024129
Si Si6 0.673245 0.353071 0.798041
Si Si7 0.174835 0.973158 0.116674
Si Si8 0.330359 0.350766 0.067634
O O1 0.500000 0.880458 0.923112
O O2 0.714525 0.752571 0.914639
O O3 0.762110 0.922082 0.888819
O O4 0.727261 0.885325 0.980082
O O5 0.500000 0.566953 0.108379
O O6 0.250683 0.582798 0.067118
O O7 0.263320 0.580464 0.160328
O O8 0.307225 0.425811 0.109983
O O9 0.750000 0.892260 0.250000
O O10 0.500000 0.879566 0.204183
O O11 0.712271 0.754072 0.189510
O O12 0.743867 0.924881 0.160111
O O13 0.196327 0.750667 0.039122
O O14 0.000000 0.614119 0.028361
O O15 0.232378 0.616147 0.976409
O O16 0.783565 0.918752 0.068806
O O17 0.000000 0.875211 0.009064
O O18 0.750000 0.385939 0.750000
O O19 0.500000 0.367000 0.790671
O O20 0.000000 0.974732 0.126268
O O21 0.500000 0.349388 0.050151
#
# Coordination Sequence:
#
# PCOD8218463 Si02
#       8
#     8   8   8   8   8   8   8   8
#     4  10  20  33  49  70  96 130 171 210 245 284
#     4  10  19  32  50  71  96 129 166 199 238 290
#     4  10  20  35  54  77 103 128 156 193 239 290
#     4  10  19  30  46  71 101 130 162 201 242 286
#     4   9  19  33  47  68 101 135 163 197 245 296
#     4   9  19  34  53  76 101 127 155 192 238 288
#     4  11  21  33  51  73  98 130 165 201 245 294
#     4   9  19  34  49  66  95 134 169 202 242 286
#
# _framework density 17.569144000000001
#
# number of rings (size 3 to 8) (size 9 to 14) (size 15 to 20)
#    0.000    2.250    0.000    3.000    0.000    6.500 
#    0.000    0.000    0.000    0.750    0.000    1.750 
#    0.000    0.000    0.000    0.000    0.000    0.000 
#
# Total GULP energy -793712.847048 kJ/mol
# GULP energy per Si atom -12401.763235 kJ/mol
# Density = 1.752916 g / cm^3
# Si number density = 17.569144 Si / 1000 Ang^3
#
#
#
# Elastic Constant Matrix: (Units=GPa)
#
#
# Indices 1 2 3 4 5 6 
#
# 1 70.1470 46.0788 46.6981 0.0000 0.0000 0.0000
# 2 46.0788 104.4612 80.7969 0.0000 0.0000 0.0000
# 3 46.6981 80.7969 97.8050 0.0000 0.0000 0.0000
# 4 0.0000 0.0000 0.0000 29.6347 0.0000 0.0000
# 5 0.0000 0.0000 0.0000 0.0000 31.1852 0.0000
# 6 0.0000 0.0000 0.0000 0.0000 0.0000 24.1209
#
#
#
# Elastic Compliance Matrix: (Units=1/GPa)
#
#
# Indices 1 2 3 4 5 6 
#
# 1 0.021571 -0.004290 -0.006755 0.000000 0.000000 0.000000
# 2 -0.004290 0.027368 -0.020560 0.000000 0.000000 0.000000
# 3 -0.006755 -0.020560 0.030435 0.000000 0.000000 0.000000
# 4 0.000000 0.000000 0.000000 0.033744 0.000000 0.000000
# 5 0.000000 0.000000 0.000000 0.000000 0.032067 0.000000
# 6 0.000000 0.000000 0.000000 0.000000 0.000000 0.041458
#
#
# Mechanical properties :
#
#
# Convention : Reuss Voigt Hill
#
# Bulk Modulus (GPa) = 61.87269 68.84010 65.35639
# Shear Modulus (GPa) = 19.58929 23.57746 21.58338
#
# Velocity S-wave (km/s) = 3.34276 3.66728 3.50877
# Velocity P-wave (km/s) = 7.08462 7.56303 7.32773
#
# Compressibility (1/GPa) = 0.01616222
#
# Stress axis : x y z
#
# Youngs Moduli (GPa) = 46.35845 36.53874 32.85731
#
# Poissons Ratio (x) = 0.15677 0.22195
# Poissons Ratio (y) = 0.19890 0.67556
# Poissons Ratio (z) = 0.31315 0.75125
#
# Static dielectric constant tensor:
#      x y z
#    x 3.312960 0.000000 0.000000 
#    y 0.000000 3.495840 0.000000 
#    z 0.000000 0.000000 3.179030 
# 
# 
# High freq. dielectric constant tensor:
#      x y z
#    x 1.686040 0.000000 0.000000 
#    y 0.000000 1.683450 0.000000 
#    z 0.000000 0.000000 1.657400 
# 
# From -- ./inp_files/34165.got.cif
#   From: 2010.03.12/outbox.cif.g09.slc.cpg/sg53_18_cif.got.tgz:34165.got - 2010.04.16 14:36:59.
