data_PCOD8218029
_publ_section_title
;
Structure prediction by ZEFSAII (Michael W. Deem and Ramdas Pophale) SiO2 
 PCOD8218029
Probable space group: P M N A
;
_chemical_formula_sum "Si O2"
_cell_formula_units_Z 64
_cell_length_a 9.023750
_cell_length_b 16.088609
_cell_length_c 24.182128
_cell_angle_alpha 90.000000
_cell_angle_beta 90.000000
_cell_angle_gamma 90.000000
_cell_volume 3510.751319
_symmetry_space_group_name_H-M "P M N A"
_symmetry_group_IT_number 53
_symmetry_cell_setting 'orthorhombic'
loop_
_space_group_symop_operation_xyz
x,y,z
1/2-x,-y,1/2+z
x,-y,-z
1/2-x,y,1/2-z
-x,-y,-z
1/2+x,y,1/2-z
-x,y,z
1/2+x,-y,1/2+z
loop_
_atom_site_type_symbol
_atom_site_label
_atom_site_fract_x
_atom_site_fract_y
_atom_site_fract_z
Si Si1 0.671986 0.638509 0.392879
Si Si2 0.326933 0.991907 0.693902
Si Si3 0.323398 0.714364 0.582465
Si Si4 0.171100 0.467946 0.056781
Si Si5 0.835849 0.889431 0.383918
Si Si6 0.665277 0.266621 0.804530
Si Si7 0.176438 0.764111 0.474190
Si Si8 0.173000 0.199639 0.194517
O O1 0.500000 0.664356 0.393603
O O2 0.692386 0.539304 0.397621
O O3 0.745323 0.660094 0.334500
O O4 0.751063 0.685196 0.443591
O O5 0.250000 0.025447 0.750000
O O6 0.500000 0.006606 0.701423
O O7 0.284835 0.896258 0.684222
O O8 0.274398 0.040864 0.639201
O O9 0.500000 0.722904 0.575850
O O10 0.263055 0.619545 0.577883
O O11 0.244016 0.769727 0.535485
O O12 0.270956 0.748157 0.641915
O O13 0.000000 0.450270 0.043858
O O14 0.247674 0.500000 0.000000
O O15 0.840340 0.813075 0.342514
O O16 0.783553 0.850997 0.442854
O O17 0.000000 0.928850 0.389209
O O18 0.750000 0.239968 0.750000
O O19 0.500000 0.298324 0.790866
O O20 0.000000 0.751262 0.475102
O O21 0.250000 0.233754 0.250000
O O22 0.000000 0.210961 0.203438
#
# Coordination Sequence:
#
# PCOD8218029 Si02
#       8
#     8   8   8   8   8   8   8   8
#     4  10  18  31  51  73 101 136 172 209 254 301
#     4  10  19  32  52  77 101 130 172 215 257 303
#     4  10  19  35  57  78 103 135 172 212 256 308
#     4   9  16  29  52  80 102 128 170 210 249 303
#     4   9  19  33  49  72 103 135 169 210 252 299
#     4  10  20  33  48  70 102 137 175 211 252 306
#     4  10  20  33  49  75 108 137 169 209 254 305
#     4   9  20  37  57  79 103 133 169 213 259 304
#
# _framework density 18.229717000000001
#
# number of rings (size 3 to 8) (size 9 to 14) (size 15 to 20)
#    0.000    2.375    1.250    2.625    0.000    5.000 
#    0.000    3.125    0.000    5.250    0.000    0.000 
#    0.000    0.000    0.000    0.000    0.000    0.000 
#
# Total GULP energy -793487.566347 kJ/mol
# GULP energy per Si atom -12398.243224 kJ/mol
# Density = 1.818823 g / cm^3
# Si number density = 18.229717 Si / 1000 Ang^3
#
#
#
# Elastic Constant Matrix: (Units=GPa)
#
#
# Indices 1 2 3 4 5 6 
#
# 1 79.2094 33.2084 44.4341 0.0000 0.0000 0.0000
# 2 33.2084 81.5077 51.5912 0.0000 0.0000 0.0000
# 3 44.4341 51.5912 116.8522 0.0000 0.0000 0.0000
# 4 0.0000 0.0000 0.0000 25.1512 0.0000 0.0000
# 5 0.0000 0.0000 0.0000 0.0000 32.0174 0.0000
# 6 0.0000 0.0000 0.0000 0.0000 0.0000 13.5071
#
#
#
# Elastic Compliance Matrix: (Units=1/GPa)
#
#
# Indices 1 2 3 4 5 6 
#
# 1 0.016901 -0.003911 -0.004700 0.000000 0.000000 0.000000
# 2 -0.003911 0.017932 -0.006430 0.000000 0.000000 0.000000
# 3 -0.004700 -0.006430 0.013184 0.000000 0.000000 0.000000
# 4 0.000000 0.000000 0.000000 0.039760 0.000000 0.000000
# 5 0.000000 0.000000 0.000000 0.000000 0.031233 0.000000
# 6 0.000000 0.000000 0.000000 0.000000 0.000000 0.074035
#
#
# Mechanical properties :
#
#
# Convention : Reuss Voigt Hill
#
# Bulk Modulus (GPa) = 55.75664 59.55963 57.65813
# Shear Modulus (GPa) = 21.82403 24.02417 22.92410
#
# Velocity S-wave (km/s) = 3.46376 3.63417 3.54999
# Velocity P-wave (km/s) = 6.83000 7.09593 6.96423
#
# Compressibility (1/GPa) = 0.01793508
#
# Stress axis : x y z
#
# Youngs Moduli (GPa) = 59.16799 55.76569 75.84974
#
# Poissons Ratio (x) = 0.21810 0.35650
# Poissons Ratio (y) = 0.23140 0.48772
# Poissons Ratio (z) = 0.27809 0.35857
#
# Static dielectric constant tensor:
#      x y z
#    x 3.344870 0.000000 0.000000 
#    y 0.000000 3.326270 0.000000 
#    z 0.000000 0.000000 3.480240 
# 
# 
# High freq. dielectric constant tensor:
#      x y z
#    x 1.699930 0.000000 0.000000 
#    y 0.000000 1.692030 0.000000 
#    z 0.000000 0.000000 1.701560 
# 
# From -- ./inp_files/34201.got.cif
#   From: 2010.03.12/outbox.cif.g09.slc.cpg/sg53_18_cif.got.tgz:34201.got - 2010.04.16 14:36:59.
