data_PCOD8218887
_publ_section_title
;
Structure prediction by ZEFSAII (Michael W. Deem and Ramdas Pophale) SiO2 
 PCOD8218887
Probable space group: P M N A
;
_chemical_formula_sum "Si O2"
_cell_formula_units_Z 56
_cell_length_a 9.119953
_cell_length_b 19.652645
_cell_length_c 17.908883
_cell_angle_alpha 90.000000
_cell_angle_beta 90.000000
_cell_angle_gamma 90.000000
_cell_volume 3209.830568
_symmetry_space_group_name_H-M "P M N A"
_symmetry_group_IT_number 53
_symmetry_cell_setting 'orthorhombic'
loop_
_space_group_symop_operation_xyz
x,y,z
1/2-x,-y,1/2+z
x,-y,-z
1/2-x,y,1/2-z
-x,-y,-z
1/2+x,y,1/2-z
-x,y,z
1/2+x,-y,1/2+z
loop_
_atom_site_type_symbol
_atom_site_label
_atom_site_fract_x
_atom_site_fract_y
_atom_site_fract_z
Si Si1 0.172583 0.851874 0.470048
Si Si2 0.171408 0.338725 0.325021
Si Si3 0.666703 0.434142 0.963785
Si Si4 0.326400 0.706678 0.982474
Si Si5 0.674922 0.056056 0.829536
Si Si6 0.665525 0.951857 0.570783
Si Si7 0.662271 0.508834 0.818329
O O1 0.226871 0.773394 0.472607
O O2 0.213260 0.884171 0.389388
O O3 0.251823 0.885097 0.541584
O O4 0.000000 0.859681 0.484185
O O5 0.250000 0.312921 0.250000
O O6 0.219845 0.291750 0.395062
O O7 0.218928 0.416705 0.345755
O O8 0.000000 0.331817 0.310861
O O9 0.500000 0.431742 0.996409
O O10 0.670091 0.447574 0.876368
O O11 0.747531 0.500000 0.000000
O O12 0.743332 0.361694 0.980528
O O13 0.500000 0.702559 0.989868
O O14 0.750000 0.073903 0.750000
O O15 0.500000 0.048165 0.819244
O O16 0.743112 0.985917 0.861468
O O17 0.500000 0.935192 0.598545
O O18 0.659045 0.000000 0.500000
O O19 0.750000 0.479109 0.750000
O O20 0.500000 0.521395 0.789368
#
# Coordination Sequence:
#
# PCOD8218887 Si02
#       7
#     8   8   8   8   8   8   8
#     4   9  18  32  50  73 101 133 166 203 246 294
#     4   9  16  27  44  65  88 115 150 195 244 292
#     4   9  14  24  44  69  90 115 162 214 246 278
#     4   9  16  28  47  69  94 127 168 207 244 287
#     4  10  19  32  52  77 103 131 165 202 242 287
#     4   9  17  31  52  75  98 125 159 198 239 286
#     4   9  16  26  43  65  88 114 148 197 250 292
#
# _framework density 17.446403
#
# number of rings (size 3 to 8) (size 9 to 14) (size 15 to 20)
#    0.000    2.857    1.429    0.857    0.000    2.286 
#    0.000    2.143    0.000    3.857    0.000    0.000 
#    0.000    0.000    0.000    0.000    0.000    0.000 
#
# Total GULP energy -693779.071551 kJ/mol
# GULP energy per Si atom -12388.911992 kJ/mol
# Density = 1.740669 g / cm^3
# Si number density = 17.446403 Si / 1000 Ang^3
#
#
#
# Elastic Constant Matrix: (Units=GPa)
#
#
# Indices 1 2 3 4 5 6 
#
# 1 55.3270 31.2537 42.2632 0.0000 0.0000 0.0000
# 2 31.2537 121.2595 59.8825 0.0000 0.0000 0.0000
# 3 42.2632 59.8825 106.5818 0.0000 0.0000 0.0000
# 4 0.0000 0.0000 0.0000 20.1676 0.0000 0.0000
# 5 0.0000 0.0000 0.0000 0.0000 27.6344 0.0000
# 6 0.0000 0.0000 0.0000 0.0000 0.0000 12.7527
#
#
#
# Elastic Compliance Matrix: (Units=1/GPa)
#
#
# Indices 1 2 3 4 5 6 
#
# 1 0.026368 -0.002260 -0.009186 0.000000 0.000000 0.000000
# 2 -0.002260 0.011607 -0.005625 0.000000 0.000000 0.000000
# 3 -0.009186 -0.005625 0.016186 0.000000 0.000000 0.000000
# 4 0.000000 0.000000 0.000000 0.049585 0.000000 0.000000
# 5 0.000000 0.000000 0.000000 0.000000 0.036187 0.000000
# 6 0.000000 0.000000 0.000000 0.000000 0.000000 0.078415
#
#
# Mechanical properties :
#
#
# Convention : Reuss Voigt Hill
#
# Bulk Modulus (GPa) = 49.95417 61.10744 55.53080
# Shear Modulus (GPa) = 19.29290 22.09551 20.69420
#
# Velocity S-wave (km/s) = 3.32902 3.56262 3.44780
# Velocity P-wave (km/s) = 6.59330 7.21283 6.91001
#
# Compressibility (1/GPa) = 0.02001835
#
# Stress axis : x y z
#
# Youngs Moduli (GPa) = 37.92485 86.15307 61.78281
#
# Poissons Ratio (x) = 0.19467 0.56755
# Poissons Ratio (y) = 0.08570 0.34756
# Poissons Ratio (z) = 0.34838 0.48465
#
# Static dielectric constant tensor:
#      x y z
#    x 3.084900 0.000000 0.000000 
#    y 0.000000 3.383240 0.000000 
#    z 0.000000 0.000000 3.344690 
# 
# 
# High freq. dielectric constant tensor:
#      x y z
#    x 1.643630 0.000000 0.000000 
#    y 0.000000 1.659870 0.000000 
#    z 0.000000 0.000000 1.669990 
# 
# From -- ./inp_files/26717.got.cif
#   From: 2010.03.12/outbox.cif.g09.slc.cpg/sg53_14_cif.got.tgz:26717.got - 2010.04.16 14:36:59.
