data_PCOD8218616
_publ_section_title
;
Structure prediction by ZEFSAII (Michael W. Deem and Ramdas Pophale) SiO2 
 PCOD8218616
Probable space group: P M N A
;
_chemical_formula_sum "Si O2"
_cell_formula_units_Z 56
_cell_length_a 9.084563
_cell_length_b 18.280708
_cell_length_c 19.577843
_cell_angle_alpha 90.000000
_cell_angle_beta 90.000000
_cell_angle_gamma 90.000000
_cell_volume 3251.336310
_symmetry_space_group_name_H-M "P M N A"
_symmetry_group_IT_number 53
_symmetry_cell_setting 'orthorhombic'
loop_
_space_group_symop_operation_xyz
x,y,z
1/2-x,-y,1/2+z
x,-y,-z
1/2-x,y,1/2-z
-x,-y,-z
1/2+x,y,1/2-z
-x,y,z
1/2+x,-y,1/2+z
loop_
_atom_site_type_symbol
_atom_site_label
_atom_site_fract_x
_atom_site_fract_y
_atom_site_fract_z
Si Si1 0.174191 0.346102 0.427695
Si Si2 0.670960 0.774127 0.821827
Si Si3 0.337934 0.494295 0.919063
Si Si4 0.671512 0.064410 0.177346
Si Si5 0.826112 0.647640 0.071676
Si Si6 0.670854 0.768305 0.321697
Si Si7 0.328240 0.070273 0.677224
O O1 0.232150 0.284262 0.376046
O O2 0.213904 0.425192 0.393884
O O3 0.254598 0.334369 0.499264
O O4 0.000000 0.340669 0.441189
O O5 0.750000 0.763267 0.750000
O O6 0.500000 0.760741 0.807495
O O7 0.696299 0.855072 0.855023
O O8 0.500000 0.475114 0.889553
O O9 0.224803 0.430800 0.897703
O O10 0.346994 0.500000 0.000000
O O11 0.750000 0.067760 0.250000
O O12 0.500000 0.046471 0.185126
O O13 0.750076 0.997182 0.135465
O O14 0.771263 0.709646 0.123900
O O15 0.000000 0.646686 0.062964
O O16 0.750000 0.756578 0.250000
O O17 0.500000 0.756817 0.306447
O O18 0.698299 0.849221 0.354765
O O19 0.250000 0.072446 0.750000
O O20 0.500000 0.052805 0.684546
#
# Coordination Sequence:
#
# PCOD8218616 Si02
#       7
#     8   8   8   8   8   8   8
#     4   9  18  33  50  68  91 121 154 185 221 269
#     4   9  18  31  47  68  95 122 150 186 225 267
#     4   8  15  29  48  67  88 117 152 185 220 266
#     4   9  15  24  40  63  88 114 146 183 220 258
#     4  10  19  31  48  71  94 115 148 192 229 264
#     4   9  19  32  46  67  94 121 150 186 226 269
#     4   9  15  25  41  61  86 115 147 182 219 260
#
# _framework density 17.223687000000002
#
# number of rings (size 3 to 8) (size 9 to 14) (size 15 to 20)
#    0.000    3.000    0.000    3.000    0.000    5.429 
#    0.000    0.714    0.000    4.286    0.000    6.000 
#    0.000    0.000    0.000    0.000    0.000    0.000 
#
# Total GULP energy -693754.683661 kJ/mol
# GULP energy per Si atom -12388.476494 kJ/mol
# Density = 1.718449 g / cm^3
# Si number density = 17.223687 Si / 1000 Ang^3
#
#
#
# Elastic Constant Matrix: (Units=GPa)
#
#
# Indices 1 2 3 4 5 6 
#
# 1 77.1100 61.8598 32.4117 0.0000 0.0000 0.0000
# 2 61.8598 183.5239 61.6311 0.0000 0.0000 0.0000
# 3 32.4117 61.6311 54.2484 0.0000 0.0000 0.0000
# 4 0.0000 0.0000 0.0000 17.2887 0.0000 0.0000
# 5 0.0000 0.0000 0.0000 0.0000 12.8756 0.0000
# 6 0.0000 0.0000 0.0000 0.0000 0.0000 46.3311
#
#
#
# Elastic Compliance Matrix: (Units=1/GPa)
#
#
# Indices 1 2 3 4 5 6 
#
# 1 0.019149 -0.004224 -0.006642 0.000000 0.000000 0.000000
# 2 -0.004224 0.009742 -0.008544 0.000000 0.000000 0.000000
# 3 -0.006642 -0.008544 0.032109 0.000000 0.000000 0.000000
# 4 0.000000 0.000000 0.000000 0.057841 0.000000 0.000000
# 5 0.000000 0.000000 0.000000 0.000000 0.077666 0.000000
# 6 0.000000 0.000000 0.000000 0.000000 0.000000 0.021584
#
#
# Mechanical properties :
#
#
# Convention : Reuss Voigt Hill
#
# Bulk Modulus (GPa) = 45.08632 69.63194 57.35913
# Shear Modulus (GPa) = 18.91759 25.89773 22.40766
#
# Velocity S-wave (km/s) = 3.31773 3.88185 3.61082
# Velocity P-wave (km/s) = 6.39611 7.78508 7.12452
#
# Compressibility (1/GPa) = 0.02217968
#
# Stress axis : x y z
#
# Youngs Moduli (GPa) = 52.22233 102.64964 31.14392
#
# Poissons Ratio (x) = 0.43358 0.20686
# Poissons Ratio (y) = 0.22058 0.26609
# Poissons Ratio (z) = 0.34687 0.87704
#
# Static dielectric constant tensor:
#      x y z
#    x 3.246760 0.000000 0.000000 
#    y 0.000000 4.578290 0.000000 
#    z 0.000000 0.000000 2.712920 
# 
# 
# High freq. dielectric constant tensor:
#      x y z
#    x 1.669920 0.000000 0.000000 
#    y 0.000000 1.695080 0.000000 
#    z 0.000000 0.000000 1.599020 
# 
# From -- ./inp_files/30985.got.cif
#   From: 2010.03.12/outbox.cif.g09.slc.cpg/sg53_16_cif.got.tgz:30985.got - 2010.04.16 14:36:59.
