data_PCOD8218768
_publ_section_title
;
Structure prediction by ZEFSAII (Michael W. Deem and Ramdas Pophale) SiO2 
 PCOD8218768
Probable space group: P M N A
;
_chemical_formula_sum "Si O2"
_cell_formula_units_Z 64
_cell_length_a 8.818344
_cell_length_b 15.117140
_cell_length_c 25.053675
_cell_angle_alpha 90.000000
_cell_angle_beta 90.000000
_cell_angle_gamma 90.000000
_cell_volume 3339.858835
_symmetry_space_group_name_H-M "P M N A"
_symmetry_group_IT_number 53
_symmetry_cell_setting 'orthorhombic'
loop_
_space_group_symop_operation_xyz
x,y,z
1/2-x,-y,1/2+z
x,-y,-z
1/2-x,y,1/2-z
-x,-y,-z
1/2+x,y,1/2-z
-x,y,z
1/2+x,-y,1/2+z
loop_
_atom_site_type_symbol
_atom_site_label
_atom_site_fract_x
_atom_site_fract_y
_atom_site_fract_z
Si Si1 0.662839 0.934739 0.954003
Si Si2 0.180292 0.777333 0.113899
Si Si3 0.679464 0.571802 0.694475
Si Si4 0.819494 0.277120 0.117361
Si Si5 0.179159 0.958448 0.352307
Si Si6 0.822048 0.372354 0.805163
Si Si7 0.324844 0.226087 0.494478
Si Si8 0.319783 0.878128 0.695766
O O1 0.500000 0.886690 0.939703
O O2 0.797526 0.872462 0.973711
O O3 0.726135 0.992576 0.906101
O O4 0.620370 0.000000 0.000000
O O5 0.251475 0.860434 0.144975
O O6 0.229182 0.690641 0.146655
O O7 0.000000 0.790972 0.111959
O O8 0.248486 0.762405 0.053610
O O9 0.750000 0.603389 0.750000
O O10 0.500000 0.578864 0.699466
O O11 0.742001 0.636926 0.648514
O O12 0.731739 0.471906 0.680706
O O13 0.759657 0.284502 0.055518
O O14 0.765782 0.185833 0.146593
O O15 0.000000 0.276931 0.116871
O O16 0.000000 0.950860 0.342527
O O17 0.255148 0.021471 0.307944
O O18 0.750000 0.338948 0.750000
O O19 0.000000 0.368671 0.796930
O O20 0.500000 0.246321 0.501468
O O21 0.250000 0.837084 0.750000
O O22 0.500000 0.880509 0.699890
#
# Coordination Sequence:
#
# PCOD8218768 Si02
#       8
#     8   8   8   8   8   8   8   8
#     4  10  19  32  49  72 101 132 174 220 257 297
#     4  10  21  35  53  78 107 138 177 220 260 311
#     4   9  17  33  56  79 104 132 170 216 260 310
#     4   9  18  32  52  78 106 137 171 211 258 312
#     4  11  22  35  52  74 102 138 177 217 262 307
#     4   9  19  36  57  80 103 132 170 216 264 309
#     4  10  19  32  51  75 105 140 175 209 256 313
#     4  11  22  36  52  74 106 140 177 218 263 314
#
# _framework density 19.162486999999999
#
# number of rings (size 3 to 8) (size 9 to 14) (size 15 to 20)
#    0.000    2.125    2.500    1.125    0.000    1.750 
#    0.000    3.125    0.000    3.750    0.000    0.000 
#    0.000    6.000    0.000    0.000    0.000    0.000 
#
# Total GULP energy -792953.950377 kJ/mol
# GULP energy per Si atom -12389.905475 kJ/mol
# Density = 1.911887 g / cm^3
# Si number density = 19.162487 Si / 1000 Ang^3
#
#
#
# Elastic Constant Matrix: (Units=GPa)
#
#
# Indices 1 2 3 4 5 6 
#
# 1 33.4072 22.9118 23.3387 0.0000 0.0000 0.0000
# 2 22.9118 109.2156 55.6529 0.0000 0.0000 0.0000
# 3 23.3387 55.6529 101.7007 0.0000 0.0000 0.0000
# 4 0.0000 0.0000 0.0000 33.9090 0.0000 0.0000
# 5 0.0000 0.0000 0.0000 0.0000 24.3719 0.0000
# 6 0.0000 0.0000 0.0000 0.0000 0.0000 17.4736
#
#
#
# Elastic Compliance Matrix: (Units=1/GPa)
#
#
# Indices 1 2 3 4 5 6 
#
# 1 0.037389 -0.004814 -0.005946 0.000000 0.000000 0.000000
# 2 -0.004814 0.013316 -0.006182 0.000000 0.000000 0.000000
# 3 -0.005946 -0.006182 0.014580 0.000000 0.000000 0.000000
# 4 0.000000 0.000000 0.000000 0.029491 0.000000 0.000000
# 5 0.000000 0.000000 0.000000 0.000000 0.041031 0.000000
# 6 0.000000 0.000000 0.000000 0.000000 0.000000 0.057229
#
#
# Mechanical properties :
#
#
# Convention : Reuss Voigt Hill
#
# Bulk Modulus (GPa) = 31.84551 49.79227 40.81889
# Shear Modulus (GPa) = 21.06257 24.64557 22.85407
#
# Velocity S-wave (km/s) = 3.31895 3.59016 3.45722
# Velocity P-wave (km/s) = 5.59839 6.57468 6.10608
#
# Compressibility (1/GPa) = 0.03140160
#
# Stress axis : x y z
#
# Youngs Moduli (GPa) = 26.74582 75.09549 68.58526
#
# Poissons Ratio (x) = 0.36149 0.40781
# Poissons Ratio (y) = 0.12875 0.42402
# Poissons Ratio (z) = 0.15903 0.46427
#
# Static dielectric constant tensor:
#      x y z
#    x 3.286810 0.000000 0.000000 
#    y 0.000000 3.539140 0.000000 
#    z 0.000000 0.000000 3.889930 
# 
# 
# High freq. dielectric constant tensor:
#      x y z
#    x 1.726010 0.000000 0.000000 
#    y 0.000000 1.728600 0.000000 
#    z 0.000000 0.000000 1.756100 
# 
# From -- ./inp_files/34322.got.cif
#   From: 2010.03.12/outbox.cif.g09.slc.cpg/sg53_18_cif.got.tgz:34322.got - 2010.04.16 14:36:59.
