data_PCOD8218206
_publ_section_title
;
Structure prediction by ZEFSAII (Michael W. Deem and Ramdas Pophale) SiO2 
 PCOD8218206
Probable space group: P M N A
;
_chemical_formula_sum "Si O2"
_cell_formula_units_Z 64
_cell_length_a 8.571100
_cell_length_b 12.067594
_cell_length_c 31.577316
_cell_angle_alpha 90.000000
_cell_angle_beta 90.000000
_cell_angle_gamma 90.000000
_cell_volume 3266.122472
_symmetry_space_group_name_H-M "P M N A"
_symmetry_group_IT_number 53
_symmetry_cell_setting 'orthorhombic'
loop_
_space_group_symop_operation_xyz
x,y,z
1/2-x,-y,1/2+z
x,-y,-z
1/2-x,y,1/2-z
-x,-y,-z
1/2+x,y,1/2-z
-x,y,z
1/2+x,-y,1/2+z
loop_
_atom_site_type_symbol
_atom_site_label
_atom_site_fract_x
_atom_site_fract_y
_atom_site_fract_z
Si Si1 0.320280 0.738405 0.937010
Si Si2 0.318322 0.254055 0.206407
Si Si3 0.315931 0.635524 0.392615
Si Si4 0.181997 0.600053 0.864041
Si Si5 0.678829 0.373878 0.513337
Si Si6 0.815684 0.984146 0.795458
Si Si7 0.682695 0.011609 0.047985
Si Si8 0.684170 0.122127 0.625001
O O1 0.500000 0.716633 0.924765
O O2 0.206612 0.666927 0.907446
O O3 0.279088 0.867780 0.932853
O O4 0.288925 0.702887 0.985010
O O5 0.250000 0.301200 0.250000
O O6 0.500000 0.228360 0.211115
O O7 0.288856 0.346566 0.171660
O O8 0.232421 0.140900 0.193851
O O9 0.500000 0.622910 0.396619
O O10 0.256019 0.526397 0.368044
O O11 0.248855 0.637944 0.439997
O O12 0.266557 0.748940 0.369243
O O13 0.000000 0.605909 0.851748
O O14 0.691723 0.500000 0.500000
O O15 0.500000 0.332122 0.510343
O O16 0.750000 0.023732 0.750000
O O17 0.747658 0.059078 0.833770
O O18 0.000000 0.993308 0.793173
O O19 0.500000 0.989190 0.046056
O O20 0.754945 0.922869 0.080167
O O21 0.751446 0.000000 0.000000
O O22 0.500000 0.109149 0.623732
#
# Coordination Sequence:
#
# PCOD8218206 Si02
#       8
#     8   8   8   8   8   8   8   8
#     4  11  22  34  52  80 110 142 183 233 279 326
#     4  11  22  38  60  87 115 142 176 220 273 330
#     4   9  19  36  56  78 109 147 187 231 276 327
#     4  11  21  37  58  80 110 146 182 224 273 325
#     4  10  18  33  54  77 104 145 191 231 277 330
#     4  10  20  36  60  88 114 143 182 226 278 336
#     4  10  22  38  53  75 112 151 185 226 282 337
#     4  10  21  37  58  83 109 144 190 234 279 335
#
# _framework density 19.595102000000001
#
# number of rings (size 3 to 8) (size 9 to 14) (size 15 to 20)
#    0.000    1.750    1.250    4.500    0.000    4.500 
#    0.000    1.875    0.000    1.500    0.000    0.000 
#    0.000    0.000    0.000    0.000    0.000    0.000 
#
# Total GULP energy -793648.847581 kJ/mol
# GULP energy per Si atom -12400.763243 kJ/mol
# Density = 1.955050 g / cm^3
# Si number density = 19.595102 Si / 1000 Ang^3
#
#
#
# Elastic Constant Matrix: (Units=GPa)
#
#
# Indices 1 2 3 4 5 6 
#
# 1 43.1310 19.9112 16.3342 0.0000 0.0000 0.0000
# 2 19.9112 116.0552 63.0441 0.0000 0.0000 0.0000
# 3 16.3342 63.0441 133.8481 0.0000 0.0000 0.0000
# 4 0.0000 0.0000 0.0000 38.1652 0.0000 0.0000
# 5 0.0000 0.0000 0.0000 0.0000 31.6000 0.0000
# 6 0.0000 0.0000 0.0000 0.0000 0.0000 16.1639
#
#
#
# Elastic Compliance Matrix: (Units=1/GPa)
#
#
# Indices 1 2 3 4 5 6 
#
# 1 0.025375 -0.003590 -0.001406 0.000000 0.000000 0.000000
# 2 -0.003590 0.012087 -0.005255 0.000000 0.000000 0.000000
# 3 -0.001406 -0.005255 0.010118 0.000000 0.000000 0.000000
# 4 0.000000 0.000000 0.000000 0.026202 0.000000 0.000000
# 5 0.000000 0.000000 0.000000 0.000000 0.031646 0.000000
# 6 0.000000 0.000000 0.000000 0.000000 0.000000 0.061866
#
#
# Mechanical properties :
#
#
# Convention : Reuss Voigt Hill
#
# Bulk Modulus (GPa) = 36.92970 54.62373 45.77672
# Shear Modulus (GPa) = 25.40374 30.10212 27.75293
#
# Velocity S-wave (km/s) = 3.60451 3.92370 3.76749
# Velocity P-wave (km/s) = 6.01753 6.96161 6.50671
#
# Compressibility (1/GPa) = 0.02707847
#
# Stress axis : x y z
#
# Youngs Moduli (GPa) = 39.40920 82.73210 98.83433
#
# Poissons Ratio (x) = 0.29699 0.13894
# Poissons Ratio (y) = 0.14147 0.51939
# Poissons Ratio (z) = 0.05540 0.43477
#
# Static dielectric constant tensor:
#      x y z
#    x 3.365630 0.000000 0.000000 
#    y 0.000000 3.714430 0.000000 
#    z 0.000000 0.000000 3.814660 
# 
# 
# High freq. dielectric constant tensor:
#      x y z
#    x 1.749130 0.000000 0.000000 
#    y 0.000000 1.766390 0.000000 
#    z 0.000000 0.000000 1.764220 
# 
# From -- ./inp_files/38240.got.cif
#   From: 2010.03.12/outbox.cif.g09.slc.cpg/sg53_20_cif.got.tgz:38240.got - 2010.04.16 14:36:59.
