data_PCOD8218103
_publ_section_title
;
Structure prediction by ZEFSAII (Michael W. Deem and Ramdas Pophale) SiO2 
 PCOD8218103
Probable space group: P M N A
;
_chemical_formula_sum "Si O2"
_cell_formula_units_Z 48
_cell_length_a 8.523395
_cell_length_b 15.409322
_cell_length_c 20.169319
_cell_angle_alpha 90.000000
_cell_angle_beta 90.000000
_cell_angle_gamma 90.000000
_cell_volume 2649.033075
_symmetry_space_group_name_H-M "P M N A"
_symmetry_group_IT_number 53
_symmetry_cell_setting 'orthorhombic'
loop_
_space_group_symop_operation_xyz
x,y,z
1/2-x,-y,1/2+z
x,-y,-z
1/2-x,y,1/2-z
-x,-y,-z
1/2+x,y,1/2-z
-x,y,z
1/2+x,-y,1/2+z
loop_
_atom_site_type_symbol
_atom_site_label
_atom_site_fract_x
_atom_site_fract_y
_atom_site_fract_z
Si Si1 0.813816 0.257186 0.891399
Si Si2 0.823609 0.927836 0.087698
Si Si3 0.816198 0.456374 0.068584
Si Si4 0.677829 0.111074 0.433024
Si Si5 0.318753 0.718183 0.965601
Si Si6 0.315567 0.417653 0.821918
O O1 0.750034 0.158077 0.877487
O O2 0.723265 0.318306 0.840316
O O3 0.000000 0.264224 0.879840
O O4 0.781541 0.285296 0.967005
O O5 0.000000 0.937176 0.113223
O O6 0.746434 0.023405 0.101480
O O7 0.822719 0.907155 0.010520
O O8 0.724203 0.365962 0.077627
O O9 0.771846 0.519156 0.127994
O O10 0.000000 0.437470 0.069498
O O11 0.762500 0.500000 0.000000
O O12 0.500000 0.127156 0.408061
O O13 0.780066 0.197209 0.420202
O O14 0.500000 0.718873 0.984967
O O15 0.250000 0.439292 0.750000
O O16 0.500000 0.433625 0.824788
#
# Coordination Sequence:
#
# PCOD8218103 Si02
#       6
#     8   8   8   8   8   8
#     4  10  18  32  51  73 101 137 177 216 260 312
#     4   7  12  23  43  66  93 131 171 207 248 300
#     4  11  22  37  58  79 103 139 182 225 272 322
#     4   8  13  25  42  64  96 134 171 208 252 304
#     4  11  20  29  46  75 107 138 173 217 268 319
#     4  12  25  40  57  79 108 140 177 221 270 324
#
# _framework density 18.119819
#
# number of rings (size 3 to 8) (size 9 to 14) (size 15 to 20)
#    0.000    2.167    1.667    6.000    0.000    0.667 
#    0.000    7.500    0.000    0.000    0.000    1.167 
#    0.000    2.667    0.000    0.000    0.000    0.000 
#
# Total GULP energy -594721.598215 kJ/mol
# GULP energy per Si atom -12390.033296 kJ/mol
# Density = 1.807858 g / cm^3
# Si number density = 18.119819 Si / 1000 Ang^3
#
#
#
# Elastic Constant Matrix: (Units=GPa)
#
#
# Indices 1 2 3 4 5 6 
#
# 1 52.4623 25.5068 4.2902 0.0000 0.0000 0.0000
# 2 25.5068 154.9940 35.8528 0.0000 0.0000 0.0000
# 3 4.2902 35.8528 59.3529 0.0000 0.0000 0.0000
# 4 0.0000 0.0000 0.0000 16.5685 0.0000 0.0000
# 5 0.0000 0.0000 0.0000 0.0000 18.6707 0.0000
# 6 0.0000 0.0000 0.0000 0.0000 0.0000 15.6354
#
#
#
# Elastic Compliance Matrix: (Units=1/GPa)
#
#
# Indices 1 2 3 4 5 6 
#
# 1 0.020741 -0.003565 0.000654 0.000000 0.000000 0.000000
# 2 -0.003565 0.008112 -0.004643 0.000000 0.000000 0.000000
# 3 0.000654 -0.004643 0.019606 0.000000 0.000000 0.000000
# 4 0.000000 0.000000 0.000000 0.060356 0.000000 0.000000
# 5 0.000000 0.000000 0.000000 0.000000 0.053560 0.000000
# 6 0.000000 0.000000 0.000000 0.000000 0.000000 0.063957
#
#
# Mechanical properties :
#
#
# Convention : Reuss Voigt Hill
#
# Bulk Modulus (GPa) = 29.98294 44.23432 37.10863
# Shear Modulus (GPa) = 19.79760 23.58554 21.69157
#
# Velocity S-wave (km/s) = 3.30903 3.61174 3.46369
# Velocity P-wave (km/s) = 5.58413 6.46978 6.04320
#
# Compressibility (1/GPa) = 0.03335230
#
# Stress axis : x y z
#
# Youngs Moduli (GPa) = 48.21393 123.26796 51.00588
#
# Poissons Ratio (x) = 0.43939 -0.03336
# Poissons Ratio (y) = 0.17186 0.23681
# Poissons Ratio (z) = -0.03153 0.57230
#
# Static dielectric constant tensor:
#      x y z
#    x 3.209830 0.000000 0.000000 
#    y 0.000000 4.267730 0.000000 
#    z 0.000000 0.000000 2.909240 
# 
# 
# High freq. dielectric constant tensor:
#      x y z
#    x 1.690900 0.000000 0.000000 
#    y 0.000000 1.732720 0.000000 
#    z 0.000000 0.000000 1.629410 
# 
# From -- ./inp_files/26258.got.cif
#   From: 2010.03.12/outbox.cif.g09.slc.cpg/sg53_14_cif.got.tgz:26258.got - 2010.04.16 14:36:59.
