data_PCOD8218005
_publ_section_title
;
Structure prediction by ZEFSAII (Michael W. Deem and Ramdas Pophale) SiO2 
 PCOD8218005
Probable space group: P M N A
;
_chemical_formula_sum "Si O2"
_cell_formula_units_Z 64
_cell_length_a 9.028466
_cell_length_b 18.857754
_cell_length_c 21.308927
_cell_angle_alpha 90.000000
_cell_angle_beta 90.000000
_cell_angle_gamma 90.000000
_cell_volume 3627.985265
_symmetry_space_group_name_H-M "P M N A"
_symmetry_group_IT_number 53
_symmetry_cell_setting 'orthorhombic'
loop_
_space_group_symop_operation_xyz
x,y,z
1/2-x,-y,1/2+z
x,-y,-z
1/2-x,y,1/2-z
-x,-y,-z
1/2+x,y,1/2-z
-x,y,z
1/2+x,-y,1/2+z
loop_
_atom_site_type_symbol
_atom_site_label
_atom_site_fract_x
_atom_site_fract_y
_atom_site_fract_z
Si Si1 0.171231 0.821414 0.018914
Si Si2 0.825483 0.972304 0.816434
Si Si3 0.833461 0.712126 0.687925
Si Si4 0.823901 0.043081 0.563118
Si Si5 0.168856 0.541270 0.065144
Si Si6 0.668011 0.415171 0.107175
Si Si7 0.174813 0.329743 0.516180
Si Si8 0.165045 0.825890 0.876993
O O1 0.263849 0.876584 0.060306
O O2 0.241087 0.743737 0.026421
O O3 0.000000 0.818529 0.040714
O O4 0.183984 0.851181 0.948291
O O5 0.750000 0.992784 0.750000
O O6 0.800119 0.889133 0.829000
O O7 0.000000 0.991154 0.814275
O O8 0.748910 0.012159 0.874158
O O9 0.750000 0.732437 0.750000
O O10 0.815089 0.629460 0.670977
O O11 0.776714 0.761206 0.631834
O O12 0.000000 0.733168 0.699960
O O13 0.000000 0.043145 0.571066
O O14 0.777762 0.000000 0.500000
O O15 0.231681 0.485036 0.115689
O O16 0.264297 0.613356 0.067034
O O17 0.000000 0.560180 0.080752
O O18 0.187040 0.500000 0.000000
O O19 0.500000 0.440065 0.095099
O O20 0.716683 0.362195 0.051403
O O21 0.000000 0.318207 0.524809
O O22 0.000000 0.796706 0.865764
#
# Coordination Sequence:
#
# PCOD8218005 Si02
#       8
#     8   8   8   8   8   8   8   8
#     4  11  21  34  54  80 110 143 180 223 274 327
#     4  11  23  40  59  82 110 145 187 232 281 331
#     4  11  22  34  48  69 100 139 183 224 265 313
#     4  11  23  38  58  83 111 145 185 229 279 336
#     4   9  17  28  45  70  96 126 163 204 250 301
#     4   9  18  31  46  66  95 133 171 212 259 307
#     4  10  18  31  49  72 102 134 169 209 258 314
#     4  10  21  35  53  76 105 143 182 223 270 321
#
# _framework density 17.640644000000002
#
# number of rings (size 3 to 8) (size 9 to 14) (size 15 to 20)
#    0.000    1.750    2.500    2.625    0.000    6.000 
#    0.000    0.000    0.000    0.000    0.000    0.875 
#    0.000    2.000    0.000    0.000    0.000    0.000 
#
# Total GULP energy -793461.927482 kJ/mol
# GULP energy per Si atom -12397.842617 kJ/mol
# Density = 1.760049 g / cm^3
# Si number density = 17.640644 Si / 1000 Ang^3
#
#
#
# Elastic Constant Matrix: (Units=GPa)
#
#
# Indices 1 2 3 4 5 6 
#
# 1 117.2154 59.7246 44.2502 0.0000 0.0000 0.0000
# 2 59.7246 97.7043 35.9416 0.0000 0.0000 0.0000
# 3 44.2502 35.9416 70.8441 0.0000 0.0000 0.0000
# 4 0.0000 0.0000 0.0000 14.1030 0.0000 0.0000
# 5 0.0000 0.0000 0.0000 0.0000 22.6818 0.0000
# 6 0.0000 0.0000 0.0000 0.0000 0.0000 35.8320
#
#
#
# Elastic Compliance Matrix: (Units=1/GPa)
#
#
# Indices 1 2 3 4 5 6 
#
# 1 0.013871 -0.006506 -0.005363 0.000000 0.000000 0.000000
# 2 -0.006506 0.015635 -0.003868 0.000000 0.000000 0.000000
# 3 -0.005363 -0.003868 0.019428 0.000000 0.000000 0.000000
# 4 0.000000 0.000000 0.000000 0.070907 0.000000 0.000000
# 5 0.000000 0.000000 0.000000 0.000000 0.044088 0.000000
# 6 0.000000 0.000000 0.000000 0.000000 0.000000 0.027908
#
#
# Mechanical properties :
#
#
# Convention : Reuss Voigt Hill
#
# Bulk Modulus (GPa) = 57.27842 62.84407 60.06125
# Shear Modulus (GPa) = 21.82145 24.24652 23.03399
#
# Velocity S-wave (km/s) = 3.52091 3.71141 3.61741
# Velocity P-wave (km/s) = 7.00494 7.35309 7.18113
#
# Compressibility (1/GPa) = 0.01745858
#
# Stress axis : x y z
#
# Youngs Moduli (GPa) = 72.09250 63.95887 51.47203
#
# Poissons Ratio (x) = 0.41613 0.27606
# Poissons Ratio (y) = 0.46904 0.19911
# Poissons Ratio (z) = 0.38665 0.24742
#
# Static dielectric constant tensor:
#      x y z
#    x 3.393910 0.000000 0.000000 
#    y 0.000000 3.243470 0.000000 
#    z 0.000000 0.000000 3.007120 
# 
# 
# High freq. dielectric constant tensor:
#      x y z
#    x 1.698350 0.000000 0.000000 
#    y 0.000000 1.680920 0.000000 
#    z 0.000000 0.000000 1.641830 
# 
# From -- ./inp_files/31140.got.cif
#   From: 2010.03.12/outbox.cif.g09.slc.cpg/sg53_16_cif.got.tgz:31140.got - 2010.04.16 14:36:59.
