data_PCOD8218757
_publ_section_title
;
Structure prediction by ZEFSAII (Michael W. Deem and Ramdas Pophale) SiO2 
 PCOD8218757
Probable space group: P M N A
;
_chemical_formula_sum "Si O2"
_cell_formula_units_Z 64
_cell_length_a 8.804074
_cell_length_b 16.873309
_cell_length_c 25.683886
_cell_angle_alpha 90.000000
_cell_angle_beta 90.000000
_cell_angle_gamma 90.000000
_cell_volume 3815.440432
_symmetry_space_group_name_H-M "P M N A"
_symmetry_group_IT_number 53
_symmetry_cell_setting 'orthorhombic'
loop_
_space_group_symop_operation_xyz
x,y,z
1/2-x,-y,1/2+z
x,-y,-z
1/2-x,y,1/2-z
-x,-y,-z
1/2+x,y,1/2-z
-x,y,z
1/2+x,-y,1/2+z
loop_
_atom_site_type_symbol
_atom_site_label
_atom_site_fract_x
_atom_site_fract_y
_atom_site_fract_z
Si Si1 0.179109 0.183162 0.402903
Si Si2 0.832436 0.492583 0.938319
Si Si3 0.678321 0.665039 0.056201
Si Si4 0.178910 0.914059 0.696682
Si Si5 0.679461 0.094418 0.803745
Si Si6 0.179440 0.334529 0.056700
Si Si7 0.321837 0.184644 0.601013
Si Si8 0.323887 0.092031 0.496619
O O1 0.236848 0.139211 0.351058
O O2 0.263412 0.267711 0.403734
O O3 0.221021 0.130396 0.452435
O O4 0.000000 0.197077 0.402336
O O5 0.716146 0.423345 0.922445
O O6 0.779734 0.579528 0.918075
O O7 0.000000 0.471240 0.916533
O O8 0.840816 0.500000 0.000000
O O9 0.500000 0.678685 0.057392
O O10 0.759688 0.726812 0.094085
O O11 0.737877 0.678607 0.998066
O O12 0.250000 0.880832 0.750000
O O13 0.000000 0.909736 0.702142
O O14 0.232855 0.004032 0.686312
O O15 0.750000 0.126022 0.750000
O O16 0.500000 0.101359 0.800583
O O17 0.739722 0.148246 0.849699
O O18 0.000000 0.327399 0.046539
O O19 0.500000 0.187213 0.611299
O O20 0.280599 0.131804 0.551098
O O21 0.500000 0.106149 0.482628
O O22 0.283486 0.000000 0.500000
#
# Coordination Sequence:
#
# PCOD8218757 Si02
#       8
#     8   8   8   8   8   8   8   8
#     4  11  21  32  49  74 102 131 166 209 255 297
#     4   8  16  30  47  66  94 131 167 201 242 293
#     4  11  20  30  47  72 101 132 166 205 248 295
#     4   9  20  36  53  74  98 129 168 214 258 298
#     4  10  20  36  55  74  98 128 169 215 259 299
#     4  10  19  32  48  69  99 135 169 202 244 299
#     4  11  21  33  50  72 102 135 169 206 248 299
#     4  10  21  34  48  68  97 135 172 202 242 301
#
# _framework density 16.773948000000001
#
# number of rings (size 3 to 8) (size 9 to 14) (size 15 to 20)
#    0.000    2.000    1.250    4.125    0.000    5.000 
#    0.000    0.000    0.000    0.000    0.000    0.875 
#    0.000    4.000    0.000    0.000    0.000    0.000 
#
# Total GULP energy -793667.318284 kJ/mol
# GULP energy per Si atom -12401.051848 kJ/mol
# Density = 1.673577 g / cm^3
# Si number density = 16.773948 Si / 1000 Ang^3
#
#
#
# Elastic Constant Matrix: (Units=GPa)
#
#
# Indices 1 2 3 4 5 6 
#
# 1 43.6807 22.0982 22.2400 0.0000 0.0000 0.0000
# 2 22.0982 114.1151 45.7387 0.0000 0.0000 0.0000
# 3 22.2400 45.7387 86.6382 0.0000 0.0000 0.0000
# 4 0.0000 0.0000 0.0000 19.8744 0.0000 0.0000
# 5 0.0000 0.0000 0.0000 0.0000 25.9596 0.0000
# 6 0.0000 0.0000 0.0000 0.0000 0.0000 26.7423
#
#
#
# Elastic Compliance Matrix: (Units=1/GPa)
#
#
# Indices 1 2 3 4 5 6 
#
# 1 0.027189 -0.003130 -0.005327 0.000000 0.000000 0.000000
# 2 -0.003130 0.011475 -0.005255 0.000000 0.000000 0.000000
# 3 -0.005327 -0.005255 0.015684 0.000000 0.000000 0.000000
# 4 0.000000 0.000000 0.000000 0.050316 0.000000 0.000000
# 5 0.000000 0.000000 0.000000 0.000000 0.038521 0.000000
# 6 0.000000 0.000000 0.000000 0.000000 0.000000 0.037394
#
#
# Mechanical properties :
#
#
# Convention : Reuss Voigt Hill
#
# Bulk Modulus (GPa) = 37.14037 47.17641 42.15839
# Shear Modulus (GPa) = 23.04383 24.80575 23.92479
#
# Velocity S-wave (km/s) = 3.71048 3.84972 3.78074
# Velocity P-wave (km/s) = 6.36763 6.92433 6.65181
#
# Compressibility (1/GPa) = 0.02692488
#
# Stress axis : x y z
#
# Youngs Moduli (GPa) = 36.77938 87.14343 63.76011
#
# Poissons Ratio (x) = 0.27276 0.33965
# Poissons Ratio (y) = 0.11512 0.33504
# Poissons Ratio (z) = 0.19592 0.45791
#
# Static dielectric constant tensor:
#      x y z
#    x 3.162550 0.000000 0.000000 
#    y 0.000000 3.523730 0.000000 
#    z 0.000000 0.000000 2.914250 
# 
# 
# High freq. dielectric constant tensor:
#      x y z
#    x 1.655570 0.000000 0.000000 
#    y 0.000000 1.655430 0.000000 
#    z 0.000000 0.000000 1.609790 
# 
# From -- ./inp_files/31197.got.cif
#   From: 2010.03.12/outbox.cif.g09.slc.cpg/sg53_16_cif.got.tgz:31197.got - 2010.04.16 14:36:59.
