data_PCOD8218971
_publ_section_title
;
Structure prediction by ZEFSAII (Michael W. Deem and Ramdas Pophale) SiO2 
 PCOD8218971
Probable space group: P M N A
;
_chemical_formula_sum "Si O2"
_cell_formula_units_Z 64
_cell_length_a 9.161836
_cell_length_b 12.551855
_cell_length_c 27.168967
_cell_angle_alpha 90.000000
_cell_angle_beta 90.000000
_cell_angle_gamma 90.000000
_cell_volume 3124.377872
_symmetry_space_group_name_H-M "P M N A"
_symmetry_group_IT_number 53
_symmetry_cell_setting 'orthorhombic'
loop_
_space_group_symop_operation_xyz
x,y,z
1/2-x,-y,1/2+z
x,-y,-z
1/2-x,y,1/2-z
-x,-y,-z
1/2+x,y,1/2-z
-x,y,z
1/2+x,-y,1/2+z
loop_
_atom_site_type_symbol
_atom_site_label
_atom_site_fract_x
_atom_site_fract_y
_atom_site_fract_z
Si Si1 0.162709 0.146955 0.569376
Si Si2 0.340212 0.750799 0.296524
Si Si3 0.328742 0.848188 0.800083
Si Si4 0.329592 0.882819 0.519990
Si Si5 0.161748 0.639188 0.370575
Si Si6 0.336392 0.032256 0.646085
Si Si7 0.826209 0.467702 0.446387
Si Si8 0.830775 0.757528 0.596738
O O1 0.245632 0.189564 0.520457
O O2 0.149656 0.245954 0.605138
O O3 0.252517 0.048740 0.594258
O O4 0.000000 0.105134 0.556581
O O5 0.250000 0.788076 0.250000
O O6 0.500000 0.712408 0.280001
O O7 0.264015 0.649918 0.322958
O O8 0.352575 0.851782 0.331287
O O9 0.250000 0.807805 0.750000
O O10 0.500000 0.868147 0.789415
O O11 0.307783 0.761311 0.843950
O O12 0.255199 0.958449 0.817050
O O13 0.500000 0.858389 0.520031
O O14 0.263571 0.854359 0.573554
O O15 0.291823 0.000000 0.500000
O O16 0.233026 0.554260 0.407661
O O17 0.000000 0.601149 0.354311
O O18 0.500000 0.985795 0.635791
O O19 0.762323 0.500000 0.500000
O O20 0.772716 0.352663 0.426855
O O21 0.000000 0.471597 0.448457
O O22 0.000000 0.775240 0.583859
#
# Coordination Sequence:
#
# PCOD8218971 Si02
#       8
#     8   8   8   8   8   8   8   8
#     4  10  19  32  53  81 112 146 183 222 267 323
#     4  10  20  33  51  77 110 145 182 226 273 322
#     4  11  23  38  57  80 108 145 188 233 278 327
#     4  11  23  36  52  77 111 149 184 221 271 328
#     4   9  18  33  55  80 106 138 175 216 264 318
#     4  10  20  34  54  81 114 150 188 231 277 328
#     4   9  17  34  61  87 109 137 176 221 270 327
#     4  10  22  39  59  84 111 142 186 235 281 335
#
# _framework density 20.484076999999999
#
# number of rings (size 3 to 8) (size 9 to 14) (size 15 to 20)
#    0.000    2.000    0.000    3.750    0.000    9.000 
#    0.000    1.250    0.000    3.000    0.000    0.000 
#    0.000    0.000    0.000    0.000    0.000    0.000 
#
# Total GULP energy -793418.199400 kJ/mol
# GULP energy per Si atom -12397.159366 kJ/mol
# Density = 2.043745 g / cm^3
# Si number density = 20.484077 Si / 1000 Ang^3
#
#
#
# Elastic Constant Matrix: (Units=GPa)
#
#
# Indices 1 2 3 4 5 6 
#
# 1 126.0566 29.5986 53.6861 0.0000 0.0000 0.0000
# 2 29.5986 76.7328 27.5216 0.0000 0.0000 0.0000
# 3 53.6861 27.5216 113.9062 0.0000 0.0000 0.0000
# 4 0.0000 0.0000 0.0000 29.4174 0.0000 0.0000
# 5 0.0000 0.0000 0.0000 0.0000 36.3238 0.0000
# 6 0.0000 0.0000 0.0000 0.0000 0.0000 10.6614
#
#
#
# Elastic Compliance Matrix: (Units=1/GPa)
#
#
# Indices 1 2 3 4 5 6 
#
# 1 0.010330 -0.002451 -0.004276 0.000000 0.000000 0.000000
# 2 -0.002451 0.014850 -0.002433 0.000000 0.000000 0.000000
# 3 -0.004276 -0.002433 0.011383 0.000000 0.000000 0.000000
# 4 0.000000 0.000000 0.000000 0.033993 0.000000 0.000000
# 5 0.000000 0.000000 0.000000 0.000000 0.027530 0.000000
# 6 0.000000 0.000000 0.000000 0.000000 0.000000 0.093796
#
#
# Mechanical properties :
#
#
# Convention : Reuss Voigt Hill
#
# Bulk Modulus (GPa) = 54.81803 59.81204 57.31504
# Shear Modulus (GPa) = 23.11787 29.00649 26.06218
#
# Velocity S-wave (km/s) = 3.36308 3.76713 3.57082
# Velocity P-wave (km/s) = 6.47300 6.94149 6.71134
#
# Compressibility (1/GPa) = 0.01824217
#
# Stress axis : x y z
#
# Youngs Moduli (GPa) = 96.80856 67.33919 87.85363
#
# Poissons Ratio (x) = 0.16503 0.37570
# Poissons Ratio (y) = 0.23725 0.21375
# Poissons Ratio (z) = 0.41400 0.16384
#
# Static dielectric constant tensor:
#      x y z
#    x 3.928060 0.000000 0.000000 
#    y 0.000000 3.472560 0.000000 
#    z 0.000000 0.000000 3.864690 
# 
# 
# High freq. dielectric constant tensor:
#      x y z
#    x 1.795170 0.000000 0.000000 
#    y 0.000000 1.773020 0.000000 
#    z 0.000000 0.000000 1.809620 
# 
# From -- ./inp_files/38188.got.cif
#   From: 2010.03.12/outbox.cif.g09.slc.cpg/sg53_20_cif.got.tgz:38188.got - 2010.04.16 14:36:59.
