data_PCOD8218262
_publ_section_title
;
Structure prediction by ZEFSAII (Michael W. Deem and Ramdas Pophale) SiO2 
 PCOD8218262
Probable space group: P M N A
;
_chemical_formula_sum "Si O2"
_cell_formula_units_Z 64
_cell_length_a 17.287784
_cell_length_b 20.353560
_cell_length_c 9.729202
_cell_angle_alpha 90.000000
_cell_angle_beta 90.000000
_cell_angle_gamma 90.000000
_cell_volume 3423.394352
_symmetry_space_group_name_H-M "P M N A"
_symmetry_group_IT_number 53
_symmetry_cell_setting 'orthorhombic'
loop_
_space_group_symop_operation_xyz
x,y,z
1/2-x,-y,1/2+z
x,-y,-z
1/2-x,y,1/2-z
-x,-y,-z
1/2+x,y,1/2-z
-x,y,z
1/2+x,-y,1/2+z
loop_
_atom_site_type_symbol
_atom_site_label
_atom_site_fract_x
_atom_site_fract_y
_atom_site_fract_z
Si Si1 0.316433 0.677444 0.056574
Si Si2 0.913332 0.276699 0.053652
Si Si3 0.228707 0.061608 0.903525
Si Si4 0.314575 0.815438 0.134688
Si Si5 0.591078 0.845711 0.379981
Si Si6 0.592526 0.363407 0.205003
Si Si7 0.086027 0.499858 0.162425
Si Si8 0.347551 0.634653 0.346033
O O1 0.316213 0.755740 0.025183
O O2 0.355388 0.675160 0.206085
O O3 0.232017 0.645130 0.069411
O O4 0.365625 0.640304 0.941350
O O5 0.876849 0.303390 0.197388
O O6 0.000000 0.257666 0.087865
O O7 0.876281 0.211872 0.983644
O O8 0.913697 0.338021 0.946684
O O9 0.250000 0.038777 0.750000
O O10 0.289809 0.118683 0.947451
O O11 0.140661 0.089002 0.913729
O O12 0.239513 0.000000 0.000000
O O13 0.250000 0.800878 0.250000
O O14 0.394454 0.825172 0.220369
O O15 0.500000 0.859422 0.400591
O O16 0.500000 0.360495 0.186401
O O17 0.618165 0.431957 0.275382
O O18 0.142822 0.559320 0.201746
O O19 0.000000 0.512937 0.221656
O O20 0.083437 0.500000 0.000000
#
# Coordination Sequence:
#
# PCOD8218262 Si02
#       8
#     8   8   8   8   8   8   8   8
#     4  11  22  37  54  83 116 139 177 245 282 323
#     4  10  18  34  57  80 105 142 190 227 269 333
#     4   9  19  36  57  80 113 149 184 219 264 328
#     4   9  16  35  58  76 112 147 187 219 263 334
#     4   9  17  30  58  88 108 140 191 234 264 315
#     4  10  23  39  55  81 114 147 182 230 292 336
#     4  10  20  39  59  74 101 145 190 230 276 349
#     4  11  20  36  57  79 104 143 192 226 280 329
#
# _framework density 18.694896
#
# number of rings (size 3 to 8) (size 9 to 14) (size 15 to 20)
#    0.000    2.375    3.750    1.125    0.000    2.750 
#    6.750    1.250    0.000    6.000    0.000    0.000 
#    0.000    0.000    0.000    0.000    0.000    0.000 
#
# Total GULP energy -792886.818606 kJ/mol
# GULP energy per Si atom -12388.856541 kJ/mol
# Density = 1.865235 g / cm^3
# Si number density = 18.694896 Si / 1000 Ang^3
#
#
#
# Elastic Constant Matrix: (Units=GPa)
#
#
# Indices 1 2 3 4 5 6 
#
# 1 55.4203 45.6646 38.2342 0.0000 0.0000 0.0000
# 2 45.6646 136.7189 48.3516 0.0000 0.0000 0.0000
# 3 38.2342 48.3516 79.9436 0.0000 0.0000 0.0000
# 4 0.0000 0.0000 0.0000 37.5231 0.0000 0.0000
# 5 0.0000 0.0000 0.0000 0.0000 24.8846 0.0000
# 6 0.0000 0.0000 0.0000 0.0000 0.0000 17.0941
#
#
#
# Elastic Compliance Matrix: (Units=1/GPa)
#
#
# Indices 1 2 3 4 5 6 
#
# 1 0.030857 -0.006471 -0.010844 0.000000 0.000000 0.000000
# 2 -0.006471 0.010662 -0.003353 0.000000 0.000000 0.000000
# 3 -0.010844 -0.003353 0.019723 0.000000 0.000000 0.000000
# 4 0.000000 0.000000 0.000000 0.026650 0.000000 0.000000
# 5 0.000000 0.000000 0.000000 0.000000 0.040185 0.000000
# 6 0.000000 0.000000 0.000000 0.000000 0.000000 0.058500
#
#
# Mechanical properties :
#
#
# Convention : Reuss Voigt Hill
#
# Bulk Modulus (GPa) = 50.23892 59.62040 54.92966
# Shear Modulus (GPa) = 21.31742 25.22254 23.26998
#
# Velocity S-wave (km/s) = 3.38047 3.67709 3.53189
# Velocity P-wave (km/s) = 6.49370 7.07025 6.78810
#
# Compressibility (1/GPa) = 0.01990489
#
# Stress axis : x y z
#
# Youngs Moduli (GPa) = 32.40723 93.79369 50.70158
#
# Poissons Ratio (x) = 0.60698 0.54980
# Poissons Ratio (y) = 0.20972 0.17002
# Poissons Ratio (z) = 0.35142 0.31453
#
# Static dielectric constant tensor:
#      x y z
#    x 3.353010 0.000000 0.000000 
#    y 0.000000 3.665570 0.000000 
#    z 0.000000 0.000000 3.264530 
# 
# 
# High freq. dielectric constant tensor:
#      x y z
#    x 1.712700 0.000000 0.000000 
#    y 0.000000 1.723270 0.000000 
#    z 0.000000 0.000000 1.703530 
# 
# From -- ./inp_files/10255.got.cif
#   From: 2010.03.12/outbox.cif.g09.slc.cpg/sg53_6_cif.got.tgz:10255.got - 2010.04.16 14:36:59.
