data_PCOD8218650
_publ_section_title
;
Structure prediction by ZEFSAII (Michael W. Deem and Ramdas Pophale) SiO2 
 PCOD8218650
Probable space group: P M N A
;
_chemical_formula_sum "Si O2"
_cell_formula_units_Z 64
_cell_length_a 9.104457
_cell_length_b 15.129049
_cell_length_c 24.593889
_cell_angle_alpha 90.000000
_cell_angle_beta 90.000000
_cell_angle_gamma 90.000000
_cell_volume 3387.605951
_symmetry_space_group_name_H-M "P M N A"
_symmetry_group_IT_number 53
_symmetry_cell_setting 'orthorhombic'
loop_
_space_group_symop_operation_xyz
x,y,z
1/2-x,-y,1/2+z
x,-y,-z
1/2-x,y,1/2-z
-x,-y,-z
1/2+x,y,1/2-z
-x,y,z
1/2+x,-y,1/2+z
loop_
_atom_site_type_symbol
_atom_site_label
_atom_site_fract_x
_atom_site_fract_y
_atom_site_fract_z
Si Si1 0.671717 0.750462 0.612881
Si Si2 0.675393 0.406747 0.305140
Si Si3 0.156659 0.426168 0.960593
Si Si4 0.329597 0.900259 0.696028
Si Si5 0.827793 0.101039 0.805154
Si Si6 0.327181 0.564737 0.141666
Si Si7 0.168273 0.232029 0.618883
Si Si8 0.329452 0.728663 0.996250
O O1 0.500000 0.747681 0.599298
O O2 0.715767 0.660574 0.645454
O O3 0.716129 0.835371 0.648048
O O4 0.757800 0.771482 0.557105
O O5 0.750000 0.369499 0.250000
O O6 0.500000 0.413551 0.297988
O O7 0.743349 0.505472 0.313608
O O8 0.259577 0.468356 0.914700
O O9 0.000000 0.384942 0.937955
O O10 0.101427 0.500000 0.000000
O O11 0.251742 0.364013 0.998405
O O12 0.250000 0.867748 0.750000
O O13 0.500000 0.893615 0.708840
O O14 0.284380 0.000325 0.680507
O O15 0.750000 0.132478 0.750000
O O16 0.774757 0.161629 0.854237
O O17 0.000000 0.113146 0.797190
O O18 0.500000 0.545922 0.145117
O O19 0.293792 0.670327 0.142884
O O20 0.196340 0.221999 0.554045
O O21 0.000000 0.209678 0.632625
O O22 0.500000 0.715632 0.985090
#
# Coordination Sequence:
#
# PCOD8218650 Si02
#       8
#     8   8   8   8   8   8   8   8
#     4  10  21  37  56  79 110 145 181 224 272 324
#     4  11  23  37  54  78 108 144 184 226 274 325
#     4  10  19  31  49  73 101 134 173 217 263 310
#     4   9  19  36  57  83 111 139 177 223 272 326
#     4  10  20  35  59  86 109 138 175 218 270 325
#     4  10  21  36  53  74 103 139 177 218 262 311
#     4   9  20  38  56  78 110 144 180 223 268 317
#     4  10  21  35  53  78 107 142 184 225 268 320
#
# _framework density 18.892398
#
# number of rings (size 3 to 8) (size 9 to 14) (size 15 to 20)
#    0.000    2.125    0.000    3.750    0.000    9.500 
#    0.000    0.625    0.000    3.750    0.000    0.000 
#    0.000    0.000    0.000    0.000    0.000    0.000 
#
# Total GULP energy -793048.490565 kJ/mol
# GULP energy per Si atom -12391.382665 kJ/mol
# Density = 1.884940 g / cm^3
# Si number density = 18.892398 Si / 1000 Ang^3
#
#
#
# Elastic Constant Matrix: (Units=GPa)
#
#
# Indices 1 2 3 4 5 6 
#
# 1 104.9518 49.0977 66.6149 0.0000 0.0000 0.0000
# 2 49.0977 75.6335 60.1177 0.0000 0.0000 0.0000
# 3 66.6149 60.1177 95.3267 0.0000 0.0000 0.0000
# 4 0.0000 0.0000 0.0000 23.7879 0.0000 0.0000
# 5 0.0000 0.0000 0.0000 0.0000 46.7058 0.0000
# 6 0.0000 0.0000 0.0000 0.0000 0.0000 21.8519
#
#
#
# Elastic Compliance Matrix: (Units=1/GPa)
#
#
# Indices 1 2 3 4 5 6 
#
# 1 0.017523 -0.003292 -0.010169 0.000000 0.000000 0.000000
# 2 -0.003292 0.027129 -0.014809 0.000000 0.000000 0.000000
# 3 -0.010169 -0.014809 0.026935 0.000000 0.000000 0.000000
# 4 0.000000 0.000000 0.000000 0.042038 0.000000 0.000000
# 5 0.000000 0.000000 0.000000 0.000000 0.021411 0.000000
# 6 0.000000 0.000000 0.000000 0.000000 0.000000 0.045763
#
#
# Mechanical properties :
#
#
# Convention : Reuss Voigt Hill
#
# Bulk Modulus (GPa) = 66.45246 69.73030 68.09138
# Shear Modulus (GPa) = 20.63103 25.14124 22.88613
#
# Velocity S-wave (km/s) = 3.30817 3.65192 3.48428
# Velocity P-wave (km/s) = 7.05992 7.40076 7.23235
#
# Compressibility (1/GPa) = 0.01504835
#
# Stress axis : x y z
#
# Youngs Moduli (GPa) = 57.06937 36.86026 37.12629
#
# Poissons Ratio (x) = 0.12135 0.37752
# Poissons Ratio (y) = 0.18789 0.54979
# Poissons Ratio (z) = 0.58031 0.54585
#
# Static dielectric constant tensor:
#      x y z
#    x 3.518400 0.000000 0.000000 
#    y 0.000000 3.403430 0.000000 
#    z 0.000000 0.000000 3.500080 
# 
# 
# High freq. dielectric constant tensor:
#      x y z
#    x 1.749930 0.000000 0.000000 
#    y 0.000000 1.717860 0.000000 
#    z 0.000000 0.000000 1.733570 
# 
# From -- ./inp_files/34309.got.cif
#   From: 2010.03.12/outbox.cif.g09.slc.cpg/sg53_18_cif.got.tgz:34309.got - 2010.04.16 14:36:59.
