data_PCOD8218142
_publ_section_title
;
Structure prediction by ZEFSAII (Michael W. Deem and Ramdas Pophale) SiO2 
 PCOD8218142
Probable space group: P M N A
;
_chemical_formula_sum "Si O2"
_cell_formula_units_Z 48
_cell_length_a 8.867363
_cell_length_b 11.810287
_cell_length_c 26.184273
_cell_angle_alpha 90.000000
_cell_angle_beta 90.000000
_cell_angle_gamma 90.000000
_cell_volume 2742.176844
_symmetry_space_group_name_H-M "P M N A"
_symmetry_group_IT_number 53
_symmetry_cell_setting 'orthorhombic'
loop_
_space_group_symop_operation_xyz
x,y,z
1/2-x,-y,1/2+z
x,-y,-z
1/2-x,y,1/2-z
-x,-y,-z
1/2+x,y,1/2-z
-x,y,z
1/2+x,-y,1/2+z
loop_
_atom_site_type_symbol
_atom_site_label
_atom_site_fract_x
_atom_site_fract_y
_atom_site_fract_z
Si Si1 0.322004 0.296578 0.565524
Si Si2 0.822377 0.042470 0.945987
Si Si3 0.829803 0.519252 0.379081
Si Si4 0.321278 0.322783 0.194772
Si Si5 0.327905 0.335147 0.037315
Si Si6 0.823582 0.827787 0.886455
O O1 0.500000 0.304089 0.558448
O O2 0.263776 0.167077 0.569563
O O3 0.272679 0.367918 0.615875
O O4 0.238018 0.356514 0.518531
O O5 0.000000 0.047174 0.953562
O O6 0.781404 0.957889 0.899444
O O7 0.750655 0.000000 0.000000
O O8 0.768903 0.437814 0.333827
O O9 0.821858 0.451921 0.432145
O O10 0.000000 0.557297 0.366938
O O11 0.250000 0.321029 0.250000
O O12 0.500000 0.316816 0.198232
O O13 0.266496 0.212849 0.163443
O O14 0.500000 0.290672 0.034927
O O15 0.222034 0.242574 0.063745
O O16 0.000000 0.811811 0.875943
#
# Coordination Sequence:
#
# PCOD8218142 Si02
#       6
#     8   8   8   8   8   8
#     4  11  20  30  48  72 100 139 180 210 245 301
#     4   9  17  31  48  71 106 142 175 213 251 292
#     4   9  20  35  48  69 103 134 162 208 261 305
#     4  10  21  38  59  81 104 128 163 212 267 314
#     4  10  19  31  46  68 103 140 172 210 255 299
#     4  10  18  32  54  76 103 137 175 215 256 300
#
# _framework density 17.504342000000001
#
# number of rings (size 3 to 8) (size 9 to 14) (size 15 to 20)
#    0.000    2.167    1.667    3.500    0.000    6.000 
#    0.000    4.167    0.000    1.000    0.000    2.333 
#    0.000    0.000    0.000    0.000    0.000    0.000 
#
# Total GULP energy -595067.157895 kJ/mol
# GULP energy per Si atom -12397.232456 kJ/mol
# Density = 1.746450 g / cm^3
# Si number density = 17.504342 Si / 1000 Ang^3
#
#
#
# Elastic Constant Matrix: (Units=GPa)
#
#
# Indices 1 2 3 4 5 6 
#
# 1 62.1501 43.9009 40.0838 0.0000 0.0000 0.0000
# 2 43.9009 104.3732 52.3169 0.0000 0.0000 0.0000
# 3 40.0838 52.3169 102.3203 0.0000 0.0000 0.0000
# 4 0.0000 0.0000 0.0000 11.6041 0.0000 0.0000
# 5 0.0000 0.0000 0.0000 0.0000 19.8230 0.0000
# 6 0.0000 0.0000 0.0000 0.0000 0.0000 21.5491
#
#
#
# Elastic Compliance Matrix: (Units=1/GPa)
#
#
# Indices 1 2 3 4 5 6 
#
# 1 0.025387 -0.007655 -0.006031 0.000000 0.000000 0.000000
# 2 -0.007655 0.015191 -0.004768 0.000000 0.000000 0.000000
# 3 -0.006031 -0.004768 0.014574 0.000000 0.000000 0.000000
# 4 0.000000 0.000000 0.000000 0.086177 0.000000 0.000000
# 5 0.000000 0.000000 0.000000 0.000000 0.050446 0.000000
# 6 0.000000 0.000000 0.000000 0.000000 0.000000 0.046406
#
#
# Mechanical properties :
#
#
# Convention : Reuss Voigt Hill
#
# Bulk Modulus (GPa) = 54.81614 60.16075 57.48845
# Shear Modulus (GPa) = 17.78274 19.43138 18.60706
#
# Velocity S-wave (km/s) = 3.19078 3.33541 3.26390
# Velocity P-wave (km/s) = 6.70511 7.01976 6.86424
#
# Compressibility (1/GPa) = 0.01824280
#
# Stress axis : x y z
#
# Youngs Moduli (GPa) = 39.38976 65.82858 68.61491
#
# Poissons Ratio (x) = 0.50392 0.41384
# Poissons Ratio (y) = 0.30153 0.32718
# Poissons Ratio (z) = 0.23757 0.31389
#
# Static dielectric constant tensor:
#      x y z
#    x 3.182030 0.000000 0.000000 
#    y 0.000000 3.409400 0.000000 
#    z 0.000000 0.000000 3.074450 
# 
# 
# High freq. dielectric constant tensor:
#      x y z
#    x 1.673850 0.000000 0.000000 
#    y 0.000000 1.676360 0.000000 
#    z 0.000000 0.000000 1.645630 
# 
# From -- ./inp_files/36138.got.cif
#   From: 2010.03.12/outbox.cif.g09.slc.cpg/sg53_19_cif.got.tgz:36138.got - 2010.04.16 14:36:59.
