data_PCOD8218866
_publ_section_title
;
Structure prediction by ZEFSAII (Michael W. Deem and Ramdas Pophale) SiO2 
 PCOD8218866
Probable space group: P M N A
;
_chemical_formula_sum "Si O2"
_cell_formula_units_Z 40
_cell_length_a 16.035401
_cell_length_b 7.745071
_cell_length_c 16.875126
_cell_angle_alpha 90.000000
_cell_angle_beta 90.000000
_cell_angle_gamma 90.000000
_cell_volume 2095.811661
_symmetry_space_group_name_H-M "P M N A"
_symmetry_group_IT_number 53
_symmetry_cell_setting 'orthorhombic'
loop_
_space_group_symop_operation_xyz
x,y,z
1/2-x,-y,1/2+z
x,-y,-z
1/2-x,y,1/2-z
-x,-y,-z
1/2+x,y,1/2-z
-x,y,z
1/2+x,-y,1/2+z
loop_
_atom_site_type_symbol
_atom_site_label
_atom_site_fract_x
_atom_site_fract_y
_atom_site_fract_z
Si Si1 0.689211 0.917996 0.915412
Si Si2 0.322295 0.777152 0.687085
Si Si3 0.402670 0.578154 0.920104
Si Si4 0.597346 0.544989 0.248712
Si Si5 0.904021 0.927932 0.275163
O O1 0.778691 0.827575 0.895886
O O2 0.614758 0.780503 0.917882
O O3 0.658448 0.057132 0.850274
O O4 0.701978 0.000000 0.000000
O O5 0.250000 0.792371 0.750000
O O6 0.359379 0.582745 0.687192
O O7 0.392164 0.918079 0.711670
O O8 0.500000 0.541767 0.922634
O O9 0.366372 0.493855 0.839567
O O10 0.360806 0.500000 0.000000
O O11 0.500000 0.503156 0.252091
O O12 0.616513 0.745151 0.268058
O O13 0.000000 0.927354 0.304580
#
# Coordination Sequence:
#
# PCOD8218866 Si02
#       5
#     8   8   8   8   8
#     4  11  22  36  51  81 120 151 181 226 290 338
#     4  10  20  35  53  78 111 149 186 229 272 335
#     4  10  19  32  51  80 114 147 181 216 267 332
#     4  10  19  34  56  79 105 143 186 227 274 325
#     4  10  20  35  59  85 107 142 190 233 272 329
#
# _framework density 19.085684000000001
#
# number of rings (size 3 to 8) (size 9 to 14) (size 15 to 20)
#    0.000    1.800    4.000    2.400    0.000    5.600 
#    3.600    0.000    0.000    2.400    0.000    2.800 
#    0.000    0.000    0.000    0.000    0.000    0.000 
#
# Total GULP energy -495796.996957 kJ/mol
# GULP energy per Si atom -12394.924924 kJ/mol
# Density = 1.904224 g / cm^3
# Si number density = 19.085684 Si / 1000 Ang^3
#
#
#
# Elastic Constant Matrix: (Units=GPa)
#
#
# Indices 1 2 3 4 5 6 
#
# 1 53.9418 32.8335 17.4888 0.0000 0.0000 0.0000
# 2 32.8335 133.6709 18.7582 0.0000 0.0000 0.0000
# 3 17.4888 18.7582 30.3961 0.0000 0.0000 0.0000
# 4 0.0000 0.0000 0.0000 27.5659 0.0000 0.0000
# 5 0.0000 0.0000 0.0000 0.0000 19.7017 0.0000
# 6 0.0000 0.0000 0.0000 0.0000 0.0000 21.7851
#
#
#
# Elastic Compliance Matrix: (Units=1/GPa)
#
#
# Indices 1 2 3 4 5 6 
#
# 1 0.025062 -0.004524 -0.011628 0.000000 0.000000 0.000000
# 2 -0.004524 0.009007 -0.002955 0.000000 0.000000 0.000000
# 3 -0.011628 -0.002955 0.041413 0.000000 0.000000 0.000000
# 4 0.000000 0.000000 0.000000 0.036277 0.000000 0.000000
# 5 0.000000 0.000000 0.000000 0.000000 0.050757 0.000000
# 6 0.000000 0.000000 0.000000 0.000000 0.000000 0.045903
#
#
# Mechanical properties :
#
#
# Convention : Reuss Voigt Hill
#
# Bulk Modulus (GPa) = 26.83315 39.57444 33.20380
# Shear Modulus (GPa) = 19.30077 23.73908 21.51993
#
# Velocity S-wave (km/s) = 3.18350 3.53060 3.36153
# Velocity P-wave (km/s) = 5.25383 6.11558 5.70101
#
# Compressibility (1/GPa) = 0.03726733
#
# Stress axis : x y z
#
# Youngs Moduli (GPa) = 39.90055 111.02363 24.14692
#
# Poissons Ratio (x) = 0.50230 0.28078
# Poissons Ratio (y) = 0.18052 0.07136
# Poissons Ratio (z) = 0.46396 0.32812
#
# Static dielectric constant tensor:
#      x y z
#    x 3.927520 0.000000 0.000000 
#    y 0.000000 3.662420 0.000000 
#    z 0.000000 0.000000 3.713150 
# 
# 
# High freq. dielectric constant tensor:
#      x y z
#    x 1.726880 0.000000 0.000000 
#    y 0.000000 1.756130 0.000000 
#    z 0.000000 0.000000 1.701190 
# 
# From -- ./inp_files/28065.got.cif
#   From: 2010.03.12/outbox.cif.g09.slc.cpg/sg53_15_cif.got.tgz:28065.got - 2010.04.16 14:36:59.
