data_PCOD8218234
_publ_section_title
;
Structure prediction by ZEFSAII (Michael W. Deem and Ramdas Pophale) SiO2 
 PCOD8218234
Probable space group: P M N A
;
_chemical_formula_sum "Si O2"
_cell_formula_units_Z 48
_cell_length_a 13.089852
_cell_length_b 11.316827
_cell_length_c 17.602534
_cell_angle_alpha 90.000000
_cell_angle_beta 90.000000
_cell_angle_gamma 90.000000
_cell_volume 2607.561769
_symmetry_space_group_name_H-M "P M N A"
_symmetry_group_IT_number 53
_symmetry_cell_setting 'orthorhombic'
loop_
_space_group_symop_operation_xyz
x,y,z
1/2-x,-y,1/2+z
x,-y,-z
1/2-x,y,1/2-z
-x,-y,-z
1/2+x,y,1/2-z
-x,y,z
1/2+x,-y,1/2+z
loop_
_atom_site_type_symbol
_atom_site_label
_atom_site_fract_x
_atom_site_fract_y
_atom_site_fract_z
Si Si1 0.743144 0.499142 0.839415
Si Si2 0.249551 0.703903 0.551892
Si Si3 0.615283 0.350582 0.583742
Si Si4 0.723099 0.138922 0.662566
Si Si5 0.119532 0.934481 0.919826
Si Si6 0.880410 0.282662 0.586006
O O1 0.750000 0.511469 0.750000
O O2 0.716715 0.625830 0.875700
O O3 0.857842 0.464108 0.865153
O O4 0.666165 0.397078 0.869801
O O5 0.323621 0.635573 0.494417
O O6 0.309807 0.819368 0.578956
O O7 0.144771 0.722858 0.504084
O O8 0.500000 0.346701 0.559410
O O9 0.641674 0.234491 0.632639
O O10 0.750000 0.152234 0.750000
O O11 0.830460 0.162782 0.619680
O O12 0.671828 0.012955 0.645676
O O13 0.000000 0.906126 0.900976
O O14 0.126921 0.000000 0.000000
O O15 0.000000 0.282065 0.599713
#
# Coordination Sequence:
#
# PCOD8218234 Si02
#       6
#     8   8   8   8   8   8
#     4  10  22  36  52  80 116 147 181 227 281 337
#     4  10  21  36  56  83 110 145 190 235 276 330
#     4  10  18  33  58  83 108 139 183 236 286 333
#     4  10  21  35  55  87 117 143 183 236 285 330
#     4  11  20  37  62  84 110 147 188 230 283 335
#     4  10  20  37  60  81 108 151 194 229 274 333
#
# _framework density 18.408000999999999
#
# number of rings (size 3 to 8) (size 9 to 14) (size 15 to 20)
#    0.000    2.167    3.333    5.000    0.000    7.333 
#    0.000    1.667    0.000    2.000    0.000    0.000 
#    0.000    0.000    0.000    0.000    0.000    0.000 
#
# Total GULP energy -594686.160353 kJ/mol
# GULP energy per Si atom -12389.295007 kJ/mol
# Density = 1.836610 g / cm^3
# Si number density = 18.408001 Si / 1000 Ang^3
#
#
#
# Elastic Constant Matrix: (Units=GPa)
#
#
# Indices 1 2 3 4 5 6 
#
# 1 108.2241 19.1751 15.6291 0.0000 0.0000 0.0000
# 2 19.1751 78.5499 32.5840 0.0000 0.0000 0.0000
# 3 15.6291 32.5840 86.1915 0.0000 0.0000 0.0000
# 4 0.0000 0.0000 0.0000 15.3797 0.0000 0.0000
# 5 0.0000 0.0000 0.0000 0.0000 7.9239 0.0000
# 6 0.0000 0.0000 0.0000 0.0000 0.0000 9.7536
#
#
#
# Elastic Compliance Matrix: (Units=1/GPa)
#
#
# Indices 1 2 3 4 5 6 
#
# 1 0.009734 -0.001950 -0.001028 0.000000 0.000000 0.000000
# 2 -0.001950 0.015489 -0.005502 0.000000 0.000000 0.000000
# 3 -0.001028 -0.005502 0.013868 0.000000 0.000000 0.000000
# 4 0.000000 0.000000 0.000000 0.065021 0.000000 0.000000
# 5 0.000000 0.000000 0.000000 0.000000 0.126200 0.000000
# 6 0.000000 0.000000 0.000000 0.000000 0.000000 0.102526
#
#
# Mechanical properties :
#
#
# Convention : Reuss Voigt Hill
#
# Bulk Modulus (GPa) = 45.18329 45.30466 45.24397
# Shear Modulus (GPa) = 13.99874 20.31660 17.15767
#
# Velocity S-wave (km/s) = 2.76065 3.32578 3.05631
# Velocity P-wave (km/s) = 5.89579 6.27794 6.08987
#
# Compressibility (1/GPa) = 0.02213208
#
# Stress axis : x y z
#
# Youngs Moduli (GPa) = 102.73269 64.56176 72.10616
#
# Poissons Ratio (x) = 0.12588 0.07412
# Poissons Ratio (y) = 0.20031 0.39673
# Poissons Ratio (z) = 0.10561 0.35522
#
# Static dielectric constant tensor:
#      x y z
#    x 3.393080 0.000000 0.000000 
#    y 0.000000 3.437570 0.000000 
#    z 0.000000 0.000000 3.383600 
# 
# 
# High freq. dielectric constant tensor:
#      x y z
#    x 1.703710 0.000000 0.000000 
#    y 0.000000 1.705330 0.000000 
#    z 0.000000 0.000000 1.708060 
# 
# From -- ./inp_files/32541.got.cif
#   From: 2010.03.12/outbox.cif.g09.slc.cpg/sg53_17_cif.got.tgz:32541.got - 2010.04.16 14:36:59.
