data_PCOD8218652
_publ_section_title
;
Structure prediction by ZEFSAII (Michael W. Deem and Ramdas Pophale) SiO2 
 PCOD8218652
Probable space group: P M N A
;
_chemical_formula_sum "Si O2"
_cell_formula_units_Z 64
_cell_length_a 9.416978
_cell_length_b 12.075574
_cell_length_c 31.019625
_cell_angle_alpha 90.000000
_cell_angle_beta 90.000000
_cell_angle_gamma 90.000000
_cell_volume 3527.409521
_symmetry_space_group_name_H-M "P M N A"
_symmetry_group_IT_number 53
_symmetry_cell_setting 'orthorhombic'
loop_
_space_group_symop_operation_xyz
x,y,z
1/2-x,-y,1/2+z
x,-y,-z
1/2-x,y,1/2-z
-x,-y,-z
1/2+x,y,1/2-z
-x,y,z
1/2+x,-y,1/2+z
loop_
_atom_site_type_symbol
_atom_site_label
_atom_site_fract_x
_atom_site_fract_y
_atom_site_fract_z
Si Si1 0.833786 0.805169 0.206116
Si Si2 0.336433 0.452386 0.707718
Si Si3 0.333128 0.987191 0.951130
Si Si4 0.660280 0.562489 0.863629
Si Si5 0.162079 0.858550 0.374034
Si Si6 0.162045 0.741941 0.571627
Si Si7 0.656346 0.640746 0.078343
Si Si8 0.841657 0.630830 0.999961
O O1 0.750000 0.833534 0.250000
O O2 0.816942 0.675579 0.194720
O O3 0.762919 0.877358 0.167591
O O4 0.000000 0.836802 0.211129
O O5 0.250000 0.480914 0.750000
O O6 0.500000 0.481375 0.715437
O O7 0.277022 0.535430 0.671820
O O8 0.500000 0.003837 0.955481
O O9 0.277129 0.077614 0.916469
O O10 0.291467 0.869670 0.930083
O O11 0.267847 0.000000 0.000000
O O12 0.500000 0.544024 0.845616
O O13 0.678813 0.689095 0.880462
O O14 0.687606 0.481285 0.903951
O O15 0.164903 0.727673 0.382772
O O16 0.000000 0.897319 0.363551
O O17 0.262363 0.672086 0.541590
O O18 0.000000 0.729824 0.555680
O O19 0.500000 0.644233 0.056943
O O20 0.768389 0.677453 0.042670
O O21 0.000000 0.678276 0.999302
O O22 0.838381 0.500000 0.000000
#
# Coordination Sequence:
#
# PCOD8218652 Si02
#       8
#     8   8   8   8   8   8   8   8
#     4  10  20  33  52  80 112 143 174 214 265 321
#     4  10  20  33  52  77 110 145 173 208 257 317
#     4   9  18  34  56  79 103 138 185 228 265 312
#     4  10  19  31  50  76 104 133 170 213 258 312
#     4  10  19  33  55  79 105 138 176 220 265 313
#     4  10  20  35  54  74 100 136 177 217 258 310
#     4  10  19  31  49  73 101 135 171 209 256 310
#     4  11  22  32  45  69 102 135 169 213 260 304
#
# _framework density 18.143626999999999
#
# number of rings (size 3 to 8) (size 9 to 14) (size 15 to 20)
#    0.000    2.000    2.500    1.875    0.000    5.000 
#    0.000    0.625    0.000    2.250    0.000    0.000 
#    0.000    0.000    0.000    0.000    0.000    0.000 
#
# Total GULP energy -793370.985644 kJ/mol
# GULP energy per Si atom -12396.421651 kJ/mol
# Density = 1.810233 g / cm^3
# Si number density = 18.143627 Si / 1000 Ang^3
#
#
#
# Elastic Constant Matrix: (Units=GPa)
#
#
# Indices 1 2 3 4 5 6 
#
# 1 107.6147 26.6211 64.2283 0.0000 0.0000 0.0000
# 2 26.6211 71.8134 36.6648 0.0000 0.0000 0.0000
# 3 64.2283 36.6648 115.7930 0.0000 0.0000 0.0000
# 4 0.0000 0.0000 0.0000 26.3095 0.0000 0.0000
# 5 0.0000 0.0000 0.0000 0.0000 23.2590 0.0000
# 6 0.0000 0.0000 0.0000 0.0000 0.0000 -3.3907
#
#
#
# Elastic Compliance Matrix: (Units=1/GPa)
#
#
# Indices 1 2 3 4 5 6 
#
# 1 0.014019 -0.001463 -0.007313 0.000000 0.000000 0.000000
# 2 -0.001463 0.016763 -0.004496 0.000000 0.000000 0.000000
# 3 -0.007313 -0.004496 0.014116 0.000000 0.000000 0.000000
# 4 0.000000 0.000000 0.000000 0.038009 0.000000 0.000000
# 5 0.000000 0.000000 0.000000 0.000000 0.042994 0.000000
# 6 0.000000 0.000000 0.000000 0.000000 0.000000 -0.294926
#
#
# Mechanical properties :
#
#
# Convention : Reuss Voigt Hill
#
# Bulk Modulus (GPa) = 54.48535 61.13884 57.81210
# Shear Modulus (GPa) = -36.66697 20.41602 -8.12548
#
# Velocity S-wave (km/s) = -4.50035 3.35811 -2.11852
# Velocity P-wave (km/s) = 1.75813 6.98614 5.09397
#
# Compressibility (1/GPa) = 0.01835356
#
# Stress axis : x y z
#
# Youngs Moduli (GPa) = 71.33254 59.65531 70.84155
#
# Poissons Ratio (x) = 0.08729 0.51804
# Poissons Ratio (y) = 0.10438 0.31852
# Poissons Ratio (z) = 0.52163 0.26822
#
# Static dielectric constant tensor:
#      x y z
#    x 3.349960 0.000000 0.000000 
#    y 0.000000 3.287430 0.000000 
#    z 0.000000 0.000000 3.315680 
# 
# 
# High freq. dielectric constant tensor:
#      x y z
#    x 1.693560 0.000000 0.000000 
#    y 0.000000 1.677040 0.000000 
#    z 0.000000 0.000000 1.696250 
# 
# From -- ./inp_files/38180.got.cif
#   From: 2010.03.12/outbox.cif.g09.slc.cpg/sg53_20_cif.got.tgz:38180.got - 2010.04.16 14:36:59.
