data_PCOD8218227
_publ_section_title
;
Structure prediction by ZEFSAII (Michael W. Deem and Ramdas Pophale) SiO2 
 PCOD8218227
Probable space group: P M N A
;
_chemical_formula_sum "Si O2"
_cell_formula_units_Z 64
_cell_length_a 17.726279
_cell_length_b 11.001919
_cell_length_c 16.627930
_cell_angle_alpha 90.000000
_cell_angle_beta 90.000000
_cell_angle_gamma 90.000000
_cell_volume 3242.830218
_symmetry_space_group_name_H-M "P M N A"
_symmetry_group_IT_number 53
_symmetry_cell_setting 'orthorhombic'
loop_
_space_group_symop_operation_xyz
x,y,z
1/2-x,-y,1/2+z
x,-y,-z
1/2-x,y,1/2-z
-x,-y,-z
1/2+x,y,1/2-z
-x,y,z
1/2+x,-y,1/2+z
loop_
_atom_site_type_symbol
_atom_site_label
_atom_site_fract_x
_atom_site_fract_y
_atom_site_fract_z
Si Si1 0.914537 0.450669 0.089451
Si Si2 0.265512 0.466491 0.661324
Si Si3 0.208001 0.312508 0.419441
Si Si4 0.650099 0.780971 0.657479
Si Si5 0.087007 0.091368 0.675917
Si Si6 0.782276 0.222140 0.596852
Si Si7 0.913766 0.195027 0.328482
Si Si8 0.185040 0.040425 0.814285
O O1 0.855510 0.522840 0.145672
O O2 0.897643 0.304614 0.095719
O O3 0.000000 0.476531 0.118246
O O4 0.902420 0.500000 0.000000
O O5 0.250000 0.518538 0.750000
O O6 0.218926 0.543175 0.593845
O O7 0.234824 0.329845 0.659103
O O8 0.262036 0.248822 0.353837
O O9 0.230973 0.272734 0.508346
O O10 0.123555 0.266964 0.402614
O O11 0.623020 0.753488 0.747391
O O12 0.642885 0.926049 0.643654
O O13 0.133324 0.169489 0.610029
O O14 0.121972 0.116689 0.764582
O O15 0.000000 0.132182 0.672781
O O16 0.096918 0.948530 0.657883
O O17 0.720620 0.117990 0.613810
O O18 0.000000 0.232380 0.327414
O O19 0.250000 0.999942 0.750000
#
# Coordination Sequence:
#
# PCOD8218227 Si02
#       8
#     8   8   8   8   8   8   8   8
#     4  10  21  38  60  86 116 149 185 231 288 341
#     4  11  22  39  61  83 109 148 197 239 277 336
#     4  11  21  34  55  83 114 146 186 236 285 336
#     4  10  18  33  57  83 110 141 187 236 277 324
#     4   9  19  36  58  82 112 152 193 231 277 337
#     4  11  22  37  56  82 118 151 185 233 291 348
#     4  10  20  35  57  85 114 149 194 239 281 330
#     4   9  18  34  57  84 113 149 193 236 279 331
#
# _framework density 19.735847
#
# number of rings (size 3 to 8) (size 9 to 14) (size 15 to 20)
#    0.000    1.875    0.000    7.500    0.000    3.500 
#    0.000    4.375    0.000    5.250    0.000   14.000 
#    0.000    0.000    0.000    0.000    0.000    0.000 
#
# Total GULP energy -793291.999184 kJ/mol
# GULP energy per Si atom -12395.187487 kJ/mol
# Density = 1.969093 g / cm^3
# Si number density = 19.735847 Si / 1000 Ang^3
#
#
#
# Elastic Constant Matrix: (Units=GPa)
#
#
# Indices 1 2 3 4 5 6 
#
# 1 134.2368 37.3762 37.5229 0.0000 0.0000 0.0000
# 2 37.3762 89.0049 40.1733 0.0000 0.0000 0.0000
# 3 37.5229 40.1733 85.1238 0.0000 0.0000 0.0000
# 4 0.0000 0.0000 0.0000 30.6908 0.0000 0.0000
# 5 0.0000 0.0000 0.0000 0.0000 27.5154 0.0000
# 6 0.0000 0.0000 0.0000 0.0000 0.0000 23.5774
#
#
#
# Elastic Compliance Matrix: (Units=1/GPa)
#
#
# Indices 1 2 3 4 5 6 
#
# 1 0.008915 -0.002503 -0.002748 0.000000 0.000000 0.000000
# 2 -0.002503 0.014979 -0.005966 0.000000 0.000000 0.000000
# 3 -0.002748 -0.005966 0.015775 0.000000 0.000000 0.000000
# 4 0.000000 0.000000 0.000000 0.032583 0.000000 0.000000
# 5 0.000000 0.000000 0.000000 0.000000 0.036343 0.000000
# 6 0.000000 0.000000 0.000000 0.000000 0.000000 0.042414
#
#
# Mechanical properties :
#
#
# Convention : Reuss Voigt Hill
#
# Bulk Modulus (GPa) = 58.02526 59.83449 58.92987
# Shear Modulus (GPa) = 27.90369 29.24293 28.57331
#
# Velocity S-wave (km/s) = 3.76421 3.85348 3.80911
# Velocity P-wave (km/s) = 6.95393 7.08397 7.01925
#
# Compressibility (1/GPa) = 0.01723387
#
# Stress axis : x y z
#
# Youngs Moduli (GPa) = 112.17421 66.75898 63.39290
#
# Poissons Ratio (x) = 0.16710 0.17422
# Poissons Ratio (y) = 0.28078 0.37820
# Poissons Ratio (z) = 0.30829 0.39828
#
# Static dielectric constant tensor:
#      x y z
#    x 3.722700 0.000000 0.000000 
#    y 0.000000 3.621300 0.000000 
#    z 0.000000 0.000000 3.352780 
# 
# 
# High freq. dielectric constant tensor:
#      x y z
#    x 1.765910 0.000000 0.000000 
#    y 0.000000 1.767010 0.000000 
#    z 0.000000 0.000000 1.753530 
# 
# From -- ./inp_files/23905.got.cif
#   From: 2010.03.12/outbox.cif.g09.slc.cpg/sg53_12_cif.got.tgz:23905.got - 2010.04.16 14:36:59.
