data_PCOD8218521
_publ_section_title
;
Structure prediction by ZEFSAII (Michael W. Deem and Ramdas Pophale) SiO2 
 PCOD8218521
Probable space group: P M N A
;
_chemical_formula_sum "Si O2"
_cell_formula_units_Z 64
_cell_length_a 9.318833
_cell_length_b 19.306822
_cell_length_c 20.630282
_cell_angle_alpha 90.000000
_cell_angle_beta 90.000000
_cell_angle_gamma 90.000000
_cell_volume 3711.739478
_symmetry_space_group_name_H-M "P M N A"
_symmetry_group_IT_number 53
_symmetry_cell_setting 'orthorhombic'
loop_
_space_group_symop_operation_xyz
x,y,z
1/2-x,-y,1/2+z
x,-y,-z
1/2-x,y,1/2-z
-x,-y,-z
1/2+x,y,1/2-z
-x,y,z
1/2+x,-y,1/2+z
loop_
_atom_site_type_symbol
_atom_site_label
_atom_site_fract_x
_atom_site_fract_y
_atom_site_fract_z
Si Si1 0.834786 0.538218 0.812478
Si Si2 0.834634 0.325437 0.118557
Si Si3 0.664966 0.965672 0.068695
Si Si4 0.168167 0.546321 0.061450
Si Si5 0.336285 0.825373 0.008030
Si Si6 0.668974 0.329394 0.987851
Si Si7 0.168369 0.033026 0.185356
Si Si8 0.836373 0.170899 0.119346
O O1 0.750000 0.512321 0.750000
O O2 0.802660 0.619500 0.825040
O O3 0.785094 0.494250 0.874335
O O4 0.000000 0.525251 0.797779
O O5 0.802623 0.248273 0.145690
O O6 0.000000 0.333311 0.094906
O O7 0.731463 0.342610 0.059071
O O8 0.500000 0.983471 0.086760
O O9 0.688336 0.882622 0.063555
O O10 0.770912 0.991314 0.124238
O O11 0.705432 0.000000 0.000000
O O12 0.255223 0.618240 0.061763
O O13 0.000000 0.563053 0.060062
O O14 0.212679 0.500000 0.000000
O O15 0.500000 0.824181 0.985116
O O16 0.292779 0.749236 0.034282
O O17 0.251782 0.847538 0.944274
O O18 0.500000 0.343509 0.988520
O O19 0.250000 0.009017 0.250000
O O20 0.197921 0.115010 0.175011
O O21 0.000000 0.016679 0.192612
O O22 0.000000 0.164967 0.097358
#
# Coordination Sequence:
#
# PCOD8218521 Si02
#       8
#     8   8   8   8   8   8   8   8
#     4  10  21  35  52  73 101 136 172 211 253 300
#     4   9  17  33  51  70 102 143 176 203 247 307
#     4  10  19  34  57  79 103 139 175 214 264 315
#     4  10  19  35  55  74 100 138 176 210 253 307
#     4   9  18  32  51  78 108 134 165 208 263 312
#     4  10  19  30  50  81 108 130 165 217 260 297
#     4  11  23  36  51  76 108 142 180 221 262 310
#     4   9  18  31  50  74 102 138 178 212 245 297
#
# _framework density 17.24259
#
# number of rings (size 3 to 8) (size 9 to 14) (size 15 to 20)
#    0.000    2.250    2.500    0.750    0.000    3.500 
#    0.000    0.000    0.000    0.750    0.000    1.750 
#    0.000    0.000    0.000    0.000    0.000    0.000 
#
# Total GULP energy -793535.096049 kJ/mol
# GULP energy per Si atom -12398.985876 kJ/mol
# Density = 1.720334 g / cm^3
# Si number density = 17.242590 Si / 1000 Ang^3
#
#
#
# Elastic Constant Matrix: (Units=GPa)
#
#
# Indices 1 2 3 4 5 6 
#
# 1 72.3699 45.3658 53.2854 0.0000 0.0000 0.0000
# 2 45.3658 93.0425 51.5372 0.0000 0.0000 0.0000
# 3 53.2854 51.5372 109.1157 0.0000 0.0000 0.0000
# 4 0.0000 0.0000 0.0000 19.1921 0.0000 0.0000
# 5 0.0000 0.0000 0.0000 0.0000 29.7031 0.0000
# 6 0.0000 0.0000 0.0000 0.0000 0.0000 21.0796
#
#
#
# Elastic Compliance Matrix: (Units=1/GPa)
#
#
# Indices 1 2 3 4 5 6 
#
# 1 0.024746 -0.007275 -0.008648 0.000000 0.000000 0.000000
# 2 -0.007275 0.016695 -0.004332 0.000000 0.000000 0.000000
# 3 -0.008648 -0.004332 0.015434 0.000000 0.000000 0.000000
# 4 0.000000 0.000000 0.000000 0.052105 0.000000 0.000000
# 5 0.000000 0.000000 0.000000 0.000000 0.033666 0.000000
# 6 0.000000 0.000000 0.000000 0.000000 0.000000 0.047439
#
#
# Mechanical properties :
#
#
# Convention : Reuss Voigt Hill
#
# Bulk Modulus (GPa) = 61.11316 63.87833 62.49574
# Shear Modulus (GPa) = 21.18177 22.28429 21.73303
#
# Velocity S-wave (km/s) = 3.50874 3.59889 3.55410
# Velocity P-wave (km/s) = 7.20660 7.37541 7.29149
#
# Compressibility (1/GPa) = 0.01636309
#
# Stress axis : x y z
#
# Youngs Moduli (GPa) = 40.41030 59.89851 64.79151
#
# Poissons Ratio (x) = 0.43579 0.56033
# Poissons Ratio (y) = 0.29400 0.28070
# Poissons Ratio (z) = 0.34948 0.25951
#
# Static dielectric constant tensor:
#      x y z
#    x 3.233450 0.000000 0.000000 
#    y 0.000000 3.524030 0.000000 
#    z 0.000000 0.000000 2.878180 
# 
# 
# High freq. dielectric constant tensor:
#      x y z
#    x 1.669280 0.000000 0.000000 
#    y 0.000000 1.673620 0.000000 
#    z 0.000000 0.000000 1.631540 
# 
# From -- ./inp_files/26897.got.cif
#   From: 2010.03.12/outbox.cif.g09.slc.cpg/sg53_14_cif.got.tgz:26897.got - 2010.04.16 14:36:59.
