data_PCOD8218805
_publ_section_title
;
Structure prediction by ZEFSAII (Michael W. Deem and Ramdas Pophale) SiO2 
 PCOD8218805
Probable space group: P M N A
;
_chemical_formula_sum "Si O2"
_cell_formula_units_Z 48
_cell_length_a 9.045358
_cell_length_b 9.635232
_cell_length_c 30.751605
_cell_angle_alpha 90.000000
_cell_angle_beta 90.000000
_cell_angle_gamma 90.000000
_cell_volume 2680.129160
_symmetry_space_group_name_H-M "P M N A"
_symmetry_group_IT_number 53
_symmetry_cell_setting 'orthorhombic'
loop_
_space_group_symop_operation_xyz
x,y,z
1/2-x,-y,1/2+z
x,-y,-z
1/2-x,y,1/2-z
-x,-y,-z
1/2+x,y,1/2-z
-x,y,z
1/2+x,-y,1/2+z
loop_
_atom_site_type_symbol
_atom_site_label
_atom_site_fract_x
_atom_site_fract_y
_atom_site_fract_z
Si Si1 0.326903 0.705415 0.704048
Si Si2 0.827508 0.940084 0.863753
Si Si3 0.827256 0.146123 0.516228
Si Si4 0.670092 0.256864 0.072776
Si Si5 0.324323 0.793071 0.111637
Si Si6 0.172400 0.489961 0.361363
O O1 0.250000 0.718860 0.750000
O O2 0.500000 0.682430 0.710343
O O3 0.291196 0.846596 0.678180
O O4 0.263525 0.573010 0.678503
O O5 0.768965 0.863879 0.906694
O O6 0.000000 0.966539 0.869054
O O7 0.745672 0.087223 0.858312
O O8 0.796232 0.262228 0.478971
O O9 0.759975 0.194095 0.562376
O O10 0.000000 0.125471 0.523984
O O11 0.758408 0.000000 0.500000
O O12 0.500000 0.214127 0.080957
O O13 0.705319 0.405374 0.094137
O O14 0.500000 0.804938 0.112971
O O15 0.272782 0.646095 0.131009
O O16 0.000000 0.482910 0.349414
#
# Coordination Sequence:
#
# PCOD8218805 Si02
#       6
#     8   8   8   8   8   8
#     4  10  21  38  60  81 101 127 164 208 255 313
#     4  10  20  33  51  76 103 132 168 210 257 305
#     4   9  15  25  46  74 102 137 182 223 256 288
#     4   9  16  30  50  71 100 139 179 219 255 295
#     4  10  19  32  50  75 107 141 176 214 255 301
#     4   9  19  33  52  78 106 139 175 210 259 311
#
# _framework density 17.909583999999999
#
# number of rings (size 3 to 8) (size 9 to 14) (size 15 to 20)
#    0.000    2.500    1.667    1.000    0.000    3.333 
#    0.000    5.833    0.000    2.000    0.000    5.833 
#    0.000    0.000    0.000    0.000    0.000    0.000 
#
# Total GULP energy -595122.177382 kJ/mol
# GULP energy per Si atom -12398.378695 kJ/mol
# Density = 1.786882 g / cm^3
# Si number density = 17.909584 Si / 1000 Ang^3
#
#
#
# Elastic Constant Matrix: (Units=GPa)
#
#
# Indices 1 2 3 4 5 6 
#
# 1 52.8489 51.5757 46.3727 0.0000 0.0000 0.0000
# 2 51.5757 148.0050 63.0221 0.0000 0.0000 0.0000
# 3 46.3727 63.0221 121.6874 0.0000 0.0000 0.0000
# 4 0.0000 0.0000 0.0000 17.5967 0.0000 0.0000
# 5 0.0000 0.0000 0.0000 0.0000 19.7621 0.0000
# 6 0.0000 0.0000 0.0000 0.0000 0.0000 20.9627
#
#
#
# Elastic Compliance Matrix: (Units=1/GPa)
#
#
# Indices 1 2 3 4 5 6 
#
# 1 0.034973 -0.008354 -0.009001 0.000000 0.000000 0.000000
# 2 -0.008354 0.010664 -0.002339 0.000000 0.000000 0.000000
# 3 -0.009001 -0.002339 0.012859 0.000000 0.000000 0.000000
# 4 0.000000 0.000000 0.000000 0.056829 0.000000 0.000000
# 5 0.000000 0.000000 0.000000 0.000000 0.050602 0.000000
# 6 0.000000 0.000000 0.000000 0.000000 0.000000 0.047704
#
#
# Mechanical properties :
#
#
# Convention : Reuss Voigt Hill
#
# Bulk Modulus (GPa) = 52.33588 71.60916 61.97252
# Shear Modulus (GPa) = 19.27613 22.43567 20.85590
#
# Velocity S-wave (km/s) = 3.28426 3.54322 3.41619
# Velocity P-wave (km/s) = 6.60814 7.53722 7.08792
#
# Compressibility (1/GPa) = 0.01910735
#
# Stress axis : x y z
#
# Youngs Moduli (GPa) = 28.59369 93.77474 77.76563
#
# Poissons Ratio (x) = 0.78344 0.69994
# Poissons Ratio (y) = 0.23889 0.18190
# Poissons Ratio (z) = 0.25736 0.21935
#
# Static dielectric constant tensor:
#      x y z
#    x 3.129150 0.000000 0.000000 
#    y 0.000000 3.380890 0.000000 
#    z 0.000000 0.000000 3.300320 
# 
# 
# High freq. dielectric constant tensor:
#      x y z
#    x 1.672250 0.000000 0.000000 
#    y 0.000000 1.689970 0.000000 
#    z 0.000000 0.000000 1.686040 
# 
# From -- ./inp_files/37700.got.cif
#   From: 2010.03.12/outbox.cif.g09.slc.cpg/sg53_19_cif.got.tgz:37700.got - 2010.04.16 14:36:59.
