data_PCOD8218799
_publ_section_title
;
Structure prediction by ZEFSAII (Michael W. Deem and Ramdas Pophale) SiO2 
 PCOD8218799
Probable space group: P M N A
;
_chemical_formula_sum "Si O2"
_cell_formula_units_Z 48
_cell_length_a 8.658900
_cell_length_b 11.731250
_cell_length_c 25.795165
_cell_angle_alpha 90.000000
_cell_angle_beta 90.000000
_cell_angle_gamma 90.000000
_cell_volume 2620.265654
_symmetry_space_group_name_H-M "P M N A"
_symmetry_group_IT_number 53
_symmetry_cell_setting 'orthorhombic'
loop_
_space_group_symop_operation_xyz
x,y,z
1/2-x,-y,1/2+z
x,-y,-z
1/2-x,y,1/2-z
-x,-y,-z
1/2+x,y,1/2-z
-x,y,z
1/2+x,-y,1/2+z
loop_
_atom_site_type_symbol
_atom_site_label
_atom_site_fract_x
_atom_site_fract_y
_atom_site_fract_z
Si Si1 0.681446 0.957646 0.443179
Si Si2 0.319516 0.671281 0.805183
Si Si3 0.321597 0.656423 0.532790
Si Si4 0.679777 0.835783 0.897241
Si Si5 0.179837 0.711284 0.430298
Si Si6 0.180255 0.486207 0.875345
O O1 0.500000 0.972491 0.436102
O O2 0.725733 0.827861 0.432680
O O3 0.735865 0.000000 0.500000
O O4 0.769401 0.032307 0.399102
O O5 0.250000 0.703098 0.750000
O O6 0.500000 0.650156 0.800396
O O7 0.280825 0.778891 0.842008
O O8 0.244866 0.554454 0.826085
O O9 0.500000 0.655274 0.515914
O O10 0.281382 0.777506 0.557992
O O11 0.218534 0.638378 0.481832
O O12 0.282638 0.557488 0.573036
O O13 0.500000 0.820669 0.910319
O O14 0.234608 0.635641 0.381065
O O15 0.000000 0.737953 0.425816
O O16 0.000000 0.465813 0.867179
#
# Coordination Sequence:
#
# PCOD8218799 Si02
#       6
#     8   8   8   8   8   8
#     4  11  22  35  53  76 108 150 191 225 266 325
#     4  10  21  38  61  87 111 138 177 225 279 330
#     4  10  19  32  50  74 106 145 183 220 264 318
#     4  10  20  34  54  81 110 141 182 229 272 318
#     4  12  23  33  50  75 109 148 185 223 267 321
#     4  10  21  36  54  77 108 142 180 225 273 324
#
# _framework density 18.318753000000001
#
# number of rings (size 3 to 8) (size 9 to 14) (size 15 to 20)
#    0.000    1.500    1.667    4.500    0.000    6.667 
#    0.000    0.000    0.000    1.000    0.000    4.667 
#    0.000    0.000    0.000    0.000    0.000    0.000 
#
# Total GULP energy -595325.001262 kJ/mol
# GULP energy per Si atom -12402.604193 kJ/mol
# Density = 1.827706 g / cm^3
# Si number density = 18.318753 Si / 1000 Ang^3
#
#
#
# Elastic Constant Matrix: (Units=GPa)
#
#
# Indices 1 2 3 4 5 6 
#
# 1 64.5080 22.2238 29.4023 0.0000 0.0000 0.0000
# 2 22.2238 90.7051 34.6476 0.0000 0.0000 0.0000
# 3 29.4023 34.6476 78.8535 0.0000 0.0000 0.0000
# 4 0.0000 0.0000 0.0000 15.8299 0.0000 0.0000
# 5 0.0000 0.0000 0.0000 0.0000 28.2650 0.0000
# 6 0.0000 0.0000 0.0000 0.0000 0.0000 32.1232
#
#
#
# Elastic Compliance Matrix: (Units=1/GPa)
#
#
# Indices 1 2 3 4 5 6 
#
# 1 0.019085 -0.002353 -0.006082 0.000000 0.000000 0.000000
# 2 -0.002353 0.013538 -0.005071 0.000000 0.000000 0.000000
# 3 -0.006082 -0.005071 0.017178 0.000000 0.000000 0.000000
# 4 0.000000 0.000000 0.000000 0.063171 0.000000 0.000000
# 5 0.000000 0.000000 0.000000 0.000000 0.035379 0.000000
# 6 0.000000 0.000000 0.000000 0.000000 0.000000 0.031130
#
#
# Mechanical properties :
#
#
# Convention : Reuss Voigt Hill
#
# Bulk Modulus (GPa) = 43.88233 45.17932 44.53083
# Shear Modulus (GPa) = 23.35452 25.09649 24.22551
#
# Velocity S-wave (km/s) = 3.57444 3.70535 3.64049
# Velocity P-wave (km/s) = 6.40643 6.55916 6.48325
#
# Compressibility (1/GPa) = 0.02278822
#
# Stress axis : x y z
#
# Youngs Moduli (GPa) = 52.39770 73.86429 58.21377
#
# Poissons Ratio (x) = 0.17377 0.35408
# Poissons Ratio (y) = 0.12327 0.29523
# Poissons Ratio (z) = 0.31871 0.37460
#
# Static dielectric constant tensor:
#      x y z
#    x 3.400080 0.000000 0.000000 
#    y 0.000000 3.447980 0.000000 
#    z 0.000000 0.000000 2.894500 
# 
# 
# High freq. dielectric constant tensor:
#      x y z
#    x 1.725220 0.000000 0.000000 
#    y 0.000000 1.714060 0.000000 
#    z 0.000000 0.000000 1.673080 
# 
# From -- ./inp_files/33851.got.cif
#   From: 2010.03.12/outbox.cif.g09.slc.cpg/sg53_17_cif.got.tgz:33851.got - 2010.04.16 14:36:59.
