data_PCOD8218929
_publ_section_title
;
Structure prediction by ZEFSAII (Michael W. Deem and Ramdas Pophale) SiO2 
 PCOD8218929
Probable space group: P M N A
;
_chemical_formula_sum "Si O2"
_cell_formula_units_Z 48
_cell_length_a 8.777007
_cell_length_b 13.649286
_cell_length_c 18.998060
_cell_angle_alpha 90.000000
_cell_angle_beta 90.000000
_cell_angle_gamma 90.000000
_cell_volume 2275.965285
_symmetry_space_group_name_H-M "P M N A"
_symmetry_group_IT_number 53
_symmetry_cell_setting 'orthorhombic'
loop_
_space_group_symop_operation_xyz
x,y,z
1/2-x,-y,1/2+z
x,-y,-z
1/2-x,y,1/2-z
-x,-y,-z
1/2+x,y,1/2-z
-x,y,z
1/2+x,-y,1/2+z
loop_
_atom_site_type_symbol
_atom_site_label
_atom_site_fract_x
_atom_site_fract_y
_atom_site_fract_z
Si Si1 0.173299 0.907542 0.039383
Si Si2 0.180818 0.422949 0.672190
Si Si3 0.172644 0.989482 0.820831
Si Si4 0.320779 0.789577 0.824404
Si Si5 0.178640 0.390642 0.418778
Si Si6 0.681413 0.691249 0.448993
O O1 0.182394 0.924216 0.122935
O O2 0.243618 0.799391 0.026917
O O3 0.000000 0.905279 0.011665
O O4 0.256108 0.000000 0.000000
O O5 0.250000 0.423590 0.750000
O O6 0.232573 0.520700 0.630661
O O7 0.246734 0.332486 0.627191
O O8 0.000000 0.415014 0.678408
O O9 0.250000 0.028722 0.750000
O O10 0.000000 0.959790 0.803504
O O11 0.256040 0.893183 0.851076
O O12 0.250000 0.760033 0.750000
O O13 0.500000 0.796021 0.815709
O O14 0.272564 0.708704 0.880356
O O15 0.263568 0.389603 0.494171
O O16 0.000000 0.397738 0.434312
O O17 0.500000 0.690925 0.442020
#
# Coordination Sequence:
#
# PCOD8218929 Si02
#       6
#     8   8   8   8   8   8
#     4   9  19  36  57  82 112 148 191 237 283 334
#     4  11  24  43  64  87 119 155 194 238 286 341
#     4  10  19  33  53  77 109 147 187 233 287 344
#     4  10  19  32  52  81 115 149 191 240 291 344
#     4  10  22  39  59  85 118 154 190 236 290 342
#     4  11  23  39  62  90 118 151 193 238 286 343
#
# _framework density 21.089950999999999
#
# number of rings (size 3 to 8) (size 9 to 14) (size 15 to 20)
#    0.000    1.833    0.000    5.000    0.000    6.667 
#    0.000    5.000    0.000    6.000    0.000    0.000 
#    0.000    0.000    0.000    0.000    0.000    0.000 
#
# Total GULP energy -595145.163281 kJ/mol
# GULP energy per Si atom -12398.857568 kJ/mol
# Density = 2.104195 g / cm^3
# Si number density = 21.089951 Si / 1000 Ang^3
#
#
#
# Elastic Constant Matrix: (Units=GPa)
#
#
# Indices 1 2 3 4 5 6 
#
# 1 75.2347 33.1893 35.9124 0.0000 0.0000 0.0000
# 2 33.1893 105.2740 58.0525 0.0000 0.0000 0.0000
# 3 35.9124 58.0525 120.9097 0.0000 0.0000 0.0000
# 4 0.0000 0.0000 0.0000 35.0189 0.0000 0.0000
# 5 0.0000 0.0000 0.0000 0.0000 34.2422 0.0000
# 6 0.0000 0.0000 0.0000 0.0000 0.0000 19.5088
#
#
#
# Elastic Compliance Matrix: (Units=1/GPa)
#
#
# Indices 1 2 3 4 5 6 
#
# 1 0.016318 -0.003362 -0.003233 0.000000 0.000000 0.000000
# 2 -0.003362 0.013612 -0.005537 0.000000 0.000000 0.000000
# 3 -0.003233 -0.005537 0.011889 0.000000 0.000000 0.000000
# 4 0.000000 0.000000 0.000000 0.028556 0.000000 0.000000
# 5 0.000000 0.000000 0.000000 0.000000 0.029204 0.000000
# 6 0.000000 0.000000 0.000000 0.000000 0.000000 0.051259
#
#
# Mechanical properties :
#
#
# Convention : Reuss Voigt Hill
#
# Bulk Modulus (GPa) = 56.95962 61.74740 59.35351
# Shear Modulus (GPa) = 27.63142 29.37160 28.50151
#
# Velocity S-wave (km/s) = 3.62355 3.73591 3.68016
# Velocity P-wave (km/s) = 6.67633 6.92467 6.80164
#
# Compressibility (1/GPa) = 0.01755630
#
# Stress axis : x y z
#
# Youngs Moduli (GPa) = 61.28262 73.46279 84.10913
#
# Poissons Ratio (x) = 0.24697 0.27189
# Poissons Ratio (y) = 0.20603 0.46573
# Poissons Ratio (z) = 0.19810 0.40677
#
# Static dielectric constant tensor:
#      x y z
#    x 3.626090 0.000000 0.000000 
#    y 0.000000 3.975000 0.000000 
#    z 0.000000 0.000000 3.815340 
# 
# 
# High freq. dielectric constant tensor:
#      x y z
#    x 1.809930 0.000000 0.000000 
#    y 0.000000 1.830130 0.000000 
#    z 0.000000 0.000000 1.838430 
# 
# From -- ./inp_files/26231.got.cif
#   From: 2010.03.12/outbox.cif.g09.slc.cpg/sg53_14_cif.got.tgz:26231.got - 2010.04.16 14:36:59.
