data_PCOD8218244
_publ_section_title
;
Structure prediction by ZEFSAII (Michael W. Deem and Ramdas Pophale) SiO2 
 PCOD8218244
Probable space group: P M N A
;
_chemical_formula_sum "Si O2"
_cell_formula_units_Z 64
_cell_length_a 17.730081
_cell_length_b 15.195381
_cell_length_c 13.512246
_cell_angle_alpha 90.000000
_cell_angle_beta 90.000000
_cell_angle_gamma 90.000000
_cell_volume 3640.406296
_symmetry_space_group_name_H-M "P M N A"
_symmetry_group_IT_number 53
_symmetry_cell_setting 'orthorhombic'
loop_
_space_group_symop_operation_xyz
x,y,z
1/2-x,-y,1/2+z
x,-y,-z
1/2-x,y,1/2-z
-x,-y,-z
1/2+x,y,1/2-z
-x,y,z
1/2+x,-y,1/2+z
loop_
_atom_site_type_symbol
_atom_site_label
_atom_site_fract_x
_atom_site_fract_y
_atom_site_fract_z
Si Si1 0.586491 0.023956 0.817934
Si Si2 0.087024 0.250672 0.387338
Si Si3 0.334635 0.898739 0.517823
Si Si4 0.675876 0.705006 0.192387
Si Si5 0.586669 0.823290 0.334687
Si Si6 0.088040 0.597104 0.467493
Si Si7 0.661900 0.144360 0.263440
Si Si8 0.827147 0.141845 0.541975
O O1 0.500000 0.023546 0.850827
O O2 0.599306 0.086141 0.723690
O O3 0.636898 0.057044 0.907881
O O4 0.613775 0.926887 0.795612
O O5 0.104177 0.345686 0.434301
O O6 0.136777 0.237001 0.287146
O O7 0.109388 0.179818 0.470151
O O8 0.000000 0.239406 0.359811
O O9 0.370055 0.833634 0.437609
O O10 0.363212 0.862043 0.622855
O O11 0.244698 0.890426 0.518857
O O12 0.359572 0.000000 0.500000
O O13 0.750000 0.669168 0.250000
O O14 0.616326 0.739595 0.273384
O O15 0.637853 0.627989 0.126586
O O16 0.699503 0.786309 0.122716
O O17 0.500000 0.805218 0.357740
O O18 0.112159 0.500000 0.500000
O O19 0.000000 0.603542 0.436992
O O20 0.750000 0.127063 0.250000
#
# Coordination Sequence:
#
# PCOD8218244 Si02
#       8
#     8   8   8   8   8   8   8   8
#     4  10  21  34  51  73 102 139 187 239 278 312
#     4  10  21  37  56  80 106 133 175 225 275 333
#     4  12  22  35  51  70 104 155 199 229 264 313
#     4  10  18  33  60  84 111 138 175 221 274 327
#     4  10  21  34  50  76 106 143 189 230 268 311
#     4   9  19  38  64  89 113 138 168 217 280 342
#     4  12  23  35  50  71 106 148 189 227 272 319
#     4  10  20  34  54  77 103 140 181 230 280 319
#
# _framework density 17.580455000000001
#
# number of rings (size 3 to 8) (size 9 to 14) (size 15 to 20)
#    0.000    1.625    3.750    1.875    0.000    4.250 
#    0.000    1.875    0.000    0.000    0.000    0.000 
#    0.000    5.000    0.000    0.000    0.000    0.000 
#
# Total GULP energy -793648.628065 kJ/mol
# GULP energy per Si atom -12400.759814 kJ/mol
# Density = 1.754044 g / cm^3
# Si number density = 17.580455 Si / 1000 Ang^3
#
#
#
# Elastic Constant Matrix: (Units=GPa)
#
#
# Indices 1 2 3 4 5 6 
#
# 1 80.2408 35.7487 36.9194 0.0000 0.0000 0.0000
# 2 35.7487 81.8687 52.4886 0.0000 0.0000 0.0000
# 3 36.9194 52.4886 109.4408 0.0000 0.0000 0.0000
# 4 0.0000 0.0000 0.0000 22.0367 0.0000 0.0000
# 5 0.0000 0.0000 0.0000 0.0000 22.8812 0.0000
# 6 0.0000 0.0000 0.0000 0.0000 0.0000 19.7004
#
#
#
# Elastic Compliance Matrix: (Units=1/GPa)
#
#
# Indices 1 2 3 4 5 6 
#
# 1 0.016117 -0.005129 -0.002977 0.000000 0.000000 0.000000
# 2 -0.005129 0.019271 -0.007512 0.000000 0.000000 0.000000
# 3 -0.002977 -0.007512 0.013745 0.000000 0.000000 0.000000
# 4 0.000000 0.000000 0.000000 0.045379 0.000000 0.000000
# 5 0.000000 0.000000 0.000000 0.000000 0.043704 0.000000
# 6 0.000000 0.000000 0.000000 0.000000 0.000000 0.050760
#
#
# Mechanical properties :
#
#
# Convention : Reuss Voigt Hill
#
# Bulk Modulus (GPa) = 55.87867 57.98485 56.93176
# Shear Modulus (GPa) = 22.10652 22.68322 22.39487
#
# Velocity S-wave (km/s) = 3.54990 3.59590 3.57298
# Velocity P-wave (km/s) = 6.97538 7.09189 7.03388
#
# Compressibility (1/GPa) = 0.01789592
#
# Stress axis : x y z
#
# Youngs Moduli (GPa) = 62.04477 51.89275 72.75610
#
# Poissons Ratio (x) = 0.26616 0.21661
# Poissons Ratio (y) = 0.31823 0.54655
# Poissons Ratio (z) = 0.18472 0.38982
#
# Static dielectric constant tensor:
#      x y z
#    x 3.227910 0.000000 0.000000 
#    y 0.000000 3.037690 0.000000 
#    z 0.000000 0.000000 3.446090 
# 
# 
# High freq. dielectric constant tensor:
#      x y z
#    x 1.685500 0.000000 0.000000 
#    y 0.000000 1.641770 0.000000 
#    z 0.000000 0.000000 1.687050 
# 
# From -- ./inp_files/17133.got.cif
#   From: 2010.03.12/outbox.cif.g09.slc.cpg/sg53_9_cif.got.tgz:17133.got - 2010.04.16 14:36:59.
