data_PCOD8218462
_publ_section_title
;
Structure prediction by ZEFSAII (Michael W. Deem and Ramdas Pophale) SiO2 
 PCOD8218462
Probable space group: P M N A
;
_chemical_formula_sum "Si O2"
_cell_formula_units_Z 64
_cell_length_a 8.958894
_cell_length_b 19.010840
_cell_length_c 21.575336
_cell_angle_alpha 90.000000
_cell_angle_beta 90.000000
_cell_angle_gamma 90.000000
_cell_volume 3674.627093
_symmetry_space_group_name_H-M "P M N A"
_symmetry_group_IT_number 53
_symmetry_cell_setting 'orthorhombic'
loop_
_space_group_symop_operation_xyz
x,y,z
1/2-x,-y,1/2+z
x,-y,-z
1/2-x,y,1/2-z
-x,-y,-z
1/2+x,y,1/2-z
-x,y,z
1/2+x,-y,1/2+z
loop_
_atom_site_type_symbol
_atom_site_label
_atom_site_fract_x
_atom_site_fract_y
_atom_site_fract_z
Si Si1 0.827349 0.969662 0.814316
Si Si2 0.323850 0.326434 0.510681
Si Si3 0.176688 0.047006 0.940219
Si Si4 0.825199 0.168918 0.117684
Si Si5 0.822284 0.822871 0.490578
Si Si6 0.668012 0.287696 0.186330
Si Si7 0.335219 0.533129 0.431929
Si Si8 0.833245 0.594209 0.597756
O O1 0.750000 0.992681 0.750000
O O2 0.772656 0.011591 0.875325
O O3 0.000000 0.984003 0.803749
O O4 0.794750 0.887585 0.828217
O O5 0.500000 0.311786 0.506069
O O6 0.238996 0.254530 0.526321
O O7 0.288092 0.384621 0.564242
O O8 0.271404 0.359298 0.446019
O O9 0.000000 0.060436 0.941423
O O10 0.264746 0.121085 0.940112
O O11 0.222824 0.000000 0.000000
O O12 0.742648 0.147162 0.054871
O O13 0.758512 0.243431 0.136170
O O14 0.000000 0.175224 0.102897
O O15 0.000000 0.819572 0.492713
O O16 0.750000 0.280695 0.250000
O O17 0.500000 0.258000 0.192502
O O18 0.666362 0.368571 0.164664
O O19 0.333418 0.500000 0.500000
O O20 0.500000 0.527124 0.402796
O O21 0.223297 0.485768 0.391203
O O22 0.000000 0.592138 0.569436
#
# Coordination Sequence:
#
# PCOD8218462 Si02
#       8
#     8   8   8   8   8   8   8   8
#     4  10  22  38  58  81 105 139 180 224 270 321
#     4  10  19  32  50  71  99 135 170 205 253 315
#     4  10  20  39  59  77 106 144 184 219 265 329
#     4  11  21  36  55  74 102 145 183 219 265 318
#     4  12  23  33  51  81 110 139 176 223 273 319
#     4  11  23  35  47  70 101 139 183 223 261 311
#     4   8  16  29  46  69  94 126 166 199 240 301
#     4  10  19  30  46  70  99 130 168 214 260 302
#
# _framework density 17.416734000000002
#
# number of rings (size 3 to 8) (size 9 to 14) (size 15 to 20)
#    0.000    1.750    2.500    3.750    0.000    7.000 
#    0.000    0.000    0.000    0.000    0.000    0.875 
#    0.000    6.000    0.000    0.000    0.000    0.000 
#
# Total GULP energy -793308.402511 kJ/mol
# GULP energy per Si atom -12395.443789 kJ/mol
# Density = 1.737709 g / cm^3
# Si number density = 17.416734 Si / 1000 Ang^3
#
#
#
# Elastic Constant Matrix: (Units=GPa)
#
#
# Indices 1 2 3 4 5 6 
#
# 1 108.5547 55.2278 35.9974 0.0000 0.0000 0.0000
# 2 55.2278 107.0924 39.7816 0.0000 0.0000 0.0000
# 3 35.9974 39.7816 76.9218 0.0000 0.0000 0.0000
# 4 0.0000 0.0000 0.0000 18.8274 0.0000 0.0000
# 5 0.0000 0.0000 0.0000 0.0000 134.3427 0.0000
# 6 0.0000 0.0000 0.0000 0.0000 0.0000 29.0956
#
#
#
# Elastic Compliance Matrix: (Units=1/GPa)
#
#
# Indices 1 2 3 4 5 6 
#
# 1 0.013121 -0.005552 -0.003269 0.000000 0.000000 0.000000
# 2 -0.005552 0.013908 -0.004594 0.000000 0.000000 0.000000
# 3 -0.003269 -0.004594 0.016906 0.000000 0.000000 0.000000
# 4 0.000000 0.000000 0.000000 0.053114 0.000000 0.000000
# 5 0.000000 0.000000 0.000000 0.000000 0.007444 0.000000
# 6 0.000000 0.000000 0.000000 0.000000 0.000000 0.034369
#
#
# Mechanical properties :
#
#
# Convention : Reuss Voigt Hill
#
# Bulk Modulus (GPa) = 58.46653 61.62030 60.04341
# Shear Modulus (GPa) = 29.17276 47.22394 38.19835
#
# Velocity S-wave (km/s) = 4.09710 5.21277 4.68824
# Velocity P-wave (km/s) = 7.48490 8.46684 7.99097
#
# Compressibility (1/GPa) = 0.01710380
#
# Stress axis : x y z
#
# Youngs Moduli (GPa) = 76.21657 71.90308 59.15079
#
# Poissons Ratio (x) = 0.39921 0.19335
# Poissons Ratio (y) = 0.42316 0.27176
# Poissons Ratio (z) = 0.24913 0.33035
#
# Static dielectric constant tensor:
#      x y z
#    x 3.344360 0.000000 0.000000 
#    y 0.000000 3.589530 0.000000 
#    z 0.000000 0.000000 2.942190 
# 
# 
# High freq. dielectric constant tensor:
#      x y z
#    x 1.682970 0.000000 0.000000 
#    y 0.000000 1.676830 0.000000 
#    z 0.000000 0.000000 1.629370 
# 
# From -- ./inp_files/31167.got.cif
#   From: 2010.03.12/outbox.cif.g09.slc.cpg/sg53_16_cif.got.tgz:31167.got - 2010.04.16 14:36:59.
