data_PCOD8218778
_publ_section_title
;
Structure prediction by ZEFSAII (Michael W. Deem and Ramdas Pophale) SiO2 
 PCOD8218778
Probable space group: P M N A
;
_chemical_formula_sum "Si O2"
_cell_formula_units_Z 64
_cell_length_a 9.180162
_cell_length_b 15.040145
_cell_length_c 23.710094
_cell_angle_alpha 90.000000
_cell_angle_beta 90.000000
_cell_angle_gamma 90.000000
_cell_volume 3273.675621
_symmetry_space_group_name_H-M "P M N A"
_symmetry_group_IT_number 53
_symmetry_cell_setting 'orthorhombic'
loop_
_space_group_symop_operation_xyz
x,y,z
1/2-x,-y,1/2+z
x,-y,-z
1/2-x,y,1/2-z
-x,-y,-z
1/2+x,y,1/2-z
-x,y,z
1/2+x,-y,1/2+z
loop_
_atom_site_type_symbol
_atom_site_label
_atom_site_fract_x
_atom_site_fract_y
_atom_site_fract_z
Si Si1 0.171831 0.140223 0.691327
Si Si2 0.327689 0.683915 0.130294
Si Si3 0.170565 0.093818 0.027646
Si Si4 0.328923 0.348495 0.108715
Si Si5 0.662319 0.208861 0.196682
Si Si6 0.326306 0.729399 0.006494
Si Si7 0.674429 0.495164 0.810304
Si Si8 0.664584 0.039765 0.133627
O O1 0.250000 0.126260 0.750000
O O2 0.232873 0.228812 0.661714
O O3 0.000000 0.143676 0.702104
O O4 0.213394 0.058778 0.650492
O O5 0.500000 0.685489 0.131472
O O6 0.276283 0.683461 0.065041
O O7 0.270521 0.598500 0.164257
O O8 0.222094 0.084324 0.091566
O O9 0.000000 0.114637 0.025309
O O10 0.255060 0.173096 0.996478
O O11 0.211376 0.000000 0.000000
O O12 0.500000 0.360453 0.104437
O O13 0.280785 0.258901 0.140898
O O14 0.268478 0.432937 0.143610
O O15 0.270769 0.335355 0.044423
O O16 0.750000 0.241844 0.250000
O O17 0.500000 0.242020 0.208646
O O18 0.670153 0.102732 0.188794
O O19 0.500000 0.743290 0.003796
O O20 0.750000 0.511939 0.750000
O O21 0.500000 0.498707 0.802304
O O22 0.500000 0.039993 0.108459
#
# Coordination Sequence:
#
# PCOD8218778 Si02
#       8
#     8   8   8   8   8   8   8   8
#     4  10  20  34  52  78 108 142 185 229 273 328
#     4   9  19  34  56  83 108 140 186 230 274 327
#     4  11  23  36  52  79 113 145 182 227 273 325
#     4   9  18  33  55  81 110 140 181 226 266 319
#     4  10  19  32  49  75 105 137 177 218 262 318
#     4  10  19  37  60  80 108 146 185 228 275 324
#     4  10  20  36  57  84 114 144 182 228 275 330
#     4  10  20  35  54  75 104 142 186 225 265 323
#
# _framework density 19.549890999999999
#
# number of rings (size 3 to 8) (size 9 to 14) (size 15 to 20)
#    0.000    2.125    1.250    2.250    0.000    3.500 
#    0.000    4.375    0.000    0.000    0.000    1.750 
#    0.000    0.000    0.000    0.000    0.000    0.000 
#
# Total GULP energy -793355.861798 kJ/mol
# GULP energy per Si atom -12396.185341 kJ/mol
# Density = 1.950539 g / cm^3
# Si number density = 19.549891 Si / 1000 Ang^3
#
#
#
# Elastic Constant Matrix: (Units=GPa)
#
#
# Indices 1 2 3 4 5 6 
#
# 1 34.2862 19.9752 28.5754 0.0000 0.0000 0.0000
# 2 19.9752 117.1424 29.5641 0.0000 0.0000 0.0000
# 3 28.5754 29.5641 98.5678 0.0000 0.0000 0.0000
# 4 0.0000 0.0000 0.0000 22.8377 0.0000 0.0000
# 5 0.0000 0.0000 0.0000 0.0000 27.6992 0.0000
# 6 0.0000 0.0000 0.0000 0.0000 0.0000 16.4451
#
#
#
# Elastic Compliance Matrix: (Units=1/GPa)
#
#
# Indices 1 2 3 4 5 6 
#
# 1 0.040321 -0.004247 -0.010416 0.000000 0.000000 0.000000
# 2 -0.004247 0.009683 -0.001673 0.000000 0.000000 0.000000
# 3 -0.010416 -0.001673 0.013667 0.000000 0.000000 0.000000
# 4 0.000000 0.000000 0.000000 0.043787 0.000000 0.000000
# 5 0.000000 0.000000 0.000000 0.000000 0.036102 0.000000
# 6 0.000000 0.000000 0.000000 0.000000 0.000000 0.060808
#
#
# Mechanical properties :
#
#
# Convention : Reuss Voigt Hill
#
# Bulk Modulus (GPa) = 32.25829 45.13620 38.69724
# Shear Modulus (GPa) = 20.21238 24.85519 22.53379
#
# Velocity S-wave (km/s) = 3.21890 3.56950 3.39872
# Velocity P-wave (km/s) = 5.50921 6.33453 5.93623
#
# Compressibility (1/GPa) = 0.03099978
#
# Stress axis : x y z
#
# Youngs Moduli (GPa) = 24.80079 103.27310 73.17078
#
# Poissons Ratio (x) = 0.43860 0.76212
# Poissons Ratio (y) = 0.10533 0.12242
# Poissons Ratio (z) = 0.25831 0.17278
#
# Static dielectric constant tensor:
#      x y z
#    x 3.199290 0.000000 0.000000 
#    y 0.000000 3.810030 0.000000 
#    z 0.000000 0.000000 3.674500 
# 
# 
# High freq. dielectric constant tensor:
#      x y z
#    x 1.720900 0.000000 0.000000 
#    y 0.000000 1.771200 0.000000 
#    z 0.000000 0.000000 1.769150 
# 
# From -- ./inp_files/34205.got.cif
#   From: 2010.03.12/outbox.cif.g09.slc.cpg/sg53_18_cif.got.tgz:34205.got - 2010.04.16 14:36:59.
