data_PCOD8218219
_publ_section_title
;
Structure prediction by ZEFSAII (Michael W. Deem and Ramdas Pophale) SiO2 
 PCOD8218219
Probable space group: P M N A
;
_chemical_formula_sum "Si O2"
_cell_formula_units_Z 64
_cell_length_a 27.204257
_cell_length_b 10.237784
_cell_length_c 11.826820
_cell_angle_alpha 90.000000
_cell_angle_beta 90.000000
_cell_angle_gamma 90.000000
_cell_volume 3293.903096
_symmetry_space_group_name_H-M "P M N A"
_symmetry_group_IT_number 53
_symmetry_cell_setting 'orthorhombic'
loop_
_space_group_symop_operation_xyz
x,y,z
1/2-x,-y,1/2+z
x,-y,-z
1/2-x,y,1/2-z
-x,-y,-z
1/2+x,y,1/2-z
-x,y,z
1/2+x,-y,1/2+z
loop_
_atom_site_type_symbol
_atom_site_label
_atom_site_fract_x
_atom_site_fract_y
_atom_site_fract_z
Si Si1 0.133087 0.897758 0.276751
Si Si2 0.556587 0.408012 0.099516
Si Si3 0.054989 0.206238 0.890343
Si Si4 0.806407 0.847314 0.478330
Si Si5 0.371822 0.190369 0.171426
Si Si6 0.554707 0.507941 0.653145
Si Si7 0.880367 0.267404 0.075037
Si Si8 0.302344 0.863174 0.435880
O O1 0.084103 0.843591 0.218894
O O2 0.152645 0.812493 0.382869
O O3 0.178631 0.896759 0.189380
O O4 0.117586 0.036795 0.328972
O O5 0.500000 0.374444 0.073967
O O6 0.583733 0.269300 0.113349
O O7 0.564183 0.490257 0.213366
O O8 0.578256 0.500000 0.000000
O O9 0.057073 0.361755 0.888942
O O10 0.000000 0.149699 0.884855
O O11 0.079912 0.169894 0.012066
O O12 0.822933 0.778881 0.596380
O O13 0.752600 0.803879 0.436195
O O14 0.803223 0.000000 0.500000
O O15 0.363709 0.224194 0.301623
O O16 0.500000 0.566471 0.627401
O O17 0.596019 0.588877 0.585546
O O18 0.833069 0.255458 0.993752
O O19 0.307401 0.000000 0.500000
#
# Coordination Sequence:
#
# PCOD8218219 Si02
#       8
#     8   8   8   8   8   8   8   8
#     4  10  20  35  54  82 114 145 180 231 289 339
#     4   9  19  34  55  78 105 151 198 234 277 338
#     4  10  21  34  55  82 111 149 188 228 279 346
#     4   9  20  34  54  80 105 145 181 224 278 332
#     4  10  20  35  53  80 117 140 185 235 286 336
#     4   9  18  34  54  79 107 142 189 231 272 337
#     4  10  19  32  54  80 109 142 177 230 282 327
#     4  10  18  33  56  80 109 138 179 229 276 341
#
# _framework density 19.429835000000001
#
# number of rings (size 3 to 8) (size 9 to 14) (size 15 to 20)
#    0.000    2.375    1.250    1.125    1.750    2.500 
#    0.000    0.625    0.000    5.250    9.750    0.000 
#    0.000    0.000    0.000    0.000    0.000    0.000 
#
# Total GULP energy -792838.675114 kJ/mol
# GULP energy per Si atom -12388.104299 kJ/mol
# Density = 1.938561 g / cm^3
# Si number density = 19.429835 Si / 1000 Ang^3
#
#
#
# Elastic Constant Matrix: (Units=GPa)
#
#
# Indices 1 2 3 4 5 6 
#
# 1 114.6747 23.4284 63.5803 0.0000 0.0000 0.0000
# 2 23.4284 41.9782 31.0938 0.0000 0.0000 0.0000
# 3 63.5803 31.0938 132.8563 0.0000 0.0000 0.0000
# 4 0.0000 0.0000 0.0000 26.7216 0.0000 0.0000
# 5 0.0000 0.0000 0.0000 0.0000 24.0078 0.0000
# 6 0.0000 0.0000 0.0000 0.0000 0.0000 11.2524
#
#
#
# Elastic Compliance Matrix: (Units=1/GPa)
#
#
# Indices 1 2 3 4 5 6 
#
# 1 0.012174 -0.002999 -0.005124 0.000000 0.000000 0.000000
# 2 -0.002999 0.029556 -0.005482 0.000000 0.000000 0.000000
# 3 -0.005124 -0.005482 0.011262 0.000000 0.000000 0.000000
# 4 0.000000 0.000000 0.000000 0.037423 0.000000 0.000000
# 5 0.000000 0.000000 0.000000 0.000000 0.041653 0.000000
# 6 0.000000 0.000000 0.000000 0.000000 0.000000 0.088870
#
#
# Mechanical properties :
#
#
# Convention : Reuss Voigt Hill
#
# Bulk Modulus (GPa) = 38.78674 58.41269 48.59972
# Shear Modulus (GPa) = 19.47468 23.82347 21.64907
#
# Velocity S-wave (km/s) = 3.16936 3.50541 3.34161
# Velocity P-wave (km/s) = 5.77918 6.82001 6.32105
#
# Compressibility (1/GPa) = 0.02578201
#
# Stress axis : x y z
#
# Youngs Moduli (GPa) = 82.14175 33.83370 88.79207
#
# Poissons Ratio (x) = 0.10146 0.45499
# Poissons Ratio (y) = 0.24633 0.48678
# Poissons Ratio (z) = 0.42091 0.18548
#
# Static dielectric constant tensor:
#      x y z
#    x 3.785260 0.000000 0.000000 
#    y 0.000000 3.264220 0.000000 
#    z 0.000000 0.000000 3.936940 
# 
# 
# High freq. dielectric constant tensor:
#      x y z
#    x 1.749240 0.000000 0.000000 
#    y 0.000000 1.719010 0.000000 
#    z 0.000000 0.000000 1.781240 
# 
# From -- ./inp_files/18862.got.cif
#   From: 2010.03.12/outbox.cif.g09.slc.cpg/sg53_10_cif.got.tgz:18862.got - 2010.04.16 14:36:59.
