data_PCOD8218105
_publ_section_title
;
Structure prediction by ZEFSAII (Michael W. Deem and Ramdas Pophale) SiO2 
 PCOD8218105
Probable space group: P M N A
;
_chemical_formula_sum "Si O2"
_cell_formula_units_Z 48
_cell_length_a 9.927715
_cell_length_b 29.748722
_cell_length_c 8.643481
_cell_angle_alpha 90.000000
_cell_angle_beta 90.000000
_cell_angle_gamma 90.000000
_cell_volume 2552.738310
_symmetry_space_group_name_H-M "P M N A"
_symmetry_group_IT_number 53
_symmetry_cell_setting 'orthorhombic'
loop_
_space_group_symop_operation_xyz
x,y,z
1/2-x,-y,1/2+z
x,-y,-z
1/2-x,y,1/2-z
-x,-y,-z
1/2+x,y,1/2-z
-x,y,z
1/2+x,-y,1/2+z
loop_
_atom_site_type_symbol
_atom_site_label
_atom_site_fract_x
_atom_site_fract_y
_atom_site_fract_z
Si Si1 0.154700 0.957456 0.103728
Si Si2 0.844988 0.871352 0.896111
Si Si3 0.500000 0.449167 0.060806
Si Si4 0.000000 0.451836 0.071313
Si Si5 0.341356 0.299640 0.398938
Si Si6 0.154037 0.212939 0.896070
Si Si7 0.254810 0.604649 0.566211
O O1 0.250000 0.957663 0.250000
O O2 0.000000 0.959866 0.159424
O O3 0.183251 0.912495 0.009323
O O4 0.192326 0.000000 0.000000
O O5 0.750000 0.876761 0.750000
O O6 0.000000 0.870740 0.840280
O O7 0.806612 0.825641 0.983185
O O8 0.500000 0.453364 0.244400
O O9 0.377082 0.419107 0.997585
O O10 0.500000 0.500000 0.000000
O O11 0.873085 0.426142 0.002871
O O12 0.000000 0.500000 0.000000
O O13 0.250000 0.288082 0.250000
O O14 0.500000 0.306424 0.351755
O O15 0.324763 0.260391 0.521830
O O16 0.281276 0.343909 0.484556
O O17 0.250000 0.209276 0.750000
O O18 0.000000 0.206962 0.840257
O O19 0.250000 0.605060 0.750000
#
# Coordination Sequence:
#
# PCOD8218105 Si02
#       7
#     8   8   4   4   8   8   8
#     4  10  21  36  55  83 117 154 197 243 290 342
#     4  10  21  37  58  84 114 148 192 240 282 335
#     4  10  20  34  50  76 102 130 170 212 251 310
#     4  10  18  32  52  72  98 134 164 204 257 306
#     4  10  20  35  57  82 105 135 179 225 267 321
#     4  10  22  39  56  81 114 146 181 224 277 334
#     4   9  18  32  52  74 100 129 169 211 255 309
#
# _framework density 18.803336000000002
#
# number of rings (size 3 to 8) (size 9 to 14) (size 15 to 20)
#    0.000    2.167    0.833    2.000    3.500    2.333 
#    0.000    1.667    0.000    0.000    0.000    0.000 
#    0.000    0.000    0.000    0.000    0.000    0.000 
#
# Total GULP energy -595107.962000 kJ/mol
# GULP energy per Si atom -12398.082542 kJ/mol
# Density = 1.876054 g / cm^3
# Si number density = 18.803336 Si / 1000 Ang^3
#
#
#
# Elastic Constant Matrix: (Units=GPa)
#
#
# Indices 1 2 3 4 5 6 
#
# 1 144.3423 62.0727 68.6069 0.0000 0.0000 0.0000
# 2 62.0727 145.4861 40.8561 0.0000 0.0000 0.0000
# 3 68.6069 40.8561 83.0863 0.0000 0.0000 0.0000
# 4 0.0000 0.0000 0.0000 21.0407 0.0000 0.0000
# 5 0.0000 0.0000 0.0000 0.0000 34.7912 0.0000
# 6 0.0000 0.0000 0.0000 0.0000 0.0000 29.6785
#
#
#
# Elastic Compliance Matrix: (Units=1/GPa)
#
#
# Indices 1 2 3 4 5 6 
#
# 1 0.012302 -0.002780 -0.008791 0.000000 0.000000 0.000000
# 2 -0.002780 0.008603 -0.001935 0.000000 0.000000 0.000000
# 3 -0.008791 -0.001935 0.020246 0.000000 0.000000 0.000000
# 4 0.000000 0.000000 0.000000 0.047527 0.000000 0.000000
# 5 0.000000 0.000000 0.000000 0.000000 0.028743 0.000000
# 6 0.000000 0.000000 0.000000 0.000000 0.000000 0.033694
#
#
# Mechanical properties :
#
#
# Convention : Reuss Voigt Hill
#
# Bulk Modulus (GPa) = 70.72500 79.55401 75.13951
# Shear Modulus (GPa) = 27.34629 30.52734 28.93682
#
# Velocity S-wave (km/s) = 3.81771 4.03365 3.92716
# Velocity P-wave (km/s) = 7.55830 8.00588 7.78530
#
# Compressibility (1/GPa) = 0.01413927
#
# Stress axis : x y z
#
# Youngs Moduli (GPa) = 81.28815 116.23925 49.39212
#
# Poissons Ratio (x) = 0.32314 0.43421
# Poissons Ratio (y) = 0.22598 0.09557
# Poissons Ratio (z) = 0.71461 0.22491
#
# Static dielectric constant tensor:
#      x y z
#    x 3.722600 0.000000 0.000000 
#    y 0.000000 3.409800 0.000000 
#    z 0.000000 0.000000 3.063460 
# 
# 
# High freq. dielectric constant tensor:
#      x y z
#    x 1.743400 0.000000 0.000000 
#    y 0.000000 1.756690 0.000000 
#    z 0.000000 0.000000 1.700250 
# 
# From -- ./inp_files/6773.got.cif
#   From: 2010.03.12/outbox.cif.g09.slc.cpg/sg53_4_cif.got.tgz:6773.got - 2010.04.16 14:36:59.
