data_PCOD8218891
_publ_section_title
;
Structure prediction by ZEFSAII (Michael W. Deem and Ramdas Pophale) SiO2 
 PCOD8218891
Probable space group: P M N A
;
_chemical_formula_sum "Si O2"
_cell_formula_units_Z 56
_cell_length_a 8.975499
_cell_length_b 19.325182
_cell_length_c 17.767169
_cell_angle_alpha 90.000000
_cell_angle_beta 90.000000
_cell_angle_gamma 90.000000
_cell_volume 3081.771460
_symmetry_space_group_name_H-M "P M N A"
_symmetry_group_IT_number 53
_symmetry_cell_setting 'orthorhombic'
loop_
_space_group_symop_operation_xyz
x,y,z
1/2-x,-y,1/2+z
x,-y,-z
1/2-x,y,1/2-z
-x,-y,-z
1/2+x,y,1/2-z
-x,y,z
1/2+x,-y,1/2+z
loop_
_atom_site_type_symbol
_atom_site_label
_atom_site_fract_x
_atom_site_fract_y
_atom_site_fract_z
Si Si1 0.664694 0.545812 0.574033
Si Si2 0.175779 0.167068 0.327348
Si Si3 0.326245 0.204108 0.472806
Si Si4 0.674732 0.653185 0.458861
Si Si5 0.172609 0.009980 0.324260
Si Si6 0.335504 0.934606 0.447248
Si Si7 0.177399 0.436922 0.668356
O O1 0.655842 0.500000 0.500000
O O2 0.500000 0.551716 0.611236
O O3 0.719971 0.619391 0.540288
O O4 0.775354 0.512382 0.635567
O O5 0.250000 0.192969 0.250000
O O6 0.235514 0.214147 0.395488
O O7 0.225715 0.087802 0.344450
O O8 0.000000 0.175348 0.320068
O O9 0.500000 0.202400 0.452051
O O10 0.290319 0.265670 0.531508
O O11 0.273724 0.132807 0.510717
O O12 0.500000 0.638796 0.442806
O O13 0.767526 0.623129 0.388587
O O14 0.250000 0.982944 0.250000
O O15 0.000000 0.009886 0.309883
O O16 0.213967 0.953340 0.385652
O O17 0.500000 0.919087 0.412836
O O18 0.349496 0.000000 0.500000
O O19 0.250000 0.424850 0.750000
O O20 0.000000 0.433791 0.675510
#
# Coordination Sequence:
#
# PCOD8218891 Si02
#       7
#     8   8   8   8   8   8   8
#     4   8  15  31  54  78 105 135 169 210 254 303
#     4  10  20  33  51  74 100 131 171 219 269 323
#     4  10  20  35  55  78 107 144 180 218 269 324
#     4   9  19  36  56  79 110 146 180 216 263 318
#     4  10  20  33  51  73  99 130 169 220 274 324
#     4  10  19  32  52  77 104 134 174 223 270 321
#     4  11  21  34  56  84 112 142 179 220 260 307
#
# _framework density 18.171365999999999
#
# number of rings (size 3 to 8) (size 9 to 14) (size 15 to 20)
#    0.000    2.286    1.429    3.000    0.000    5.143 
#    0.000    1.429    0.000    0.000    0.000    0.000 
#    0.000    0.000    0.000    0.000    0.000    0.000 
#
# Total GULP energy -694143.801863 kJ/mol
# GULP energy per Si atom -12395.425033 kJ/mol
# Density = 1.813001 g / cm^3
# Si number density = 18.171366 Si / 1000 Ang^3
#
#
#
# Elastic Constant Matrix: (Units=GPa)
#
#
# Indices 1 2 3 4 5 6 
#
# 1 92.7023 29.2087 59.5827 0.0000 0.0000 0.0000
# 2 29.2087 85.7347 39.2853 0.0000 0.0000 0.0000
# 3 59.5827 39.2853 110.1429 0.0000 0.0000 0.0000
# 4 0.0000 0.0000 0.0000 22.1000 0.0000 0.0000
# 5 0.0000 0.0000 0.0000 0.0000 33.9594 0.0000
# 6 0.0000 0.0000 0.0000 0.0000 0.0000 20.4300
#
#
#
# Elastic Compliance Matrix: (Units=1/GPa)
#
#
# Indices 1 2 3 4 5 6 
#
# 1 0.016782 -0.001862 -0.008414 0.000000 0.000000 0.000000
# 2 -0.001862 0.014149 -0.004040 0.000000 0.000000 0.000000
# 3 -0.008414 -0.004040 0.015072 0.000000 0.000000 0.000000
# 4 0.000000 0.000000 0.000000 0.045249 0.000000 0.000000
# 5 0.000000 0.000000 0.000000 0.000000 0.029447 0.000000
# 6 0.000000 0.000000 0.000000 0.000000 0.000000 0.048948
#
#
# Mechanical properties :
#
#
# Convention : Reuss Voigt Hill
#
# Bulk Modulus (GPa) = 57.56513 60.52591 59.04552
# Shear Modulus (GPa) = 24.50166 25.99811 25.24988
#
# Velocity S-wave (km/s) = 3.67599 3.78659 3.73170
# Velocity P-wave (km/s) = 7.05443 7.24558 7.15064
#
# Compressibility (1/GPa) = 0.01737163
#
# Stress axis : x y z
#
# Youngs Moduli (GPa) = 59.58784 70.67557 66.34968
#
# Poissons Ratio (x) = 0.13158 0.55828
# Poissons Ratio (y) = 0.11094 0.26802
# Poissons Ratio (z) = 0.50139 0.28549
#
# Static dielectric constant tensor:
#      x y z
#    x 3.374780 0.000000 0.000000 
#    y 0.000000 3.617920 0.000000 
#    z 0.000000 0.000000 3.114410 
# 
# 
# High freq. dielectric constant tensor:
#      x y z
#    x 1.701990 0.000000 0.000000 
#    y 0.000000 1.688010 0.000000 
#    z 0.000000 0.000000 1.693980 
# 
# From -- ./inp_files/26715.got.cif
#   From: 2010.03.12/outbox.cif.g09.slc.cpg/sg53_14_cif.got.tgz:26715.got - 2010.04.16 14:36:59.
