data_PCOD8218485
_publ_section_title
;
Structure prediction by ZEFSAII (Michael W. Deem and Ramdas Pophale) SiO2 
 PCOD8218485
Probable space group: P M N A
;
_chemical_formula_sum "Si O2"
_cell_formula_units_Z 64
_cell_length_a 14.683783
_cell_length_b 10.540470
_cell_length_c 20.320424
_cell_angle_alpha 90.000000
_cell_angle_beta 90.000000
_cell_angle_gamma 90.000000
_cell_volume 3145.072780
_symmetry_space_group_name_H-M "P M N A"
_symmetry_group_IT_number 53
_symmetry_cell_setting 'orthorhombic'
loop_
_space_group_symop_operation_xyz
x,y,z
1/2-x,-y,1/2+z
x,-y,-z
1/2-x,y,1/2-z
-x,-y,-z
1/2+x,y,1/2-z
-x,y,z
1/2+x,-y,1/2+z
loop_
_atom_site_type_symbol
_atom_site_label
_atom_site_fract_x
_atom_site_fract_y
_atom_site_fract_z
Si Si1 0.605506 0.862304 0.858386
Si Si2 0.101525 0.349426 0.121622
Si Si3 0.891558 0.641592 0.732522
Si Si4 0.398475 0.349426 0.621622
Si Si5 0.102034 0.762052 0.500000
Si Si6 0.108442 0.641592 0.267478
Si Si7 0.605506 0.862304 0.141614
Si Si8 0.212311 0.354895 0.000000
O O1 0.500000 0.863334 0.839296
O O2 0.650217 0.743822 0.818966
O O3 0.617380 0.848398 0.936434
O O4 0.648081 1.000000 0.838723
O O5 0.137974 0.312892 0.194407
O O6 0.097116 0.500000 0.117752
O O7 0.000000 0.293825 0.109818
O O8 0.168680 0.291737 0.065798
O O9 0.852540 0.500000 0.716025
O O10 0.000000 0.634031 0.728467
O O11 0.500000 0.293825 0.609818
O O12 0.362026 0.312892 0.694407
O O13 0.331320 0.291737 0.565798
O O14 0.117380 0.848398 0.436434
O O15 0.178390 0.653172 0.500000
O O16 0.000000 0.700830 0.500000
O O17 0.150217 0.743822 0.318966
O O18 0.000000 0.634031 0.271533
O O19 0.500000 0.863334 0.160704
O O20 0.183511 0.500000 0.000000
#
# Coordination Sequence:
#
# PCOD8218485 Si02
#       8
#     8   8   8   8   8   8   8   8
#     4   9  17  31  52  73  93 127 174 213 247 294
#     4   8  14  27  49  76 104 131 159 197 247 301
#     4   8  14  26  47  76 105 127 150 192 253 308
#     4   8  14  27  49  76 104 131 159 197 247 301
#     4  10  21  34  47  65  93 130 172 216 253 284
#     4   8  14  26  47  76 105 127 150 192 253 308
#     4   9  17  31  52  73  93 127 174 213 247 294
#     4  10  19  30  47  73 102 133 170 206 244 296
#
# _framework density 20.34929
#
# number of rings (size 3 to 8) (size 9 to 14) (size 15 to 20)
#    0.000    3.250    0.000    2.250    0.000    4.250 
#    0.000    3.750    0.000    9.000    0.000    0.000 
#    0.000   10.000    0.000    0.000    0.000    0.000 
#
# Total GULP energy -792876.684707 kJ/mol
# GULP energy per Si atom -12388.698199 kJ/mol
# Density = 2.030297 g / cm^3
# Si number density = 20.349290 Si / 1000 Ang^3
#
#
#
# Elastic Constant Matrix: (Units=GPa)
#
#
# Indices 1 2 3 4 5 6 
#
# 1 58.3055 23.4738 34.1679 0.0000 0.0000 0.0000
# 2 23.4738 96.7308 80.9501 0.0000 0.0000 0.0000
# 3 34.1679 80.9501 162.7079 0.0000 0.0000 0.0000
# 4 0.0000 0.0000 0.0000 -15.0365 0.0000 0.0000
# 5 0.0000 0.0000 0.0000 0.0000 -3.3893 0.0000
# 6 0.0000 0.0000 0.0000 0.0000 0.0000 8.0685
#
#
#
# Elastic Compliance Matrix: (Units=1/GPa)
#
#
# Indices 1 2 3 4 5 6 
#
# 1 0.019846 -0.002276 -0.003035 0.000000 0.000000 0.000000
# 2 -0.002276 0.017974 -0.008464 0.000000 0.000000 0.000000
# 3 -0.003035 -0.008464 0.010994 0.000000 0.000000 0.000000
# 4 0.000000 0.000000 0.000000 -0.066505 0.000000 0.000000
# 5 0.000000 0.000000 0.000000 0.000000 -0.295046 0.000000
# 6 0.000000 0.000000 0.000000 0.000000 0.000000 0.123939
#
#
# Mechanical properties :
#
#
# Convention : Reuss Voigt Hill
#
# Bulk Modulus (GPa) = 47.02956 66.10308 56.56632
# Shear Modulus (GPa) = -32.43402 9.87204 -11.28099
#
# Velocity S-wave (km/s) = -3.99666 2.20495 -2.35706
# Velocity P-wave (km/s) = 1.36516 6.24797 4.52221
#
# Compressibility (1/GPa) = 0.02126322
#
# Stress axis : x y z
#
# Youngs Moduli (GPa) = 50.38784 55.63680 90.95458
#
# Poissons Ratio (x) = 0.12663 0.27607
# Poissons Ratio (y) = 0.11468 0.76987
# Poissons Ratio (z) = 0.15294 0.47093
#
# Static dielectric constant tensor:
#      x y z
#    x 3.418370 0.000000 0.000000 
#    y 0.000000 3.538220 0.000000 
#    z 0.000000 0.000000 4.113290 
# 
# 
# High freq. dielectric constant tensor:
#      x y z
#    x 1.766150 0.000000 0.000000 
#    y 0.000000 1.743380 0.000000 
#    z 0.000000 0.000000 1.808190 
# 
# From -- ./inp_files/28535.got.cif
#   From: 2010.03.12/outbox.cif.g09.slc.cpg/sg53_15_cif.got.tgz:28535.got - 2010.04.16 14:36:59.
