data_PCOD8218088
_publ_section_title
;
Structure prediction by ZEFSAII (Michael W. Deem and Ramdas Pophale) SiO2 
 PCOD8218088
Probable space group: P M N A
;
_chemical_formula_sum "Si O2"
_cell_formula_units_Z 52
_cell_length_a 13.339101
_cell_length_b 13.475269
_cell_length_c 16.681903
_cell_angle_alpha 90.000000
_cell_angle_beta 90.000000
_cell_angle_gamma 90.000000
_cell_volume 2998.538270
_symmetry_space_group_name_H-M "P M N A"
_symmetry_group_IT_number 53
_symmetry_cell_setting 'orthorhombic'
loop_
_space_group_symop_operation_xyz
x,y,z
1/2-x,-y,1/2+z
x,-y,-z
1/2-x,y,1/2-z
-x,-y,-z
1/2+x,y,1/2-z
-x,y,z
1/2+x,-y,1/2+z
loop_
_atom_site_type_symbol
_atom_site_label
_atom_site_fract_x
_atom_site_fract_y
_atom_site_fract_z
Si Si1 0.250000 0.788158 0.250000
Si Si2 0.723938 0.099563 0.969215
Si Si3 0.386056 0.394792 0.028871
Si Si4 0.388718 0.745882 0.121954
Si Si5 0.118197 0.942373 0.159866
Si Si6 0.114481 0.840111 0.772236
Si Si7 0.779230 0.232803 0.377358
O O1 0.305257 0.714621 0.187429
O O2 0.160523 0.855744 0.215955
O O3 0.644680 0.144856 0.906982
O O4 0.828282 0.068231 0.926431
O O5 0.745668 0.173746 0.041918
O O6 0.670952 0.000000 0.000000
O O7 0.500000 0.408346 0.061226
O O8 0.319782 0.342768 0.098604
O O9 0.340412 0.500000 0.000000
O O10 0.385913 0.328340 0.950745
O O11 0.500000 0.751592 0.159086
O O12 0.000000 0.927833 0.147618
O O13 0.142629 0.048409 0.200663
O O14 0.139335 0.825080 0.677936
O O15 0.177296 0.760828 0.825419
O O16 0.000000 0.815436 0.788107
#
# Coordination Sequence:
#
# PCOD8218088 Si02
#       7
#     4   8   8   8   8   8   8
#     4  10  18  32  46  68 104 132 166 206 238 288
#     4  10  19  31  47  69 102 132 168 205 238 285
#     4   9  18  35  57  77  96 122 161 208 255 302
#     4   9  19  32  49  72  96 126 161 200 245 290
#     4  10  20  31  47  69 100 144 177 202 240 288
#     4  10  20  32  49  73 104 138 171 205 247 299
#     4  10  19  33  51  74 101 132 167 210 253 295
#
# _framework density 17.341781999999998
#
# number of rings (size 3 to 8) (size 9 to 14) (size 15 to 20)
#    0.000    2.308    1.538    1.846    2.154    1.846 
#    0.000    1.538    0.000    0.462    0.000    0.000 
#    0.000    0.000    0.000    0.000    0.000    0.000 
#
# Total GULP energy -644455.405263 kJ/mol
# GULP energy per Si atom -12393.373178 kJ/mol
# Density = 1.730231 g / cm^3
# Si number density = 17.341782 Si / 1000 Ang^3
#
#
#
# Elastic Constant Matrix: (Units=GPa)
#
#
# Indices 1 2 3 4 5 6 
#
# 1 108.3692 31.9450 33.0818 0.0000 0.0000 0.0000
# 2 31.9450 61.0980 12.9202 0.0000 0.0000 0.0000
# 3 33.0818 12.9202 72.2391 0.0000 0.0000 0.0000
# 4 0.0000 0.0000 0.0000 18.2233 0.0000 0.0000
# 5 0.0000 0.0000 0.0000 0.0000 25.3152 0.0000
# 6 0.0000 0.0000 0.0000 0.0000 0.0000 18.9510
#
#
#
# Elastic Compliance Matrix: (Units=1/GPa)
#
#
# Indices 1 2 3 4 5 6 
#
# 1 0.012241 -0.005420 -0.004636 0.000000 0.000000 0.000000
# 2 -0.005420 0.019410 -0.000990 0.000000 0.000000 0.000000
# 3 -0.004636 -0.000990 0.016143 0.000000 0.000000 0.000000
# 4 0.000000 0.000000 0.000000 0.054875 0.000000 0.000000
# 5 0.000000 0.000000 0.000000 0.000000 0.039502 0.000000
# 6 0.000000 0.000000 0.000000 0.000000 0.000000 0.052768
#
#
# Mechanical properties :
#
#
# Convention : Reuss Voigt Hill
#
# Bulk Modulus (GPa) = 38.90635 44.17780 41.54207
# Shear Modulus (GPa) = 22.16344 23.41518 22.78931
#
# Velocity S-wave (km/s) = 3.57884 3.67852 3.62902
# Velocity P-wave (km/s) = 6.28977 6.60091 6.44722
#
# Compressibility (1/GPa) = 0.02570275
#
# Stress axis : x y z
#
# Youngs Moduli (GPa) = 81.69545 51.51980 61.94601
#
# Poissons Ratio (x) = 0.27921 0.28720
# Poissons Ratio (y) = 0.44275 0.06131
# Poissons Ratio (z) = 0.37876 0.05099
#
# Static dielectric constant tensor:
#      x y z
#    x 3.331780 0.000000 0.000000 
#    y 0.000000 3.106610 0.000000 
#    z 0.000000 0.000000 3.469690 
# 
# 
# High freq. dielectric constant tensor:
#      x y z
#    x 1.667890 0.000000 0.000000 
#    y 0.000000 1.637690 0.000000 
#    z 0.000000 0.000000 1.679850 
# 
# From -- ./inp_files/28443.got.cif
#   From: 2010.03.12/outbox.cif.g09.slc.cpg/sg53_15_cif.got.tgz:28443.got - 2010.04.16 14:36:59.
