data_PCOD8218863
_publ_section_title
;
Structure prediction by ZEFSAII (Michael W. Deem and Ramdas Pophale) SiO2 
 PCOD8218863
Probable space group: P M N A
;
_chemical_formula_sum "Si O2"
_cell_formula_units_Z 48
_cell_length_a 8.691478
_cell_length_b 14.980760
_cell_length_c 20.481009
_cell_angle_alpha 90.000000
_cell_angle_beta 90.000000
_cell_angle_gamma 90.000000
_cell_volume 2666.728670
_symmetry_space_group_name_H-M "P M N A"
_symmetry_group_IT_number 53
_symmetry_cell_setting 'orthorhombic'
loop_
_space_group_symop_operation_xyz
x,y,z
1/2-x,-y,1/2+z
x,-y,-z
1/2-x,y,1/2-z
-x,-y,-z
1/2+x,y,1/2-z
-x,y,z
1/2+x,-y,1/2+z
loop_
_atom_site_type_symbol
_atom_site_label
_atom_site_fract_x
_atom_site_fract_y
_atom_site_fract_z
Si Si1 0.819078 0.929676 0.054612
Si Si2 0.325793 0.234990 0.008311
Si Si3 0.316039 0.611284 0.816984
Si Si4 0.327685 0.194997 0.155831
Si Si5 0.320098 0.581907 0.547304
Si Si6 0.682971 0.996490 0.815750
O O1 0.000000 0.938402 0.063313
O O2 0.738291 0.947808 0.122918
O O3 0.775081 0.828168 0.037798
O O4 0.759706 0.000000 0.000000
O O5 0.500000 0.242990 0.981575
O O6 0.325077 0.188624 0.078248
O O7 0.252909 0.332741 0.012071
O O8 0.250000 0.567636 0.750000
O O9 0.500000 0.607101 0.818298
O O10 0.248886 0.713129 0.820062
O O11 0.254208 0.561228 0.881563
O O12 0.500000 0.197264 0.182855
O O13 0.246838 0.104821 0.181361
O O14 0.284186 0.500000 0.500000
O O15 0.500000 0.597951 0.557234
O O16 0.750000 0.041248 0.750000
O O17 0.500000 0.995912 0.815284
#
# Coordination Sequence:
#
# PCOD8218863 Si02
#       6
#     8   8   8   8   8   8
#     4  11  22  35  53  79 108 143 186 225 266 319
#     4  10  19  34  56  81 107 140 181 225 273 321
#     4  10  19  32  51  78 110 145 180 218 269 327
#     4   8  16  29  47  73 104 139 174 212 260 317
#     4  10  21  37  57  82 112 144 180 225 276 328
#     4  11  21  34  50  72 106 145 186 228 273 320
#
# _framework density 17.999580999999999
#
# number of rings (size 3 to 8) (size 9 to 14) (size 15 to 20)
#    0.000    2.000    1.667    4.000    0.000    2.000 
#    0.000    1.667    0.000    1.000    0.000    2.333 
#    0.000    0.000    0.000    0.000    0.000    0.000 
#
# Total GULP energy -595038.107194 kJ/mol
# GULP energy per Si atom -12396.627233 kJ/mol
# Density = 1.795861 g / cm^3
# Si number density = 17.999581 Si / 1000 Ang^3
#
#
#
# Elastic Constant Matrix: (Units=GPa)
#
#
# Indices 1 2 3 4 5 6 
#
# 1 86.3307 32.3961 46.5383 0.0000 0.0000 0.0000
# 2 32.3961 68.8855 45.7058 0.0000 0.0000 0.0000
# 3 46.5383 45.7058 124.5457 0.0000 0.0000 0.0000
# 4 0.0000 0.0000 0.0000 15.1328 0.0000 0.0000
# 5 0.0000 0.0000 0.0000 0.0000 31.5679 0.0000
# 6 0.0000 0.0000 0.0000 0.0000 0.0000 23.6824
#
#
#
# Elastic Compliance Matrix: (Units=1/GPa)
#
#
# Indices 1 2 3 4 5 6 
#
# 1 0.015519 -0.004561 -0.004125 0.000000 0.000000 0.000000
# 2 -0.004561 0.020530 -0.005830 0.000000 0.000000 0.000000
# 3 -0.004125 -0.005830 0.011710 0.000000 0.000000 0.000000
# 4 0.000000 0.000000 0.000000 0.066082 0.000000 0.000000
# 5 0.000000 0.000000 0.000000 0.000000 0.031678 0.000000
# 6 0.000000 0.000000 0.000000 0.000000 0.000000 0.042225
#
#
# Mechanical properties :
#
#
# Convention : Reuss Voigt Hill
#
# Bulk Modulus (GPa) = 53.39963 58.78245 56.09104
# Shear Modulus (GPa) = 22.41978 24.41807 23.41892
#
# Velocity S-wave (km/s) = 3.53310 3.68719 3.61096
# Velocity P-wave (km/s) = 6.80994 7.13132 6.97248
#
# Compressibility (1/GPa) = 0.01872672
#
# Stress axis : x y z
#
# Youngs Moduli (GPa) = 64.43873 48.70912 85.39819
#
# Poissons Ratio (x) = 0.22218 0.35225
# Poissons Ratio (y) = 0.29393 0.49784
# Poissons Ratio (z) = 0.26580 0.28396
#
# Static dielectric constant tensor:
#      x y z
#    x 3.293680 0.000000 0.000000 
#    y 0.000000 3.135410 0.000000 
#    z 0.000000 0.000000 3.358190 
# 
# 
# High freq. dielectric constant tensor:
#      x y z
#    x 1.699900 0.000000 0.000000 
#    y 0.000000 1.666370 0.000000 
#    z 0.000000 0.000000 1.697240 
# 
# From -- ./inp_files/30493.got.cif
#   From: 2010.03.12/outbox.cif.g09.slc.cpg/sg53_16_cif.got.tgz:30493.got - 2010.04.16 14:36:59.
