data_PCOD8218059
_publ_section_title
;
Structure prediction by ZEFSAII (Michael W. Deem and Ramdas Pophale) SiO2 
 PCOD8218059
Probable space group: P M N A
;
_chemical_formula_sum "Si O2"
_cell_formula_units_Z 64
_cell_length_a 8.862128
_cell_length_b 14.852605
_cell_length_c 24.977662
_cell_angle_alpha 90.000000
_cell_angle_beta 90.000000
_cell_angle_gamma 90.000000
_cell_volume 3287.701911
_symmetry_space_group_name_H-M "P M N A"
_symmetry_group_IT_number 53
_symmetry_cell_setting 'orthorhombic'
loop_
_space_group_symop_operation_xyz
x,y,z
1/2-x,-y,1/2+z
x,-y,-z
1/2-x,y,1/2-z
-x,-y,-z
1/2+x,y,1/2-z
-x,y,z
1/2+x,-y,1/2+z
loop_
_atom_site_type_symbol
_atom_site_label
_atom_site_fract_x
_atom_site_fract_y
_atom_site_fract_z
Si Si1 0.322212 0.850140 0.194212
Si Si2 0.679209 0.205958 0.115008
Si Si3 0.677257 0.943792 0.805133
Si Si4 0.178180 0.361902 0.304200
Si Si5 0.178850 0.718942 0.109683
Si Si6 0.167414 0.251268 0.497236
Si Si7 0.666130 0.444921 0.049875
Si Si8 0.325538 0.479680 0.644250
O O1 0.250000 0.817649 0.250000
O O2 0.500000 0.834777 0.197612
O O3 0.254182 0.793599 0.146139
O O4 0.278739 0.953333 0.182159
O O5 0.500000 0.204223 0.112571
O O6 0.740546 0.119383 0.147488
O O7 0.728881 0.298114 0.145881
O O8 0.737546 0.193894 0.052883
O O9 0.750000 0.911192 0.750000
O O10 0.500000 0.932270 0.798629
O O11 0.250000 0.321862 0.250000
O O12 0.234404 0.466134 0.310078
O O13 0.000000 0.362130 0.298316
O O14 0.225838 0.739439 0.048491
O O15 0.234302 0.621433 0.131539
O O16 0.000000 0.725484 0.112850
O O17 0.147900 0.343579 0.466356
O O18 0.000000 0.217318 0.515643
O O19 0.500000 0.479042 0.070601
O O20 0.797291 0.459437 0.092386
O O21 0.723864 0.500000 0.000000
O O22 0.500000 0.477700 0.660019
#
# Coordination Sequence:
#
# PCOD8218059 Si02
#       8
#     8   8   8   8   8   8   8   8
#     4  10  21  39  64  88 110 141 180 229 283 335
#     4   9  18  34  57  84 115 148 183 224 271 332
#     4   9  18  35  60  88 113 140 181 228 277 332
#     4  11  22  37  55  79 112 150 188 230 280 334
#     4  11  24  39  56  82 114 148 189 236 281 328
#     4  10  19  34  56  82 113 151 190 226 273 329
#     4  10  18  31  53  78 105 142 187 230 272 318
#     4  11  23  36  52  76 107 145 187 231 276 323
#
# _framework density 19.466486
#
# number of rings (size 3 to 8) (size 9 to 14) (size 15 to 20)
#    0.000    1.875    2.500    1.875    0.000    3.250 
#    0.000    1.875    0.000    3.750    0.000    0.000 
#    0.000    0.000    0.000    0.000    0.000    0.000 
#
# Total GULP energy -793020.515604 kJ/mol
# GULP energy per Si atom -12390.945556 kJ/mol
# Density = 1.942218 g / cm^3
# Si number density = 19.466486 Si / 1000 Ang^3
#
#
#
# Elastic Constant Matrix: (Units=GPa)
#
#
# Indices 1 2 3 4 5 6 
#
# 1 57.9074 28.3961 33.5517 0.0000 0.0000 0.0000
# 2 28.3961 89.3047 51.8640 0.0000 0.0000 0.0000
# 3 33.5517 51.8640 104.6885 0.0000 0.0000 0.0000
# 4 0.0000 0.0000 0.0000 34.7318 0.0000 0.0000
# 5 0.0000 0.0000 0.0000 0.0000 36.9740 0.0000
# 6 0.0000 0.0000 0.0000 0.0000 0.0000 21.3258
#
#
#
# Elastic Compliance Matrix: (Units=1/GPa)
#
#
# Indices 1 2 3 4 5 6 
#
# 1 0.022235 -0.004116 -0.005087 0.000000 0.000000 0.000000
# 2 -0.004116 0.016482 -0.006847 0.000000 0.000000 0.000000
# 3 -0.005087 -0.006847 0.014574 0.000000 0.000000 0.000000
# 4 0.000000 0.000000 0.000000 0.028792 0.000000 0.000000
# 5 0.000000 0.000000 0.000000 0.000000 0.027046 0.000000
# 6 0.000000 0.000000 0.000000 0.000000 0.000000 0.046892
#
#
# Mechanical properties :
#
#
# Convention : Reuss Voigt Hill
#
# Bulk Modulus (GPa) = 47.18555 53.28045 50.23300
# Shear Modulus (GPa) = 25.61686 27.81223 26.71455
#
# Velocity S-wave (km/s) = 3.63153 3.78395 3.70852
# Velocity P-wave (km/s) = 6.47117 6.82061 6.64819
#
# Compressibility (1/GPa) = 0.02119293
#
# Stress axis : x y z
#
# Youngs Moduli (GPa) = 44.97500 60.67064 68.61342
#
# Poissons Ratio (x) = 0.24969 0.34904
# Poissons Ratio (y) = 0.18510 0.46977
# Poissons Ratio (z) = 0.22879 0.41539
#
# Static dielectric constant tensor:
#      x y z
#    x 3.450090 0.000000 0.000000 
#    y 0.000000 3.651160 0.000000 
#    z 0.000000 0.000000 3.859070 
# 
# 
# High freq. dielectric constant tensor:
#      x y z
#    x 1.740780 0.000000 0.000000 
#    y 0.000000 1.748300 0.000000 
#    z 0.000000 0.000000 1.766550 
# 
# From -- ./inp_files/34217.got.cif
#   From: 2010.03.12/outbox.cif.g09.slc.cpg/sg53_18_cif.got.tgz:34217.got - 2010.04.16 14:36:59.
