data_PCOD8218559
_publ_section_title
;
Structure prediction by ZEFSAII (Michael W. Deem and Ramdas Pophale) SiO2 
 PCOD8218559
Probable space group: P M N A
;
_chemical_formula_sum "Si O2"
_cell_formula_units_Z 64
_cell_length_a 9.038707
_cell_length_b 20.870286
_cell_length_c 19.455890
_cell_angle_alpha 90.000000
_cell_angle_beta 90.000000
_cell_angle_gamma 90.000000
_cell_volume 3670.166875
_symmetry_space_group_name_H-M "P M N A"
_symmetry_group_IT_number 53
_symmetry_cell_setting 'orthorhombic'
loop_
_space_group_symop_operation_xyz
x,y,z
1/2-x,-y,1/2+z
x,-y,-z
1/2-x,y,1/2-z
-x,-y,-z
1/2+x,y,1/2-z
-x,y,z
1/2+x,-y,1/2+z
loop_
_atom_site_type_symbol
_atom_site_label
_atom_site_fract_x
_atom_site_fract_y
_atom_site_fract_z
Si Si1 0.673352 0.639574 0.323203
Si Si2 0.676084 0.738147 0.924351
Si Si3 0.665701 0.125288 0.920379
Si Si4 0.830788 0.499126 0.820519
Si Si5 0.834420 0.001614 0.917920
Si Si6 0.325313 0.637998 0.675629
Si Si7 0.176087 0.253491 0.929881
Si Si8 0.163237 0.120268 0.416399
O O1 0.750000 0.649830 0.250000
O O2 0.500000 0.647459 0.310785
O O3 0.712274 0.568777 0.356390
O O4 0.728803 0.692181 0.376895
O O5 0.500000 0.729581 0.931525
O O6 0.744948 0.687375 0.873337
O O7 0.714837 0.808696 0.893804
O O8 0.749518 0.728693 0.998257
O O9 0.500000 0.133137 0.890351
O O10 0.765314 0.186143 0.899888
O O11 0.738181 0.060847 0.889377
O O12 0.659166 0.119195 0.001730
O O13 0.750000 0.503567 0.750000
O O14 0.799534 0.566836 0.859122
O O15 0.000000 0.495901 0.800322
O O16 0.772069 0.934542 0.888003
O O17 0.000000 0.009852 0.890152
O O18 0.831171 0.000000 0.000000
O O19 0.250000 0.642707 0.750000
O O20 0.500000 0.653480 0.681740
O O21 0.000000 0.250179 0.939237
O O22 0.000000 0.105248 0.387414
#
# Coordination Sequence:
#
# PCOD8218559 Si02
#       8
#     8   8   8   8   8   8   8   8
#     4   9  18  32  51  73  96 123 157 197 238 283
#     4  10  20  33  48  68  97 130 161 194 236 285
#     4   9  16  26  40  59  87 122 155 189 231 277
#     4   8  15  29  48  70  93 119 153 193 237 279
#     4   9  15  22  36  59  85 114 150 191 230 271
#     4  10  19  32  52  74  96 123 157 197 237 281
#     4  10  19  31  47  69  97 127 159 196 239 284
#     4   8  15  26  39  57  84 118 152 188 230 274
#
# _framework density 17.437899000000002
#
# number of rings (size 3 to 8) (size 9 to 14) (size 15 to 20)
#    0.000    2.875    0.000    2.625    0.000    6.500 
#    0.000    0.625    0.000    3.750    0.000    0.875 
#    0.000    2.000    0.000    0.000    0.000    0.000 
#
# Total GULP energy -792906.084746 kJ/mol
# GULP energy per Si atom -12389.157574 kJ/mol
# Density = 1.739821 g / cm^3
# Si number density = 17.437899 Si / 1000 Ang^3
#
#
#
# Elastic Constant Matrix: (Units=GPa)
#
#
# Indices 1 2 3 4 5 6 
#
# 1 103.1549 75.8225 33.0750 0.0000 0.0000 0.0000
# 2 75.8225 182.1590 54.1074 0.0000 0.0000 0.0000
# 3 33.0750 54.1074 43.0597 0.0000 0.0000 0.0000
# 4 0.0000 0.0000 0.0000 -21.6730 0.0000 0.0000
# 5 0.0000 0.0000 0.0000 0.0000 17.5317 0.0000
# 6 0.0000 0.0000 0.0000 0.0000 0.0000 29.3837
#
#
#
# Elastic Compliance Matrix: (Units=1/GPa)
#
#
# Indices 1 2 3 4 5 6 
#
# 1 0.014822 -0.004448 -0.005796 0.000000 0.000000 0.000000
# 2 -0.004448 0.010094 -0.009267 0.000000 0.000000 0.000000
# 3 -0.005796 -0.009267 0.039320 0.000000 0.000000 0.000000
# 4 0.000000 0.000000 0.000000 -0.046140 0.000000 0.000000
# 5 0.000000 0.000000 0.000000 0.000000 0.057040 0.000000
# 6 0.000000 0.000000 0.000000 0.000000 0.000000 0.034032
#
#
# Mechanical properties :
#
#
# Convention : Reuss Voigt Hill
#
# Bulk Modulus (GPa) = 39.66019 72.70928 56.18474
# Shear Modulus (GPa) = 31.92985 16.07307 24.00146
#
# Velocity S-wave (km/s) = 4.28373 3.03930 3.71401
# Velocity P-wave (km/s) = 6.87460 7.35548 7.11910
#
# Compressibility (1/GPa) = 0.02521420
#
# Stress axis : x y z
#
# Youngs Moduli (GPa) = 67.46760 99.07157 25.43240
#
# Poissons Ratio (x) = 0.44067 0.14740
# Poissons Ratio (y) = 0.30009 0.23568
# Poissons Ratio (z) = 0.39103 0.91808
#
# Static dielectric constant tensor:
#      x y z
#    x 3.364680 0.000000 0.000000 
#    y 0.000000 3.924560 0.000000 
#    z 0.000000 0.000000 2.652560 
# 
# 
# High freq. dielectric constant tensor:
#      x y z
#    x 1.687850 0.000000 0.000000 
#    y 0.000000 1.700150 0.000000 
#    z 0.000000 0.000000 1.601540 
# 
# From -- ./inp_files/26783.got.cif
#   From: 2010.03.12/outbox.cif.g09.slc.cpg/sg53_14_cif.got.tgz:26783.got - 2010.04.16 14:36:59.
