data_PCOD8218595
_publ_section_title
;
Structure prediction by ZEFSAII (Michael W. Deem and Ramdas Pophale) SiO2 
 PCOD8218595
Probable space group: P M N A
;
_chemical_formula_sum "Si O2"
_cell_formula_units_Z 56
_cell_length_a 9.048142
_cell_length_b 14.437199
_cell_length_c 26.471403
_cell_angle_alpha 90.000000
_cell_angle_beta 90.000000
_cell_angle_gamma 90.000000
_cell_volume 3457.954785
_symmetry_space_group_name_H-M "P M N A"
_symmetry_group_IT_number 53
_symmetry_cell_setting 'orthorhombic'
loop_
_space_group_symop_operation_xyz
x,y,z
1/2-x,-y,1/2+z
x,-y,-z
1/2-x,y,1/2-z
-x,-y,-z
1/2+x,y,1/2-z
-x,y,z
1/2+x,-y,1/2+z
loop_
_atom_site_type_symbol
_atom_site_label
_atom_site_fract_x
_atom_site_fract_y
_atom_site_fract_z
Si Si1 0.170082 0.510375 0.391580
Si Si2 0.171881 0.874233 0.044407
Si Si3 0.828241 0.235832 0.384185
Si Si4 0.324454 0.628064 0.540716
Si Si5 0.329915 0.308038 0.941667
Si Si6 0.330377 0.617591 0.802640
Si Si7 0.171917 0.078638 0.070008
O O1 0.265549 0.468740 0.437399
O O2 0.184499 0.622349 0.393283
O O3 0.225917 0.466951 0.338489
O O4 0.000000 0.478630 0.399641
O O5 0.264683 0.792871 0.071252
O O6 0.000000 0.851103 0.050274
O O7 0.211405 0.969974 0.072411
O O8 0.212606 0.881602 0.985306
O O9 0.729645 0.288150 0.424893
O O10 0.802041 0.283010 0.329619
O O11 0.769224 0.130052 0.386862
O O12 0.000000 0.240272 0.399022
O O13 0.500000 0.626498 0.538514
O O14 0.262020 0.643249 0.485358
O O15 0.500000 0.297128 0.957867
O O16 0.250000 0.614561 0.750000
O O17 0.500000 0.603220 0.790056
O O18 0.000000 0.093951 0.081423
#
# Coordination Sequence:
#
# PCOD8218595 Si02
#       7
#     8   8   8   8   8   8   8
#     4   9  20  35  47  64  93 123 153 192 236 279
#     4   9  18  30  44  65  96 128 161 197 228 262
#     4  10  19  31  48  70  96 124 156 194 235 282
#     4  11  20  29  43  65  93 125 161 195 226 269
#     4  11  20  30  45  65  92 128 162 193 231 272
#     4   9  19  35  52  71  94 118 148 191 239 286
#     4   9  17  30  46  66  94 128 159 194 234 267
#
# _framework density 16.194544
#
# number of rings (size 3 to 8) (size 9 to 14) (size 15 to 20)
#    0.000    2.286    1.429    4.286    0.000    6.286 
#    0.000    1.429    0.000    0.000    0.000    1.000 
#    0.000    2.286    0.000    0.000    0.000    0.000 
#
# Total GULP energy -694145.402399 kJ/mol
# GULP energy per Si atom -12395.453614 kJ/mol
# Density = 1.615768 g / cm^3
# Si number density = 16.194544 Si / 1000 Ang^3
#
#
#
# Elastic Constant Matrix: (Units=GPa)
#
#
# Indices 1 2 3 4 5 6 
#
# 1 88.4556 54.0984 34.1326 0.0000 0.0000 0.0000
# 2 54.0984 127.7076 44.5422 0.0000 0.0000 0.0000
# 3 34.1326 44.5422 62.1685 0.0000 0.0000 0.0000
# 4 0.0000 0.0000 0.0000 14.0213 0.0000 0.0000
# 5 0.0000 0.0000 0.0000 0.0000 22.1276 0.0000
# 6 0.0000 0.0000 0.0000 0.0000 0.0000 25.1715
#
#
#
# Elastic Compliance Matrix: (Units=1/GPa)
#
#
# Indices 1 2 3 4 5 6 
#
# 1 0.016517 -0.005111 -0.005407 0.000000 0.000000 0.000000
# 2 -0.005111 0.012021 -0.005806 0.000000 0.000000 0.000000
# 3 -0.005407 -0.005806 0.023214 0.000000 0.000000 0.000000
# 4 0.000000 0.000000 0.000000 0.071320 0.000000 0.000000
# 5 0.000000 0.000000 0.000000 0.000000 0.045193 0.000000
# 6 0.000000 0.000000 0.000000 0.000000 0.000000 0.039727
#
#
# Mechanical properties :
#
#
# Convention : Reuss Voigt Hill
#
# Bulk Modulus (GPa) = 52.34587 60.43089 56.38838
# Shear Modulus (GPa) = 20.24228 21.96797 21.10512
#
# Velocity S-wave (km/s) = 3.53929 3.68707 3.61394
# Velocity P-wave (km/s) = 7.00681 7.45135 7.23250
#
# Compressibility (1/GPa) = 0.01910370
#
# Stress axis : x y z
#
# Youngs Moduli (GPa) = 60.54258 83.18991 43.07792
#
# Poissons Ratio (x) = 0.42520 0.23290
# Poissons Ratio (y) = 0.30945 0.25012
# Poissons Ratio (z) = 0.32732 0.48302
#
# Static dielectric constant tensor:
#      x y z
#    x 3.076870 0.000000 0.000000 
#    y 0.000000 3.290410 0.000000 
#    z 0.000000 0.000000 2.712930 
# 
# 
# High freq. dielectric constant tensor:
#      x y z
#    x 1.630050 0.000000 0.000000 
#    y 0.000000 1.630270 0.000000 
#    z 0.000000 0.000000 1.569740 
# 
# From -- ./inp_files/38322.got.cif
#   From: 2010.03.12/outbox.cif.g09.slc.cpg/sg53_20_cif.got.tgz:38322.got - 2010.04.16 14:36:59.
