data_PCOD8218725
_publ_section_title
;
Structure prediction by ZEFSAII (Michael W. Deem and Ramdas Pophale) SiO2 
 PCOD8218725
Probable space group: P M N A
;
_chemical_formula_sum "Si O2"
_cell_formula_units_Z 60
_cell_length_a 15.238870
_cell_length_b 34.628730
_cell_length_c 5.267285
_cell_angle_alpha 90.000000
_cell_angle_beta 90.000000
_cell_angle_gamma 90.000000
_cell_volume 2779.560594
_symmetry_space_group_name_H-M "P M N A"
_symmetry_group_IT_number 53
_symmetry_cell_setting 'orthorhombic'
loop_
_space_group_symop_operation_xyz
x,y,z
1/2-x,-y,1/2+z
x,-y,-z
1/2-x,y,1/2-z
-x,-y,-z
1/2+x,y,1/2-z
-x,y,z
1/2+x,-y,1/2+z
loop_
_atom_site_type_symbol
_atom_site_label
_atom_site_fract_x
_atom_site_fract_y
_atom_site_fract_z
Si Si1 0.394974 0.795016 0.499999
Si Si2 0.104137 0.543262 0.999998
Si Si3 0.602245 0.162202 0.000001
Si Si4 0.651582 0.292181 0.500000
Si Si5 0.192404 0.000000 0.500000
Si Si6 0.347806 0.325175 0.000000
Si Si7 0.191388 0.916791 0.500000
Si Si8 0.104371 0.588230 0.499998
O O1 0.500000 0.790507 0.499999
O O2 0.359359 0.817895 0.253346
O O3 0.348790 0.753758 0.500000
O O4 0.359359 0.817895 0.746652
O O5 0.136642 0.565150 0.252006
O O6 0.000000 0.541223 0.999998
O O7 0.143301 0.500000 0.000000
O O8 0.136642 0.565150 0.747988
O O9 0.500000 0.168809 0.000000
O O10 0.619594 0.116609 0.000000
O O11 0.750044 0.308287 0.500000
O O12 0.602585 0.308860 0.749980
O O13 0.602585 0.308860 0.250020
O O14 0.140568 0.041159 0.500000
O O15 0.250000 1.000000 0.750000
O O16 0.346105 0.371190 0.000000
O O17 0.250000 0.912650 0.250000
O O18 0.250000 0.912650 0.750000
O O19 0.000000 0.594802 0.499999
#
# Coordination Sequence:
#
# PCOD8218725 Si02
#       8
#     8   8   8   8   4   8   8   8
#     4  10  21  38  58  77 105 143 178 223 283 338
#     4   9  17  30  49  77 111 140 171 213 254 298
#     4  10  21  38  56  81 115 144 178 232 289 335
#     4  10  21  38  53  74  99 135 177 216 270 318
#     4   8  16  30  53  74 115 146 184 232 272 322
#     4  10  21  36  52  76 105 137 173 220 272 300
#     4  10  19  35  54  86 110 150 192 230 276 327
#     4  10  19  31  51  79 107 138 174 210 255 311
#
# _framework density 21.586144999999998
#
# number of rings (size 3 to 8) (size 9 to 14) (size 15 to 20)
#    0.000    2.267    0.000    2.800    0.000    2.667 
#   14.400    0.333    0.000    0.000    0.000   45.733 
#    0.000    0.000    0.000    0.000    0.000    0.800 
#
# Total GULP energy -743621.431861 kJ/mol
# GULP energy per Si atom -12393.690531 kJ/mol
# Density = 2.153701 g / cm^3
# Si number density = 21.586145 Si / 1000 Ang^3
#
#
#
# Elastic Constant Matrix: (Units=GPa)
#
#
# Indices 1 2 3 4 5 6 
#
# 1 20.6028 22.1520 8.3479 0.0000 0.0000 0.0000
# 2 22.1520 244.6414 97.8478 0.0000 0.0000 0.0000
# 3 8.3479 97.8478 240.7749 0.0000 0.0000 0.0000
# 4 0.0000 0.0000 0.0000 42.8899 0.0000 0.0000
# 5 0.0000 0.0000 0.0000 0.0000 2.0976 0.0000
# 6 0.0000 0.0000 0.0000 0.0000 0.0000 32.1666
#
#
#
# Elastic Compliance Matrix: (Units=1/GPa)
#
#
# Indices 1 2 3 4 5 6 
#
# 1 0.053776 -0.004924 0.000137 0.000000 0.000000 0.000000
# 2 -0.004924 0.005332 -0.001996 0.000000 0.000000 0.000000
# 3 0.000137 -0.001996 0.004960 0.000000 0.000000 0.000000
# 4 0.000000 0.000000 0.000000 0.023315 0.000000 0.000000
# 5 0.000000 0.000000 0.000000 0.000000 0.476728 0.000000
# 6 0.000000 0.000000 0.000000 0.000000 0.000000 0.031088
#
#
# Mechanical properties :
#
#
# Convention : Reuss Voigt Hill
#
# Bulk Modulus (GPa) = 19.80179 84.74607 52.27393
# Shear Modulus (GPa) = 7.99234 40.60893 24.30063
#
# Velocity S-wave (km/s) = 1.92628 4.34204 3.35886
# Velocity P-wave (km/s) = 3.76041 8.03010 6.26990
#
# Compressibility (1/GPa) = 0.05050049
#
# Stress axis : x y z
#
# Youngs Moduli (GPa) = 18.59569 187.55283 201.62519
#
# Poissons Ratio (x) = 0.92350 -0.02754
# Poissons Ratio (y) = 0.09156 0.40246
# Poissons Ratio (z) = -0.00254 0.37437
#
# Static dielectric constant tensor:
#      x y z
#    x 3.103290 0.000000 0.000000 
#    y 0.000000 4.191550 0.000000 
#    z 0.000000 0.000000 13.050450 
# 
# 
# High freq. dielectric constant tensor:
#      x y z
#    x 1.789620 0.000000 0.000000 
#    y 0.000000 1.866810 0.000000 
#    z 0.000000 0.000000 1.884020 
# 
# From -- ./inp_files/2281.got.cif
#   From: 2010.03.12/outbox.cif.g09.slc.cpg/sg53_2_cif.got.tgz:2281.got - 2010.04.16 14:36:59.
