data_PCOD8218399
_publ_section_title
;
Structure prediction by ZEFSAII (Michael W. Deem and Ramdas Pophale) SiO2 
 PCOD8218399
Probable space group: P M N A
;
_chemical_formula_sum "Si O2"
_cell_formula_units_Z 48
_cell_length_a 25.665211
_cell_length_b 21.908059
_cell_length_c 5.055640
_cell_angle_alpha 90.000000
_cell_angle_beta 90.000000
_cell_angle_gamma 90.000000
_cell_volume 2842.659763
_symmetry_space_group_name_H-M "P M N A"
_symmetry_group_IT_number 53
_symmetry_cell_setting 'orthorhombic'
loop_
_space_group_symop_operation_xyz
x,y,z
1/2-x,-y,1/2+z
x,-y,-z
1/2-x,y,1/2-z
-x,-y,-z
1/2+x,y,1/2-z
-x,y,z
1/2+x,-y,1/2+z
loop_
_atom_site_type_symbol
_atom_site_label
_atom_site_fract_x
_atom_site_fract_y
_atom_site_fract_z
Si Si1 0.059170 0.747749 0.329378
Si Si2 0.058632 0.329952 0.154773
Si Si3 0.439452 0.068262 0.518340
Si Si4 0.059917 0.461420 0.259704
Si Si5 0.284907 0.929799 0.000642
Si Si6 0.105155 0.128433 0.487014
O O1 0.058622 0.699003 0.559308
O O2 0.096181 0.801982 0.427813
O O3 0.000000 0.772222 0.273561
O O4 0.083811 0.714905 0.067807
O O5 0.086896 0.395728 0.195914
O O6 0.000000 0.341313 0.048675
O O7 0.500000 0.069017 0.450743
O O8 0.429311 0.087421 0.818260
O O9 0.416294 0.000000 0.500000
O O10 0.411751 0.114511 0.314389
O O11 0.086360 0.500000 0.500000
O O12 0.000000 0.448560 0.339410
O O13 0.065799 0.500000 0.000000
O O14 0.250000 0.914195 0.750000
O O15 0.250000 0.914940 0.250000
O O16 0.334080 0.885491 0.013328
O O17 0.304075 0.000000 0.000000
#
# Coordination Sequence:
#
# PCOD8218399 Si02
#       6
#     8   8   8   8   8   8
#     4  10  19  30  44  63  90 123 155 186 223 275
#     4   9  17  28  40  58  87 120 155 194 227 257
#     4  11  22  34  49  71  97 122 151 191 236 283
#     4   9  15  23  37  56  78 110 155 199 229 251
#     4  10  21  37  55  73  91 113 149 200 252 296
#     4  12  22  35  53  71  93 124 159 192 238 293
#
# _framework density 16.885594000000001
#
# number of rings (size 3 to 8) (size 9 to 14) (size 15 to 20)
#    0.000    1.833    0.000    6.000    0.000    8.000 
#    0.000    0.000    0.000    0.000    0.000    0.000 
#    0.000    0.000    0.000    0.000    0.000   46.667 
#
# Total GULP energy -595066.529026 kJ/mol
# GULP energy per Si atom -12397.219355 kJ/mol
# Density = 1.684716 g / cm^3
# Si number density = 16.885594 Si / 1000 Ang^3
#
#
#
# Elastic Constant Matrix: (Units=GPa)
#
#
# Indices 1 2 3 4 5 6 
#
# 1 59.2884 30.0486 17.7787 0.0000 0.0000 0.0000
# 2 30.0486 108.8391 23.0107 0.0000 0.0000 0.0000
# 3 17.7787 23.0107 93.8147 0.0000 0.0000 0.0000
# 4 0.0000 0.0000 0.0000 33.3845 0.0000 0.0000
# 5 0.0000 0.0000 0.0000 0.0000 -66.5856 0.0000
# 6 0.0000 0.0000 0.0000 0.0000 0.0000 4.7319
#
#
#
# Elastic Compliance Matrix: (Units=1/GPa)
#
#
# Indices 1 2 3 4 5 6 
#
# 1 0.020192 -0.005026 -0.002594 0.000000 0.000000 0.000000
# 2 -0.005026 0.010942 -0.001731 0.000000 0.000000 0.000000
# 3 -0.002594 -0.001731 0.011575 0.000000 0.000000 0.000000
# 4 0.000000 0.000000 0.000000 0.029954 0.000000 0.000000
# 5 0.000000 0.000000 0.000000 0.000000 -0.015018 0.000000
# 6 0.000000 0.000000 0.000000 0.000000 0.000000 0.211330
#
#
# Mechanical properties :
#
#
# Convention : Reuss Voigt Hill
#
# Bulk Modulus (GPa) = 41.65530 44.84647 43.25089
# Shear Modulus (GPa) = 16.91023 7.04645 11.97834
#
# Velocity S-wave (km/s) = 3.16802 2.04502 2.66631
# Velocity P-wave (km/s) = 6.17288 5.67387 5.92863
#
# Compressibility (1/GPa) = 0.02400655
#
# Stress axis : x y z
#
# Youngs Moduli (GPa) = 49.52485 91.39470 86.38965
#
# Poissons Ratio (x) = 0.45938 0.22407
# Poissons Ratio (y) = 0.24893 0.14956
# Poissons Ratio (z) = 0.12845 0.15822
#
# Static dielectric constant tensor:
#      x y z
#    x 2.670580 0.000000 0.000000 
#    y 0.000000 3.295270 0.000000 
#    z 0.000000 0.000000 3.353450 
# 
# 
# High freq. dielectric constant tensor:
#      x y z
#    x 1.577660 0.000000 0.000000 
#    y 0.000000 1.655460 0.000000 
#    z 0.000000 0.000000 1.678710 
# 
# From -- ./inp_files/3749.got.cif
#   From: 2010.03.12/outbox.cif.g09.slc.cpg/sg53_2_cif.got.tgz:3749.got - 2010.04.16 14:36:59.
