data_PCOD8218587
_publ_section_title
;
Structure prediction by ZEFSAII (Michael W. Deem and Ramdas Pophale) SiO2 
 PCOD8218587
Probable space group: P M N A
;
_chemical_formula_sum "Si O2"
_cell_formula_units_Z 64
_cell_length_a 18.211814
_cell_length_b 36.146243
_cell_length_c 5.154593
_cell_angle_alpha 90.000000
_cell_angle_beta 90.000000
_cell_angle_gamma 90.000000
_cell_volume 3393.210090
_symmetry_space_group_name_H-M "P M N A"
_symmetry_group_IT_number 53
_symmetry_cell_setting 'orthorhombic'
loop_
_space_group_symop_operation_xyz
x,y,z
1/2-x,-y,1/2+z
x,-y,-z
1/2-x,y,1/2-z
-x,-y,-z
1/2+x,y,1/2-z
-x,y,z
1/2+x,-y,1/2+z
loop_
_atom_site_type_symbol
_atom_site_label
_atom_site_fract_x
_atom_site_fract_y
_atom_site_fract_z
Si Si1 0.412684 0.730366 0.372407
Si Si2 0.915361 0.901477 0.152684
Si Si3 0.415451 0.856185 0.833068
Si Si4 0.412692 0.774165 0.876392
Si Si5 0.584651 0.648408 0.422989
Si Si6 0.163244 0.022436 0.751847
Si Si7 0.084932 0.397261 0.409045
Si Si8 0.702750 0.542856 0.998182
O O1 0.500000 0.727710 0.345126
O O2 0.380272 0.752114 0.123751
O O3 0.379019 0.689092 0.401769
O O4 0.387537 0.752431 0.623729
O O5 0.905455 0.872929 0.384693
O O6 0.871328 0.937406 0.235973
O O7 0.000000 0.912696 0.110163
O O8 0.881137 0.882434 0.892817
O O9 0.500000 0.851669 0.752803
O O10 0.379093 0.815477 0.848836
O O11 0.500000 0.776805 0.904174
O O12 0.500000 0.653253 0.499189
O O13 0.618430 0.622899 0.652741
O O14 0.595791 0.630463 0.145201
O O15 0.250000 0.027409 0.750000
O O16 0.135819 0.000000 0.500000
O O17 0.135686 0.000000 0.000000
O O18 0.127531 0.434586 0.479656
O O19 0.000000 0.408430 0.369253
O O20 0.750000 0.553155 0.750000
O O21 0.680202 0.500000 0.000000
O O22 0.750000 0.553740 0.250000
#
# Coordination Sequence:
#
# PCOD8218587 Si02
#       8
#     8   8   8   8   8   8   8   8
#     4   9  15  23  37  59  91 130 162 189 231 285
#     4  10  19  31  48  69  95 124 153 190 233 277
#     4   9  17  28  42  65  96 126 156 192 233 274
#     4   9  15  23  37  58  89 128 161 188 227 280
#     4   9  17  28  43  68 101 132 164 204 248 291
#     4  10  21  36  52  70  93 120 151 190 232 275
#     4  10  19  32  51  74 102 134 166 206 254 302
#     4  10  21  37  55  75 101 132 167 210 255 300
#
# _framework density 18.861194000000001
#
# number of rings (size 3 to 8) (size 9 to 14) (size 15 to 20)
#    0.000    2.500    0.000    3.000    0.000    6.750 
#    0.000    0.000    0.000    4.500    0.000    0.000 
#    0.000   35.000    0.000    0.000    0.000    0.000 
#
# Total GULP energy -793456.579829 kJ/mol
# GULP energy per Si atom -12397.759060 kJ/mol
# Density = 1.881827 g / cm^3
# Si number density = 18.861194 Si / 1000 Ang^3
#
#
#
# Elastic Constant Matrix: (Units=GPa)
#
#
# Indices 1 2 3 4 5 6 
#
# 1 24.1588 34.8285 19.5225 0.0000 0.0000 0.0000
# 2 34.8285 126.5103 38.6150 0.0000 0.0000 0.0000
# 3 19.5225 38.6150 131.8691 0.0000 0.0000 0.0000
# 4 0.0000 0.0000 0.0000 42.5156 0.0000 0.0000
# 5 0.0000 0.0000 0.0000 0.0000 5.1087 0.0000
# 6 0.0000 0.0000 0.0000 0.0000 0.0000 5.0045
#
#
#
# Elastic Compliance Matrix: (Units=1/GPa)
#
#
# Indices 1 2 3 4 5 6 
#
# 1 0.071880 -0.018164 -0.005322 0.000000 0.000000 0.000000
# 2 -0.018164 0.013270 -0.001197 0.000000 0.000000 0.000000
# 3 -0.005322 -0.001197 0.008722 0.000000 0.000000 0.000000
# 4 0.000000 0.000000 0.000000 0.023521 0.000000 0.000000
# 5 0.000000 0.000000 0.000000 0.000000 0.195744 0.000000
# 6 0.000000 0.000000 0.000000 0.000000 0.000000 0.199820
#
#
# Mechanical properties :
#
#
# Convention : Reuss Voigt Hill
#
# Bulk Modulus (GPa) = 22.46925 52.05226 37.26075
# Shear Modulus (GPa) = 8.66313 23.16391 15.91352
#
# Velocity S-wave (km/s) = 2.14548 3.50826 2.90783
# Velocity P-wave (km/s) = 4.25162 6.63837 5.57424
#
# Compressibility (1/GPa) = 0.04450526
#
# Stress axis : x y z
#
# Youngs Moduli (GPa) = 13.91207 75.35549 114.65634
#
# Poissons Ratio (x) = 1.36877 0.61026
# Poissons Ratio (y) = 0.25270 0.13723
# Poissons Ratio (z) = 0.07405 0.09019
#
# Static dielectric constant tensor:
#      x y z
#    x 2.848490 0.000000 0.000000 
#    y 0.000000 3.647440 0.000000 
#    z 0.000000 0.000000 5.913280 
# 
# 
# High freq. dielectric constant tensor:
#      x y z
#    x 1.661840 0.000000 0.000000 
#    y 0.000000 1.748880 0.000000 
#    z 0.000000 0.000000 1.756720 
# 
# From -- ./inp_files/2319.got.cif
#   From: 2010.03.12/outbox.cif.g09.slc.cpg/sg53_2_cif.got.tgz:2319.got - 2010.04.16 14:36:59.
