data_PCOD8218938
_publ_section_title
;
Structure prediction by ZEFSAII (Michael W. Deem and Ramdas Pophale) SiO2 
 PCOD8218938
Probable space group: P M N A
;
_chemical_formula_sum "Si O2"
_cell_formula_units_Z 56
_cell_length_a 17.010424
_cell_length_b 32.851927
_cell_length_c 5.106810
_cell_angle_alpha 90.000000
_cell_angle_beta 90.000000
_cell_angle_gamma 90.000000
_cell_volume 2853.814158
_symmetry_space_group_name_H-M "P M N A"
_symmetry_group_IT_number 53
_symmetry_cell_setting 'orthorhombic'
loop_
_space_group_symop_operation_xyz
x,y,z
1/2-x,-y,1/2+z
x,-y,-z
1/2-x,y,1/2-z
-x,-y,-z
1/2+x,y,1/2-z
-x,y,z
1/2+x,-y,1/2+z
loop_
_atom_site_type_symbol
_atom_site_label
_atom_site_fract_x
_atom_site_fract_y
_atom_site_fract_z
Si Si1 0.197946 0.000000 0.000000
Si Si2 0.303462 0.500000 0.500000
Si Si3 0.909732 0.923494 0.017950
Si Si4 0.697149 0.793963 0.997890
Si Si5 0.195422 0.412162 0.999608
Si Si6 0.908840 0.334485 0.000512
Si Si7 0.409569 0.128790 0.018088
Si Si8 0.908146 0.716411 0.507545
O O1 0.144151 0.961965 0.075572
O O2 0.250000 0.011350 0.250000
O O3 0.250000 0.503181 0.750000
O O4 0.349546 0.543370 0.485006
O O5 0.891238 0.889170 0.232932
O O6 0.000000 0.937734 0.039172
O O7 0.890703 0.905494 0.733237
O O8 0.750000 0.782953 0.750000
O O9 0.645854 0.833206 0.928719
O O10 0.639025 0.756975 0.057043
O O11 0.750000 0.802659 0.250000
O O12 0.250000 0.404870 0.750000
O O13 0.129228 0.378441 0.019239
O O14 0.250000 0.409005 0.250000
O O15 0.890067 0.315617 0.720074
O O16 0.000000 0.341674 0.049359
O O17 0.877396 0.303709 0.223495
O O18 0.500000 0.143072 0.041647
O O19 0.000000 0.727842 0.520680
#
# Coordination Sequence:
#
# PCOD8218938 Si02
#       8
#     4   4   8   8   8   8   8   8
#     4  12  25  38  59  90 122 152 182 230 287 324
#     4   8  16  30  47  72 103 136 174 212 260 320
#     4  10  22  41  63  85 113 152 194 227 262 326
#     4  12  25  38  58  87 115 142 179 231 277 318
#     4  10  19  32  53  77 104 139 177 219 265 320
#     4  10  21  36  55  79 106 139 179 224 272 318
#     4  10  22  41  63  84 111 151 190 224 271 328
#     4  10  22  40  57  75 108 148 181 217 267 330
#
# _framework density 19.622861
#
# number of rings (size 3 to 8) (size 9 to 14) (size 15 to 20)
#    0.000    1.714    0.000    4.071    0.000    6.857 
#    0.000    8.929    0.000    0.000    0.000    9.000 
#    0.000    0.000    0.000    0.000    0.000    0.000 
#
# Total GULP energy -694440.984396 kJ/mol
# GULP energy per Si atom -12400.731864 kJ/mol
# Density = 1.957820 g / cm^3
# Si number density = 19.622861 Si / 1000 Ang^3
#
#
#
# Elastic Constant Matrix: (Units=GPa)
#
#
# Indices 1 2 3 4 5 6 
#
# 1 64.5462 56.3482 22.5027 0.0000 0.0000 0.0000
# 2 56.3482 106.1835 -0.6944 0.0000 0.0000 0.0000
# 3 22.5027 -0.6944 102.8578 0.0000 0.0000 0.0000
# 4 0.0000 0.0000 0.0000 24.1885 0.0000 0.0000
# 5 0.0000 0.0000 0.0000 0.0000 18.4354 0.0000
# 6 0.0000 0.0000 0.0000 0.0000 0.0000 39.4756
#
#
#
# Elastic Compliance Matrix: (Units=1/GPa)
#
#
# Indices 1 2 3 4 5 6 
#
# 1 0.033832 -0.018002 -0.007523 0.000000 0.000000 0.000000
# 2 -0.018002 0.018998 0.004067 0.000000 0.000000 0.000000
# 3 -0.007523 0.004067 0.011395 0.000000 0.000000 0.000000
# 4 0.000000 0.000000 0.000000 0.041342 0.000000 0.000000
# 5 0.000000 0.000000 0.000000 0.000000 0.054244 0.000000
# 6 0.000000 0.000000 0.000000 0.000000 0.000000 0.025332
#
#
# Mechanical properties :
#
#
# Convention : Reuss Voigt Hill
#
# Bulk Modulus (GPa) = 46.93284 47.76672 47.34978
# Shear Modulus (GPa) = 21.26193 29.44862 25.35527
#
# Velocity S-wave (km/s) = 3.29527 3.87813 3.59852
# Velocity P-wave (km/s) = 6.20063 6.66696 6.43802
#
# Compressibility (1/GPa) = 0.02130704
#
# Stress axis : x y z
#
# Youngs Moduli (GPa) = 29.55822 52.63824 87.75424
#
# Poissons Ratio (x) = 0.94762 0.66018
# Poissons Ratio (y) = 0.53212 -0.35687
# Poissons Ratio (z) = 0.22237 -0.21407
#
# Static dielectric constant tensor:
#      x y z
#    x 3.459920 0.000000 0.000000 
#    y 0.000000 3.716000 0.000000 
#    z 0.000000 0.000000 4.056570 
# 
# 
# High freq. dielectric constant tensor:
#      x y z
#    x 1.748500 0.000000 0.000000 
#    y 0.000000 1.776520 0.000000 
#    z 0.000000 0.000000 1.787210 
# 
# From -- ./inp_files/1488.got.cif
#   From: 2010.03.12/outbox.cif.g09.slc.cpg/sg53_1_cif.got.tgz:1488.got - 2010.04.16 14:36:59.
