data_PCOD8218941
_publ_section_title
;
Structure prediction by ZEFSAII (Michael W. Deem and Ramdas Pophale) SiO2 
 PCOD8218941
Probable space group: P M N A
;
_chemical_formula_sum "Si O2"
_cell_formula_units_Z 64
_cell_length_a 11.438391
_cell_length_b 8.263203
_cell_length_c 33.365755
_cell_angle_alpha 90.000000
_cell_angle_beta 90.000000
_cell_angle_gamma 90.000000
_cell_volume 3153.655984
_symmetry_space_group_name_H-M "P M N A"
_symmetry_group_IT_number 53
_symmetry_cell_setting 'orthorhombic'
loop_
_space_group_symop_operation_xyz
x,y,z
1/2-x,-y,1/2+z
x,-y,-z
1/2-x,y,1/2-z
-x,-y,-z
1/2+x,y,1/2-z
-x,y,z
1/2+x,-y,1/2+z
loop_
_atom_site_type_symbol
_atom_site_label
_atom_site_fract_x
_atom_site_fract_y
_atom_site_fract_z
Si Si1 0.630608 0.056008 0.042547
Si Si2 0.127814 0.038998 0.858245
Si Si3 0.796087 0.764426 0.409390
Si Si4 0.132049 0.548687 0.043414
Si Si5 0.787041 0.268834 0.097530
Si Si6 0.129614 0.984340 0.236149
Si Si7 0.132129 0.622832 0.269264
Si Si8 0.872968 0.506635 0.643776
O O1 0.500000 0.123072 0.035617
O O2 0.704446 0.197785 0.062761
O O3 0.623342 0.902335 0.071964
O O4 0.685689 0.000000 0.000000
O O5 0.136428 0.868936 0.881714
O O6 0.141926 0.022115 0.811142
O O7 0.000000 0.109954 0.868052
O O8 0.223154 0.166159 0.872190
O O9 0.707929 0.700869 0.443090
O O10 0.874987 0.619563 0.393039
O O11 0.134292 0.402459 0.075573
O O12 0.000000 0.610082 0.039214
O O13 0.181547 0.500000 0.000000
O O14 0.717029 0.350070 0.134459
O O15 0.250000 0.078717 0.250000
O O16 0.000000 0.063194 0.246702
O O17 0.132660 0.811238 0.258054
O O18 0.250000 0.540402 0.250000
O O19 0.153924 0.593140 0.316095
O O20 0.000000 0.555041 0.256890
O O21 0.000000 0.588911 0.646326
#
# Coordination Sequence:
#
# PCOD8218941 Si02
#       8
#     8   8   8   8   8   8   8   8
#     4  10  20  34  52  75 104 138 176 218 264 316
#     4  10  20  35  55  79 108 140 177 222 270 321
#     4  10  19  32  53  78 102 134 178 220 265 316
#     4  10  20  34  52  75 104 138 176 218 264 316
#     4  10  21  36  53  76 108 142 176 216 269 320
#     4   9  17  31  52  78 105 134 172 219 267 316
#     4   9  17  31  52  78 105 134 172 219 267 316
#     4  10  20  35  55  79 108 140 177 222 270 321
#
# _framework density 20.293906
#
# number of rings (size 3 to 8) (size 9 to 14) (size 15 to 20)
#    0.000    2.250    0.000    3.750    0.000    0.000 
#    0.000    6.875    0.000   15.000    0.000    0.000 
#    0.000    0.000    0.000    0.000    0.000    0.000 
#
# Total GULP energy -792921.880557 kJ/mol
# GULP energy per Si atom -12389.404384 kJ/mol
# Density = 2.024772 g / cm^3
# Si number density = 20.293906 Si / 1000 Ang^3
#
#
#
# Elastic Constant Matrix: (Units=GPa)
#
#
# Indices 1 2 3 4 5 6 
#
# 1 119.5203 -2.0637 26.7498 0.0000 0.0000 0.0000
# 2 -2.0637 32.4917 0.5821 0.0000 0.0000 0.0000
# 3 26.7498 0.5821 80.3874 0.0000 0.0000 0.0000
# 4 0.0000 0.0000 0.0000 29.9367 0.0000 0.0000
# 5 0.0000 0.0000 0.0000 0.0000 16.0165 0.0000
# 6 0.0000 0.0000 0.0000 0.0000 0.0000 -8.2666
#
#
#
# Elastic Compliance Matrix: (Units=1/GPa)
#
#
# Indices 1 2 3 4 5 6 
#
# 1 0.009053 0.000629 -0.003017 0.000000 0.000000 0.000000
# 2 0.000629 0.030825 -0.000433 0.000000 0.000000 0.000000
# 3 -0.003017 -0.000433 0.013447 0.000000 0.000000 0.000000
# 4 0.000000 0.000000 0.000000 0.033404 0.000000 0.000000
# 5 0.000000 0.000000 0.000000 0.000000 0.062436 0.000000
# 6 0.000000 0.000000 0.000000 0.000000 0.000000 -0.120969
#
#
# Mechanical properties :
#
#
# Convention : Reuss Voigt Hill
#
# Bulk Modulus (GPa) = 20.97161 31.43731 26.20446
# Shear Modulus (GPa) = 100.54180 21.34607 60.94394
#
# Velocity S-wave (km/s) = 7.04630 3.24674 5.48597
# Velocity P-wave (km/s) = 8.74968 5.43872 7.28480
#
# Compressibility (1/GPa) = 0.04768351
#
# Stress axis : x y z
#
# Youngs Moduli (GPa) = 110.46218 32.44145 74.36695
#
# Poissons Ratio (x) = -0.02041 0.22437
# Poissons Ratio (y) = -0.06949 0.03217
# Poissons Ratio (z) = 0.33326 0.01403
#
# Static dielectric constant tensor:
#      x y z
#    x 4.118580 0.000000 0.000000 
#    y 0.000000 3.338290 0.000000 
#    z 0.000000 0.000000 3.708350 
# 
# 
# High freq. dielectric constant tensor:
#      x y z
#    x 1.806070 0.000000 0.000000 
#    y 0.000000 1.759090 0.000000 
#    z 0.000000 0.000000 1.800650 
# 
# From -- ./inp_files/38715.got.cif
#   From: 2010.03.12/outbox.cif.g09.slc.cpg/sg53_20_cif.got.tgz:38715.got - 2010.04.16 14:36:59.
