data_PCOD8218310
_publ_section_title
;
Structure prediction by ZEFSAII (Michael W. Deem and Ramdas Pophale) SiO2 
 PCOD8218310
Probable space group: P M N A
;
_chemical_formula_sum "Si O2"
_cell_formula_units_Z 64
_cell_length_a 9.275795
_cell_length_b 18.338684
_cell_length_c 24.841132
_cell_angle_alpha 90.000000
_cell_angle_beta 90.000000
_cell_angle_gamma 90.000000
_cell_volume 4225.622454
_symmetry_space_group_name_H-M "P M N A"
_symmetry_group_IT_number 53
_symmetry_cell_setting 'orthorhombic'
loop_
_space_group_symop_operation_xyz
x,y,z
1/2-x,-y,1/2+z
x,-y,-z
1/2-x,y,1/2-z
-x,-y,-z
1/2+x,y,1/2-z
-x,y,z
1/2+x,-y,1/2+z
loop_
_atom_site_type_symbol
_atom_site_label
_atom_site_fract_x
_atom_site_fract_y
_atom_site_fract_z
Si Si1 0.161996 0.450044 0.921323
Si Si2 0.669912 0.982760 0.416345
Si Si3 0.165780 0.234465 0.802207
Si Si4 0.664368 0.734666 0.987475
Si Si5 0.661582 0.396473 0.457019
Si Si6 0.664626 0.938039 0.301717
Si Si7 0.835107 0.318877 0.608968
Si Si8 0.170141 0.883203 0.987645
O O1 0.210566 0.535117 0.919672
O O2 0.272888 0.401210 0.886973
O O3 0.000000 0.441900 0.897811
O O4 0.163231 0.422526 0.981969
O O5 0.500000 0.971761 0.413902
O O6 0.733473 0.972272 0.356266
O O7 0.727802 0.920437 0.457170
O O8 0.708287 0.062817 0.438261
O O9 0.250000 0.263944 0.750000
O O10 0.178794 0.148209 0.806501
O O11 0.239293 0.266635 0.854804
O O12 0.000000 0.259663 0.798903
O O13 0.500000 0.745418 0.970018
O O14 0.731437 0.671646 0.949441
O O15 0.748468 0.808755 0.976631
O O16 0.678226 0.712434 0.049321
O O17 0.500000 0.371964 0.441125
O O18 0.750000 0.968099 0.250000
O O19 0.500000 0.962492 0.294342
O O20 0.000000 0.319857 0.628844
O O21 0.000000 0.868027 0.990715
#
# Coordination Sequence:
#
# PCOD8218310 Si02
#       8
#     8   8   8   8   8   8   8   8
#     4   8  14  25  40  57  76 101 135 169 197 227
#     4   8  15  28  45  62  79 103 139 177 208 245
#     4  10  19  30  44  60  80 106 136 172 209 243
#     4  10  19  27  37  58  86 111 136 169 206 243
#     4   8  14  25  40  56  76 104 136 166 194 230
#     4   9  17  29  44  62  82 105 135 171 210 249
#     4  10  19  28  39  57  82 111 140 168 201 243
#     4   9  16  28  45  60  77 107 143 175 208 248
#
# _framework density 15.145697
#
# number of rings (size 3 to 8) (size 9 to 14) (size 15 to 20)
#    0.000    3.000    0.000    3.375    0.000    3.500 
#    0.000    5.000    0.000    0.000    0.000    0.000 
#    0.000    1.000    0.000    6.750    0.000    5.250 
#
# Total GULP energy -793278.252556 kJ/mol
# GULP energy per Si atom -12394.972696 kJ/mol
# Density = 1.511122 g / cm^3
# Si number density = 15.145697 Si / 1000 Ang^3
#
#
#
# Elastic Constant Matrix: (Units=GPa)
#
#
# Indices 1 2 3 4 5 6 
#
# 1 86.2080 44.5488 27.9608 0.0000 0.0000 0.0000
# 2 44.5488 82.9964 18.9909 0.0000 0.0000 0.0000
# 3 27.9608 18.9909 60.8899 0.0000 0.0000 0.0000
# 4 0.0000 0.0000 0.0000 15.3354 0.0000 0.0000
# 5 0.0000 0.0000 0.0000 0.0000 20.3389 0.0000
# 6 0.0000 0.0000 0.0000 0.0000 0.0000 18.0907
#
#
#
# Elastic Compliance Matrix: (Units=1/GPa)
#
#
# Indices 1 2 3 4 5 6 
#
# 1 0.017633 -0.008197 -0.005540 0.000000 0.000000 0.000000
# 2 -0.008197 0.016785 -0.001471 0.000000 0.000000 0.000000
# 3 -0.005540 -0.001471 0.019426 0.000000 0.000000 0.000000
# 4 0.000000 0.000000 0.000000 0.065208 0.000000 0.000000
# 5 0.000000 0.000000 0.000000 0.000000 0.049167 0.000000
# 6 0.000000 0.000000 0.000000 0.000000 0.000000 0.055277
#
#
# Mechanical properties :
#
#
# Convention : Reuss Voigt Hill
#
# Bulk Modulus (GPa) = 42.68552 45.89945 44.29249
# Shear Modulus (GPa) = 19.10430 19.99261 19.54846
#
# Velocity S-wave (km/s) = 3.55543 3.63715 3.59652
# Velocity P-wave (km/s) = 6.71559 6.92889 6.82308
#
# Compressibility (1/GPa) = 0.02342715
#
# Stress axis : x y z
#
# Youngs Moduli (GPa) = 56.71335 59.57737 51.47713
#
# Poissons Ratio (x) = 0.48833 0.28521
# Poissons Ratio (y) = 0.46486 0.07573
# Poissons Ratio (z) = 0.31422 0.08765
#
# Static dielectric constant tensor:
#      x y z
#    x 2.961600 0.000000 0.000000 
#    y 0.000000 2.975480 0.000000 
#    z 0.000000 0.000000 2.838750 
# 
# 
# High freq. dielectric constant tensor:
#      x y z
#    x 1.576670 0.000000 0.000000 
#    y 0.000000 1.573070 0.000000 
#    z 0.000000 0.000000 1.541010 
# 
# From -- ./inp_files/36469.got.cif
#   From: 2010.03.12/outbox.cif.g09.slc.cpg/sg53_19_cif.got.tgz:36469.got - 2010.04.16 14:36:59.
