data_PCOD8218865
_publ_section_title
;
Structure prediction by ZEFSAII (Michael W. Deem and Ramdas Pophale) SiO2 
 PCOD8218865
Probable space group: P M N A
;
_chemical_formula_sum "Si O2"
_cell_formula_units_Z 64
_cell_length_a 8.892469
_cell_length_b 25.178039
_cell_length_c 14.447702
_cell_angle_alpha 90.000000
_cell_angle_beta 90.000000
_cell_angle_gamma 90.000000
_cell_volume 3234.767247
_symmetry_space_group_name_H-M "P M N A"
_symmetry_group_IT_number 53
_symmetry_cell_setting 'orthorhombic'
loop_
_space_group_symop_operation_xyz
x,y,z
1/2-x,-y,1/2+z
x,-y,-z
1/2-x,y,1/2-z
-x,-y,-z
1/2+x,y,1/2-z
-x,y,z
1/2+x,-y,1/2+z
loop_
_atom_site_type_symbol
_atom_site_label
_atom_site_fract_x
_atom_site_fract_y
_atom_site_fract_z
Si Si1 0.823145 0.913878 0.658571
Si Si2 0.323844 0.323250 0.968763
Si Si3 0.176901 0.584748 0.337298
Si Si4 0.677718 0.774269 0.148953
Si Si5 0.667116 0.017189 0.604958
Si Si6 0.325540 0.481298 0.396431
Si Si7 0.821495 0.370424 0.345430
Si Si8 0.676110 0.118350 0.955141
O O1 0.750000 0.886178 0.750000
O O2 0.772220 0.884380 0.563398
O O3 0.000000 0.911555 0.670201
O O4 0.769609 0.975086 0.658780
O O5 0.500000 0.313778 0.963861
O O6 0.280962 0.380391 0.926331
O O7 0.252014 0.275016 0.910040
O O8 0.272534 0.327297 0.076039
O O9 0.250000 0.615779 0.250000
O O10 0.258341 0.528145 0.335347
O O11 0.000000 0.577278 0.326478
O O12 0.750000 0.777205 0.250000
O O13 0.500000 0.768961 0.163035
O O14 0.719620 0.825196 0.087485
O O15 0.500000 0.019184 0.649276
O O16 0.741579 0.075222 0.609301
O O17 0.656168 0.000000 0.500000
O O18 0.296952 0.500000 0.500000
O O19 0.500000 0.472218 0.373535
O O20 0.236619 0.428287 0.372629
O O21 0.750000 0.350260 0.250000
O O22 0.000000 0.373610 0.336175
O O23 0.500000 0.106288 0.949899
#
# Coordination Sequence:
#
# PCOD8218865 Si02
#       8
#     8   8   8   8   8   8   8   8
#     4  10  19  32  51  78 111 150 190 228 273 326
#     4   9  20  38  60  81 108 143 180 223 274 327
#     4  11  21  35  55  81 110 144 181 219 269 323
#     4  10  21  40  62  85 109 140 181 226 278 331
#     4   9  17  30  50  76 108 145 185 228 271 320
#     4  11  22  36  55  82 113 146 183 224 268 321
#     4  11  22  39  60  83 112 148 186 225 272 327
#     4   9  19  35  55  78 111 150 186 227 278 334
#
# _framework density 19.785039999999999
#
# number of rings (size 3 to 8) (size 9 to 14) (size 15 to 20)
#    0.000    2.000    1.250    2.625    0.000    3.500 
#    0.000    3.750    0.000    0.000    0.000    0.000 
#    0.000    0.000    0.000    0.000    0.000    0.000 
#
# Total GULP energy -793320.326079 kJ/mol
# GULP energy per Si atom -12395.630095 kJ/mol
# Density = 1.974001 g / cm^3
# Si number density = 19.785040 Si / 1000 Ang^3
#
#
#
# Elastic Constant Matrix: (Units=GPa)
#
#
# Indices 1 2 3 4 5 6 
#
# 1 59.3290 25.1844 52.7059 0.0000 0.0000 0.0000
# 2 25.1844 98.5788 62.5632 0.0000 0.0000 0.0000
# 3 52.7059 62.5632 154.1307 0.0000 0.0000 0.0000
# 4 0.0000 0.0000 0.0000 25.8991 0.0000 0.0000
# 5 0.0000 0.0000 0.0000 0.0000 32.8665 0.0000
# 6 0.0000 0.0000 0.0000 0.0000 0.0000 11.6275
#
#
#
# Elastic Compliance Matrix: (Units=1/GPa)
#
#
# Indices 1 2 3 4 5 6 
#
# 1 0.024325 -0.001260 -0.007807 0.000000 0.000000 0.000000
# 2 -0.001260 0.013729 -0.005142 0.000000 0.000000 0.000000
# 3 -0.007807 -0.005142 0.011245 0.000000 0.000000 0.000000
# 4 0.000000 0.000000 0.000000 0.038611 0.000000 0.000000
# 5 0.000000 0.000000 0.000000 0.000000 0.030426 0.000000
# 6 0.000000 0.000000 0.000000 0.000000 0.000000 0.086003
#
#
# Mechanical properties :
#
#
# Convention : Reuss Voigt Hill
#
# Bulk Modulus (GPa) = 47.88814 65.88281 56.88548
# Shear Modulus (GPa) = 20.85783 25.51763 23.18773
#
# Velocity S-wave (km/s) = 3.25040 3.59520 3.42714
# Velocity P-wave (km/s) = 6.19222 7.11376 6.66892
#
# Compressibility (1/GPa) = 0.02088200
#
# Stress axis : x y z
#
# Youngs Moduli (GPa) = 41.10956 72.83589 88.93007
#
# Poissons Ratio (x) = 0.09177 0.69425
# Poissons Ratio (y) = 0.05179 0.45729
# Poissons Ratio (z) = 0.32093 0.37453
#
# Static dielectric constant tensor:
#      x y z
#    x 3.563000 0.000000 0.000000 
#    y 0.000000 3.522740 0.000000 
#    z 0.000000 0.000000 4.042460 
# 
# 
# High freq. dielectric constant tensor:
#      x y z
#    x 1.763000 0.000000 0.000000 
#    y 0.000000 1.748940 0.000000 
#    z 0.000000 0.000000 1.789140 
# 
# From -- ./inp_files/20912.got.cif
#   From: 2010.03.12/outbox.cif.g09.slc.cpg/sg53_11_cif.got.tgz:20912.got - 2010.04.16 14:36:59.
