data_PCOD8218631
_publ_section_title
;
Structure prediction by ZEFSAII (Michael W. Deem and Ramdas Pophale) SiO2 
 PCOD8218631
Probable space group: P M N A
;
_chemical_formula_sum "Si O2"
_cell_formula_units_Z 56
_cell_length_a 9.015768
_cell_length_b 13.655922
_cell_length_c 23.916591
_cell_angle_alpha 90.000000
_cell_angle_beta 90.000000
_cell_angle_gamma 90.000000
_cell_volume 2944.577789
_symmetry_space_group_name_H-M "P M N A"
_symmetry_group_IT_number 53
_symmetry_cell_setting 'orthorhombic'
loop_
_space_group_symop_operation_xyz
x,y,z
1/2-x,-y,1/2+z
x,-y,-z
1/2-x,y,1/2-z
-x,-y,-z
1/2+x,y,1/2-z
-x,y,z
1/2+x,-y,1/2+z
loop_
_atom_site_type_symbol
_atom_site_label
_atom_site_fract_x
_atom_site_fract_y
_atom_site_fract_z
Si Si1 0.675673 0.156508 0.417872
Si Si2 0.174146 0.488864 0.193540
Si Si3 0.671371 0.844005 0.308783
Si Si4 0.327373 0.956317 0.098205
Si Si5 0.173752 0.266445 0.193663
Si Si6 0.171526 0.231017 0.522109
Si Si7 0.329709 0.341568 0.614154
O O1 0.500000 0.145350 0.423508
O O2 0.723118 0.199123 0.357809
O O3 0.734726 0.230565 0.465114
O O4 0.754044 0.052847 0.427340
O O5 0.250000 0.527591 0.250000
O O6 0.223764 0.377807 0.180645
O O7 0.223179 0.556029 0.141259
O O8 0.000000 0.498756 0.203012
O O9 0.750000 0.835372 0.250000
O O10 0.500000 0.871293 0.300657
O O11 0.747749 0.930794 0.343654
O O12 0.692949 0.741275 0.339414
O O13 0.500000 0.974672 0.109473
O O14 0.301115 0.870881 0.053702
O O15 0.250000 0.226722 0.250000
O O16 0.000000 0.261274 0.203582
O O17 0.228897 0.320548 0.560202
O O18 0.000000 0.248033 0.508243
O O19 0.500000 0.345927 0.594411
#
# Coordination Sequence:
#
# PCOD8218631 Si02
#       7
#     8   8   8   8   8   8   8
#     4  11  22  36  55  77 102 135 173 212 258 308
#     4   9  17  32  54  79 106 136 171 209 252 302
#     4  10  19  31  48  74 106 137 170 208 254 306
#     4  10  21  36  53  74 101 134 173 216 259 305
#     4   9  20  37  56  79 105 134 170 211 253 300
#     4  10  21  36  54  77 104 134 171 213 256 305
#     4   9  18  32  52  77 105 137 170 207 253 304
#
# _framework density 19.018007000000001
#
# number of rings (size 3 to 8) (size 9 to 14) (size 15 to 20)
#    0.000    2.286    0.000    2.571    0.000    6.286 
#    0.000    2.143    0.000    4.286    0.000    0.000 
#    0.000    0.000    0.000    0.000    0.000    0.000 
#
# Total GULP energy -694597.613196 kJ/mol
# GULP energy per Si atom -12403.528807 kJ/mol
# Density = 1.897472 g / cm^3
# Si number density = 19.018007 Si / 1000 Ang^3
#
#
#
# Elastic Constant Matrix: (Units=GPa)
#
#
# Indices 1 2 3 4 5 6 
#
# 1 89.2144 22.8552 52.5546 0.0000 0.0000 0.0000
# 2 22.8552 47.2110 19.4866 0.0000 0.0000 0.0000
# 3 52.5546 19.4866 100.3709 0.0000 0.0000 0.0000
# 4 0.0000 0.0000 0.0000 21.3413 0.0000 0.0000
# 5 0.0000 0.0000 0.0000 0.0000 38.3160 0.0000
# 6 0.0000 0.0000 0.0000 0.0000 0.0000 23.4261
#
#
#
# Elastic Compliance Matrix: (Units=1/GPa)
#
#
# Indices 1 2 3 4 5 6 
#
# 1 0.017238 -0.005022 -0.008051 0.000000 0.000000 0.000000
# 2 -0.005022 0.024490 -0.002125 0.000000 0.000000 0.000000
# 3 -0.008051 -0.002125 0.014591 0.000000 0.000000 0.000000
# 4 0.000000 0.000000 0.000000 0.046857 0.000000 0.000000
# 5 0.000000 0.000000 0.000000 0.000000 0.026099 0.000000
# 6 0.000000 0.000000 0.000000 0.000000 0.000000 0.042687
#
#
# Mechanical properties :
#
#
# Convention : Reuss Voigt Hill
#
# Bulk Modulus (GPa) = 38.57574 47.39880 42.98727
# Shear Modulus (GPa) = 23.69669 26.07667 24.88668
#
# Velocity S-wave (km/s) = 3.53372 3.70693 3.62136
# Velocity P-wave (km/s) = 6.08090 6.58020 6.33547
#
# Compressibility (1/GPa) = 0.02592303
#
# Stress axis : x y z
#
# Youngs Moduli (GPa) = 58.01073 40.83327 68.53473
#
# Poissons Ratio (x) = 0.20507 0.55177
# Poissons Ratio (y) = 0.29133 0.14564
# Poissons Ratio (z) = 0.46704 0.08677
#
# Static dielectric constant tensor:
#      x y z
#    x 3.503370 0.000000 0.000000 
#    y 0.000000 3.479520 0.000000 
#    z 0.000000 0.000000 3.537610 
# 
# 
# High freq. dielectric constant tensor:
#      x y z
#    x 1.743770 0.000000 0.000000 
#    y 0.000000 1.727040 0.000000 
#    z 0.000000 0.000000 1.739740 
# 
# From -- ./inp_files/30742.got.cif
#   From: 2010.03.12/outbox.cif.g09.slc.cpg/sg53_16_cif.got.tgz:30742.got - 2010.04.16 14:36:59.
