data_PCOD8218186
_publ_section_title
;
Structure prediction by ZEFSAII (Michael W. Deem and Ramdas Pophale) SiO2 
 PCOD8218186
Probable space group: P M N A
;
_chemical_formula_sum "Si O2"
_cell_formula_units_Z 64
_cell_length_a 8.779138
_cell_length_b 11.904718
_cell_length_c 30.824835
_cell_angle_alpha 90.000000
_cell_angle_beta 90.000000
_cell_angle_gamma 90.000000
_cell_volume 3221.600979
_symmetry_space_group_name_H-M "P M N A"
_symmetry_group_IT_number 53
_symmetry_cell_setting 'orthorhombic'
loop_
_space_group_symop_operation_xyz
x,y,z
1/2-x,-y,1/2+z
x,-y,-z
1/2-x,y,1/2-z
-x,-y,-z
1/2+x,y,1/2-z
-x,y,z
1/2+x,-y,1/2+z
loop_
_atom_site_type_symbol
_atom_site_label
_atom_site_fract_x
_atom_site_fract_y
_atom_site_fract_z
Si Si1 0.819598 0.886674 0.875378
Si Si2 0.180502 0.274042 0.546413
Si Si3 0.820853 0.504838 0.582565
Si Si4 0.321897 0.741893 0.705704
Si Si5 0.680936 0.256503 0.050675
Si Si6 0.175541 0.740174 0.205427
Si Si7 0.319331 0.129170 0.873011
Si Si8 0.826810 0.502389 0.826800
O O1 0.758707 0.811367 0.835391
O O2 0.753219 0.840307 0.920249
O O3 0.000000 0.884139 0.878125
O O4 0.762668 0.011421 0.867572
O O5 0.247219 0.398780 0.556027
O O6 0.232539 0.233880 0.498856
O O7 0.238805 0.185537 0.582186
O O8 0.000000 0.281675 0.549192
O O9 0.752947 0.621861 0.564791
O O10 0.783315 0.488035 0.632653
O O11 0.000000 0.508430 0.576333
O O12 0.250000 0.788766 0.750000
O O13 0.500000 0.759501 0.709730
O O14 0.275780 0.611678 0.700085
O O15 0.500000 0.251164 0.055767
O O16 0.250000 0.783041 0.250000
O O17 0.270480 0.791423 0.166178
O O18 0.188514 0.605392 0.203889
O O19 0.000000 0.779592 0.203058
O O20 0.500000 0.112748 0.872616
O O21 0.000000 0.517415 0.843680
#
# Coordination Sequence:
#
# PCOD8218186 Si02
#       8
#     8   8   8   8   8   8   8   8
#     4  11  24  42  60  82 118 156 197 247 297 350
#     4   9  19  36  59  89 121 152 191 242 295 346
#     4  10  18  32  59  90 119 152 191 236 289 351
#     4  10  22  39  60  85 116 151 188 235 288 343
#     4  10  20  36  61  90 118 153 196 241 291 351
#     4  11  23  39  62  90 121 155 193 238 289 349
#     4  11  23  41  63  85 115 154 200 248 294 346
#     4  10  20  36  58  87 122 154 185 231 291 350
#
# _framework density 19.865898999999999
#
# number of rings (size 3 to 8) (size 9 to 14) (size 15 to 20)
#    0.000    1.750    2.500    1.875    0.000    4.500 
#    0.000    5.625    0.000    1.500    0.000    0.000 
#    0.000    0.000    0.000    0.000    0.000    0.000 
#
# Total GULP energy -793735.963063 kJ/mol
# GULP energy per Si atom -12402.124423 kJ/mol
# Density = 1.982068 g / cm^3
# Si number density = 19.865899 Si / 1000 Ang^3
#
#
#
# Elastic Constant Matrix: (Units=GPa)
#
#
# Indices 1 2 3 4 5 6 
#
# 1 29.4086 16.0665 25.2367 0.0000 0.0000 0.0000
# 2 16.0665 96.0351 33.9354 0.0000 0.0000 0.0000
# 3 25.2367 33.9354 141.0194 0.0000 0.0000 0.0000
# 4 0.0000 0.0000 0.0000 15.2958 0.0000 0.0000
# 5 0.0000 0.0000 0.0000 0.0000 27.0521 0.0000
# 6 0.0000 0.0000 0.0000 0.0000 0.0000 26.2042
#
#
#
# Elastic Compliance Matrix: (Units=1/GPa)
#
#
# Indices 1 2 3 4 5 6 
#
# 1 0.042095 -0.004788 -0.006381 0.000000 0.000000 0.000000
# 2 -0.004788 0.011925 -0.002013 0.000000 0.000000 0.000000
# 3 -0.006381 -0.002013 0.008718 0.000000 0.000000 0.000000
# 4 0.000000 0.000000 0.000000 0.065377 0.000000 0.000000
# 5 0.000000 0.000000 0.000000 0.000000 0.036966 0.000000
# 6 0.000000 0.000000 0.000000 0.000000 0.000000 0.038162
#
#
# Mechanical properties :
#
#
# Convention : Reuss Voigt Hill
#
# Bulk Modulus (GPa) = 27.49181 46.32671 36.90926
# Shear Modulus (GPa) = 20.68414 26.45872 23.57143
#
# Velocity S-wave (km/s) = 3.23025 3.65343 3.44834
# Velocity P-wave (km/s) = 5.27081 6.41616 5.87148
#
# Compressibility (1/GPa) = 0.03637447
#
# Stress axis : x y z
#
# Youngs Moduli (GPa) = 23.75569 83.85666 114.71051
#
# Poissons Ratio (x) = 0.40147 0.73199
# Poissons Ratio (y) = 0.11373 0.23090
# Poissons Ratio (z) = 0.15159 0.16880
#
# Static dielectric constant tensor:
#      x y z
#    x 3.398420 0.000000 0.000000 
#    y 0.000000 3.724820 0.000000 
#    z 0.000000 0.000000 3.705430 
# 
# 
# High freq. dielectric constant tensor:
#      x y z
#    x 1.754870 0.000000 0.000000 
#    y 0.000000 1.778070 0.000000 
#    z 0.000000 0.000000 1.784040 
# 
# From -- ./inp_files/38194.got.cif
#   From: 2010.03.12/outbox.cif.g09.slc.cpg/sg53_20_cif.got.tgz:38194.got - 2010.04.16 14:36:59.
