data_PCOD8218065
_publ_section_title
;
Structure prediction by ZEFSAII (Michael W. Deem and Ramdas Pophale) SiO2 
 PCOD8218065
Probable space group: P M N A
;
_chemical_formula_sum "Si O2"
_cell_formula_units_Z 48
_cell_length_a 8.597675
_cell_length_b 31.258700
_cell_length_c 9.114888
_cell_angle_alpha 90.000000
_cell_angle_beta 90.000000
_cell_angle_gamma 90.000000
_cell_volume 2449.645688
_symmetry_space_group_name_H-M "P M N A"
_symmetry_group_IT_number 53
_symmetry_cell_setting 'orthorhombic'
loop_
_space_group_symop_operation_xyz
x,y,z
1/2-x,-y,1/2+z
x,-y,-z
1/2-x,y,1/2-z
-x,-y,-z
1/2+x,y,1/2-z
-x,y,z
1/2+x,-y,1/2+z
loop_
_atom_site_type_symbol
_atom_site_label
_atom_site_fract_x
_atom_site_fract_y
_atom_site_fract_z
Si Si1 0.183354 0.540607 0.588595
Si Si2 0.316093 0.040726 0.588888
Si Si3 0.315646 0.375816 0.910792
Si Si4 0.184539 0.789950 0.586934
Si Si5 0.183930 0.297511 0.087571
Si Si6 0.184336 0.876604 0.912062
O O1 0.251081 0.500000 0.500000
O O2 0.250000 0.541035 0.750000
O O3 0.235207 0.583528 0.506420
O O4 0.000000 0.537230 0.599871
O O5 0.250000 0.039295 0.750000
O O6 0.500000 0.039150 0.596714
O O7 0.258813 0.083814 0.509764
O O8 0.250837 0.000000 0.500000
O O9 0.250000 0.383360 0.750000
O O10 0.500000 0.369562 0.906757
O O11 0.235934 0.334616 0.979839
O O12 0.250000 0.791255 0.750000
O O13 0.252083 0.746632 0.515106
O O14 0.246606 0.833509 0.511237
O O15 0.000000 0.788596 0.584596
O O16 0.250000 0.305602 0.250000
O O17 0.000000 0.295478 0.098897
O O18 0.250000 0.883606 0.750000
O O19 0.000000 0.872869 0.903347
#
# Coordination Sequence:
#
# PCOD8218065 Si02
#       6
#     8   8   8   8   8   8
#     4  10  22  39  60  87 117 150 189 232 279 333
#     4  10  22  38  56  80 109 142 181 224 270 323
#     4  11  23  39  58  83 115 151 192 235 284 337
#     4  10  18  31  53  81 111 144 184 227 276 330
#     4  11  21  36  58  84 114 148 189 235 282 332
#     4  10  19  33  54  81 111 143 182 225 273 327
#
# _framework density 19.594671999999999
#
# number of rings (size 3 to 8) (size 9 to 14) (size 15 to 20)
#    0.000    1.667    0.000    7.500    0.000    4.667 
#    0.000    0.833    0.000    2.000    0.000    0.000 
#    0.000    0.000    0.000    0.000    0.000    0.000 
#
# Total GULP energy -595237.672871 kJ/mol
# GULP energy per Si atom -12400.784851 kJ/mol
# Density = 1.955007 g / cm^3
# Si number density = 19.594672 Si / 1000 Ang^3
#
#
#
# Elastic Constant Matrix: (Units=GPa)
#
#
# Indices 1 2 3 4 5 6 
#
# 1 105.3991 64.0596 39.2156 0.0000 0.0000 0.0000
# 2 64.0596 207.8143 86.7576 0.0000 0.0000 0.0000
# 3 39.2156 86.7576 129.3746 0.0000 0.0000 0.0000
# 4 0.0000 0.0000 0.0000 38.3049 0.0000 0.0000
# 5 0.0000 0.0000 0.0000 0.0000 31.1141 0.0000
# 6 0.0000 0.0000 0.0000 0.0000 0.0000 33.6462
#
#
#
# Elastic Compliance Matrix: (Units=1/GPa)
#
#
# Indices 1 2 3 4 5 6 
#
# 1 0.011907 -0.003005 -0.001594 0.000000 0.000000 0.000000
# 2 -0.003005 0.007441 -0.004079 0.000000 0.000000 0.000000
# 3 -0.001594 -0.004079 0.010948 0.000000 0.000000 0.000000
# 4 0.000000 0.000000 0.000000 0.026106 0.000000 0.000000
# 5 0.000000 0.000000 0.000000 0.000000 0.032140 0.000000
# 6 0.000000 0.000000 0.000000 0.000000 0.000000 0.029721
#
#
# Mechanical properties :
#
#
# Convention : Reuss Voigt Hill
#
# Bulk Modulus (GPa) = 77.27955 91.40596 84.34275
# Shear Modulus (GPa) = 35.73118 37.45004 36.59061
#
# Velocity S-wave (km/s) = 4.27490 4.37651 4.32600
# Velocity P-wave (km/s) = 7.99318 8.50224 8.25164
#
# Compressibility (1/GPa) = 0.01294003
#
# Stress axis : x y z
#
# Youngs Moduli (GPa) = 83.98263 134.38633 91.33919
#
# Poissons Ratio (x) = 0.40382 0.14561
# Poissons Ratio (y) = 0.25236 0.37259
# Poissons Ratio (z) = 0.13389 0.54819
#
# Static dielectric constant tensor:
#      x y z
#    x 3.605350 0.000000 0.000000 
#    y 0.000000 4.472980 0.000000 
#    z 0.000000 0.000000 4.371580 
# 
# 
# High freq. dielectric constant tensor:
#      x y z
#    x 1.771470 0.000000 0.000000 
#    y 0.000000 1.792930 0.000000 
#    z 0.000000 0.000000 1.741470 
# 
# From -- ./inp_files/6729.got.cif
#   From: 2010.03.12/outbox.cif.g09.slc.cpg/sg53_4_cif.got.tgz:6729.got - 2010.04.16 14:36:59.
