data_PCOD8218369
_publ_section_title
;
Structure prediction by ZEFSAII (Michael W. Deem and Ramdas Pophale) SiO2 
 PCOD8218369
Probable space group: P M N A
;
_chemical_formula_sum "Si O2"
_cell_formula_units_Z 64
_cell_length_a 9.259001
_cell_length_b 15.336510
_cell_length_c 28.379074
_cell_angle_alpha 90.000000
_cell_angle_beta 90.000000
_cell_angle_gamma 90.000000
_cell_volume 4029.850117
_symmetry_space_group_name_H-M "P M N A"
_symmetry_group_IT_number 53
_symmetry_cell_setting 'orthorhombic'
loop_
_space_group_symop_operation_xyz
x,y,z
1/2-x,-y,1/2+z
x,-y,-z
1/2-x,y,1/2-z
-x,-y,-z
1/2+x,y,1/2-z
-x,y,z
1/2+x,-y,1/2+z
loop_
_atom_site_type_symbol
_atom_site_label
_atom_site_fract_x
_atom_site_fract_y
_atom_site_fract_z
Si Si1 0.334046 0.338029 0.605518
Si Si2 0.169562 0.812523 0.545106
Si Si3 0.830009 0.392171 0.202916
Si Si4 0.666459 0.166170 0.550786
Si Si5 0.333173 0.594812 0.295506
Si Si6 0.830361 0.515351 0.447186
Si Si7 0.658829 0.997971 0.055995
Si Si8 0.330274 0.346096 0.111914
O O1 0.500000 0.367934 0.601441
O O2 0.312939 0.237838 0.591347
O O3 0.281028 0.350124 0.659275
O O4 0.242855 0.397336 0.570780
O O5 0.254042 0.801777 0.496247
O O6 0.215059 0.735517 0.579886
O O7 0.000000 0.808866 0.532753
O O8 0.207988 0.904407 0.571125
O O9 0.750000 0.359518 0.250000
O O10 0.797050 0.493936 0.194746
O O11 0.761851 0.339264 0.159532
O O12 0.000000 0.372703 0.206797
O O13 0.500000 0.150895 0.538156
O O14 0.729884 0.076293 0.572359
O O15 0.250000 0.630504 0.250000
O O16 0.500000 0.608700 0.284703
O O17 0.774913 0.500000 0.500000
O O18 0.785552 0.433397 0.415490
O O19 0.000000 0.531203 0.446317
O O20 0.500000 0.976163 0.076733
O O21 0.651714 0.000000 0.000000
O O22 0.500000 0.344977 0.123964
#
# Coordination Sequence:
#
# PCOD8218369 Si02
#       8
#     8   8   8   8   8   8   8   8
#     4  10  20  33  45  64  93 124 153 185 229 274
#     4   9  18  32  48  66  93 126 156 190 229 272
#     4  10  19  32  50  68  90 119 153 193 235 275
#     4  10  19  29  45  68  94 123 155 192 230 271
#     4   9  18  32  48  65  87 115 150 190 229 270
#     4  10  20  31  44  64  91 124 159 190 217 256
#     4   8  15  29  47  65  88 120 154 189 231 272
#     4  10  19  31  47  68  93 121 156 192 229 271
#
# _framework density 15.881484
#
# number of rings (size 3 to 8) (size 9 to 14) (size 15 to 20)
#    0.000    2.500    1.250    2.250    0.000    6.000 
#    0.000    0.000    0.000    0.000    0.000    0.875 
#    0.000    4.000    0.000    0.000    0.000    0.000 
#
# Total GULP energy -793581.592389 kJ/mol
# GULP energy per Si atom -12399.712381 kJ/mol
# Density = 1.584534 g / cm^3
# Si number density = 15.881484 Si / 1000 Ang^3
#
#
#
# Elastic Constant Matrix: (Units=GPa)
#
#
# Indices 1 2 3 4 5 6 
#
# 1 58.1514 28.5623 37.7030 0.0000 0.0000 0.0000
# 2 28.5623 68.2636 22.9043 0.0000 0.0000 0.0000
# 3 37.7030 22.9043 85.7609 0.0000 0.0000 0.0000
# 4 0.0000 0.0000 0.0000 11.5262 0.0000 0.0000
# 5 0.0000 0.0000 0.0000 0.0000 22.2337 0.0000
# 6 0.0000 0.0000 0.0000 0.0000 0.0000 76.7581
#
#
#
# Elastic Compliance Matrix: (Units=1/GPa)
#
#
# Indices 1 2 3 4 5 6 
#
# 1 0.027721 -0.008249 -0.009984 0.000000 0.000000 0.000000
# 2 -0.008249 0.018546 -0.001326 0.000000 0.000000 0.000000
# 3 -0.009984 -0.001326 0.016404 0.000000 0.000000 0.000000
# 4 0.000000 0.000000 0.000000 0.086759 0.000000 0.000000
# 5 0.000000 0.000000 0.000000 0.000000 0.044977 0.000000
# 6 0.000000 0.000000 0.000000 0.000000 0.000000 0.013028
#
#
# Mechanical properties :
#
#
# Convention : Reuss Voigt Hill
#
# Bulk Modulus (GPa) = 42.45969 43.39059 42.92514
# Shear Modulus (GPa) = 19.65374 30.30403 24.97889
#
# Velocity S-wave (km/s) = 3.52166 4.37296 3.97020
# Velocity P-wave (km/s) = 6.58252 7.27172 6.93568
#
# Compressibility (1/GPa) = 0.02355175
#
# Stress axis : x y z
#
# Youngs Moduli (GPa) = 36.07312 53.92092 60.96118
#
# Poissons Ratio (x) = 0.44480 0.60864
# Poissons Ratio (y) = 0.29757 0.08086
# Poissons Ratio (z) = 0.36016 0.07152
#
# Static dielectric constant tensor:
#      x y z
#    x 3.031000 0.000000 0.000000 
#    y 0.000000 3.169500 0.000000 
#    z 0.000000 0.000000 2.919120 
# 
# 
# High freq. dielectric constant tensor:
#      x y z
#    x 1.613600 0.000000 0.000000 
#    y 0.000000 1.599260 0.000000 
#    z 0.000000 0.000000 1.589470 
# 
# From -- ./inp_files/38503.got.cif
#   From: 2010.03.12/outbox.cif.g09.slc.cpg/sg53_20_cif.got.tgz:38503.got - 2010.04.16 14:36:59.
