data_PCOD8218349
_publ_section_title
;
Structure prediction by ZEFSAII (Michael W. Deem and Ramdas Pophale) SiO2 
 PCOD8218349
Probable space group: P M N A
;
_chemical_formula_sum "Si O2"
_cell_formula_units_Z 64
_cell_length_a 9.284339
_cell_length_b 21.279828
_cell_length_c 18.384089
_cell_angle_alpha 90.000000
_cell_angle_beta 90.000000
_cell_angle_gamma 90.000000
_cell_volume 3632.128599
_symmetry_space_group_name_H-M "P M N A"
_symmetry_group_IT_number 53
_symmetry_cell_setting 'orthorhombic'
loop_
_space_group_symop_operation_xyz
x,y,z
1/2-x,-y,1/2+z
x,-y,-z
1/2-x,y,1/2-z
-x,-y,-z
1/2+x,y,1/2-z
-x,y,z
1/2+x,-y,1/2+z
loop_
_atom_site_type_symbol
_atom_site_label
_atom_site_fract_x
_atom_site_fract_y
_atom_site_fract_z
Si Si1 0.325038 0.509622 0.827259
Si Si2 0.839259 0.435774 0.044444
Si Si3 0.654455 0.927415 0.188726
Si Si4 0.160993 0.938563 0.955016
Si Si5 0.668595 0.741429 0.324895
Si Si6 0.829889 0.390422 0.893940
Si Si7 0.157306 0.927586 0.685921
Si Si8 0.340597 0.138445 0.587403
O O1 0.250000 0.526043 0.750000
O O2 0.500000 0.510244 0.821169
O O3 0.272752 0.561136 0.887872
O O4 0.268083 0.441939 0.853434
O O5 0.000000 0.421719 0.075383
O O6 0.840449 0.500000 0.000000
O O7 0.795862 0.385624 0.981172
O O8 0.750000 0.892708 0.250000
O O9 0.500000 0.893738 0.186763
O O10 0.735540 0.917157 0.113440
O O11 0.636469 0.000001 0.206662
O O12 0.267404 0.921671 0.890895
O O13 0.000000 0.952404 0.924868
O O14 0.159756 0.873409 0.001170
O O15 0.212770 0.000000 0.000000
O O16 0.750000 0.754689 0.250000
O O17 0.500000 0.742481 0.308546
O O18 0.715353 0.675064 0.358282
O O19 0.712466 0.793232 0.386078
O O20 0.000000 0.406308 0.882429
O O21 0.250000 0.894692 0.750000
O O22 0.000000 0.895203 0.681983
O O23 0.500000 0.126112 0.619265
#
# Coordination Sequence:
#
# PCOD8218349 Si02
#       8
#     8   8   8   8   8   8   8   8
#     4  11  20  29  45  71 102 133 166 204 246 291
#     4   8  15  29  47  67  94 127 162 201 247 293
#     4  10  19  29  43  63  89 120 152 186 227 276
#     4  10  19  32  50  70  95 125 156 193 241 293
#     4  10  21  35  50  70  97 131 170 204 236 277
#     4   9  18  33  50  68  95 132 170 206 243 285
#     4  10  20  32  48  69  93 119 150 187 230 285
#     4  10  20  33  48  67  93 125 160 198 238 283
#
# _framework density 17.620522000000001
#
# number of rings (size 3 to 8) (size 9 to 14) (size 15 to 20)
#    0.000    2.250    1.250    3.375    0.000    7.000 
#    0.000    0.000    0.000    0.000    0.000    0.875 
#    0.000    0.000    0.000    0.000    0.000    0.000 
#
# Total GULP energy -792913.659520 kJ/mol
# GULP energy per Si atom -12389.275930 kJ/mol
# Density = 1.758042 g / cm^3
# Si number density = 17.620522 Si / 1000 Ang^3
#
#
#
# Elastic Constant Matrix: (Units=GPa)
#
#
# Indices 1 2 3 4 5 6 
#
# 1 117.0611 17.0757 66.7192 0.0000 0.0000 0.0000
# 2 17.0757 42.3373 29.2134 0.0000 0.0000 0.0000
# 3 66.7192 29.2134 119.8802 0.0000 0.0000 0.0000
# 4 0.0000 0.0000 0.0000 25.6259 0.0000 0.0000
# 5 0.0000 0.0000 0.0000 0.0000 32.5970 0.0000
# 6 0.0000 0.0000 0.0000 0.0000 0.0000 14.5314
#
#
#
# Elastic Compliance Matrix: (Units=1/GPa)
#
#
# Indices 1 2 3 4 5 6 
#
# 1 0.012514 -0.000290 -0.006894 0.000000 0.000000 0.000000
# 2 -0.000290 0.028401 -0.006759 0.000000 0.000000 0.000000
# 3 -0.006894 -0.006759 0.013826 0.000000 0.000000 0.000000
# 4 0.000000 0.000000 0.000000 0.039023 0.000000 0.000000
# 5 0.000000 0.000000 0.000000 0.000000 0.030678 0.000000
# 6 0.000000 0.000000 0.000000 0.000000 0.000000 0.068816
#
#
# Mechanical properties :
#
#
# Convention : Reuss Voigt Hill
#
# Bulk Modulus (GPa) = 37.23916 56.14391 46.69153
# Shear Modulus (GPa) = 21.73001 25.63555 23.68278
#
# Velocity S-wave (km/s) = 3.51554 3.81841 3.67010
# Velocity P-wave (km/s) = 6.13665 7.16745 6.67199
#
# Compressibility (1/GPa) = 0.02685345
#
# Stress axis : x y z
#
# Youngs Moduli (GPa) = 79.90963 35.20993 72.32902
#
# Poissons Ratio (x) = 0.01022 0.49864
# Poissons Ratio (y) = 0.02320 0.48891
# Poissons Ratio (z) = 0.55090 0.23800
#
# Static dielectric constant tensor:
#      x y z
#    x 3.518660 0.000000 0.000000 
#    y 0.000000 3.031990 0.000000 
#    z 0.000000 0.000000 3.456410 
# 
# 
# High freq. dielectric constant tensor:
#      x y z
#    x 1.688360 0.000000 0.000000 
#    y 0.000000 1.626280 0.000000 
#    z 0.000000 0.000000 1.684450 
# 
# From -- ./inp_files/27045.got.cif
#   From: 2010.03.12/outbox.cif.g09.slc.cpg/sg53_14_cif.got.tgz:27045.got - 2010.04.16 14:36:59.
