data_PCOD8218722
_publ_section_title
;
Structure prediction by ZEFSAII (Michael W. Deem and Ramdas Pophale) SiO2 
 PCOD8218722
Probable space group: P M N A
;
_chemical_formula_sum "Si O2"
_cell_formula_units_Z 48
_cell_length_a 8.810193
_cell_length_b 16.354658
_cell_length_c 18.157002
_cell_angle_alpha 90.000000
_cell_angle_beta 90.000000
_cell_angle_gamma 90.000000
_cell_volume 2616.200538
_symmetry_space_group_name_H-M "P M N A"
_symmetry_group_IT_number 53
_symmetry_cell_setting 'orthorhombic'
loop_
_space_group_symop_operation_xyz
x,y,z
1/2-x,-y,1/2+z
x,-y,-z
1/2-x,y,1/2-z
-x,-y,-z
1/2+x,y,1/2-z
-x,y,z
1/2+x,-y,1/2+z
loop_
_atom_site_type_symbol
_atom_site_label
_atom_site_fract_x
_atom_site_fract_y
_atom_site_fract_z
Si Si1 0.322936 0.332561 0.674692
Si Si2 0.178434 0.013229 0.671649
Si Si3 0.820476 0.153548 0.170556
Si Si4 0.176642 0.741129 0.549595
Si Si5 0.322489 0.591428 0.478097
Si Si6 0.674945 0.182844 0.895843
O O1 0.250000 0.366173 0.750000
O O2 0.500000 0.332395 0.687087
O O3 0.275791 0.391608 0.606845
O O4 0.271382 0.239909 0.658434
O O5 0.250000 0.034845 0.750000
O O6 0.214328 0.088140 0.617283
O O7 0.000000 0.997809 0.680810
O O8 0.254626 0.931682 0.638359
O O9 0.750000 0.170946 0.250000
O O10 0.774041 0.227570 0.117990
O O11 0.000000 0.147838 0.177199
O O12 0.226938 0.648985 0.532184
O O13 0.214769 0.798807 0.480287
O O14 0.000000 0.742829 0.570032
O O15 0.278561 0.500000 0.500000
O O16 0.500000 0.609465 0.489708
O O17 0.500000 0.201945 0.878597
#
# Coordination Sequence:
#
# PCOD8218722 Si02
#       6
#     8   8   8   8   8   8
#     4  10  19  31  51  77 106 138 171 210 256 308
#     4  10  19  32  49  72 102 138 177 216 258 300
#     4  11  22  37  55  75 101 136 177 219 261 305
#     4  10  20  36  56  79 105 134 170 212 261 314
#     4   9  19  37  58  79 105 138 174 214 261 312
#     4   9  19  33  51  75 105 139 173 211 255 306
#
# _framework density 18.347217000000001
#
# number of rings (size 3 to 8) (size 9 to 14) (size 15 to 20)
#    0.000    2.167    0.000    4.500    0.000    5.000 
#    0.000    4.167    0.000    2.000    0.000    0.000 
#    0.000    0.000    0.000    0.000    0.000    0.000 
#
# Total GULP energy -595330.014246 kJ/mol
# GULP energy per Si atom -12402.708630 kJ/mol
# Density = 1.830546 g / cm^3
# Si number density = 18.347217 Si / 1000 Ang^3
#
#
#
# Elastic Constant Matrix: (Units=GPa)
#
#
# Indices 1 2 3 4 5 6 
#
# 1 101.4010 54.0823 48.6841 0.0000 0.0000 0.0000
# 2 54.0823 119.3770 70.6715 0.0000 0.0000 0.0000
# 3 48.6841 70.6715 96.3349 0.0000 0.0000 0.0000
# 4 0.0000 0.0000 0.0000 22.9714 0.0000 0.0000
# 5 0.0000 0.0000 0.0000 0.0000 30.0480 0.0000
# 6 0.0000 0.0000 0.0000 0.0000 0.0000 29.4509
#
#
#
# Elastic Compliance Matrix: (Units=1/GPa)
#
#
# Indices 1 2 3 4 5 6 
#
# 1 0.013927 -0.003788 -0.004259 0.000000 0.000000 0.000000
# 2 -0.003788 0.015838 -0.009705 0.000000 0.000000 0.000000
# 3 -0.004259 -0.009705 0.019652 0.000000 0.000000 0.000000
# 4 0.000000 0.000000 0.000000 0.043532 0.000000 0.000000
# 5 0.000000 0.000000 0.000000 0.000000 0.033280 0.000000
# 6 0.000000 0.000000 0.000000 0.000000 0.000000 0.033955
#
#
# Mechanical properties :
#
#
# Convention : Reuss Voigt Hill
#
# Bulk Modulus (GPa) = 71.87180 73.77653 72.82417
# Shear Modulus (GPa) = 24.95927 26.07239 25.51583
#
# Velocity S-wave (km/s) = 3.69234 3.77378 3.73328
# Velocity P-wave (km/s) = 7.57866 7.69981 7.63947
#
# Compressibility (1/GPa) = 0.01391366
#
# Stress axis : x y z
#
# Youngs Moduli (GPa) = 71.80220 63.13926 50.88467
#
# Poissons Ratio (x) = 0.23917 0.21674
# Poissons Ratio (y) = 0.27198 0.49381
# Poissons Ratio (z) = 0.30584 0.61274
#
# Static dielectric constant tensor:
#      x y z
#    x 3.439620 0.000000 0.000000 
#    y 0.000000 3.313290 0.000000 
#    z 0.000000 0.000000 3.352350 
# 
# 
# High freq. dielectric constant tensor:
#      x y z
#    x 1.721990 0.000000 0.000000 
#    y 0.000000 1.700590 0.000000 
#    z 0.000000 0.000000 1.707000 
# 
# From -- ./inp_files/26405.got.cif
#   From: 2010.03.12/outbox.cif.g09.slc.cpg/sg53_14_cif.got.tgz:26405.got - 2010.04.16 14:36:59.
