data_PCOD8218410
_publ_section_title
;
Structure prediction by ZEFSAII (Michael W. Deem and Ramdas Pophale) SiO2 
 PCOD8218410
Probable space group: P M N A
;
_chemical_formula_sum "Si O2"
_cell_formula_units_Z 56
_cell_length_a 9.112786
_cell_length_b 16.203861
_cell_length_c 24.657997
_cell_angle_alpha 90.000000
_cell_angle_beta 90.000000
_cell_angle_gamma 90.000000
_cell_volume 3641.056986
_symmetry_space_group_name_H-M "P M N A"
_symmetry_group_IT_number 53
_symmetry_cell_setting 'orthorhombic'
loop_
_space_group_symop_operation_xyz
x,y,z
1/2-x,-y,1/2+z
x,-y,-z
1/2-x,y,1/2-z
-x,-y,-z
1/2+x,y,1/2-z
-x,y,z
1/2+x,-y,1/2+z
loop_
_atom_site_type_symbol
_atom_site_label
_atom_site_fract_x
_atom_site_fract_y
_atom_site_fract_z
Si Si1 0.170709 0.473239 0.412335
Si Si2 0.670026 0.629744 0.015154
Si Si3 0.675726 0.870441 0.595987
Si Si4 0.671630 0.768347 0.696622
Si Si5 0.827230 0.577718 0.805343
Si Si6 0.824891 0.797309 0.016342
Si Si7 0.161164 0.962602 0.059662
O O1 0.199452 0.562012 0.438874
O O2 0.220968 0.403916 0.456074
O O3 0.265003 0.469789 0.357533
O O4 0.000000 0.461484 0.397963
O O5 0.500000 0.652568 0.012440
O O6 0.759365 0.709987 0.033561
O O7 0.500000 0.875101 0.595531
O O8 0.736570 0.823315 0.648197
O O9 0.728692 0.817835 0.544383
O O10 0.740615 0.965116 0.595047
O O11 0.750000 0.801333 0.750000
O O12 0.500000 0.781194 0.703715
O O13 0.710421 0.673460 0.685365
O O14 0.750000 0.546093 0.750000
O O15 0.000000 0.561201 0.800345
O O16 0.000000 0.793268 0.019814
O O17 0.763711 0.871624 0.055801
O O18 0.000000 0.948149 0.084459
O O19 0.145646 0.000000 0.000000
#
# Coordination Sequence:
#
# PCOD8218410 Si02
#       7
#     8   8   8   8   8   8   8
#     4   9  18  32  45  59  83 115 147 173 206 256
#     4   9  18  30  43  60  86 117 141 169 215 260
#     4   8  13  23  39  58  81 108 134 163 200 237
#     4   9  17  27  39  57  81 107 135 164 195 235
#     4  10  19  30  45  65  87 111 140 175 212 248
#     4   9  15  24  41  63  82 102 135 172 202 241
#     4   7  11  20  36  58  80 101 127 160 196 233
#
# _framework density 15.38015
#
# number of rings (size 3 to 8) (size 9 to 14) (size 15 to 20)
#    0.000    3.286    0.000    3.857    0.000    2.857 
#    0.000    2.143    0.000    4.714    0.000    1.000 
#    0.000    4.571    0.000    0.000    0.000    0.000 
#
# Total GULP energy -693792.251202 kJ/mol
# GULP energy per Si atom -12389.147343 kJ/mol
# Density = 1.534514 g / cm^3
# Si number density = 15.380150 Si / 1000 Ang^3
#
#
#
# Elastic Constant Matrix: (Units=GPa)
#
#
# Indices 1 2 3 4 5 6 
#
# 1 36.2596 29.8171 31.8554 0.0000 0.0000 0.0000
# 2 29.8171 98.1727 36.7130 0.0000 0.0000 0.0000
# 3 31.8554 36.7130 90.6646 0.0000 0.0000 0.0000
# 4 0.0000 0.0000 0.0000 23.3927 0.0000 0.0000
# 5 0.0000 0.0000 0.0000 0.0000 22.2303 0.0000
# 6 0.0000 0.0000 0.0000 0.0000 0.0000 14.5498
#
#
#
# Elastic Compliance Matrix: (Units=1/GPa)
#
#
# Indices 1 2 3 4 5 6 
#
# 1 0.046229 -0.009388 -0.012441 0.000000 0.000000 0.000000
# 2 -0.009388 0.013910 -0.002334 0.000000 0.000000 0.000000
# 3 -0.012441 -0.002334 0.016346 0.000000 0.000000 0.000000
# 4 0.000000 0.000000 0.000000 0.042748 0.000000 0.000000
# 5 0.000000 0.000000 0.000000 0.000000 0.044984 0.000000
# 6 0.000000 0.000000 0.000000 0.000000 0.000000 0.068730
#
#
# Mechanical properties :
#
#
# Convention : Reuss Voigt Hill
#
# Bulk Modulus (GPa) = 35.51331 46.87421 41.19376
# Shear Modulus (GPa) = 17.20219 20.48198 18.84209
#
# Velocity S-wave (km/s) = 3.34798 3.65323 3.50393
# Velocity P-wave (km/s) = 6.17137 6.95255 6.57357
#
# Compressibility (1/GPa) = 0.02815845
#
# Stress axis : x y z
#
# Youngs Moduli (GPa) = 21.63139 71.88858 61.17650
#
# Poissons Ratio (x) = 0.67490 0.76111
# Poissons Ratio (y) = 0.20308 0.14280
# Poissons Ratio (z) = 0.26912 0.16780
#
# Static dielectric constant tensor:
#      x y z
#    x 2.649480 0.000000 0.000000 
#    y 0.000000 3.106250 0.000000 
#    z 0.000000 0.000000 2.876930 
# 
# 
# High freq. dielectric constant tensor:
#      x y z
#    x 1.562640 0.000000 0.000000 
#    y 0.000000 1.588320 0.000000 
#    z 0.000000 0.000000 1.566260 
# 
# From -- ./inp_files/34359.got.cif
#   From: 2010.03.12/outbox.cif.g09.slc.cpg/sg53_18_cif.got.tgz:34359.got - 2010.04.16 14:36:59.
