data_PCOD8218154
_publ_section_title
;
Structure prediction by ZEFSAII (Michael W. Deem and Ramdas Pophale) SiO2 
 PCOD8218154
Probable space group: P M N A
;
_chemical_formula_sum "Si O2"
_cell_formula_units_Z 52
_cell_length_a 9.189440
_cell_length_b 14.506089
_cell_length_c 20.157125
_cell_angle_alpha 90.000000
_cell_angle_beta 90.000000
_cell_angle_gamma 90.000000
_cell_volume 2687.001898
_symmetry_space_group_name_H-M "P M N A"
_symmetry_group_IT_number 53
_symmetry_cell_setting 'orthorhombic'
loop_
_space_group_symop_operation_xyz
x,y,z
1/2-x,-y,1/2+z
x,-y,-z
1/2-x,y,1/2-z
-x,-y,-z
1/2+x,y,1/2-z
-x,y,z
1/2+x,-y,1/2+z
loop_
_atom_site_type_symbol
_atom_site_label
_atom_site_fract_x
_atom_site_fract_y
_atom_site_fract_z
Si Si1 0.167686 0.161597 0.898218
Si Si2 0.663305 0.706835 0.866238
Si Si3 0.832060 0.518534 0.682200
Si Si4 0.250000 0.835768 0.750000
Si Si5 0.826411 0.853842 0.534509
Si Si6 0.830783 0.684647 0.319703
Si Si7 0.159579 0.036529 0.136307
O O1 0.260415 0.246083 0.871217
O O2 0.000000 0.191947 0.906428
O O3 0.181724 0.072832 0.849588
O O4 0.236079 0.133400 0.968296
O O5 0.500000 0.689216 0.887782
O O6 0.736691 0.605236 0.858387
O O7 0.661939 0.767745 0.798763
O O8 0.732870 0.761227 0.928244
O O9 0.750000 0.511572 0.750000
O O10 0.814512 0.418184 0.647983
O O11 0.000000 0.540544 0.697438
O O12 0.344402 0.904619 0.704377
O O13 0.786648 0.935908 0.585187
O O14 0.000000 0.855181 0.521796
O O15 0.750000 0.693124 0.250000
O O16 0.000000 0.708802 0.308600
O O17 0.000000 0.050225 0.103198
#
# Coordination Sequence:
#
# PCOD8218154 Si02
#       7
#     8   8   8   4   8   8   8
#     4  11  23  39  57  77 109 150 191 233 275 322
#     4   9  17  31  53  81 112 140 173 217 271 330
#     4   9  17  32  54  82 111 140 173 217 272 330
#     4  10  18  32  54  82 112 142 174 222 274 334
#     4  10  21  37  57  82 110 147 189 228 273 333
#     4  10  21  37  58  83 111 142 181 225 273 328
#     4  10  22  37  55  81 112 146 185 231 279 325
#
# _framework density 19.352423000000002
#
# number of rings (size 3 to 8) (size 9 to 14) (size 15 to 20)
#    0.000    2.154    0.769    2.308    1.077    4.308 
#    0.000    1.538    0.000    4.615    0.000    0.000 
#    0.000    0.000    0.000    0.000    0.000    0.000 
#
# Total GULP energy -644197.252111 kJ/mol
# GULP energy per Si atom -12388.408694 kJ/mol
# Density = 1.930838 g / cm^3
# Si number density = 19.352423 Si / 1000 Ang^3
#
#
#
# Elastic Constant Matrix: (Units=GPa)
#
#
# Indices 1 2 3 4 5 6 
#
# 1 91.7447 43.4342 19.2956 0.0000 0.0000 0.0000
# 2 43.4342 141.3256 34.1954 0.0000 0.0000 0.0000
# 3 19.2956 34.1954 55.0629 0.0000 0.0000 0.0000
# 4 0.0000 0.0000 0.0000 22.3063 0.0000 0.0000
# 5 0.0000 0.0000 0.0000 0.0000 28.4040 0.0000
# 6 0.0000 0.0000 0.0000 0.0000 0.0000 43.1922
#
#
#
# Elastic Compliance Matrix: (Units=1/GPa)
#
#
# Indices 1 2 3 4 5 6 
#
# 1 0.013030 -0.003413 -0.002447 0.000000 0.000000 0.000000
# 2 -0.003413 0.009221 -0.004531 0.000000 0.000000 0.000000
# 3 -0.002447 -0.004531 0.021832 0.000000 0.000000 0.000000
# 4 0.000000 0.000000 0.000000 0.044830 0.000000 0.000000
# 5 0.000000 0.000000 0.000000 0.000000 0.035206 0.000000
# 6 0.000000 0.000000 0.000000 0.000000 0.000000 0.023152
#
#
# Mechanical properties :
#
#
# Convention : Reuss Voigt Hill
#
# Bulk Modulus (GPa) = 42.91265 53.55373 48.23319
# Shear Modulus (GPa) = 28.43827 31.52770 29.98298
#
# Velocity S-wave (km/s) = 3.83756 4.04063 3.94040
# Velocity P-wave (km/s) = 6.46979 7.03576 6.75870
#
# Compressibility (1/GPa) = 0.02330315
#
# Stress axis : x y z
#
# Youngs Moduli (GPa) = 76.74597 108.44974 45.80422
#
# Poissons Ratio (x) = 0.37009 0.11207
# Poissons Ratio (y) = 0.26190 0.20752
# Poissons Ratio (z) = 0.18778 0.49133
#
# Static dielectric constant tensor:
#      x y z
#    x 3.494150 0.000000 0.000000 
#    y 0.000000 4.202360 0.000000 
#    z 0.000000 0.000000 3.342970 
# 
# 
# High freq. dielectric constant tensor:
#      x y z
#    x 1.747910 0.000000 0.000000 
#    y 0.000000 1.772300 0.000000 
#    z 0.000000 0.000000 1.725570 
# 
# From -- ./inp_files/30642.got.cif
#   From: 2010.03.12/outbox.cif.g09.slc.cpg/sg53_16_cif.got.tgz:30642.got - 2010.04.16 14:36:59.
