data_PCOD8218719
_publ_section_title
;
Structure prediction by ZEFSAII (Michael W. Deem and Ramdas Pophale) SiO2 
 PCOD8218719
Probable space group: P M N A
;
_chemical_formula_sum "Si O2"
_cell_formula_units_Z 48
_cell_length_a 18.351682
_cell_length_b 26.902651
_cell_length_c 5.107060
_cell_angle_alpha 90.000000
_cell_angle_beta 90.000000
_cell_angle_gamma 90.000000
_cell_volume 2521.400955
_symmetry_space_group_name_H-M "P M N A"
_symmetry_group_IT_number 53
_symmetry_cell_setting 'orthorhombic'
loop_
_space_group_symop_operation_xyz
x,y,z
1/2-x,-y,1/2+z
x,-y,-z
1/2-x,y,1/2-z
-x,-y,-z
1/2+x,y,1/2-z
-x,y,z
1/2+x,-y,1/2+z
loop_
_atom_site_type_symbol
_atom_site_label
_atom_site_fract_x
_atom_site_fract_y
_atom_site_fract_z
Si Si1 0.835932 0.469168 0.752363
Si Si2 0.416411 0.863860 0.387665
Si Si3 0.916776 0.368875 0.868384
Si Si4 0.416649 0.801533 0.902570
Si Si5 0.297415 0.942331 0.497678
Si Si6 0.916711 0.307105 0.353308
O O1 0.862589 0.500000 0.500000
O O2 0.750000 0.461133 0.750000
O O3 0.871688 0.415656 0.769753
O O4 0.862615 0.500000 0.000000
O O5 0.500000 0.880681 0.340950
O O6 0.409572 0.825126 0.620246
O O7 0.372389 0.912495 0.474031
O O8 0.382560 0.837186 0.128161
O O9 0.910692 0.329240 0.639534
O O10 0.000000 0.385728 0.918209
O O11 0.882093 0.343510 0.130721
O O12 0.500000 0.793498 0.990823
O O13 0.378557 0.747230 0.875603
O O14 0.250000 0.927304 0.750000
O O15 0.319203 0.000000 0.500000
O O16 0.250000 0.928151 0.250000
O O17 0.000000 0.299649 0.261383
#
# Coordination Sequence:
#
# PCOD8218719 Si02
#       6
#     8   8   8   8   8   8
#     4  10  21  36  52  70  95 129 164 199 246 299
#     4  10  19  32  54  81 104 133 176 221 258 297
#     4  10  19  31  51  76  99 127 163 203 244 287
#     4   9  17  30  50  77 107 135 166 208 257 306
#     4  10  21  37  55  75 104 143 178 211 263 323
#     4   9  17  30  49  75 104 131 161 199 246 298
#
# _framework density 19.037036000000001
#
# number of rings (size 3 to 8) (size 9 to 14) (size 15 to 20)
#    0.000    2.333    0.000    3.000    0.000    5.000 
#    0.000    0.000    0.000   16.000    0.000    0.000 
#    0.000    0.000    0.000    0.000    0.000    0.000 
#
# Total GULP energy -595061.876279 kJ/mol
# GULP energy per Si atom -12397.122422 kJ/mol
# Density = 1.899371 g / cm^3
# Si number density = 19.037036 Si / 1000 Ang^3
#
#
#
# Elastic Constant Matrix: (Units=GPa)
#
#
# Indices 1 2 3 4 5 6 
#
# 1 40.2317 41.7898 19.9892 0.0000 0.0000 0.0000
# 2 41.7898 108.5789 27.1507 0.0000 0.0000 0.0000
# 3 19.9892 27.1507 119.7592 0.0000 0.0000 0.0000
# 4 0.0000 0.0000 0.0000 42.2205 0.0000 0.0000
# 5 0.0000 0.0000 0.0000 0.0000 -60.6161 0.0000
# 6 0.0000 0.0000 0.0000 0.0000 0.0000 2.8520
#
#
#
# Elastic Compliance Matrix: (Units=1/GPa)
#
#
# Indices 1 2 3 4 5 6 
#
# 1 0.042841 -0.015584 -0.003618 0.000000 0.000000 0.000000
# 2 -0.015584 0.015432 -0.000898 0.000000 0.000000 0.000000
# 3 -0.003618 -0.000898 0.009157 0.000000 0.000000 0.000000
# 4 0.000000 0.000000 0.000000 0.023685 0.000000 0.000000
# 5 0.000000 0.000000 0.000000 0.000000 -0.016497 0.000000
# 6 0.000000 0.000000 0.000000 0.000000 0.000000 0.350632
#
#
# Mechanical properties :
#
#
# Convention : Reuss Voigt Hill
#
# Bulk Modulus (GPa) = 36.72094 49.60326 43.16210
# Shear Modulus (GPa) = 10.53683 8.86727 9.70205
#
# Velocity S-wave (km/s) = 2.35519 2.16056 2.25997
# Velocity P-wave (km/s) = 5.16981 5.68654 5.43432
#
# Compressibility (1/GPa) = 0.02723242
#
# Stress axis : x y z
#
# Youngs Moduli (GPa) = 23.34207 64.79903 109.20152
#
# Poissons Ratio (x) = 1.00983 0.39505
# Poissons Ratio (y) = 0.36376 0.09801
# Poissons Ratio (z) = 0.08444 0.05816
#
# Static dielectric constant tensor:
#      x y z
#    x 3.095350 0.000000 0.000000 
#    y 0.000000 3.493830 0.000000 
#    z 0.000000 0.000000 3.693430 
# 
# 
# High freq. dielectric constant tensor:
#      x y z
#    x 1.689910 0.000000 0.000000 
#    y 0.000000 1.750520 0.000000 
#    z 0.000000 0.000000 1.764310 
# 
# From -- ./inp_files/1426.got.cif
#   From: 2010.03.12/outbox.cif.g09.slc.cpg/sg53_1_cif.got.tgz:1426.got - 2010.04.16 14:36:59.
