data_PCOD8218101
_publ_section_title
;
Structure prediction by ZEFSAII (Michael W. Deem and Ramdas Pophale) SiO2 
 PCOD8218101
Probable space group: P M N A
;
_chemical_formula_sum "Si O2"
_cell_formula_units_Z 64
_cell_length_a 9.116069
_cell_length_b 18.866826
_cell_length_c 21.577492
_cell_angle_alpha 90.000000
_cell_angle_beta 90.000000
_cell_angle_gamma 90.000000
_cell_volume 3711.140633
_symmetry_space_group_name_H-M "P M N A"
_symmetry_group_IT_number 53
_symmetry_cell_setting 'orthorhombic'
loop_
_space_group_symop_operation_xyz
x,y,z
1/2-x,-y,1/2+z
x,-y,-z
1/2-x,y,1/2-z
-x,-y,-z
1/2+x,y,1/2-z
-x,y,z
1/2+x,-y,1/2+z
loop_
_atom_site_type_symbol
_atom_site_label
_atom_site_fract_x
_atom_site_fract_y
_atom_site_fract_z
Si Si1 0.335847 0.292962 0.808181
Si Si2 0.833631 0.158887 0.614290
Si Si3 0.172382 0.949464 0.558429
Si Si4 0.672750 0.668711 0.986210
Si Si5 0.825648 0.180188 0.007592
Si Si6 0.167225 0.458062 0.064074
Si Si7 0.329443 0.416525 0.889903
Si Si8 0.169108 0.975361 0.313287
O O1 0.250000 0.263943 0.750000
O O2 0.500000 0.296902 0.784841
O O3 0.319460 0.239752 0.865245
O O4 0.284608 0.370757 0.829859
O O5 0.719588 0.148253 0.559046
O O6 0.797747 0.107284 0.671859
O O7 0.000000 0.142595 0.590184
O O8 0.264787 0.876623 0.556775
O O9 0.000000 0.932339 0.556718
O O10 0.213751 0.000000 0.500000
O O11 0.218478 0.983420 0.624440
O O12 0.500000 0.678527 0.974641
O O13 0.741265 0.614996 0.935433
O O14 0.751356 0.744100 0.980128
O O15 0.707907 0.633566 0.052029
O O16 0.000000 0.187797 0.012462
O O17 0.236151 0.511492 0.114473
O O18 0.000000 0.440598 0.081121
O O19 0.181462 0.500000 0.000000
O O20 0.500000 0.437089 0.891501
O O21 0.250000 0.998781 0.250000
O O22 0.000000 0.989347 0.299651
#
# Coordination Sequence:
#
# PCOD8218101 Si02
#       8
#     8   8   8   8   8   8   8   8
#     4  10  20  32  47  68  98 136 180 221 256 303
#     4  10  19  36  53  70 101 144 183 213 257 321
#     4  10  20  38  59  76 103 144 183 215 262 329
#     4  10  18  32  51  69  97 134 169 202 248 314
#     4  12  23  32  50  80 109 136 172 224 273 309
#     4   9  17  28  44  70  99 123 156 203 249 291
#     4   9  17  30  47  66  92 132 173 206 247 302
#     4  10  21  36  58  80 104 139 179 224 268 317
#
# _framework density 17.245372
#
# number of rings (size 3 to 8) (size 9 to 14) (size 15 to 20)
#    0.000    2.000    2.500    2.250    0.000    4.250 
#    0.000    0.000    0.000    0.000    0.000    0.875 
#    0.000    0.000    0.000    0.000    0.000    0.000 
#
# Total GULP energy -793316.587464 kJ/mol
# GULP energy per Si atom -12395.571679 kJ/mol
# Density = 1.720612 g / cm^3
# Si number density = 17.245372 Si / 1000 Ang^3
#
#
#
# Elastic Constant Matrix: (Units=GPa)
#
#
# Indices 1 2 3 4 5 6 
#
# 1 98.8105 61.8677 37.2008 0.0000 0.0000 0.0000
# 2 61.8677 103.2577 39.8126 0.0000 0.0000 0.0000
# 3 37.2008 39.8126 77.3822 0.0000 0.0000 0.0000
# 4 0.0000 0.0000 0.0000 -6.1758 0.0000 0.0000
# 5 0.0000 0.0000 0.0000 0.0000 25.1201 0.0000
# 6 0.0000 0.0000 0.0000 0.0000 0.0000 27.7040
#
#
#
# Elastic Compliance Matrix: (Units=1/GPa)
#
#
# Indices 1 2 3 4 5 6 
#
# 1 0.016987 -0.008768 -0.003655 0.000000 0.000000 0.000000
# 2 -0.008768 0.016607 -0.004329 0.000000 0.000000 0.000000
# 3 -0.003655 -0.004329 0.016907 0.000000 0.000000 0.000000
# 4 0.000000 0.000000 0.000000 -0.161923 0.000000 0.000000
# 5 0.000000 0.000000 0.000000 0.000000 0.039809 0.000000
# 6 0.000000 0.000000 0.000000 0.000000 0.000000 0.036096
#
#
# Mechanical properties :
#
#
# Convention : Reuss Voigt Hill
#
# Bulk Modulus (GPa) = 58.83584 61.91253 60.37419
# Shear Modulus (GPa) = 1368.95081 18.70095 693.82588
#
# Velocity S-wave (km/s) = 28.20516 3.29660 20.07982
# Velocity P-wave (km/s) = 33.08926 7.10415 23.93082
#
# Compressibility (1/GPa) = 0.01699644
#
# Stress axis : x y z
#
# Youngs Moduli (GPa) = 58.87026 60.21448 59.14669
#
# Poissons Ratio (x) = 0.52799 0.21617
# Poissons Ratio (y) = 0.51620 0.25605
# Poissons Ratio (z) = 0.21516 0.26067
#
# Static dielectric constant tensor:
#      x y z
#    x 3.180740 0.000000 0.000000 
#    y 0.000000 3.392980 0.000000 
#    z 0.000000 0.000000 2.479800 
# 
# 
# High freq. dielectric constant tensor:
#      x y z
#    x 1.664840 0.000000 0.000000 
#    y 0.000000 1.669790 0.000000 
#    z 0.000000 0.000000 1.626300 
# 
# From -- ./inp_files/34497.got.cif
#   From: 2010.03.12/outbox.cif.g09.slc.cpg/sg53_18_cif.got.tgz:34497.got - 2010.04.16 14:36:59.
