data_PCOD8218618
_publ_section_title
;
Structure prediction by ZEFSAII (Michael W. Deem and Ramdas Pophale) SiO2 
 PCOD8218618
Probable space group: P M N A
;
_chemical_formula_sum "Si O2"
_cell_formula_units_Z 56
_cell_length_a 9.263382
_cell_length_b 17.922671
_cell_length_c 19.749886
_cell_angle_alpha 90.000000
_cell_angle_beta 90.000000
_cell_angle_gamma 90.000000
_cell_volume 3278.965895
_symmetry_space_group_name_H-M "P M N A"
_symmetry_group_IT_number 53
_symmetry_cell_setting 'orthorhombic'
loop_
_space_group_symop_operation_xyz
x,y,z
1/2-x,-y,1/2+z
x,-y,-z
1/2-x,y,1/2-z
-x,-y,-z
1/2+x,y,1/2-z
-x,y,z
1/2+x,-y,1/2+z
loop_
_atom_site_type_symbol
_atom_site_label
_atom_site_fract_x
_atom_site_fract_y
_atom_site_fract_z
Si Si1 0.164393 0.143253 0.569978
Si Si2 0.164863 0.149558 0.065456
Si Si3 0.159802 0.008053 0.918954
Si Si4 0.169327 0.410773 0.317979
Si Si5 0.333483 0.583582 0.183697
Si Si6 0.167337 0.313370 0.074528
Si Si7 0.667818 0.307565 0.934530
O O1 0.221578 0.150066 0.494405
O O2 0.186688 0.226003 0.601335
O O3 0.000000 0.119279 0.567745
O O4 0.242309 0.075408 0.610110
O O5 0.197349 0.075127 0.111089
O O6 0.180655 0.228514 0.104320
O O7 0.000000 0.142295 0.036972
O O8 0.000000 0.031252 0.897540
O O9 0.176868 0.000000 0.000000
O O10 0.250000 0.385019 0.250000
O O11 0.198303 0.497473 0.332555
O O12 0.236178 0.366760 0.380306
O O13 0.000000 0.392844 0.310986
O O14 0.250000 0.610781 0.250000
O O15 0.500000 0.597976 0.198737
O O16 0.281628 0.631055 0.119438
O O17 0.000000 0.339079 0.074679
O O18 0.227849 0.317125 0.998496
O O19 0.500000 0.318622 0.956433
#
# Coordination Sequence:
#
# PCOD8218618 Si02
#       7
#     8   8   8   8   8   8   8
#     4   9  15  22  36  59  86 115 148 185 223 265
#     4   8  15  26  38  55  84 120 151 181 220 266
#     4   8  13  22  35  52  80 117 150 179 217 264
#     4  10  20  35  53  71  92 120 154 191 232 278
#     4   9  19  35  53  70  91 121 156 192 230 276
#     4  10  19  31  48  71  97 124 156 193 231 273
#     4   9  18  32  47  67  97 128 154 187 234 280
#
# _framework density 17.078555999999999
#
# number of rings (size 3 to 8) (size 9 to 14) (size 15 to 20)
#    0.000    3.000    0.000    2.143    0.000    5.429 
#    0.000    2.857    0.000    0.000    0.000    1.000 
#    0.000    4.571    0.000    0.000    0.000    0.000 
#
# Total GULP energy -693783.226798 kJ/mol
# GULP energy per Si atom -12388.986193 kJ/mol
# Density = 1.703968 g / cm^3
# Si number density = 17.078556 Si / 1000 Ang^3
#
#
#
# Elastic Constant Matrix: (Units=GPa)
#
#
# Indices 1 2 3 4 5 6 
#
# 1 96.1471 58.0611 37.1504 0.0000 0.0000 0.0000
# 2 58.0611 111.4747 48.9169 0.0000 0.0000 0.0000
# 3 37.1504 48.9169 54.6670 0.0000 0.0000 0.0000
# 4 0.0000 0.0000 0.0000 -0.1406 0.0000 0.0000
# 5 0.0000 0.0000 0.0000 0.0000 20.6227 0.0000
# 6 0.0000 0.0000 0.0000 0.0000 0.0000 28.5029
#
#
#
# Elastic Compliance Matrix: (Units=1/GPa)
#
#
# Indices 1 2 3 4 5 6 
#
# 1 0.016181 -0.005931 -0.005688 0.000000 0.000000 0.000000
# 2 -0.005931 0.016945 -0.011132 0.000000 0.000000 0.000000
# 3 -0.005688 -0.011132 0.032119 0.000000 0.000000 0.000000
# 4 0.000000 0.000000 0.000000 -7.113960 0.000000 0.000000
# 5 0.000000 0.000000 0.000000 0.000000 0.048490 0.000000
# 6 0.000000 0.000000 0.000000 0.000000 0.000000 0.035084
#
#
# Mechanical properties :
#
#
# Convention : Reuss Voigt Hill
#
# Bulk Modulus (GPa) = 50.65472 61.17173 55.91323
# Shear Modulus (GPa) = -0.72327 17.67438 8.47555
#
# Velocity S-wave (km/s) = -0.65147 3.22046 2.23013
# Velocity P-wave (km/s) = 5.39985 7.05153 6.28022
#
# Compressibility (1/GPa) = 0.01974150
#
# Stress axis : x y z
#
# Youngs Moduli (GPa) = 61.80274 59.01557 31.13430
#
# Poissons Ratio (x) = 0.35004 0.17710
# Poissons Ratio (y) = 0.36658 0.34657
# Poissons Ratio (z) = 0.35156 0.65693
#
# Static dielectric constant tensor:
#      x y z
#    x 3.284760 0.000000 0.000000 
#    y 0.000000 3.846820 0.000000 
#    z 0.000000 0.000000 2.660500 
# 
# 
# High freq. dielectric constant tensor:
#      x y z
#    x 1.669350 0.000000 0.000000 
#    y 0.000000 1.683390 0.000000 
#    z 0.000000 0.000000 1.588700 
# 
# From -- ./inp_files/31009.got.cif
#   From: 2010.03.12/outbox.cif.g09.slc.cpg/sg53_16_cif.got.tgz:31009.got - 2010.04.16 14:36:59.
