data_PCOD8218499
_publ_section_title
;
Structure prediction by ZEFSAII (Michael W. Deem and Ramdas Pophale) SiO2 
 PCOD8218499
Probable space group: P M N A
;
_chemical_formula_sum "Si O2"
_cell_formula_units_Z 40
_cell_length_a 25.848187
_cell_length_b 16.621853
_cell_length_c 4.983616
_cell_angle_alpha 90.000000
_cell_angle_beta 90.000000
_cell_angle_gamma 90.000000
_cell_volume 2141.184523
_symmetry_space_group_name_H-M "P M N A"
_symmetry_group_IT_number 53
_symmetry_cell_setting 'orthorhombic'
loop_
_space_group_symop_operation_xyz
x,y,z
1/2-x,-y,1/2+z
x,-y,-z
1/2-x,y,1/2-z
-x,-y,-z
1/2+x,y,1/2-z
-x,y,z
1/2+x,-y,1/2+z
loop_
_atom_site_type_symbol
_atom_site_label
_atom_site_fract_x
_atom_site_fract_y
_atom_site_fract_z
Si Si1 0.343945 0.226151 0.141821
Si Si2 0.558316 0.670113 0.861440
Si Si3 0.903037 0.586041 0.140512
Si Si4 0.694655 0.311390 0.653323
Si Si5 0.689837 0.946247 0.750898
O O1 0.402979 0.255043 0.102198
O O2 0.310092 0.279501 0.349650
O O3 0.344225 0.134278 0.237478
O O4 0.317970 0.236377 0.850469
O O5 0.500000 0.700384 0.907676
O O6 0.564613 0.643171 0.555261
O O7 0.570750 0.595479 0.065571
O O8 0.843903 0.613382 0.182421
O O9 0.904608 0.500000 0.000000
O O10 0.750000 0.344876 0.750000
O O11 0.750000 0.921155 0.750000
O O12 0.674073 0.000000 0.500000
O O13 0.675114 0.000000 0.000000
#
# Coordination Sequence:
#
# PCOD8218499 Si02
#       5
#     8   8   8   8   8
#     4  10  20  34  52  74 103 133 170 211 245 300
#     4  10  21  36  55  75  97 133 174 214 259 299
#     4  10  21  35  51  77 105 129 168 215 258 305
#     4  10  19  33  52  73 100 138 172 201 247 304
#     4  10  19  30  48  75 103 131 161 198 249 300
#
# _framework density 18.681248
#
# number of rings (size 3 to 8) (size 9 to 14) (size 15 to 20)
#    0.000    2.000    0.000    4.200    0.000    4.000 
#    0.000    6.000    0.000    1.200    0.000    0.000 
#    0.000    0.000    0.000    0.000    0.000    0.000 
#
# Total GULP energy -495820.195011 kJ/mol
# GULP energy per Si atom -12395.504875 kJ/mol
# Density = 1.863873 g / cm^3
# Si number density = 18.681248 Si / 1000 Ang^3
#
#
#
# Elastic Constant Matrix: (Units=GPa)
#
#
# Indices 1 2 3 4 5 6 
#
# 1 127.3302 43.8723 31.9553 0.0000 0.0000 0.0000
# 2 43.8723 76.6138 12.4423 0.0000 0.0000 0.0000
# 3 31.9553 12.4423 98.1150 0.0000 0.0000 0.0000
# 4 0.0000 0.0000 0.0000 129.4682 0.0000 0.0000
# 5 0.0000 0.0000 0.0000 0.0000 19.9244 0.0000
# 6 0.0000 0.0000 0.0000 0.0000 0.0000 13.9952
#
#
#
# Elastic Compliance Matrix: (Units=1/GPa)
#
#
# Indices 1 2 3 4 5 6 
#
# 1 0.010439 -0.005540 -0.002697 0.000000 0.000000 0.000000
# 2 -0.005540 0.016267 -0.000259 0.000000 0.000000 0.000000
# 3 -0.002697 -0.000259 0.011103 0.000000 0.000000 0.000000
# 4 0.000000 0.000000 0.000000 0.007724 0.000000 0.000000
# 5 0.000000 0.000000 0.000000 0.000000 0.050190 0.000000
# 6 0.000000 0.000000 0.000000 0.000000 0.000000 0.071453
#
#
# Mechanical properties :
#
#
# Convention : Reuss Voigt Hill
#
# Bulk Modulus (GPa) = 48.03589 53.17765 50.60677
# Shear Modulus (GPa) = 26.16323 46.93016 36.54670
#
# Velocity S-wave (km/s) = 3.74640 5.01758 4.42784
# Velocity P-wave (km/s) = 6.66957 7.88008 7.29996
#
# Compressibility (1/GPa) = 0.02081777
#
# Stress axis : x y z
#
# Youngs Moduli (GPa) = 95.79101 61.47457 90.06202
#
# Poissons Ratio (x) = 0.34057 0.24294
# Poissons Ratio (y) = 0.53068 0.02328
# Poissons Ratio (z) = 0.25840 0.01589
#
# Static dielectric constant tensor:
#      x y z
#    x 3.312810 0.000000 0.000000 
#    y 0.000000 3.118980 0.000000 
#    z 0.000000 0.000000 3.768290 
# 
# 
# High freq. dielectric constant tensor:
#      x y z
#    x 1.707650 0.000000 0.000000 
#    y 0.000000 1.698320 0.000000 
#    z 0.000000 0.000000 1.753660 
# 
# From -- ./inp_files/3642.got.cif
#   From: 2010.03.12/outbox.cif.g09.slc.cpg/sg53_2_cif.got.tgz:3642.got - 2010.04.16 14:36:59.
