data_PCOD8218734
_publ_section_title
;
Structure prediction by ZEFSAII (Michael W. Deem and Ramdas Pophale) SiO2 
 PCOD8218734
Probable space group: P M N A
;
_chemical_formula_sum "Si O2"
_cell_formula_units_Z 40
_cell_length_a 14.126066
_cell_length_b 10.305839
_cell_length_c 14.345818
_cell_angle_alpha 90.000000
_cell_angle_beta 90.000000
_cell_angle_gamma 90.000000
_cell_volume 2088.477984
_symmetry_space_group_name_H-M "P M N A"
_symmetry_group_IT_number 53
_symmetry_cell_setting 'orthorhombic'
loop_
_space_group_symop_operation_xyz
x,y,z
1/2-x,-y,1/2+z
x,-y,-z
1/2-x,y,1/2-z
-x,-y,-z
1/2+x,y,1/2-z
-x,y,z
1/2+x,-y,1/2+z
loop_
_atom_site_type_symbol
_atom_site_label
_atom_site_fract_x
_atom_site_fract_y
_atom_site_fract_z
Si Si1 0.395184 0.014888 0.610008
Si Si2 0.893319 0.596846 0.417239
Si Si3 0.107128 0.517863 0.210987
Si Si4 0.708006 0.268350 0.594034
Si Si5 0.111069 0.733460 0.897498
O O1 0.500000 0.051180 0.649664
O O2 0.320047 0.127229 0.635532
O O3 0.402144 0.000000 0.500000
O O4 0.360295 0.873813 0.646995
O O5 0.864978 0.500000 0.500000
O O6 0.884547 0.515710 0.322095
O O7 0.821764 0.719429 0.416209
O O8 0.000000 0.651153 0.430616
O O9 0.175049 0.625114 0.167856
O O10 0.139773 0.376282 0.176215
O O11 0.000000 0.547686 0.178513
O O12 0.661934 0.296150 0.494565
O O13 0.000000 0.734815 0.919681
#
# Coordination Sequence:
#
# PCOD8218734 Si02
#       5
#     8   8   8   8   8
#     4   8  15  28  48  78 113 137 151 184 252 325
#     4  10  22  37  50  67  97 139 183 221 250 282
#     4  10  19  31  52  81 105 126 162 210 256 302
#     4  11  18  29  53  80 106 133 162 203 255 308
#     4   9  17  30  52  84 113 131 152 196 262 322
#
# _framework density 19.152704
#
# number of rings (size 3 to 8) (size 9 to 14) (size 15 to 20)
#    0.000    2.400    0.000    5.400    0.000    1.600 
#    0.000    0.000    0.000   24.600    0.000   19.600 
#    0.000    0.000    0.000    0.000    0.000    0.000 
#
# Total GULP energy -495852.160355 kJ/mol
# GULP energy per Si atom -12396.304009 kJ/mol
# Density = 1.910911 g / cm^3
# Si number density = 19.152704 Si / 1000 Ang^3
#
#
#
# Elastic Constant Matrix: (Units=GPa)
#
#
# Indices 1 2 3 4 5 6 
#
# 1 96.4329 58.8680 28.3117 0.0000 0.0000 0.0000
# 2 58.8680 145.2334 40.8035 0.0000 0.0000 0.0000
# 3 28.3117 40.8035 70.8819 0.0000 0.0000 0.0000
# 4 0.0000 0.0000 0.0000 5.3758 0.0000 0.0000
# 5 0.0000 0.0000 0.0000 0.0000 7.0976 0.0000
# 6 0.0000 0.0000 0.0000 0.0000 0.0000 15.7481
#
#
#
# Elastic Compliance Matrix: (Units=1/GPa)
#
#
# Indices 1 2 3 4 5 6 
#
# 1 0.014237 -0.004978 -0.002821 0.000000 0.000000 0.000000
# 2 -0.004978 0.009955 -0.003742 0.000000 0.000000 0.000000
# 3 -0.002821 -0.003742 0.017389 0.000000 0.000000 0.000000
# 4 0.000000 0.000000 0.000000 0.186017 0.000000 0.000000
# 5 0.000000 0.000000 0.000000 0.000000 0.140893 0.000000
# 6 0.000000 0.000000 0.000000 0.000000 0.000000 0.063500
#
#
# Mechanical properties :
#
#
# Convention : Reuss Voigt Hill
#
# Bulk Modulus (GPa) = 54.05903 63.16830 58.61367
# Shear Modulus (GPa) = 10.84038 17.94865 14.39452
#
# Velocity S-wave (km/s) = 2.38165 3.06459 2.74444
# Velocity P-wave (km/s) = 5.98745 6.75094 6.38063
#
# Compressibility (1/GPa) = 0.01849830
#
# Stress axis : x y z
#
# Youngs Moduli (GPa) = 70.23919 100.45561 57.50835
#
# Poissons Ratio (x) = 0.50009 0.16222
# Poissons Ratio (y) = 0.34967 0.21520
# Poissons Ratio (z) = 0.19813 0.37591
#
# Static dielectric constant tensor:
#      x y z
#    x 3.683000 0.000000 0.000000 
#    y 0.000000 4.103030 0.000000 
#    z 0.000000 0.000000 3.281260 
# 
# 
# High freq. dielectric constant tensor:
#      x y z
#    x 1.743170 0.000000 0.000000 
#    y 0.000000 1.736860 0.000000 
#    z 0.000000 0.000000 1.722910 
# 
# From -- ./inp_files/22414.got.cif
#   From: 2010.03.12/outbox.cif.g09.slc.cpg/sg53_12_cif.got.tgz:22414.got - 2010.04.16 14:36:59.
