data_PCOD8218407
_publ_section_title
;
Structure prediction by ZEFSAII (Michael W. Deem and Ramdas Pophale) SiO2 
 PCOD8218407
Probable space group: P M N A
;
_chemical_formula_sum "Si O2"
_cell_formula_units_Z 64
_cell_length_a 9.703713
_cell_length_b 19.058440
_cell_length_c 18.966261
_cell_angle_alpha 90.000000
_cell_angle_beta 90.000000
_cell_angle_gamma 90.000000
_cell_volume 3507.575397
_symmetry_space_group_name_H-M "P M N A"
_symmetry_group_IT_number 53
_symmetry_cell_setting 'orthorhombic'
loop_
_space_group_symop_operation_xyz
x,y,z
1/2-x,-y,1/2+z
x,-y,-z
1/2-x,y,1/2-z
-x,-y,-z
1/2+x,y,1/2-z
-x,y,z
1/2+x,-y,1/2+z
loop_
_atom_site_type_symbol
_atom_site_label
_atom_site_fract_x
_atom_site_fract_y
_atom_site_fract_z
Si Si1 0.337836 0.642689 0.179604
Si Si2 0.650985 0.119295 0.192935
Si Si3 0.155587 0.929467 0.917154
Si Si4 0.660990 0.214346 0.901475
Si Si5 0.663652 0.430556 0.962239
Si Si6 0.336120 0.706506 0.963226
Si Si7 0.154885 0.087683 0.917831
Si Si8 0.348992 0.720754 0.807525
O O1 0.250000 0.628054 0.250000
O O2 0.500000 0.636022 0.197144
O O3 0.305368 0.721001 0.150771
O O4 0.294923 0.584651 0.119755
O O5 0.750000 0.080909 0.250000
O O6 0.500000 0.082729 0.189104
O O7 0.728025 0.118247 0.118242
O O8 0.629278 0.199308 0.215466
O O9 0.000000 0.908026 0.894394
O O10 0.184273 0.009130 0.890796
O O11 0.175473 0.917298 0.998985
O O12 0.500000 0.196487 0.898519
O O13 0.744216 0.144046 0.880743
O O14 0.709901 0.234080 0.980999
O O15 0.500000 0.432815 0.965364
O O16 0.726094 0.500000 0.000000
O O17 0.721093 0.367581 0.009756
O O18 0.500000 0.706947 0.960877
O O19 0.277866 0.718060 0.884710
O O20 0.000000 0.111120 0.899047
O O21 0.250000 0.683193 0.750000
O O22 0.500000 0.683449 0.807374
#
# Coordination Sequence:
#
# PCOD8218407 Si02
#       8
#     8   8   8   8   8   8   8   8
#     4   9  18  32  51  75 101 128 159 199 243 285
#     4  10  19  30  45  63  83 113 151 187 226 272
#     4   9  18  32  46  63  90 119 148 186 234 287
#     4   9  17  30  48  69  91 117 156 200 236 277
#     4   8  14  27  49  74  97 125 162 195 223 265
#     4   8  14  26  44  65  90 119 151 189 226 260
#     4   9  18  31  47  67  91 118 147 187 239 285
#     4   9  17  28  42  62  89 118 147 184 228 269
#
# _framework density 18.246223000000001
#
# number of rings (size 3 to 8) (size 9 to 14) (size 15 to 20)
#    0.000    3.125    0.000    3.375    0.000    3.000 
#    0.000    3.125    0.000    2.625    0.000    0.000 
#    0.000    0.000    0.000    0.000    0.000    0.000 
#
# Total GULP energy -792863.890656 kJ/mol
# GULP energy per Si atom -12388.498291 kJ/mol
# Density = 1.820469 g / cm^3
# Si number density = 18.246223 Si / 1000 Ang^3
#
#
#
# Elastic Constant Matrix: (Units=GPa)
#
#
# Indices 1 2 3 4 5 6 
#
# 1 75.0592 20.6631 37.4425 0.0000 0.0000 0.0000
# 2 20.6631 61.8135 11.7069 0.0000 0.0000 0.0000
# 3 37.4425 11.7069 95.7763 0.0000 0.0000 0.0000
# 4 0.0000 0.0000 0.0000 20.2923 0.0000 0.0000
# 5 0.0000 0.0000 0.0000 0.0000 28.7131 0.0000
# 6 0.0000 0.0000 0.0000 0.0000 0.0000 13.9546
#
#
#
# Elastic Compliance Matrix: (Units=1/GPa)
#
#
# Indices 1 2 3 4 5 6 
#
# 1 0.017814 -0.004746 -0.006384 0.000000 0.000000 0.000000
# 2 -0.004746 0.017825 -0.000324 0.000000 0.000000 0.000000
# 3 -0.006384 -0.000324 0.012976 0.000000 0.000000 0.000000
# 4 0.000000 0.000000 0.000000 0.049280 0.000000 0.000000
# 5 0.000000 0.000000 0.000000 0.000000 0.034827 0.000000
# 6 0.000000 0.000000 0.000000 0.000000 0.000000 0.071661
#
#
# Mechanical properties :
#
#
# Convention : Reuss Voigt Hill
#
# Bulk Modulus (GPa) = 38.89701 41.36378 40.13040
# Shear Modulus (GPa) = 21.19902 23.44777 22.32340
#
# Velocity S-wave (km/s) = 3.41226 3.58868 3.50158
# Velocity P-wave (km/s) = 6.07362 6.31589 6.19594
#
# Compressibility (1/GPa) = 0.02570892
#
# Stress axis : x y z
#
# Youngs Moduli (GPa) = 56.13602 56.09971 77.06365
#
# Poissons Ratio (x) = 0.26624 0.49198
# Poissons Ratio (y) = 0.26641 0.02493
# Poissons Ratio (z) = 0.35837 0.01815
#
# Static dielectric constant tensor:
#      x y z
#    x 3.312920 0.000000 0.000000 
#    y 0.000000 3.352810 0.000000 
#    z 0.000000 0.000000 3.366540 
# 
# 
# High freq. dielectric constant tensor:
#      x y z
#    x 1.682630 0.000000 0.000000 
#    y 0.000000 1.680910 0.000000 
#    z 0.000000 0.000000 1.702370 
# 
# From -- ./inp_files/31359.got.cif
#   From: 2010.03.12/outbox.cif.g09.slc.cpg/sg53_16_cif.got.tgz:31359.got - 2010.04.16 14:36:59.
