data_PCOD8218643
_publ_section_title
;
Structure prediction by ZEFSAII (Michael W. Deem and Ramdas Pophale) SiO2 
 PCOD8218643
Probable space group: P M N A
;
_chemical_formula_sum "Si O2"
_cell_formula_units_Z 64
_cell_length_a 9.561871
_cell_length_b 22.612383
_cell_length_c 16.469520
_cell_angle_alpha 90.000000
_cell_angle_beta 90.000000
_cell_angle_gamma 90.000000
_cell_volume 3560.985088
_symmetry_space_group_name_H-M "P M N A"
_symmetry_group_IT_number 53
_symmetry_cell_setting 'orthorhombic'
loop_
_space_group_symop_operation_xyz
x,y,z
1/2-x,-y,1/2+z
x,-y,-z
1/2-x,y,1/2-z
-x,-y,-z
1/2+x,y,1/2-z
-x,y,z
1/2+x,-y,1/2+z
loop_
_atom_site_type_symbol
_atom_site_label
_atom_site_fract_x
_atom_site_fract_y
_atom_site_fract_z
Si Si1 0.838276 0.113211 0.171919
Si Si2 0.658407 0.378171 0.816715
Si Si3 0.665798 0.135166 0.667711
Si Si4 0.158130 0.748105 0.821092
Si Si5 0.157469 0.329158 0.033921
Si Si6 0.664983 0.067842 0.502548
Si Si7 0.841767 0.728215 0.137916
Si Si8 0.158797 0.565944 0.489826
O O1 0.750000 0.088296 0.250000
O O2 0.822259 0.182796 0.168542
O O3 0.777715 0.093088 0.083792
O O4 0.000000 0.093096 0.183435
O O5 0.750000 0.413757 0.750000
O O6 0.500000 0.370423 0.787708
O O7 0.726884 0.312815 0.819565
O O8 0.668929 0.416523 0.896554
O O9 0.750000 0.115286 0.750000
O O10 0.500000 0.124410 0.682057
O O11 0.718712 0.099265 0.586560
O O12 0.699678 0.203716 0.650696
O O13 0.250000 0.721708 0.750000
O O14 0.214584 0.715803 0.899997
O O15 0.000000 0.731237 0.802126
O O16 0.250151 0.387873 0.039803
O O17 0.000000 0.350772 0.048857
O O18 0.168404 0.288968 0.955317
O O19 0.500000 0.076188 0.502323
O O20 0.712099 0.000000 0.500000
O O21 0.000000 0.716379 0.169888
O O22 0.219604 0.500000 0.500000
O O23 0.000000 0.568710 0.521982
#
# Coordination Sequence:
#
# PCOD8218643 Si02
#       8
#     8   8   8   8   8   8   8   8
#     4   9  17  31  52  75  98 126 162 204 248 294
#     4  10  19  31  49  72  96 122 153 189 230 276
#     4  10  20  33  50  73 101 133 165 199 243 293
#     4   9  17  29  46  70  98 124 153 193 241 289
#     4   9  17  30  49  71  93 121 158 198 237 280
#     4   9  18  33  52  72  96 131 172 206 240 290
#     4   9  17  30  49  72  98 125 154 192 239 289
#     4   9  19  35  51  67  91 124 158 191 230 275
#
# _framework density 17.972553999999999
#
# number of rings (size 3 to 8) (size 9 to 14) (size 15 to 20)
#    0.000    2.750    0.000    1.500    0.000    6.250 
#    0.000    1.250    0.000    6.750    0.000    0.000 
#    0.000    0.000    0.000    0.000    0.000    0.000 
#
# Total GULP energy -792930.977158 kJ/mol
# GULP energy per Si atom -12389.546518 kJ/mol
# Density = 1.793165 g / cm^3
# Si number density = 17.972554 Si / 1000 Ang^3
#
#
#
# Elastic Constant Matrix: (Units=GPa)
#
#
# Indices 1 2 3 4 5 6 
#
# 1 73.8791 30.5953 48.6610 0.0000 0.0000 0.0000
# 2 30.5953 61.8003 44.0750 0.0000 0.0000 0.0000
# 3 48.6610 44.0750 122.5272 0.0000 0.0000 0.0000
# 4 0.0000 0.0000 0.0000 3.3209 0.0000 0.0000
# 5 0.0000 0.0000 0.0000 0.0000 30.3729 0.0000
# 6 0.0000 0.0000 0.0000 0.0000 0.0000 19.0415
#
#
#
# Elastic Compliance Matrix: (Units=1/GPa)
#
#
# Indices 1 2 3 4 5 6 
#
# 1 0.019676 -0.005606 -0.005798 0.000000 0.000000 0.000000
# 2 -0.005606 0.023362 -0.006177 0.000000 0.000000 0.000000
# 3 -0.005798 -0.006177 0.012686 0.000000 0.000000 0.000000
# 4 0.000000 0.000000 0.000000 0.301127 0.000000 0.000000
# 5 0.000000 0.000000 0.000000 0.000000 0.032924 0.000000
# 6 0.000000 0.000000 0.000000 0.000000 0.000000 0.052517
#
#
# Mechanical properties :
#
#
# Convention : Reuss Voigt Hill
#
# Bulk Modulus (GPa) = 48.63336 56.09656 52.36496
# Shear Modulus (GPa) = 10.32402 19.53875 14.93138
#
# Velocity S-wave (km/s) = 2.39933 3.30076 2.88547
# Velocity P-wave (km/s) = 5.89867 6.76807 6.34827
#
# Compressibility (1/GPa) = 0.02056202
#
# Stress axis : x y z
#
# Youngs Moduli (GPa) = 50.82372 42.80441 78.82730
#
# Poissons Ratio (x) = 0.23997 0.45700
# Poissons Ratio (y) = 0.28493 0.48694
# Poissons Ratio (z) = 0.29465 0.26441
#
# Static dielectric constant tensor:
#      x y z
#    x 3.325460 0.000000 0.000000 
#    y 0.000000 3.202580 0.000000 
#    z 0.000000 0.000000 3.338740 
# 
# 
# High freq. dielectric constant tensor:
#      x y z
#    x 1.678690 0.000000 0.000000 
#    y 0.000000 1.682470 0.000000 
#    z 0.000000 0.000000 1.709250 
# 
# From -- ./inp_files/20992.got.cif
#   From: 2010.03.12/outbox.cif.g09.slc.cpg/sg53_11_cif.got.tgz:20992.got - 2010.04.16 14:36:59.
