data_PCOD8218549
_publ_section_title
;
Structure prediction by ZEFSAII (Michael W. Deem and Ramdas Pophale) SiO2 
 PCOD8218549
Probable space group: P M N A
;
_chemical_formula_sum "Si O2"
_cell_formula_units_Z 64
_cell_length_a 9.081150
_cell_length_b 20.444213
_cell_length_c 20.415572
_cell_angle_alpha 90.000000
_cell_angle_beta 90.000000
_cell_angle_gamma 90.000000
_cell_volume 3790.293134
_symmetry_space_group_name_H-M "P M N A"
_symmetry_group_IT_number 53
_symmetry_cell_setting 'orthorhombic'
loop_
_space_group_symop_operation_xyz
x,y,z
1/2-x,-y,1/2+z
x,-y,-z
1/2-x,y,1/2-z
-x,-y,-z
1/2+x,y,1/2-z
-x,y,z
1/2+x,-y,1/2+z
loop_
_atom_site_type_symbol
_atom_site_label
_atom_site_fract_x
_atom_site_fract_y
_atom_site_fract_z
Si Si1 0.165853 0.276494 0.339894
Si Si2 0.833764 0.302237 0.034121
Si Si3 0.330680 0.553978 0.549688
Si Si4 0.830043 0.577578 0.686348
Si Si5 0.674432 0.021359 0.186059
Si Si6 0.168913 0.152528 0.151160
Si Si7 0.835902 0.833004 0.003584
Si Si8 0.673571 0.048454 0.944704
O O1 0.204977 0.292577 0.414370
O O2 0.183257 0.344426 0.301615
O O3 0.276420 0.219887 0.314170
O O4 0.000000 0.249448 0.336582
O O5 0.819031 0.376988 0.009764
O O6 0.000000 0.292180 0.064593
O O7 0.812532 0.244739 0.979476
O O8 0.264514 0.500000 0.500000
O O9 0.500000 0.537805 0.566592
O O10 0.244598 0.554492 0.618551
O O11 0.750000 0.545441 0.750000
O O12 0.000000 0.555397 0.684449
O O13 0.750000 0.989876 0.250000
O O14 0.500000 0.021983 0.193648
O O15 0.730547 0.094941 0.178103
O O16 0.726916 0.977247 0.125385
O O17 0.000000 0.139734 0.170429
O O18 0.192918 0.157804 0.073531
O O19 0.726902 0.877429 0.045622
O O20 0.000000 0.855508 0.022005
O O21 0.500000 0.048704 0.950053
O O22 0.740330 0.000000 0.000000
#
# Coordination Sequence:
#
# PCOD8218549 Si02
#       8
#     8   8   8   8   8   8   8   8
#     4   9  17  28  43  64  91 126 165 200 236 275
#     4   8  15  28  44  69 100 126 158 196 237 285
#     4   9  17  31  52  75 102 136 167 199 242 292
#     4  10  20  32  47  68  96 131 169 208 243 283
#     4  11  23  37  50  66  92 123 156 197 246 296
#     4  10  19  31  47  68  94 126 161 197 237 280
#     4   9  17  28  47  72  96 123 156 199 239 278
#     4  10  20  34  51  71  93 120 156 202 247 287
#
# _framework density 16.885238000000001
#
# number of rings (size 3 to 8) (size 9 to 14) (size 15 to 20)
#    0.000    2.500    1.250    2.250    0.000    5.500 
#    0.000    1.250    0.000    0.000    0.000    0.875 
#    0.000    2.000    0.000    0.000    0.000    0.000 
#
# Total GULP energy -793057.169371 kJ/mol
# GULP energy per Si atom -12391.518271 kJ/mol
# Density = 1.684681 g / cm^3
# Si number density = 16.885238 Si / 1000 Ang^3
#
#
#
# Elastic Constant Matrix: (Units=GPa)
#
#
# Indices 1 2 3 4 5 6 
#
# 1 67.7792 27.8910 44.0295 0.0000 0.0000 0.0000
# 2 27.8910 88.0621 49.3775 0.0000 0.0000 0.0000
# 3 44.0295 49.3775 90.0200 0.0000 0.0000 0.0000
# 4 0.0000 0.0000 0.0000 12.7254 0.0000 0.0000
# 5 0.0000 0.0000 0.0000 0.0000 22.1190 0.0000
# 6 0.0000 0.0000 0.0000 0.0000 0.0000 23.0327
#
#
#
# Elastic Compliance Matrix: (Units=1/GPa)
#
#
# Indices 1 2 3 4 5 6 
#
# 1 0.021732 -0.001333 -0.009898 0.000000 0.000000 0.000000
# 2 -0.001333 0.016481 -0.008388 0.000000 0.000000 0.000000
# 3 -0.009898 -0.008388 0.020551 0.000000 0.000000 0.000000
# 4 0.000000 0.000000 0.000000 0.078583 0.000000 0.000000
# 5 0.000000 0.000000 0.000000 0.000000 0.045210 0.000000
# 6 0.000000 0.000000 0.000000 0.000000 0.000000 0.043417
#
#
# Mechanical properties :
#
#
# Convention : Reuss Voigt Hill
#
# Bulk Modulus (GPa) = 51.21496 54.27302 52.74399
# Shear Modulus (GPa) = 18.40119 19.87964 19.14042
#
# Velocity S-wave (km/s) = 3.30476 3.43496 3.37049
# Velocity P-wave (km/s) = 6.70515 6.92416 6.81553
#
# Compressibility (1/GPa) = 0.01952554
#
# Stress axis : x y z
#
# Youngs Moduli (GPa) = 46.01465 60.67522 48.65931
#
# Poissons Ratio (x) = 0.08088 0.48164
# Poissons Ratio (y) = 0.06134 0.40817
# Poissons Ratio (z) = 0.45546 0.50896
#
# Static dielectric constant tensor:
#      x y z
#    x 3.189420 0.000000 0.000000 
#    y 0.000000 3.253020 0.000000 
#    z 0.000000 0.000000 3.062170 
# 
# 
# High freq. dielectric constant tensor:
#      x y z
#    x 1.658990 0.000000 0.000000 
#    y 0.000000 1.635480 0.000000 
#    z 0.000000 0.000000 1.615620 
# 
# From -- ./inp_files/31367.got.cif
#   From: 2010.03.12/outbox.cif.g09.slc.cpg/sg53_16_cif.got.tgz:31367.got - 2010.04.16 14:36:59.
