data_PCOD8218180
_publ_section_title
;
Structure prediction by ZEFSAII (Michael W. Deem and Ramdas Pophale) SiO2 
 PCOD8218180
Probable space group: P M N A
;
_chemical_formula_sum "Si O2"
_cell_formula_units_Z 48
_cell_length_a 14.036537
_cell_length_b 15.503795
_cell_length_c 10.555935
_cell_angle_alpha 90.000000
_cell_angle_beta 90.000000
_cell_angle_gamma 90.000000
_cell_volume 2297.178270
_symmetry_space_group_name_H-M "P M N A"
_symmetry_group_IT_number 53
_symmetry_cell_setting 'orthorhombic'
loop_
_space_group_symop_operation_xyz
x,y,z
1/2-x,-y,1/2+z
x,-y,-z
1/2-x,y,1/2-z
-x,-y,-z
1/2+x,y,1/2-z
-x,y,z
1/2+x,-y,1/2+z
loop_
_atom_site_type_symbol
_atom_site_label
_atom_site_fract_x
_atom_site_fract_y
_atom_site_fract_z
Si Si1 0.641782 0.211456 0.732860
Si Si2 0.613745 0.937284 0.888436
Si Si3 0.803822 0.587450 0.437765
Si Si4 0.105808 0.758597 0.511730
Si Si5 0.611255 0.974539 0.364405
Si Si6 0.895000 0.610640 0.165952
O O1 0.750000 0.242081 0.750000
O O2 0.594785 0.202488 0.870308
O O3 0.633424 0.125195 0.653766
O O4 0.592017 0.286307 0.651061
O O5 0.500000 0.938994 0.891157
O O6 0.654534 0.971097 0.753279
O O7 0.648922 0.838029 0.906183
O O8 0.652975 0.000000 0.000000
O O9 0.841898 0.500000 0.500000
O O10 0.827751 0.673291 0.520591
O O11 0.862645 0.593228 0.309104
O O12 0.688917 0.577520 0.425522
O O13 0.000000 0.733127 0.559501
O O14 0.500000 0.992836 0.368799
O O15 0.657784 0.000000 0.500000
O O16 0.000000 0.568670 0.137435
#
# Coordination Sequence:
#
# PCOD8218180 Si02
#       6
#     8   8   8   8   8   8
#     4  11  18  33  53  81 111 146 195 248 292 353
#     4   9  16  29  54  83 111 149 197 246 293 348
#     4  10  20  36  58  88 119 150 195 253 300 355
#     4  10  18  32  57  85 113 150 200 250 300 353
#     4  10  20  34  53  79 116 157 198 245 298 358
#     4  10  20  36  60  88 116 151 196 245 301 366
#
# _framework density 20.895201
#
# number of rings (size 3 to 8) (size 9 to 14) (size 15 to 20)
#    0.000    2.000    5.000    3.000    0.000    1.667 
#    3.000    0.000    7.333    0.000    0.000    0.000 
#    0.000    0.000    0.000    0.000    0.000    0.167 
#
# Total GULP energy -594828.094336 kJ/mol
# GULP energy per Si atom -12392.251965 kJ/mol
# Density = 2.084764 g / cm^3
# Si number density = 20.895201 Si / 1000 Ang^3
#
#
#
# Elastic Constant Matrix: (Units=GPa)
#
#
# Indices 1 2 3 4 5 6 
#
# 1 95.6960 32.3080 26.9596 0.0000 0.0000 0.0000
# 2 32.3080 140.9484 35.2140 0.0000 0.0000 0.0000
# 3 26.9596 35.2140 49.2269 0.0000 0.0000 0.0000
# 4 0.0000 0.0000 0.0000 18.2849 0.0000 0.0000
# 5 0.0000 0.0000 0.0000 0.0000 2.2866 0.0000
# 6 0.0000 0.0000 0.0000 0.0000 0.0000 -8.6630
#
#
#
# Elastic Compliance Matrix: (Units=1/GPa)
#
#
# Indices 1 2 3 4 5 6 
#
# 1 0.012584 -0.001416 -0.005879 0.000000 0.000000 0.000000
# 2 -0.001416 0.008798 -0.005518 0.000000 0.000000 0.000000
# 3 -0.005879 -0.005518 0.027481 0.000000 0.000000 0.000000
# 4 0.000000 0.000000 0.000000 0.054690 0.000000 0.000000
# 5 0.000000 0.000000 0.000000 0.000000 0.437340 0.000000
# 6 0.000000 0.000000 0.000000 0.000000 0.000000 -0.115434
#
#
# Mechanical properties :
#
#
# Convention : Reuss Voigt Hill
#
# Bulk Modulus (GPa) = 43.03436 52.75940 47.89688
# Shear Modulus (GPa) = 10.89727 15.14101 13.01914
#
# Velocity S-wave (km/s) = 2.28616 2.69479 2.49884
# Velocity P-wave (km/s) = 5.25440 5.91497 5.59444
#
# Compressibility (1/GPa) = 0.02323724
#
# Stress axis : x y z
#
# Youngs Moduli (GPa) = 79.46633 113.66285 36.38855
#
# Poissons Ratio (x) = 0.16091 0.21393
# Poissons Ratio (y) = 0.11250 0.20080
# Poissons Ratio (z) = 0.46718 0.62722
#
# Static dielectric constant tensor:
#      x y z
#    x 3.793560 0.000000 0.000000 
#    y 0.000000 3.793740 0.000000 
#    z 0.000000 0.000000 3.852780 
# 
# 
# High freq. dielectric constant tensor:
#      x y z
#    x 1.822370 0.000000 0.000000 
#    y 0.000000 1.814670 0.000000 
#    z 0.000000 0.000000 1.776740 
# 
# From -- ./inp_files/15915.got.cif
#   From: 2010.03.12/outbox.cif.g09.slc.cpg/sg53_8_cif.got.tgz:15915.got - 2010.04.16 14:36:59.
