data_PCOD8218838
_publ_section_title
;
Structure prediction by ZEFSAII (Michael W. Deem and Ramdas Pophale) SiO2 
 PCOD8218838
Probable space group: P M N A
;
_chemical_formula_sum "Si O2"
_cell_formula_units_Z 56
_cell_length_a 9.145525
_cell_length_b 22.516318
_cell_length_c 14.356104
_cell_angle_alpha 90.000000
_cell_angle_beta 90.000000
_cell_angle_gamma 90.000000
_cell_volume 2956.259888
_symmetry_space_group_name_H-M "P M N A"
_symmetry_group_IT_number 53
_symmetry_cell_setting 'orthorhombic'
loop_
_space_group_symop_operation_xyz
x,y,z
1/2-x,-y,1/2+z
x,-y,-z
1/2-x,y,1/2-z
-x,-y,-z
1/2+x,y,1/2-z
-x,y,z
1/2+x,-y,1/2+z
loop_
_atom_site_type_symbol
_atom_site_label
_atom_site_fract_x
_atom_site_fract_y
_atom_site_fract_z
Si Si1 0.171936 0.895897 0.842324
Si Si2 0.672275 0.592335 0.660972
Si Si3 0.330860 0.630185 0.455833
Si Si4 0.163140 0.520618 0.395070
Si Si5 0.328794 0.968767 0.341495
Si Si6 0.172996 0.139551 0.961583
Si Si7 0.328822 0.250890 0.652381
O O1 0.250000 0.871331 0.750000
O O2 0.000000 0.890909 0.826251
O O3 0.218156 0.963905 0.863814
O O4 0.224967 0.856748 0.930666
O O5 0.750000 0.624366 0.750000
O O6 0.500000 0.590425 0.677823
O O7 0.712042 0.627078 0.565520
O O8 0.734783 0.525343 0.659525
O O9 0.500000 0.612294 0.444501
O O10 0.236966 0.585404 0.392452
O O11 0.297514 0.695541 0.418444
O O12 0.151119 0.500000 0.500000
O O13 0.000000 0.523642 0.350690
O O14 0.250000 0.944811 0.250000
O O15 0.500000 0.964425 0.324035
O O16 0.278907 0.925030 0.424004
O O17 0.237922 0.192618 0.898751
O O18 0.000000 0.145413 0.959803
O O19 0.250000 0.261516 0.750000
O O20 0.500000 0.244061 0.673055
#
# Coordination Sequence:
#
# PCOD8218838 Si02
#       7
#     8   8   8   8   8   8   8
#     4   9  17  30  48  71  99 129 162 200 243 293
#     4  10  19  32  51  75 103 133 165 202 245 293
#     4   9  19  35  52  71 100 136 168 201 245 295
#     4   9  17  30  50  75 101 129 162 200 241 286
#     4   9  16  27  46  72  99 128 162 200 244 292
#     4   9  17  31  51  71  95 130 167 201 241 292
#     4  10  21  37  55  74  96 126 165 205 245 290
#
# _framework density 18.942852999999999
#
# number of rings (size 3 to 8) (size 9 to 14) (size 15 to 20)
#    0.000    2.714    0.000    1.714    0.000    5.143 
#    0.000    3.571    0.000    3.429    0.000    0.000 
#    0.000    0.000    0.000    0.000    0.000    0.000 
#
# Total GULP energy -694167.947287 kJ/mol
# GULP energy per Si atom -12395.856202 kJ/mol
# Density = 1.889974 g / cm^3
# Si number density = 18.942853 Si / 1000 Ang^3
#
#
#
# Elastic Constant Matrix: (Units=GPa)
#
#
# Indices 1 2 3 4 5 6 
#
# 1 57.2394 27.7664 43.3720 0.0000 0.0000 0.0000
# 2 27.7664 67.3565 46.4095 0.0000 0.0000 0.0000
# 3 43.3720 46.4095 140.8097 0.0000 0.0000 0.0000
# 4 0.0000 0.0000 0.0000 24.1229 0.0000 0.0000
# 5 0.0000 0.0000 0.0000 0.0000 31.7370 0.0000
# 6 0.0000 0.0000 0.0000 0.0000 0.0000 -12.3184
#
#
#
# Elastic Compliance Matrix: (Units=1/GPa)
#
#
# Indices 1 2 3 4 5 6 
#
# 1 0.024756 -0.006406 -0.005514 0.000000 0.000000 0.000000
# 2 -0.006406 0.020866 -0.004904 0.000000 0.000000 0.000000
# 3 -0.005514 -0.004904 0.010417 0.000000 0.000000 0.000000
# 4 0.000000 0.000000 0.000000 0.041454 0.000000 0.000000
# 5 0.000000 0.000000 0.000000 0.000000 0.031509 0.000000
# 6 0.000000 0.000000 0.000000 0.000000 0.000000 -0.081179
#
#
# Mechanical properties :
#
#
# Convention : Reuss Voigt Hill
#
# Bulk Modulus (GPa) = 44.66168 55.61127 50.13648
# Shear Modulus (GPa) = 56.22095 18.56546 37.39321
#
# Velocity S-wave (km/s) = 5.45378 3.13401 4.44779
# Velocity P-wave (km/s) = 7.95528 6.52052 7.27336
#
# Compressibility (1/GPa) = 0.02239056
#
# Stress axis : x y z
#
# Youngs Moduli (GPa) = 40.39410 47.92454 96.00134
#
# Poissons Ratio (x) = 0.30701 0.52935
# Poissons Ratio (y) = 0.25877 0.47080
# Poissons Ratio (z) = 0.22273 0.23503
#
# Static dielectric constant tensor:
#      x y z
#    x 3.389690 0.000000 0.000000 
#    y 0.000000 3.402180 0.000000 
#    z 0.000000 0.000000 3.338860 
# 
# 
# High freq. dielectric constant tensor:
#      x y z
#    x 1.716860 0.000000 0.000000 
#    y 0.000000 1.714270 0.000000 
#    z 0.000000 0.000000 1.746270 
# 
# From -- ./inp_files/20524.got.cif
#   From: 2010.03.12/outbox.cif.g09.slc.cpg/sg53_11_cif.got.tgz:20524.got - 2010.04.16 14:36:59.
