data_PCOD8218730
_publ_section_title
;
Structure prediction by ZEFSAII (Michael W. Deem and Ramdas Pophale) SiO2 
 PCOD8218730
Probable space group: P M N A
;
_chemical_formula_sum "Si O2"
_cell_formula_units_Z 64
_cell_length_a 8.981533
_cell_length_b 15.105359
_cell_length_c 23.155938
_cell_angle_alpha 90.000000
_cell_angle_beta 90.000000
_cell_angle_gamma 90.000000
_cell_volume 3141.549444
_symmetry_space_group_name_H-M "P M N A"
_symmetry_group_IT_number 53
_symmetry_cell_setting 'orthorhombic'
loop_
_space_group_symop_operation_xyz
x,y,z
1/2-x,-y,1/2+z
x,-y,-z
1/2-x,y,1/2-z
-x,-y,-z
1/2+x,y,1/2-z
-x,y,z
1/2+x,-y,1/2+z
loop_
_atom_site_type_symbol
_atom_site_label
_atom_site_fract_x
_atom_site_fract_y
_atom_site_fract_z
Si Si1 0.670019 0.862583 0.008627
Si Si2 0.826442 0.229196 0.808889
Si Si3 0.831183 0.598887 0.117869
Si Si4 0.325843 0.104378 0.393330
Si Si5 0.829182 0.694159 0.873551
Si Si6 0.674683 0.455428 0.190258
Si Si7 0.830500 0.313664 0.996407
Si Si8 0.171086 0.935497 0.365936
O O1 0.500000 0.864325 0.986876
O O2 0.717237 0.762546 0.022353
O O3 0.689117 0.919297 0.066101
O O4 0.773312 0.904116 0.959426
O O5 0.750000 0.260984 0.750000
O O6 0.795758 0.304841 0.855938
O O7 0.757413 0.136984 0.829117
O O8 0.000000 0.214514 0.798146
O O9 0.719099 0.525866 0.141475
O O10 0.809413 0.605461 0.048433
O O11 0.000000 0.569850 0.132981
O O12 0.500000 0.085200 0.390774
O O13 0.287095 0.202385 0.370087
O O14 0.241623 0.032229 0.353699
O O15 0.726103 0.642328 0.828626
O O16 0.000000 0.678681 0.855806
O O17 0.799302 0.655660 0.937996
O O18 0.750000 0.483869 0.250000
O O19 0.500000 0.456054 0.199062
O O20 0.000000 0.276314 0.992640
O O21 0.000000 0.934519 0.346291
#
# Coordination Sequence:
#
# PCOD8218730 Si02
#       8
#     8   8   8   8   8   8   8   8
#     4  10  19  31  51  83 122 159 194 239 290 343
#     4  11  23  39  60  84 117 158 202 248 296 354
#     4  10  21  39  64  92 122 156 196 241 293 355
#     4  10  21  36  58  85 116 156 199 242 291 351
#     4   9  20  40  63  88 121 156 196 245 296 351
#     4  12  26  43  65  89 116 152 198 248 299 355
#     4   9  18  35  60  90 123 161 197 234 291 358
#     4  11  22  35  54  83 119 157 198 244 294 346
#
# _framework density 20.372112000000001
#
# number of rings (size 3 to 8) (size 9 to 14) (size 15 to 20)
#    0.000    1.750    1.250    4.125    0.000    8.500 
#    0.000    3.125    0.000    3.000    0.000    0.000 
#    0.000    0.000    0.000    0.000    0.000    0.000 
#
# Total GULP energy -793782.726830 kJ/mol
# GULP energy per Si atom -12402.855107 kJ/mol
# Density = 2.032574 g / cm^3
# Si number density = 20.372112 Si / 1000 Ang^3
#
#
#
# Elastic Constant Matrix: (Units=GPa)
#
#
# Indices 1 2 3 4 5 6 
#
# 1 108.2213 35.6238 21.2474 0.0000 0.0000 0.0000
# 2 35.6238 67.8271 16.3586 0.0000 0.0000 0.0000
# 3 21.2474 16.3586 34.5023 0.0000 0.0000 0.0000
# 4 0.0000 0.0000 0.0000 20.5232 0.0000 0.0000
# 5 0.0000 0.0000 0.0000 0.0000 31.2664 0.0000
# 6 0.0000 0.0000 0.0000 0.0000 0.0000 35.5428
#
#
#
# Elastic Compliance Matrix: (Units=1/GPa)
#
#
# Indices 1 2 3 4 5 6 
#
# 1 0.011867 -0.005047 -0.004915 0.000000 0.000000 0.000000
# 2 -0.005047 0.018794 -0.005802 0.000000 0.000000 0.000000
# 3 -0.004915 -0.005802 0.034761 0.000000 0.000000 0.000000
# 4 0.000000 0.000000 0.000000 0.048725 0.000000 0.000000
# 5 0.000000 0.000000 0.000000 0.000000 0.031983 0.000000
# 6 0.000000 0.000000 0.000000 0.000000 0.000000 0.028135
#
#
# Mechanical properties :
#
#
# Convention : Reuss Voigt Hill
#
# Bulk Modulus (GPa) = 29.50473 39.66779 34.58626
# Shear Modulus (GPa) = 23.03175 26.62122 24.82648
#
# Velocity S-wave (km/s) = 3.36602 3.61882 3.49470
# Velocity P-wave (km/s) = 5.44253 6.08071 5.77045
#
# Compressibility (1/GPa) = 0.03389287
#
# Stress axis : x y z
#
# Youngs Moduli (GPa) = 84.26968 53.20944 28.76758
#
# Poissons Ratio (x) = 0.26856 0.14139
# Poissons Ratio (y) = 0.42533 0.16692
# Poissons Ratio (z) = 0.41417 0.30874
#
# Static dielectric constant tensor:
#      x y z
#    x 3.709110 0.000000 0.000000 
#    y 0.000000 3.635880 0.000000 
#    z 0.000000 0.000000 3.617320 
# 
# 
# High freq. dielectric constant tensor:
#      x y z
#    x 1.797800 0.000000 0.000000 
#    y 0.000000 1.795520 0.000000 
#    z 0.000000 0.000000 1.783230 
# 
# From -- ./inp_files/34294.got.cif
#   From: 2010.03.12/outbox.cif.g09.slc.cpg/sg53_18_cif.got.tgz:34294.got - 2010.04.16 14:36:59.
