data_PCOD8218682
_publ_section_title
;
Structure prediction by ZEFSAII (Michael W. Deem and Ramdas Pophale) SiO2 
 PCOD8218682
Probable space group: P M N A
;
_chemical_formula_sum "Si O2"
_cell_formula_units_Z 64
_cell_length_a 9.062764
_cell_length_b 15.625249
_cell_length_c 23.680989
_cell_angle_alpha 90.000000
_cell_angle_beta 90.000000
_cell_angle_gamma 90.000000
_cell_volume 3353.416167
_symmetry_space_group_name_H-M "P M N A"
_symmetry_group_IT_number 53
_symmetry_cell_setting 'orthorhombic'
loop_
_space_group_symop_operation_xyz
x,y,z
1/2-x,-y,1/2+z
x,-y,-z
1/2-x,y,1/2-z
-x,-y,-z
1/2+x,y,1/2-z
-x,y,z
1/2+x,-y,1/2+z
loop_
_atom_site_type_symbol
_atom_site_label
_atom_site_fract_x
_atom_site_fract_y
_atom_site_fract_z
Si Si1 0.670636 0.199958 0.516902
Si Si2 0.672095 0.801170 0.611050
Si Si3 0.326273 0.460501 0.615913
Si Si4 0.675394 0.956956 0.689947
Si Si5 0.827634 0.126337 0.869136
Si Si6 0.330950 0.371606 0.979203
Si Si7 0.169125 0.626847 0.611690
Si Si8 0.174308 0.297809 0.809712
O O1 0.500000 0.228998 0.521092
O O2 0.709487 0.170208 0.453442
O O3 0.703679 0.125559 0.563031
O O4 0.769043 0.278945 0.536531
O O5 0.500000 0.780934 0.617271
O O6 0.723367 0.877641 0.651114
O O7 0.759551 0.716732 0.629881
O O8 0.500000 0.473367 0.611742
O O9 0.261363 0.443462 0.553597
O O10 0.254410 0.547640 0.640946
O O11 0.280171 0.381643 0.655391
O O12 0.750000 0.945063 0.750000
O O13 0.500000 0.960691 0.697115
O O14 0.741121 0.042320 0.660162
O O15 0.764360 0.212971 0.841087
O O16 0.000000 0.122851 0.857874
O O17 0.500000 0.378263 0.959827
O O18 0.313559 0.386811 0.045240
O O19 0.000000 0.627080 0.631468
O O20 0.250000 0.304820 0.750000
O O21 0.000000 0.293097 0.801884
#
# Coordination Sequence:
#
# PCOD8218682 Si02
#       8
#     8   8   8   8   8   8   8   8
#     4   9  16  31  54  79 112 146 177 220 275 328
#     4   9  19  35  56  82 109 142 184 226 274 329
#     4  11  21  34  53  77 107 144 185 224 265 319
#     4  10  21  37  58  83 109 141 185 230 272 325
#     4   9  17  33  56  82 112 140 176 222 270 327
#     4  10  19  31  49  78 113 144 178 218 264 322
#     4  10  21  35  53  79 110 142 178 223 274 322
#     4  10  21  36  53  76 107 144 182 222 269 322
#
# _framework density 19.085017000000001
#
# number of rings (size 3 to 8) (size 9 to 14) (size 15 to 20)
#    0.000    2.250    1.250    1.875    0.000    5.000 
#    0.000    3.750    0.000    0.000    0.000    4.375 
#    0.000    0.000    0.000    0.000    0.000    0.000 
#
# Total GULP energy -793511.982503 kJ/mol
# GULP energy per Si atom -12398.624727 kJ/mol
# Density = 1.904158 g / cm^3
# Si number density = 19.085017 Si / 1000 Ang^3
#
#
#
# Elastic Constant Matrix: (Units=GPa)
#
#
# Indices 1 2 3 4 5 6 
#
# 1 60.4880 59.0505 32.0235 0.0000 0.0000 0.0000
# 2 59.0505 169.7551 76.1515 0.0000 0.0000 0.0000
# 3 32.0235 76.1515 84.0110 0.0000 0.0000 0.0000
# 4 0.0000 0.0000 0.0000 19.9547 0.0000 0.0000
# 5 0.0000 0.0000 0.0000 0.0000 28.1349 0.0000
# 6 0.0000 0.0000 0.0000 0.0000 0.0000 17.2355
#
#
#
# Elastic Compliance Matrix: (Units=1/GPa)
#
#
# Indices 1 2 3 4 5 6 
#
# 1 0.025424 -0.007578 -0.002822 0.000000 0.000000 0.000000
# 2 -0.007578 0.012186 -0.008158 0.000000 0.000000 0.000000
# 3 -0.002822 -0.008158 0.020374 0.000000 0.000000 0.000000
# 4 0.000000 0.000000 0.000000 0.050114 0.000000 0.000000
# 5 0.000000 0.000000 0.000000 0.000000 0.035543 0.000000
# 6 0.000000 0.000000 0.000000 0.000000 0.000000 0.058020
#
#
# Mechanical properties :
#
#
# Convention : Reuss Voigt Hill
#
# Bulk Modulus (GPa) = 47.91965 72.07835 59.99900
# Shear Modulus (GPa) = 20.34733 22.86694 21.60713
#
# Velocity S-wave (km/s) = 3.26872 3.46520 3.36840
# Velocity P-wave (km/s) = 6.27767 7.33888 6.82892
#
# Compressibility (1/GPa) = 0.02086827
#
# Stress axis : x y z
#
# Youngs Moduli (GPa) = 39.33261 82.05855 49.08313
#
# Poissons Ratio (x) = 0.62183 0.13853
# Poissons Ratio (y) = 0.29806 0.40041
# Poissons Ratio (z) = 0.11101 0.66942
#
# Static dielectric constant tensor:
#      x y z
#    x 3.350350 0.000000 0.000000 
#    y 0.000000 3.712700 0.000000 
#    z 0.000000 0.000000 3.386840 
# 
# 
# High freq. dielectric constant tensor:
#      x y z
#    x 1.725920 0.000000 0.000000 
#    y 0.000000 1.747090 0.000000 
#    z 0.000000 0.000000 1.729930 
# 
# From -- ./inp_files/34158.got.cif
#   From: 2010.03.12/outbox.cif.g09.slc.cpg/sg53_18_cif.got.tgz:34158.got - 2010.04.16 14:36:59.
