data_PCOD8218012
_publ_section_title
;
Structure prediction by ZEFSAII (Michael W. Deem and Ramdas Pophale) SiO2 
 PCOD8218012
Probable space group: P M N A
;
_chemical_formula_sum "Si O2"
_cell_formula_units_Z 56
_cell_length_a 8.788810
_cell_length_b 19.655121
_cell_length_c 17.859186
_cell_angle_alpha 90.000000
_cell_angle_beta 90.000000
_cell_angle_gamma 90.000000
_cell_volume 3085.087300
_symmetry_space_group_name_H-M "P M N A"
_symmetry_group_IT_number 53
_symmetry_cell_setting 'orthorhombic'
loop_
_space_group_symop_operation_xyz
x,y,z
1/2-x,-y,1/2+z
x,-y,-z
1/2-x,y,1/2-z
-x,-y,-z
1/2+x,y,1/2-z
-x,y,z
1/2+x,-y,1/2+z
loop_
_atom_site_type_symbol
_atom_site_label
_atom_site_fract_x
_atom_site_fract_y
_atom_site_fract_z
Si Si1 0.680513 0.653704 0.830704
Si Si2 0.326903 0.433558 0.535829
Si Si3 0.671039 0.046505 0.072573
Si Si4 0.319874 0.937368 0.330930
Si Si5 0.172732 0.486420 0.175266
Si Si6 0.822022 0.850065 0.027726
Si Si7 0.320217 0.705537 0.528070
O O1 0.750000 0.671911 0.750000
O O2 0.500000 0.654285 0.825672
O O3 0.740091 0.579475 0.857975
O O4 0.737834 0.708967 0.891222
O O5 0.244387 0.500000 0.500000
O O6 0.500000 0.431911 0.505168
O O7 0.319317 0.446476 0.624246
O O8 0.253999 0.360818 0.515745
O O9 0.500000 0.060142 0.100889
O O10 0.762820 0.011160 0.140448
O O11 0.747206 0.116587 0.046116
O O12 0.673466 0.000000 0.000000
O O13 0.250000 0.919293 0.250000
O O14 0.500000 0.939003 0.322588
O O15 0.265991 0.880697 0.392319
O O16 0.250000 0.511980 0.250000
O O17 0.000000 0.463097 0.190021
O O18 0.778685 0.770497 0.023123
O O19 0.000000 0.863706 0.020734
O O20 0.500000 0.702628 0.541206
#
# Coordination Sequence:
#
# PCOD8218012 Si02
#       7
#     8   8   8   8   8   8   8
#     4  11  21  33  50  73  98 127 164 211 266 318
#     4   9  16  29  51  74  96 130 174 217 260 312
#     4   9  17  31  53  78 104 134 168 208 253 301
#     4  10  19  33  54  82 111 141 179 216 255 301
#     4  10  18  31  50  71  96 127 166 213 266 315
#     4   9  19  34  54  78 107 143 179 217 259 311
#     4  10  19  35  55  75 102 139 180 216 260 315
#
# _framework density 18.151837
#
# number of rings (size 3 to 8) (size 9 to 14) (size 15 to 20)
#    0.000    2.286    1.429    3.429    0.000    2.857 
#    0.000    3.571    0.000    3.429    0.000    0.000 
#    0.000    0.000    0.000    0.000    0.000    0.000 
#
# Total GULP energy -694048.175877 kJ/mol
# GULP energy per Si atom -12393.717426 kJ/mol
# Density = 1.811052 g / cm^3
# Si number density = 18.151837 Si / 1000 Ang^3
#
#
#
# Elastic Constant Matrix: (Units=GPa)
#
#
# Indices 1 2 3 4 5 6 
#
# 1 86.2644 37.9521 44.4764 0.0000 0.0000 0.0000
# 2 37.9521 115.2448 62.6359 0.0000 0.0000 0.0000
# 3 44.4764 62.6359 111.5089 0.0000 0.0000 0.0000
# 4 0.0000 0.0000 0.0000 30.3048 0.0000 0.0000
# 5 0.0000 0.0000 0.0000 0.0000 28.7309 0.0000
# 6 0.0000 0.0000 0.0000 0.0000 0.0000 8.4283
#
#
#
# Elastic Compliance Matrix: (Units=1/GPa)
#
#
# Indices 1 2 3 4 5 6 
#
# 1 0.015055 -0.002439 -0.004635 0.000000 0.000000 0.000000
# 2 -0.002439 0.012885 -0.006265 0.000000 0.000000 0.000000
# 3 -0.004635 -0.006265 0.014336 0.000000 0.000000 0.000000
# 4 0.000000 0.000000 0.000000 0.032998 0.000000 0.000000
# 5 0.000000 0.000000 0.000000 0.000000 0.034806 0.000000
# 6 0.000000 0.000000 0.000000 0.000000 0.000000 0.118648
#
#
# Mechanical properties :
#
#
# Convention : Reuss Voigt Hill
#
# Bulk Modulus (GPa) = 64.10899 67.01632 65.56266
# Shear Modulus (GPa) = 19.18614 24.68971 21.93792
#
# Velocity S-wave (km/s) = 3.25465 3.69206 3.48023
# Velocity P-wave (km/s) = 7.03694 7.42799 7.23511
#
# Compressibility (1/GPa) = 0.01559844
#
# Stress axis : x y z
#
# Youngs Moduli (GPa) = 66.42372 77.60688 69.75542
#
# Poissons Ratio (x) = 0.18926 0.32331
# Poissons Ratio (y) = 0.16199 0.43703
# Poissons Ratio (z) = 0.30787 0.48622
#
# Static dielectric constant tensor:
#      x y z
#    x 3.292490 0.000000 0.000000 
#    y 0.000000 3.374040 0.000000 
#    z 0.000000 0.000000 3.262240 
# 
# 
# High freq. dielectric constant tensor:
#      x y z
#    x 1.694530 0.000000 0.000000 
#    y 0.000000 1.683280 0.000000 
#    z 0.000000 0.000000 1.700980 
# 
# From -- ./inp_files/26688.got.cif
#   From: 2010.03.12/outbox.cif.g09.slc.cpg/sg53_14_cif.got.tgz:26688.got - 2010.04.16 14:36:59.
