data_PCOD8218944
_publ_section_title
;
Structure prediction by ZEFSAII (Michael W. Deem and Ramdas Pophale) SiO2 
 PCOD8218944
Probable space group: P M N A
;
_chemical_formula_sum "Si O2"
_cell_formula_units_Z 48
_cell_length_a 8.621831
_cell_length_b 20.959625
_cell_length_c 13.807750
_cell_angle_alpha 90.000000
_cell_angle_beta 90.000000
_cell_angle_gamma 90.000000
_cell_volume 2495.203260
_symmetry_space_group_name_H-M "P M N A"
_symmetry_group_IT_number 53
_symmetry_cell_setting 'orthorhombic'
loop_
_space_group_symop_operation_xyz
x,y,z
1/2-x,-y,1/2+z
x,-y,-z
1/2-x,y,1/2-z
-x,-y,-z
1/2+x,y,1/2-z
-x,y,z
1/2+x,-y,1/2+z
loop_
_atom_site_type_symbol
_atom_site_label
_atom_site_fract_x
_atom_site_fract_y
_atom_site_fract_z
Si Si1 0.815379 0.530005 0.145091
Si Si2 0.183149 0.967062 0.645248
Si Si3 0.817662 0.280830 0.356093
Si Si4 0.182391 0.900261 0.145121
Si Si5 0.683088 0.842116 0.969637
Si Si6 0.183741 0.589968 0.539916
O O1 0.750000 0.549010 0.250000
O O2 0.754383 0.460460 0.115186
O O3 0.000000 0.529696 0.147371
O O4 0.755771 0.581593 0.066894
O O5 0.250000 0.953544 0.750000
O O6 0.234194 0.907196 0.581856
O O7 0.000000 0.974824 0.649911
O O8 0.252129 0.032763 0.602977
O O9 0.750000 0.288500 0.250000
O O10 0.752265 0.217381 0.407947
O O11 0.769388 0.340489 0.422269
O O12 0.000000 0.276057 0.344588
O O13 0.250000 0.885194 0.250000
O O14 0.235046 0.843033 0.074441
O O15 0.000000 0.904534 0.153051
O O16 0.500000 0.836563 0.983959
O O17 0.000000 0.579781 0.534754
#
# Coordination Sequence:
#
# PCOD8218944 Si02
#       6
#     8   8   8   8   8   8
#     4  11  21  35  57  85 115 148 185 228 273 318
#     4  10  19  32  53  78 107 139 172 217 268 318
#     4  10  22  38  58  82 112 146 179 218 263 317
#     4  11  22  36  55  77 102 135 176 223 272 323
#     4  10  21  37  54  77 108 141 177 218 265 315
#     4  10  20  36  57  84 115 148 185 225 270 319
#
# _framework density 19.236910000000002
#
# number of rings (size 3 to 8) (size 9 to 14) (size 15 to 20)
#    0.000    1.667    0.000    7.500    0.000    6.667 
#    0.000    0.833    0.000    0.000    0.000    0.000 
#    0.000    0.000    0.000    0.000    0.000    0.000 
#
# Total GULP energy -595307.010586 kJ/mol
# GULP energy per Si atom -12402.229387 kJ/mol
# Density = 1.919313 g / cm^3
# Si number density = 19.236910 Si / 1000 Ang^3
#
#
#
# Elastic Constant Matrix: (Units=GPa)
#
#
# Indices 1 2 3 4 5 6 
#
# 1 91.0438 53.6337 46.6239 0.0000 0.0000 0.0000
# 2 53.6337 96.6652 89.5305 0.0000 0.0000 0.0000
# 3 46.6239 89.5305 141.3489 0.0000 0.0000 0.0000
# 4 0.0000 0.0000 0.0000 30.7708 0.0000 0.0000
# 5 0.0000 0.0000 0.0000 0.0000 34.9533 0.0000
# 6 0.0000 0.0000 0.0000 0.0000 0.0000 23.1853
#
#
#
# Elastic Compliance Matrix: (Units=1/GPa)
#
#
# Indices 1 2 3 4 5 6 
#
# 1 0.016360 -0.009868 0.000854 0.000000 0.000000 0.000000
# 2 -0.009868 0.030980 -0.016368 0.000000 0.000000 0.000000
# 3 0.000854 -0.016368 0.017160 0.000000 0.000000 0.000000
# 4 0.000000 0.000000 0.000000 0.032498 0.000000 0.000000
# 5 0.000000 0.000000 0.000000 0.000000 0.028610 0.000000
# 6 0.000000 0.000000 0.000000 0.000000 0.000000 0.043131
#
#
# Mechanical properties :
#
#
# Convention : Reuss Voigt Hill
#
# Bulk Modulus (GPa) = 72.79851 78.73711 75.76781
# Shear Modulus (GPa) = 22.31349 27.06655 24.69002
#
# Velocity S-wave (km/s) = 3.40947 3.75508 3.58644
# Velocity P-wave (km/s) = 7.30921 7.73434 7.52478
#
# Compressibility (1/GPa) = 0.01373655
#
# Stress axis : x y z
#
# Youngs Moduli (GPa) = 61.12636 32.27919 58.27469
#
# Poissons Ratio (x) = 0.31854 -0.04979
# Poissons Ratio (y) = 0.60321 0.95381
# Poissons Ratio (z) = -0.05222 0.52833
#
# Static dielectric constant tensor:
#      x y z
#    x 3.518280 0.000000 0.000000 
#    y 0.000000 3.603990 0.000000 
#    z 0.000000 0.000000 3.728210 
# 
# 
# High freq. dielectric constant tensor:
#      x y z
#    x 1.755050 0.000000 0.000000 
#    y 0.000000 1.734710 0.000000 
#    z 0.000000 0.000000 1.762550 
# 
# From -- ./inp_files/20347.got.cif
#   From: 2010.03.12/outbox.cif.g09.slc.cpg/sg53_11_cif.got.tgz:20347.got - 2010.04.16 14:36:59.
