data_PCOD8218120
_publ_section_title
;
Structure prediction by ZEFSAII (Michael W. Deem and Ramdas Pophale) SiO2 
 PCOD8218120
Probable space group: P M N A
;
_chemical_formula_sum "Si O2"
_cell_formula_units_Z 48
_cell_length_a 8.971990
_cell_length_b 15.207161
_cell_length_c 20.543164
_cell_angle_alpha 90.000000
_cell_angle_beta 90.000000
_cell_angle_gamma 90.000000
_cell_volume 2802.878408
_symmetry_space_group_name_H-M "P M N A"
_symmetry_group_IT_number 53
_symmetry_cell_setting 'orthorhombic'
loop_
_space_group_symop_operation_xyz
x,y,z
1/2-x,-y,1/2+z
x,-y,-z
1/2-x,y,1/2-z
-x,-y,-z
1/2+x,y,1/2-z
-x,y,z
1/2+x,-y,1/2+z
loop_
_atom_site_type_symbol
_atom_site_label
_atom_site_fract_x
_atom_site_fract_y
_atom_site_fract_z
Si Si1 0.669255 0.231849 0.010221
Si Si2 0.326420 0.614948 0.814101
Si Si3 0.831716 0.813632 0.657000
Si Si4 0.821314 0.419597 0.456812
Si Si5 0.822730 0.063619 0.558789
Si Si6 0.324598 0.013194 0.314268
O O1 0.500000 0.248869 0.990568
O O2 0.735634 0.162828 0.958050
O O3 0.678849 0.184132 0.079427
O O4 0.745940 0.328642 0.012842
O O5 0.250000 0.573030 0.750000
O O6 0.500000 0.598159 0.807009
O O7 0.288078 0.718100 0.816515
O O8 0.268372 0.570222 0.881458
O O9 0.714899 0.883209 0.684960
O O10 0.000000 0.839707 0.678179
O O11 0.759992 0.500000 0.500000
O O12 0.000000 0.415075 0.457039
O O13 0.000000 0.060159 0.569485
O O14 0.775639 0.000000 0.500000
O O15 0.740517 0.036123 0.623794
O O16 0.250000 0.970790 0.250000
O O17 0.500000 0.000293 0.311846
#
# Coordination Sequence:
#
# PCOD8218120 Si02
#       6
#     8   8   8   8   8   8
#     4   8  14  26  47  71  93 123 158 192 235 285
#     4   9  17  27  44  68  96 125 154 190 233 287
#     4   9  16  30  47  67  95 126 158 189 233 288
#     4   8  14  26  46  72  97 121 157 199 233 274
#     4  10  18  32  53  71  94 129 164 199 238 283
#     4  12  24  34  46  67  97 130 167 206 245 287
#
# _framework density 17.125253000000001
#
# number of rings (size 3 to 8) (size 9 to 14) (size 15 to 20)
#    0.000    2.667    1.667    4.000    0.000    2.333 
#    0.000    0.000    0.000    1.500    0.000    2.333 
#    0.000    0.000    0.000    0.000    0.000    0.000 
#
# Total GULP energy -594798.459665 kJ/mol
# GULP energy per Si atom -12391.634576 kJ/mol
# Density = 1.708627 g / cm^3
# Si number density = 17.125253 Si / 1000 Ang^3
#
#
#
# Elastic Constant Matrix: (Units=GPa)
#
#
# Indices 1 2 3 4 5 6 
#
# 1 46.0269 29.2058 46.1965 0.0000 0.0000 0.0000
# 2 29.2058 87.2544 69.8784 0.0000 0.0000 0.0000
# 3 46.1965 69.8784 145.3551 0.0000 0.0000 0.0000
# 4 0.0000 0.0000 0.0000 18.2478 0.0000 0.0000
# 5 0.0000 0.0000 0.0000 0.0000 25.4290 0.0000
# 6 0.0000 0.0000 0.0000 0.0000 0.0000 5.7958
#
#
#
# Elastic Compliance Matrix: (Units=1/GPa)
#
#
# Indices 1 2 3 4 5 6 
#
# 1 0.032860 -0.004285 -0.008384 0.000000 0.000000 0.000000
# 2 -0.004285 0.019194 -0.007866 0.000000 0.000000 0.000000
# 3 -0.008384 -0.007866 0.013326 0.000000 0.000000 0.000000
# 4 0.000000 0.000000 0.000000 0.054801 0.000000 0.000000
# 5 0.000000 0.000000 0.000000 0.000000 0.039325 0.000000
# 6 0.000000 0.000000 0.000000 0.000000 0.000000 0.172537
#
#
# Mechanical properties :
#
#
# Convention : Reuss Voigt Hill
#
# Bulk Modulus (GPa) = 41.13291 63.24420 52.18856
# Shear Modulus (GPa) = 13.11595 18.78489 15.95042
#
# Velocity S-wave (km/s) = 2.77046 3.31556 3.05519
# Velocity P-wave (km/s) = 5.85704 7.18803 6.55640
#
# Compressibility (1/GPa) = 0.02431143
#
# Stress axis : x y z
#
# Youngs Moduli (GPa) = 30.43235 52.09886 75.04390
#
# Poissons Ratio (x) = 0.22323 0.62913
# Poissons Ratio (y) = 0.13040 0.59027
# Poissons Ratio (z) = 0.25513 0.40979
#
# Static dielectric constant tensor:
#      x y z
#    x 2.814610 0.000000 0.000000 
#    y 0.000000 3.264020 0.000000 
#    z 0.000000 0.000000 3.365490 
# 
# 
# High freq. dielectric constant tensor:
#      x y z
#    x 1.620740 0.000000 0.000000 
#    y 0.000000 1.636470 0.000000 
#    z 0.000000 0.000000 1.666730 
# 
# From -- ./inp_files/26391.got.cif
#   From: 2010.03.12/outbox.cif.g09.slc.cpg/sg53_14_cif.got.tgz:26391.got - 2010.04.16 14:36:59.
