data_PCOD8218252
_publ_section_title
;
Structure prediction by ZEFSAII (Michael W. Deem and Ramdas Pophale) SiO2 
 PCOD8218252
Probable space group: P M N A
;
_chemical_formula_sum "Si O2"
_cell_formula_units_Z 48
_cell_length_a 17.912248
_cell_length_b 9.604833
_cell_length_c 14.258160
_cell_angle_alpha 90.000000
_cell_angle_beta 90.000000
_cell_angle_gamma 90.000000
_cell_volume 2453.033028
_symmetry_space_group_name_H-M "P M N A"
_symmetry_group_IT_number 53
_symmetry_cell_setting 'orthorhombic'
loop_
_space_group_symop_operation_xyz
x,y,z
1/2-x,-y,1/2+z
x,-y,-z
1/2-x,y,1/2-z
-x,-y,-z
1/2+x,y,1/2-z
-x,y,z
1/2+x,-y,1/2+z
loop_
_atom_site_type_symbol
_atom_site_label
_atom_site_fract_x
_atom_site_fract_y
_atom_site_fract_z
Si Si1 0.127914 0.191627 0.086564
Si Si2 0.187359 0.670834 0.174985
Si Si3 0.736403 0.332967 0.010806
Si Si4 0.081455 0.627567 0.570502
Si Si5 0.582734 0.571328 0.713873
Si Si6 0.085908 0.887206 0.117107
O O1 0.209839 0.263628 0.088471
O O2 0.080834 0.279329 0.162300
O O3 0.130931 0.031853 0.118998
O O4 0.089822 0.192707 0.983417
O O5 0.250000 0.648121 0.250000
O O6 0.142696 0.526630 0.161889
O O7 0.125489 0.790267 0.195808
O O8 0.233570 0.726681 0.086287
O O9 0.651711 0.281427 0.033611
O O10 0.740429 0.500000 0.000000
O O11 0.074151 0.500000 0.500000
O O12 0.102635 0.580613 0.675841
O O13 0.000000 0.705629 0.571064
O O14 0.500000 0.505946 0.704054
O O15 0.000000 0.913972 0.143477
#
# Coordination Sequence:
#
# PCOD8218252 Si02
#       6
#     8   8   8   8   8   8
#     4  10  20  35  60  88 114 149 185 236 297 360
#     4  11  22  36  54  82 113 147 193 237 286 347
#     4  10  18  34  54  82 113 144 181 234 288 339
#     4   9  19  34  52  79 116 153 188 234 292 340
#     4  11  21  34  58  88 113 143 193 244 290 350
#     4  10  21  39  58  79 120 156 184 232 297 362
#
# _framework density 19.567612
#
# number of rings (size 3 to 8) (size 9 to 14) (size 15 to 20)
#    0.000    1.833    1.667    4.500    0.000    0.000 
#    3.000    3.333    0.000    0.000    0.000    9.333 
#    0.000    0.667    0.000    0.000    0.000    0.000 
#
# Total GULP energy -594634.298492 kJ/mol
# GULP energy per Si atom -12388.214552 kJ/mol
# Density = 1.952307 g / cm^3
# Si number density = 19.567612 Si / 1000 Ang^3
#
#
#
# Elastic Constant Matrix: (Units=GPa)
#
#
# Indices 1 2 3 4 5 6 
#
# 1 168.6070 46.2949 34.1416 0.0000 0.0000 0.0000
# 2 46.2949 93.7415 23.4301 0.0000 0.0000 0.0000
# 3 34.1416 23.4301 58.3288 0.0000 0.0000 0.0000
# 4 0.0000 0.0000 0.0000 17.9297 0.0000 0.0000
# 5 0.0000 0.0000 0.0000 0.0000 22.4184 0.0000
# 6 0.0000 0.0000 0.0000 0.0000 0.0000 17.6509
#
#
#
# Elastic Compliance Matrix: (Units=1/GPa)
#
#
# Indices 1 2 3 4 5 6 
#
# 1 0.007351 -0.002840 -0.003162 0.000000 0.000000 0.000000
# 2 -0.002840 0.012955 -0.003542 0.000000 0.000000 0.000000
# 3 -0.003162 -0.003542 0.020418 0.000000 0.000000 0.000000
# 4 0.000000 0.000000 0.000000 0.055773 0.000000 0.000000
# 5 0.000000 0.000000 0.000000 0.000000 0.044606 0.000000
# 6 0.000000 0.000000 0.000000 0.000000 0.000000 0.056654
#
#
# Mechanical properties :
#
#
# Convention : Reuss Voigt Hill
#
# Bulk Modulus (GPa) = 46.21782 58.71230 52.46506
# Shear Modulus (GPa) = 22.31569 26.05386 24.18478
#
# Velocity S-wave (km/s) = 3.38070 3.65290 3.51944
# Velocity P-wave (km/s) = 6.23776 6.91821 6.58678
#
# Compressibility (1/GPa) = 0.02163668
#
# Stress axis : x y z
#
# Youngs Moduli (GPa) = 136.03554 77.18771 48.97723
#
# Poissons Ratio (x) = 0.21922 0.15486
# Poissons Ratio (y) = 0.38635 0.17346
# Poissons Ratio (z) = 0.43014 0.27338
#
# Static dielectric constant tensor:
#      x y z
#    x 4.156810 0.000000 0.000000 
#    y 0.000000 3.299220 0.000000 
#    z 0.000000 0.000000 3.592480 
# 
# 
# High freq. dielectric constant tensor:
#      x y z
#    x 1.784910 0.000000 0.000000 
#    y 0.000000 1.726830 0.000000 
#    z 0.000000 0.000000 1.744400 
# 
# From -- ./inp_files/23670.got.cif
#   From: 2010.03.12/outbox.cif.g09.slc.cpg/sg53_12_cif.got.tgz:23670.got - 2010.04.16 14:36:59.
