data_PCOD8218740
_publ_section_title
;
Structure prediction by ZEFSAII (Michael W. Deem and Ramdas Pophale) SiO2 
 PCOD8218740
Probable space group: P M N A
;
_chemical_formula_sum "Si O2"
_cell_formula_units_Z 64
_cell_length_a 15.499782
_cell_length_b 22.089365
_cell_length_c 9.482015
_cell_angle_alpha 90.000000
_cell_angle_beta 90.000000
_cell_angle_gamma 90.000000
_cell_volume 3246.455539
_symmetry_space_group_name_H-M "P M N A"
_symmetry_group_IT_number 53
_symmetry_cell_setting 'orthorhombic'
loop_
_space_group_symop_operation_xyz
x,y,z
1/2-x,-y,1/2+z
x,-y,-z
1/2-x,y,1/2-z
-x,-y,-z
1/2+x,y,1/2-z
-x,y,z
1/2+x,-y,1/2+z
loop_
_atom_site_type_symbol
_atom_site_label
_atom_site_fract_x
_atom_site_fract_y
_atom_site_fract_z
Si Si1 0.631060 0.245667 0.515029
Si Si2 0.097132 0.843617 0.253343
Si Si3 0.095464 0.841413 0.782427
Si Si4 0.901566 0.342093 0.395798
Si Si5 0.095542 0.629761 0.924445
Si Si6 0.171921 0.215961 0.478688
Si Si7 0.260377 0.440646 0.084744
Si Si8 0.396947 0.067745 0.515977
O O1 0.597687 0.215376 0.656593
O O2 0.583317 0.217223 0.380681
O O3 0.603830 0.315122 0.533457
O O4 0.732506 0.240036 0.491026
O O5 0.153271 0.827731 0.389206
O O6 0.000000 0.858215 0.302773
O O7 0.135507 0.900333 0.161607
O O8 0.160694 0.827852 0.655607
O O9 0.135323 0.895120 0.879105
O O10 0.000000 0.858093 0.722883
O O11 0.885106 0.341013 0.228421
O O12 0.888287 0.275371 0.462977
O O13 0.833173 0.390900 0.455093
O O14 0.000000 0.362141 0.430403
O O15 0.166179 0.580403 0.968370
O O16 0.000000 0.600342 0.932150
O O17 0.250000 0.454934 0.250000
O O18 0.287785 0.500000 0.000000
O O19 0.500000 0.069069 0.517923
O O20 0.360104 0.000000 0.500000
#
# Coordination Sequence:
#
# PCOD8218740 Si02
#       8
#     8   8   8   8   8   8   8   8
#     4  11  20  34  54  81 114 148 185 228 288 359
#     4  10  21  35  53  80 113 149 186 237 298 347
#     4  10  19  31  55  84 109 145 191 235 283 344
#     4  10  20  35  58  84 115 154 191 234 291 351
#     4  10  19  35  60  85 111 149 197 237 280 344
#     4  12  21  33  53  86 121 143 183 244 305 346
#     4  10  22  41  60  83 112 150 194 241 284 341
#     4   8  16  34  57  79 109 153 201 239 280 346
#
# _framework density 19.713806999999999
#
# number of rings (size 3 to 8) (size 9 to 14) (size 15 to 20)
#    0.000    1.875    2.500    3.750    0.000    0.500 
#    2.250    0.625    0.000   15.000    0.000    0.000 
#    0.000    0.000    0.000    0.000    0.000    0.125 
#
# Total GULP energy -793349.735208 kJ/mol
# GULP energy per Si atom -12396.089613 kJ/mol
# Density = 1.966894 g / cm^3
# Si number density = 19.713807 Si / 1000 Ang^3
#
#
#
# Elastic Constant Matrix: (Units=GPa)
#
#
# Indices 1 2 3 4 5 6 
#
# 1 104.2598 27.4795 13.9486 0.0000 0.0000 0.0000
# 2 27.4795 121.7886 39.4096 0.0000 0.0000 0.0000
# 3 13.9486 39.4096 84.6029 0.0000 0.0000 0.0000
# 4 0.0000 0.0000 0.0000 17.8454 0.0000 0.0000
# 5 0.0000 0.0000 0.0000 0.0000 -4.3771 0.0000
# 6 0.0000 0.0000 0.0000 0.0000 0.0000 23.1401
#
#
#
# Elastic Compliance Matrix: (Units=1/GPa)
#
#
# Indices 1 2 3 4 5 6 
#
# 1 0.010235 -0.002076 -0.000720 0.000000 0.000000 0.000000
# 2 -0.002076 0.010089 -0.004358 0.000000 0.000000 0.000000
# 3 -0.000720 -0.004358 0.013969 0.000000 0.000000 0.000000
# 4 0.000000 0.000000 0.000000 0.056037 0.000000 0.000000
# 5 0.000000 0.000000 0.000000 0.000000 -0.228462 0.000000
# 6 0.000000 0.000000 0.000000 0.000000 0.000000 0.043215
#
#
# Mechanical properties :
#
#
# Convention : Reuss Voigt Hill
#
# Bulk Modulus (GPa) = 50.03805 52.48072 51.25939
# Shear Modulus (GPa) = -67.61590 22.64259 -22.48666
#
# Velocity S-wave (km/s) = -5.86287 3.39273 -3.38102
# Velocity P-wave (km/s) = 4.51593 6.48279 3.28884
#
# Compressibility (1/GPa) = 0.01998479
#
# Stress axis : x y z
#
# Youngs Moduli (GPa) = 97.70363 99.11311 71.58957
#
# Poissons Ratio (x) = 0.20579 0.05157
# Poissons Ratio (y) = 0.20286 0.31196
# Poissons Ratio (z) = 0.07038 0.43189
#
# Static dielectric constant tensor:
#      x y z
#    x 3.588390 0.000000 0.000000 
#    y 0.000000 3.533980 0.000000 
#    z 0.000000 0.000000 3.781970 
# 
# 
# High freq. dielectric constant tensor:
#      x y z
#    x 1.771860 0.000000 0.000000 
#    y 0.000000 1.749530 0.000000 
#    z 0.000000 0.000000 1.746970 
# 
# From -- ./inp_files/8923.got.cif
#   From: 2010.03.12/outbox.cif.g09.slc.cpg/sg53_5_cif.got.tgz:8923.got - 2010.04.16 14:36:59.
