data_PCOD8218321
_publ_section_title
;
Structure prediction by ZEFSAII (Michael W. Deem and Ramdas Pophale) SiO2 
 PCOD8218321
Probable space group: P M N A
;
_chemical_formula_sum "Si O2"
_cell_formula_units_Z 56
_cell_length_a 9.149276
_cell_length_b 17.936573
_cell_length_c 19.970299
_cell_angle_alpha 90.000000
_cell_angle_beta 90.000000
_cell_angle_gamma 90.000000
_cell_volume 3277.259006
_symmetry_space_group_name_H-M "P M N A"
_symmetry_group_IT_number 53
_symmetry_cell_setting 'orthorhombic'
loop_
_space_group_symop_operation_xyz
x,y,z
1/2-x,-y,1/2+z
x,-y,-z
1/2-x,y,1/2-z
-x,-y,-z
1/2+x,y,1/2-z
-x,y,z
1/2+x,-y,1/2+z
loop_
_atom_site_type_symbol
_atom_site_label
_atom_site_fract_x
_atom_site_fract_y
_atom_site_fract_z
Si Si1 0.670609 0.208527 0.111144
Si Si2 0.169820 0.959519 0.066622
Si Si3 0.163784 0.330990 0.937743
Si Si4 0.173598 0.489975 0.927177
Si Si5 0.171340 0.923716 0.817539
Si Si6 0.664181 0.352294 0.403516
Si Si7 0.169882 0.187891 0.544385
O O1 0.500000 0.202568 0.127559
O O2 0.759768 0.153466 0.158216
O O3 0.724965 0.292199 0.127696
O O4 0.705529 0.188111 0.034459
O O5 0.255281 0.883057 0.078352
O O6 0.000000 0.940310 0.058178
O O7 0.202033 0.011890 0.129204
O O8 0.229344 0.000000 0.000000
O O9 0.219003 0.407341 0.899717
O O10 0.269306 0.262401 0.920125
O O11 0.000000 0.309539 0.914694
O O12 0.165096 0.347727 0.016466
O O13 0.216479 0.563122 0.882677
O O14 0.000000 0.489780 0.934983
O O15 0.247153 0.500000 0.000000
O O16 0.250000 0.949697 0.750000
O O17 0.000000 0.911501 0.805502
O O18 0.500000 0.336112 0.376952
O O19 0.000000 0.183921 0.559103
#
# Coordination Sequence:
#
# PCOD8218321 Si02
#       7
#     8   8   8   8   8   8   8
#     4  10  19  30  44  66  95 125 159 195 237 285
#     4  10  20  35  54  73  93 122 163 202 240 292
#     4   8  13  22  37  56  84 120 156 193 233 279
#     4   7  10  18  33  54  79 113 155 193 228 270
#     4  11  23  38  55  73  96 125 158 200 247 294
#     4   8  13  22  38  58  82 116 158 196 230 271
#     4  10  19  28  43  68  96 124 157 200 243 284
#
# _framework density 17.08745
#
# number of rings (size 3 to 8) (size 9 to 14) (size 15 to 20)
#    0.000    2.857    1.429    3.000    0.000    2.571 
#    0.000    0.714    0.000    4.286    0.000    0.000 
#    0.000    1.143    0.000    7.429    0.000    8.000 
#
# Total GULP energy -693923.182422 kJ/mol
# GULP energy per Si atom -12391.485400 kJ/mol
# Density = 1.704856 g / cm^3
# Si number density = 17.087450 Si / 1000 Ang^3
#
#
#
# Elastic Constant Matrix: (Units=GPa)
#
#
# Indices 1 2 3 4 5 6 
#
# 1 80.7942 67.1838 34.7512 0.0000 0.0000 0.0000
# 2 67.1838 167.0933 37.2108 0.0000 0.0000 0.0000
# 3 34.7512 37.2108 44.1553 0.0000 0.0000 0.0000
# 4 0.0000 0.0000 0.0000 10.2015 0.0000 0.0000
# 5 0.0000 0.0000 0.0000 0.0000 17.0335 0.0000
# 6 0.0000 0.0000 0.0000 0.0000 0.0000 14.3060
#
#
#
# Elastic Compliance Matrix: (Units=1/GPa)
#
#
# Indices 1 2 3 4 5 6 
#
# 1 0.023330 -0.006514 -0.012872 0.000000 0.000000 0.000000
# 2 -0.006514 0.009186 -0.002615 0.000000 0.000000 0.000000
# 3 -0.012872 -0.002615 0.034981 0.000000 0.000000 0.000000
# 4 0.000000 0.000000 0.000000 0.098025 0.000000 0.000000
# 5 0.000000 0.000000 0.000000 0.000000 0.058708 0.000000
# 6 0.000000 0.000000 0.000000 0.000000 0.000000 0.069901
#
#
# Mechanical properties :
#
#
# Convention : Reuss Voigt Hill
#
# Bulk Modulus (GPa) = 42.55968 63.37050 52.96509
# Shear Modulus (GPa) = 14.45236 18.50132 16.47684
#
# Velocity S-wave (km/s) = 2.91140 3.29408 3.10863
# Velocity P-wave (km/s) = 6.02185 7.18571 6.62937
#
# Compressibility (1/GPa) = 0.02349642
#
# Stress axis : x y z
#
# Youngs Moduli (GPa) = 42.86291 108.86074 28.58675
#
# Poissons Ratio (x) = 0.70911 0.36797
# Poissons Ratio (y) = 0.27921 0.07475
# Poissons Ratio (z) = 0.55173 0.28464
#
# Static dielectric constant tensor:
#      x y z
#    x 3.083650 0.000000 0.000000 
#    y 0.000000 3.641180 0.000000 
#    z 0.000000 0.000000 2.652690 
# 
# 
# High freq. dielectric constant tensor:
#      x y z
#    x 1.648980 0.000000 0.000000 
#    y 0.000000 1.683840 0.000000 
#    z 0.000000 0.000000 1.584030 
# 
# From -- ./inp_files/34374.got.cif
#   From: 2010.03.12/outbox.cif.g09.slc.cpg/sg53_18_cif.got.tgz:34374.got - 2010.04.16 14:36:59.
