data_PCOD8218850
_publ_section_title
;
Structure prediction by ZEFSAII (Michael W. Deem and Ramdas Pophale) SiO2 
 PCOD8218850
Probable space group: P M N A
;
_chemical_formula_sum "Si O2"
_cell_formula_units_Z 56
_cell_length_a 9.403562
_cell_length_b 18.694693
_cell_length_c 17.199376
_cell_angle_alpha 90.000000
_cell_angle_beta 90.000000
_cell_angle_gamma 90.000000
_cell_volume 3023.593624
_symmetry_space_group_name_H-M "P M N A"
_symmetry_group_IT_number 53
_symmetry_cell_setting 'orthorhombic'
loop_
_space_group_symop_operation_xyz
x,y,z
1/2-x,-y,1/2+z
x,-y,-z
1/2-x,y,1/2-z
-x,-y,-z
1/2+x,y,1/2-z
-x,y,z
1/2+x,-y,1/2+z
loop_
_atom_site_type_symbol
_atom_site_label
_atom_site_fract_x
_atom_site_fract_y
_atom_site_fract_z
Si Si1 0.163849 0.330603 0.171928
Si Si2 0.157247 0.274151 0.584876
Si Si3 0.164837 0.780238 0.948078
Si Si4 0.334548 0.135571 0.827180
Si Si5 0.336364 0.525025 0.586324
Si Si6 0.664813 0.921410 0.470638
Si Si7 0.162186 0.414580 0.677378
O O1 0.250000 0.346761 0.250000
O O2 0.215179 0.254355 0.134097
O O3 0.186729 0.391007 0.105020
O O4 0.000000 0.327360 0.197155
O O5 0.269102 0.264340 0.517679
O O6 0.185479 0.219959 0.656500
O O7 0.170159 0.355065 0.611521
O O8 0.000000 0.258403 0.551347
O O9 0.000000 0.764653 0.955441
O O10 0.199248 0.864747 0.959309
O O11 0.250000 0.114331 0.750000
O O12 0.500000 0.114422 0.817765
O O13 0.267186 0.091639 0.898222
O O14 0.289894 0.500000 0.500000
O O15 0.500000 0.502801 0.600361
O O16 0.235200 0.486296 0.647535
O O17 0.500000 0.913604 0.445027
O O18 0.699639 0.000000 0.500000
O O19 0.250000 0.384877 0.750000
O O20 0.000000 0.431367 0.701327
#
# Coordination Sequence:
#
# PCOD8218850 Si02
#       7
#     8   8   8   8   8   8   8
#     4  10  21  36  54  76 102 135 175 218 262 309
#     4   9  19  33  50  75 104 133 167 208 252 302
#     4   9  18  34  56  78 100 132 172 208 250 307
#     4  10  19  32  51  76 106 138 173 210 252 305
#     4  10  21  37  55  74  98 130 170 216 265 314
#     4   9  18  34  56  80 107 137 169 211 262 314
#     4  11  22  34  49  72 102 133 166 206 253 302
#
# _framework density 18.521007999999998
#
# number of rings (size 3 to 8) (size 9 to 14) (size 15 to 20)
#    0.000    2.286    0.000    2.571    0.000    5.714 
#    0.000    0.714    0.000    1.714    0.000    0.000 
#    0.000    0.000    0.000    0.000    0.000    0.000 
#
# Total GULP energy -694202.576886 kJ/mol
# GULP energy per Si atom -12396.474587 kJ/mol
# Density = 1.847885 g / cm^3
# Si number density = 18.521008 Si / 1000 Ang^3
#
#
#
# Elastic Constant Matrix: (Units=GPa)
#
#
# Indices 1 2 3 4 5 6 
#
# 1 76.3353 41.1958 41.6478 0.0000 0.0000 0.0000
# 2 41.1958 101.3088 44.3068 0.0000 0.0000 0.0000
# 3 41.6478 44.3068 92.6055 0.0000 0.0000 0.0000
# 4 0.0000 0.0000 0.0000 19.5891 0.0000 0.0000
# 5 0.0000 0.0000 0.0000 0.0000 31.6748 0.0000
# 6 0.0000 0.0000 0.0000 0.0000 0.0000 14.1454
#
#
#
# Elastic Compliance Matrix: (Units=1/GPa)
#
#
# Indices 1 2 3 4 5 6 
#
# 1 0.019246 -0.005110 -0.006211 0.000000 0.000000 0.000000
# 2 -0.005110 0.013839 -0.004323 0.000000 0.000000 0.000000
# 3 -0.006211 -0.004323 0.015660 0.000000 0.000000 0.000000
# 4 0.000000 0.000000 0.000000 0.051049 0.000000 0.000000
# 5 0.000000 0.000000 0.000000 0.000000 0.031571 0.000000
# 6 0.000000 0.000000 0.000000 0.000000 0.000000 0.070694
#
#
# Mechanical properties :
#
#
# Convention : Reuss Voigt Hill
#
# Bulk Modulus (GPa) = 57.28128 58.28335 57.78232
# Shear Modulus (GPa) = 20.90583 22.62182 21.76382
#
# Velocity S-wave (km/s) = 3.36335 3.49866 3.43168
# Velocity P-wave (km/s) = 6.78806 6.91795 6.85331
#
# Compressibility (1/GPa) = 0.01745771
#
# Stress axis : x y z
#
# Youngs Moduli (GPa) = 51.95774 72.25698 63.85600
#
# Poissons Ratio (x) = 0.36923 0.39660
# Poissons Ratio (y) = 0.26550 0.27607
# Poissons Ratio (z) = 0.32270 0.31239
#
# Static dielectric constant tensor:
#      x y z
#    x 3.489940 0.000000 0.000000 
#    y 0.000000 3.425240 0.000000 
#    z 0.000000 0.000000 3.269510 
# 
# 
# High freq. dielectric constant tensor:
#      x y z
#    x 1.723950 0.000000 0.000000 
#    y 0.000000 1.713340 0.000000 
#    z 0.000000 0.000000 1.706160 
# 
# From -- ./inp_files/20470.got.cif
#   From: 2010.03.12/outbox.cif.g09.slc.cpg/sg53_11_cif.got.tgz:20470.got - 2010.04.16 14:36:59.
