data_PCOD8218030
_publ_section_title
;
Structure prediction by ZEFSAII (Michael W. Deem and Ramdas Pophale) SiO2 
 PCOD8218030
Probable space group: P M N A
;
_chemical_formula_sum "Si O2"
_cell_formula_units_Z 64
_cell_length_a 8.827208
_cell_length_b 20.555678
_cell_length_c 20.483394
_cell_angle_alpha 90.000000
_cell_angle_beta 90.000000
_cell_angle_gamma 90.000000
_cell_volume 3716.696382
_symmetry_space_group_name_H-M "P M N A"
_symmetry_group_IT_number 53
_symmetry_cell_setting 'orthorhombic'
loop_
_space_group_symop_operation_xyz
x,y,z
1/2-x,-y,1/2+z
x,-y,-z
1/2-x,y,1/2-z
-x,-y,-z
1/2+x,y,1/2-z
-x,y,z
1/2+x,-y,1/2+z
loop_
_atom_site_type_symbol
_atom_site_label
_atom_site_fract_x
_atom_site_fract_y
_atom_site_fract_z
Si Si1 0.326560 0.351712 0.145482
Si Si2 0.678512 0.941928 0.545914
Si Si3 0.679608 0.488397 0.184451
Si Si4 0.328746 0.073274 0.185721
Si Si5 0.677863 0.327193 0.997758
Si Si6 0.678436 0.451546 0.558393
Si Si7 0.325980 0.199555 0.480913
Si Si8 0.670464 0.786369 0.850074
O O1 0.500000 0.371841 0.141804
O O2 0.249225 0.414712 0.177940
O O3 0.269232 0.340075 0.071864
O O4 0.300621 0.283762 0.185561
O O5 0.500000 0.945911 0.558213
O O6 0.753998 0.947214 0.617337
O O7 0.720371 0.875813 0.505888
O O8 0.737519 0.000000 0.500000
O O9 0.750000 0.518916 0.250000
O O10 0.500000 0.491641 0.189509
O O11 0.733119 0.529168 0.122997
O O12 0.250000 0.042090 0.250000
O O13 0.500000 0.047904 0.184070
O O14 0.322196 0.151668 0.197052
O O15 0.500000 0.336365 0.985674
O O16 0.725970 0.252655 0.979537
O O17 0.771457 0.377785 0.954734
O O18 0.727904 0.500000 0.500000
O O19 0.500000 0.454876 0.570342
O O20 0.500000 0.212550 0.498292
O O21 0.299918 0.206450 0.403761
O O22 0.500000 0.782566 0.882343
#
# Coordination Sequence:
#
# PCOD8218030 Si02
#       8
#     8   8   8   8   8   8   8   8
#     4   8  15  28  46  65  90 126 165 200 239 288
#     4   9  18  33  52  74 103 138 172 208 252 301
#     4  11  22  36  50  68  97 132 169 208 258 310
#     4  10  19  30  46  68  98 133 173 213 248 292
#     4  10  18  31  51  73  98 130 166 205 252 301
#     4  11  22  35  53  77 100 124 166 217 259 301
#     4   9  16  27  45  72 101 127 161 204 248 291
#     4   8  15  28  43  62  90 128 168 201 238 285
#
# _framework density 17.219594000000001
#
# number of rings (size 3 to 8) (size 9 to 14) (size 15 to 20)
#    0.000    2.500    1.250    2.625    0.000    2.250 
#    0.000    0.625    0.000    0.000    0.000    0.875 
#    0.000    2.000    0.000    0.000    0.000    0.000 
#
# Total GULP energy -792860.701156 kJ/mol
# GULP energy per Si atom -12388.448456 kJ/mol
# Density = 1.718040 g / cm^3
# Si number density = 17.219594 Si / 1000 Ang^3
#
#
#
# Elastic Constant Matrix: (Units=GPa)
#
#
# Indices 1 2 3 4 5 6 
#
# 1 66.1245 34.3795 37.0338 0.0000 0.0000 0.0000
# 2 34.3795 96.4812 43.5776 0.0000 0.0000 0.0000
# 3 37.0338 43.5776 88.2386 0.0000 0.0000 0.0000
# 4 0.0000 0.0000 0.0000 10.2968 0.0000 0.0000
# 5 0.0000 0.0000 0.0000 0.0000 22.9609 0.0000
# 6 0.0000 0.0000 0.0000 0.0000 0.0000 21.4867
#
#
#
# Elastic Compliance Matrix: (Units=1/GPa)
#
#
# Indices 1 2 3 4 5 6 
#
# 1 0.021219 -0.004555 -0.006656 0.000000 0.000000 0.000000
# 2 -0.004555 0.014318 -0.005160 0.000000 0.000000 0.000000
# 3 -0.006656 -0.005160 0.016675 0.000000 0.000000 0.000000
# 4 0.000000 0.000000 0.000000 0.097117 0.000000 0.000000
# 5 0.000000 0.000000 0.000000 0.000000 0.043552 0.000000
# 6 0.000000 0.000000 0.000000 0.000000 0.000000 0.046540
#
#
# Mechanical properties :
#
#
# Convention : Reuss Voigt Hill
#
# Bulk Modulus (GPa) = 51.35893 53.42513 52.39203
# Shear Modulus (GPa) = 17.94348 20.00579 18.97464
#
# Velocity S-wave (km/s) = 3.23156 3.41222 3.32312
# Velocity P-wave (km/s) = 6.61926 6.82770 6.72429
#
# Compressibility (1/GPa) = 0.01947081
#
# Stress axis : x y z
#
# Youngs Moduli (GPa) = 47.12770 69.84176 59.97123
#
# Poissons Ratio (x) = 0.31810 0.39919
# Poissons Ratio (y) = 0.21465 0.30943
# Poissons Ratio (z) = 0.31370 0.36035
#
# Static dielectric constant tensor:
#      x y z
#    x 3.157900 0.000000 0.000000 
#    y 0.000000 3.432720 0.000000 
#    z 0.000000 0.000000 2.857590 
# 
# 
# High freq. dielectric constant tensor:
#      x y z
#    x 1.667090 0.000000 0.000000 
#    y 0.000000 1.657030 0.000000 
#    z 0.000000 0.000000 1.623180 
# 
# From -- ./inp_files/31355.got.cif
#   From: 2010.03.12/outbox.cif.g09.slc.cpg/sg53_16_cif.got.tgz:31355.got - 2010.04.16 14:36:59.
