data_PCOD8218854
_publ_section_title
;
Structure prediction by ZEFSAII (Michael W. Deem and Ramdas Pophale) SiO2 
 PCOD8218854
Probable space group: P M N A
;
_chemical_formula_sum "Si O2"
_cell_formula_units_Z 56
_cell_length_a 9.166856
_cell_length_b 14.926811
_cell_length_c 20.606889
_cell_angle_alpha 90.000000
_cell_angle_beta 90.000000
_cell_angle_gamma 90.000000
_cell_volume 2819.680331
_symmetry_space_group_name_H-M "P M N A"
_symmetry_group_IT_number 53
_symmetry_cell_setting 'orthorhombic'
loop_
_space_group_symop_operation_xyz
x,y,z
1/2-x,-y,1/2+z
x,-y,-z
1/2-x,y,1/2-z
-x,-y,-z
1/2+x,y,1/2-z
-x,y,z
1/2+x,-y,1/2+z
loop_
_atom_site_type_symbol
_atom_site_label
_atom_site_fract_x
_atom_site_fract_y
_atom_site_fract_z
Si Si1 0.331046 0.935808 0.558202
Si Si2 0.337036 0.556657 0.687317
Si Si3 0.664820 0.769305 0.980695
Si Si4 0.670171 0.048065 0.686151
Si Si5 0.663996 0.344984 0.688330
Si Si6 0.836007 0.790537 0.374549
Si Si7 0.325976 0.412167 0.458256
O O1 0.500000 0.914033 0.545528
O O2 0.246454 0.841481 0.564004
O O3 0.273574 0.000000 0.500000
O O4 0.303441 0.980572 0.627311
O O5 0.250000 0.594656 0.750000
O O6 0.500000 0.594406 0.694844
O O7 0.335829 0.450596 0.687325
O O8 0.272859 0.583661 0.617089
O O9 0.500000 0.752536 0.955406
O O10 0.749078 0.675421 0.986445
O O11 0.661700 0.817377 0.050536
O O12 0.750000 0.008995 0.750000
O O13 0.500000 0.061710 0.700442
O O14 0.741382 0.142438 0.668344
O O15 0.750000 0.306606 0.750000
O O16 0.500000 0.307663 0.687392
O O17 0.755420 0.306227 0.627966
O O18 0.000000 0.785287 0.346642
O O19 0.277853 0.500000 0.500000
O O20 0.500000 0.402158 0.462543
#
# Coordination Sequence:
#
# PCOD8218854 Si02
#       7
#     8   8   8   8   8   8   8
#     4  10  21  41  66  89 115 154 202 244 289 352
#     4   9  19  35  56  81 109 150 197 245 301 354
#     4  11  24  38  59  90 120 154 196 248 305 357
#     4  11  23  39  61  88 119 155 195 244 299 352
#     4  10  19  32  51  76 109 148 192 239 292 354
#     4  11  22  35  52  80 117 153 191 236 294 359
#     4  10  21  39  62  88 120 158 204 254 301 358
#
# _framework density 19.860408
#
# number of rings (size 3 to 8) (size 9 to 14) (size 15 to 20)
#    0.000    1.714    1.429    3.000    0.000    5.714 
#    0.000    0.714    0.000    0.000    0.000    0.000 
#    0.000    0.000    0.000    0.000    0.000    0.000 
#
# Total GULP energy -694216.322736 kJ/mol
# GULP energy per Si atom -12396.720049 kJ/mol
# Density = 1.981520 g / cm^3
# Si number density = 19.860408 Si / 1000 Ang^3
#
#
#
# Elastic Constant Matrix: (Units=GPa)
#
#
# Indices 1 2 3 4 5 6 
#
# 1 117.3121 49.5756 50.6177 0.0000 0.0000 0.0000
# 2 49.5756 83.5421 31.6949 0.0000 0.0000 0.0000
# 3 50.6177 31.6949 115.2967 0.0000 0.0000 0.0000
# 4 0.0000 0.0000 0.0000 28.1214 0.0000 0.0000
# 5 0.0000 0.0000 0.0000 0.0000 31.9467 0.0000
# 6 0.0000 0.0000 0.0000 0.0000 0.0000 27.1914
#
#
#
# Elastic Compliance Matrix: (Units=1/GPa)
#
#
# Indices 1 2 3 4 5 6 
#
# 1 0.012805 -0.006102 -0.003944 0.000000 0.000000 0.000000
# 2 -0.006102 0.016272 -0.001794 0.000000 0.000000 0.000000
# 3 -0.003944 -0.001794 0.010898 0.000000 0.000000 0.000000
# 4 0.000000 0.000000 0.000000 0.035560 0.000000 0.000000
# 5 0.000000 0.000000 0.000000 0.000000 0.031302 0.000000
# 6 0.000000 0.000000 0.000000 0.000000 0.000000 0.036776
#
#
# Mechanical properties :
#
#
# Convention : Reuss Voigt Hill
#
# Bulk Modulus (GPa) = 61.37302 64.43636 62.90469
# Shear Modulus (GPa) = 28.94764 29.73608 29.34186
#
# Velocity S-wave (km/s) = 3.82194 3.87363 3.84787
# Velocity P-wave (km/s) = 7.10250 7.24719 7.17521
#
# Compressibility (1/GPa) = 0.01629381
#
# Stress axis : x y z
#
# Youngs Moduli (GPa) = 78.09518 61.45559 91.75987
#
# Poissons Ratio (x) = 0.37502 0.36191
# Poissons Ratio (y) = 0.47656 0.16462
# Poissons Ratio (z) = 0.30802 0.11026
#
# Static dielectric constant tensor:
#      x y z
#    x 3.772510 0.000000 0.000000 
#    y 0.000000 3.313260 0.000000 
#    z 0.000000 0.000000 3.808560 
# 
# 
# High freq. dielectric constant tensor:
#      x y z
#    x 1.778920 0.000000 0.000000 
#    y 0.000000 1.755570 0.000000 
#    z 0.000000 0.000000 1.778480 
# 
# From -- ./inp_files/30838.got.cif
#   From: 2010.03.12/outbox.cif.g09.slc.cpg/sg53_16_cif.got.tgz:30838.got - 2010.04.16 14:36:59.
