data_PCOD8218465
_publ_section_title
;
Structure prediction by ZEFSAII (Michael W. Deem and Ramdas Pophale) SiO2 
 PCOD8218465
Probable space group: P M N A
;
_chemical_formula_sum "Si O2"
_cell_formula_units_Z 56
_cell_length_a 9.288826
_cell_length_b 13.725500
_cell_length_c 23.883685
_cell_angle_alpha 90.000000
_cell_angle_beta 90.000000
_cell_angle_gamma 90.000000
_cell_volume 3045.021311
_symmetry_space_group_name_H-M "P M N A"
_symmetry_group_IT_number 53
_symmetry_cell_setting 'orthorhombic'
loop_
_space_group_symop_operation_xyz
x,y,z
1/2-x,-y,1/2+z
x,-y,-z
1/2-x,y,1/2-z
-x,-y,-z
1/2+x,y,1/2-z
-x,y,z
1/2+x,-y,1/2+z
loop_
_atom_site_type_symbol
_atom_site_label
_atom_site_fract_x
_atom_site_fract_y
_atom_site_fract_z
Si Si1 0.834192 0.170733 0.405619
Si Si2 0.167531 0.492639 0.194432
Si Si3 0.665660 0.840621 0.306772
Si Si4 0.335058 0.947441 0.105310
Si Si5 0.168908 0.268297 0.193614
Si Si6 0.167463 0.228642 0.527594
Si Si7 0.335955 0.342110 0.613347
O O1 0.729337 0.204650 0.356811
O O2 0.788805 0.225695 0.462507
O O3 0.000000 0.193538 0.389702
O O4 0.812614 0.056327 0.416635
O O5 0.250000 0.526091 0.250000
O O6 0.201025 0.380907 0.179792
O O7 0.219359 0.557724 0.141819
O O8 0.000000 0.511066 0.206281
O O9 0.750000 0.824962 0.250000
O O10 0.500000 0.865353 0.294391
O O11 0.735080 0.930370 0.340662
O O12 0.684423 0.742324 0.341484
O O13 0.500000 0.928832 0.123120
O O14 0.288745 0.874150 0.055757
O O15 0.250000 0.236220 0.250000
O O16 0.000000 0.248092 0.201187
O O17 0.246635 0.319026 0.557375
O O18 0.000000 0.247834 0.534530
O O19 0.500000 0.352455 0.594170
#
# Coordination Sequence:
#
# PCOD8218465 Si02
#       7
#     8   8   8   8   8   8   8
#     4  10  20  35  55  76  99 130 167 207 249 292
#     4   9  18  33  53  76 101 131 167 205 247 295
#     4  10  19  30  46  71 102 132 163 202 247 296
#     4   9  18  33  52  72  97 131 168 206 248 293
#     4  10  21  37  56  77 101 130 166 208 250 293
#     4   9  18  33  53  77 102 129 165 205 245 293
#     4   9  18  32  50  74 103 132 163 201 246 296
#
# _framework density 18.390675999999999
#
# number of rings (size 3 to 8) (size 9 to 14) (size 15 to 20)
#    0.000    2.571    0.000    1.714    0.000    5.143 
#    0.000    0.714    0.000    8.571    0.000    0.000 
#    0.000    0.000    0.000    0.000    0.000    0.000 
#
# Total GULP energy -694484.402342 kJ/mol
# GULP energy per Si atom -12401.507185 kJ/mol
# Density = 1.834882 g / cm^3
# Si number density = 18.390676 Si / 1000 Ang^3
#
#
#
# Elastic Constant Matrix: (Units=GPa)
#
#
# Indices 1 2 3 4 5 6 
#
# 1 79.4851 26.0835 54.3421 0.0000 0.0000 0.0000
# 2 26.0835 53.9726 34.5741 0.0000 0.0000 0.0000
# 3 54.3421 34.5741 107.9968 0.0000 0.0000 0.0000
# 4 0.0000 0.0000 0.0000 27.7335 0.0000 0.0000
# 5 0.0000 0.0000 0.0000 0.0000 33.7700 0.0000
# 6 0.0000 0.0000 0.0000 0.0000 0.0000 22.7787
#
#
#
# Elastic Compliance Matrix: (Units=1/GPa)
#
#
# Indices 1 2 3 4 5 6 
#
# 1 0.019848 -0.004019 -0.008701 0.000000 0.000000 0.000000
# 2 -0.004019 0.024121 -0.005700 0.000000 0.000000 0.000000
# 3 -0.008701 -0.005700 0.015462 0.000000 0.000000 0.000000
# 4 0.000000 0.000000 0.000000 0.036058 0.000000 0.000000
# 5 0.000000 0.000000 0.000000 0.000000 0.029612 0.000000
# 6 0.000000 0.000000 0.000000 0.000000 0.000000 0.043901
#
#
# Mechanical properties :
#
#
# Convention : Reuss Voigt Hill
#
# Bulk Modulus (GPa) = 44.26126 52.38379 48.32252
# Shear Modulus (GPa) = 23.43321 25.28674 24.35998
#
# Velocity S-wave (km/s) = 3.57345 3.71209 3.64343
# Velocity P-wave (km/s) = 6.41448 6.84971 6.63566
#
# Compressibility (1/GPa) = 0.02259312
#
# Stress axis : x y z
#
# Youngs Moduli (GPa) = 50.38238 41.45696 64.67266
#
# Poissons Ratio (x) = 0.16660 0.56270
# Poissons Ratio (y) = 0.20246 0.36865
# Poissons Ratio (z) = 0.43837 0.23631
#
# Static dielectric constant tensor:
#      x y z
#    x 3.443100 0.000000 0.000000 
#    y 0.000000 3.336180 0.000000 
#    z 0.000000 0.000000 3.366200 
# 
# 
# High freq. dielectric constant tensor:
#      x y z
#    x 1.712440 0.000000 0.000000 
#    y 0.000000 1.703230 0.000000 
#    z 0.000000 0.000000 1.709760 
# 
# From -- ./inp_files/30827.got.cif
#   From: 2010.03.12/outbox.cif.g09.slc.cpg/sg53_16_cif.got.tgz:30827.got - 2010.04.16 14:36:59.
