data_PCOD8218926
_publ_section_title
;
Structure prediction by ZEFSAII (Michael W. Deem and Ramdas Pophale) SiO2 
 PCOD8218926
Probable space group: P M N A
;
_chemical_formula_sum "Si O2"
_cell_formula_units_Z 56
_cell_length_a 14.442040
_cell_length_b 8.806400
_cell_length_c 22.376584
_cell_angle_alpha 90.000000
_cell_angle_beta 90.000000
_cell_angle_gamma 90.000000
_cell_volume 2845.907233
_symmetry_space_group_name_H-M "P M N A"
_symmetry_group_IT_number 53
_symmetry_cell_setting 'orthorhombic'
loop_
_space_group_symop_operation_xyz
x,y,z
1/2-x,-y,1/2+z
x,-y,-z
1/2-x,y,1/2-z
-x,-y,-z
1/2+x,y,1/2-z
-x,y,z
1/2+x,-y,1/2+z
loop_
_atom_site_type_symbol
_atom_site_label
_atom_site_fract_x
_atom_site_fract_y
_atom_site_fract_z
Si Si1 0.292278 0.323823 0.390311
Si Si2 0.794084 0.323054 0.888627
Si Si3 0.105151 0.179160 0.999472
Si Si4 0.849751 0.846145 0.226072
Si Si5 0.899796 0.667085 0.338866
Si Si6 0.897458 0.180923 0.215451
Si Si7 0.896078 0.680376 0.659540
O O1 0.312697 0.500517 0.399796
O O2 0.345286 0.231723 0.440465
O O3 0.326221 0.271135 0.325497
O O4 0.181198 0.289550 0.391819
O O5 0.834228 0.232488 0.944056
O O6 0.845966 0.271759 0.828622
O O7 0.683952 0.285648 0.882907
O O8 0.000000 0.243912 0.996237
O O9 0.102225 0.000000 0.000000
O O10 0.750000 0.892361 0.250000
O O11 0.905526 0.767344 0.279265
O O12 0.897184 0.000422 0.203874
O O13 0.885447 0.493165 0.318493
O O14 0.000000 0.686478 0.371630
O O15 0.873970 0.211444 0.284609
O O16 0.000000 0.241591 0.200189
O O17 0.000000 0.711730 0.634196
#
# Coordination Sequence:
#
# PCOD8218926 Si02
#       7
#     8   8   8   8   8   8   8
#     4  11  21  37  58  80 108 141 181 225 268 315
#     4  10  22  37  57  82 107 141 182 224 268 316
#     4  11  25  43  60  78 104 140 180 222 268 318
#     4  10  19  32  52  80 114 148 180 217 264 316
#     4   9  18  35  57  82 112 143 177 218 265 318
#     4  11  21  32  51  81 114 148 182 218 267 319
#     4   9  19  35  56  82 111 143 178 218 265 318
#
# _framework density 19.677381
#
# number of rings (size 3 to 8) (size 9 to 14) (size 15 to 20)
#    0.000    1.857    0.000    4.286    0.000    7.429 
#    0.000    0.714    0.000    4.286    0.000    0.000 
#    0.000    0.000    0.000    0.000    0.000    0.000 
#
# Total GULP energy -694338.505068 kJ/mol
# GULP energy per Si atom -12398.901876 kJ/mol
# Density = 1.963259 g / cm^3
# Si number density = 19.677381 Si / 1000 Ang^3
#
#
#
# Elastic Constant Matrix: (Units=GPa)
#
#
# Indices 1 2 3 4 5 6 
#
# 1 144.0016 39.9454 57.9752 0.0000 0.0000 0.0000
# 2 39.9454 71.0964 24.5268 0.0000 0.0000 0.0000
# 3 57.9752 24.5268 71.1081 0.0000 0.0000 0.0000
# 4 0.0000 0.0000 0.0000 34.5715 0.0000 0.0000
# 5 0.0000 0.0000 0.0000 0.0000 24.4137 0.0000
# 6 0.0000 0.0000 0.0000 0.0000 0.0000 27.0354
#
#
#
# Elastic Compliance Matrix: (Units=1/GPa)
#
#
# Indices 1 2 3 4 5 6 
#
# 1 0.011064 -0.003524 -0.007805 0.000000 0.000000 0.000000
# 2 -0.003524 0.017087 -0.003021 0.000000 0.000000 0.000000
# 3 -0.007805 -0.003021 0.021469 0.000000 0.000000 0.000000
# 4 0.000000 0.000000 0.000000 0.028926 0.000000 0.000000
# 5 0.000000 0.000000 0.000000 0.000000 0.040961 0.000000
# 6 0.000000 0.000000 0.000000 0.000000 0.000000 0.036989
#
#
# Mechanical properties :
#
#
# Convention : Reuss Voigt Hill
#
# Bulk Modulus (GPa) = 47.80006 59.01123 53.40564
# Shear Modulus (GPa) = 26.01877 28.12136 27.07006
#
# Velocity S-wave (km/s) = 3.64025 3.78447 3.71306
# Velocity P-wave (km/s) = 6.48175 7.01076 6.75144
#
# Compressibility (1/GPa) = 0.02092048
#
# Stress axis : x y z
#
# Youngs Moduli (GPa) = 90.38064 58.52276 46.57896
#
# Poissons Ratio (x) = 0.20622 0.36357
# Poissons Ratio (y) = 0.31848 0.14071
# Poissons Ratio (z) = 0.70546 0.17679
#
# Static dielectric constant tensor:
#      x y z
#    x 3.925590 0.000000 0.000000 
#    y 0.000000 3.575150 0.000000 
#    z 0.000000 0.000000 3.330420 
# 
# 
# High freq. dielectric constant tensor:
#      x y z
#    x 1.788220 0.000000 0.000000 
#    y 0.000000 1.772280 0.000000 
#    z 0.000000 0.000000 1.734350 
# 
# From -- ./inp_files/32414.got.cif
#   From: 2010.03.12/outbox.cif.g09.slc.cpg/sg53_17_cif.got.tgz:32414.got - 2010.04.16 14:36:59.
