data_PCOD8218990
_publ_section_title
;
Structure prediction by ZEFSAII (Michael W. Deem and Ramdas Pophale) SiO2 
 PCOD8218990
Probable space group: P M N A
;
_chemical_formula_sum "Si O2"
_cell_formula_units_Z 64
_cell_length_a 8.644239
_cell_length_b 20.924802
_cell_length_c 18.536061
_cell_angle_alpha 90.000000
_cell_angle_beta 90.000000
_cell_angle_gamma 90.000000
_cell_volume 3352.783983
_symmetry_space_group_name_H-M "P M N A"
_symmetry_group_IT_number 53
_symmetry_cell_setting 'orthorhombic'
loop_
_space_group_symop_operation_xyz
x,y,z
1/2-x,-y,1/2+z
x,-y,-z
1/2-x,y,1/2-z
-x,-y,-z
1/2+x,y,1/2-z
-x,y,z
1/2+x,-y,1/2+z
loop_
_atom_site_type_symbol
_atom_site_label
_atom_site_fract_x
_atom_site_fract_y
_atom_site_fract_z
Si Si1 0.321521 0.608123 0.446403
Si Si2 0.183771 0.610552 0.602924
Si Si3 0.816451 0.010638 0.671774
Si Si4 0.684379 0.114768 0.094478
Si Si5 0.817394 0.489329 0.826142
Si Si6 0.682678 0.874654 0.070478
Si Si7 0.178956 0.251034 0.398829
Si Si8 0.677397 0.250271 0.550019
O O1 0.500000 0.593029 0.464159
O O2 0.228204 0.597609 0.520059
O O3 0.255372 0.559344 0.387059
O O4 0.303635 0.679909 0.413424
O O5 0.262121 0.560558 0.656045
O O6 0.248197 0.681108 0.628883
O O7 0.000000 0.605967 0.610037
O O8 0.750000 0.023393 0.750000
O O9 0.759842 0.067678 0.620486
O O10 0.000000 0.007521 0.675009
O O11 0.747878 0.944130 0.640171
O O12 0.500000 0.113537 0.096332
O O13 0.745705 0.182593 0.130018
O O14 0.736973 0.109090 0.011116
O O15 0.750000 0.467002 0.750000
O O16 0.000000 0.487421 0.821604
O O17 0.500000 0.865216 0.076354
O O18 0.767797 0.809634 0.099152
O O19 0.203890 0.248946 0.484087
O O20 0.000000 0.253058 0.381191
O O21 0.500000 0.240896 0.524857
#
# Coordination Sequence:
#
# PCOD8218990 Si02
#       8
#     8   8   8   8   8   8   8   8
#     4   9  19  35  54  76 102 132 165 204 251 299
#     4  10  19  32  54  82 106 130 164 205 248 298
#     4  10  20  33  49  69  96 129 163 200 241 287
#     4   8  14  29  53  74  92 122 164 202 234 277
#     4  11  23  38  53  71 100 136 172 210 251 295
#     4   9  17  31  51  73  95 124 163 201 239 286
#     4   8  15  29  50  75 101 127 160 201 241 287
#     4   9  16  28  49  76 102 125 155 200 250 293
#
# _framework density 19.088614
#
# number of rings (size 3 to 8) (size 9 to 14) (size 15 to 20)
#    0.000    2.750    0.000    2.625    0.000    5.500 
#    0.000    3.750    0.000    8.250    0.000    0.000 
#    0.000    0.000    0.000    0.000    0.000    0.000 
#
# Total GULP energy -792902.620922 kJ/mol
# GULP energy per Si atom -12389.103452 kJ/mol
# Density = 1.904517 g / cm^3
# Si number density = 19.088614 Si / 1000 Ang^3
#
#
#
# Elastic Constant Matrix: (Units=GPa)
#
#
# Indices 1 2 3 4 5 6 
#
# 1 21.3670 10.7608 9.4333 0.0000 0.0000 0.0000
# 2 10.7608 111.1922 12.4170 0.0000 0.0000 0.0000
# 3 9.4333 12.4170 42.8730 0.0000 0.0000 0.0000
# 4 0.0000 0.0000 0.0000 7.3201 0.0000 0.0000
# 5 0.0000 0.0000 0.0000 0.0000 24.3189 0.0000
# 6 0.0000 0.0000 0.0000 0.0000 0.0000 24.3097
#
#
#
# Elastic Compliance Matrix: (Units=1/GPa)
#
#
# Indices 1 2 3 4 5 6 
#
# 1 0.053498 -0.003992 -0.010615 0.000000 0.000000 0.000000
# 2 -0.003992 0.009592 -0.001900 0.000000 0.000000 0.000000
# 3 -0.010615 -0.001900 0.026210 0.000000 0.000000 0.000000
# 4 0.000000 0.000000 0.000000 0.136611 0.000000 0.000000
# 5 0.000000 0.000000 0.000000 0.000000 0.041120 0.000000
# 6 0.000000 0.000000 0.000000 0.000000 0.000000 0.041136
#
#
# Mechanical properties :
#
#
# Convention : Reuss Voigt Hill
#
# Bulk Modulus (GPa) = 17.76601 26.73938 22.25270
# Shear Modulus (GPa) = 13.89109 20.71113 17.30111
#
# Velocity S-wave (km/s) = 2.70055 3.29751 3.01384
# Velocity P-wave (km/s) = 4.36478 5.34196 4.87790
#
# Compressibility (1/GPa) = 0.05628726
#
# Stress axis : x y z
#
# Youngs Moduli (GPa) = 18.69227 104.25456 38.15269
#
# Poissons Ratio (x) = 0.41618 0.40499
# Poissons Ratio (y) = 0.07462 0.07248
# Poissons Ratio (z) = 0.19842 0.19805
#
# Static dielectric constant tensor:
#      x y z
#    x 3.268590 0.000000 0.000000 
#    y 0.000000 4.283370 0.000000 
#    z 0.000000 0.000000 3.176660 
# 
# 
# High freq. dielectric constant tensor:
#      x y z
#    x 1.722260 0.000000 0.000000 
#    y 0.000000 1.773370 0.000000 
#    z 0.000000 0.000000 1.696070 
# 
# From -- ./inp_files/26932.got.cif
#   From: 2010.03.12/outbox.cif.g09.slc.cpg/sg53_14_cif.got.tgz:26932.got - 2010.04.16 14:36:59.
