data_PCOD8218530
_publ_section_title
;
Structure prediction by ZEFSAII (Michael W. Deem and Ramdas Pophale) SiO2 
 PCOD8218530
Probable space group: P M N A
;
_chemical_formula_sum "Si O2"
_cell_formula_units_Z 64
_cell_length_a 8.972772
_cell_length_b 23.219877
_cell_length_c 17.783971
_cell_angle_alpha 90.000000
_cell_angle_beta 90.000000
_cell_angle_gamma 90.000000
_cell_volume 3705.230998
_symmetry_space_group_name_H-M "P M N A"
_symmetry_group_IT_number 53
_symmetry_cell_setting 'orthorhombic'
loop_
_space_group_symop_operation_xyz
x,y,z
1/2-x,-y,1/2+z
x,-y,-z
1/2-x,y,1/2-z
-x,-y,-z
1/2+x,y,1/2-z
-x,y,z
1/2+x,-y,1/2+z
loop_
_atom_site_type_symbol
_atom_site_label
_atom_site_fract_x
_atom_site_fract_y
_atom_site_fract_z
Si Si1 0.321661 0.437164 0.169586
Si Si2 0.330225 0.932485 0.604684
Si Si3 0.337688 0.461366 0.926916
Si Si4 0.325425 0.867861 0.460722
Si Si5 0.822372 0.634829 0.527285
Si Si6 0.674061 0.048855 0.672101
Si Si7 0.328734 0.186296 0.325498
Si Si8 0.823275 0.765007 0.528686
O O1 0.250000 0.423184 0.250000
O O2 0.500000 0.438105 0.177207
O O3 0.260707 0.499612 0.138393
O O4 0.270483 0.388157 0.109556
O O5 0.500000 0.948761 0.586918
O O6 0.260041 0.909992 0.526120
O O7 0.315977 0.882805 0.667206
O O8 0.253545 0.990853 0.635639
O O9 0.500000 0.443682 0.895383
O O10 0.359089 0.500000 0.000000
O O11 0.253880 0.403542 0.957572
O O12 0.500000 0.856573 0.476173
O O13 0.294803 0.896656 0.380896
O O14 0.240969 0.806626 0.463506
O O15 0.769898 0.699948 0.513337
O O16 0.000000 0.629095 0.524080
O O17 0.750000 0.063794 0.750000
O O18 0.500000 0.039343 0.686322
O O19 0.250000 0.206901 0.250000
O O20 0.500000 0.206074 0.325203
O O21 0.243458 0.217004 0.392147
O O22 0.000000 0.770261 0.531401
#
# Coordination Sequence:
#
# PCOD8218530 Si02
#       8
#     8   8   8   8   8   8   8   8
#     4   9  16  27  45  69  96 120 143 176 220 266
#     4   8  15  29  49  69  88 115 150 186 227 278
#     4   7  11  23  44  65  84 111 147 180 208 246
#     4   9  18  33  50  67  91 123 155 187 229 279
#     4   8  15  28  46  67  87 115 155 189 216 254
#     4  10  19  31  49  71  93 116 146 188 236 284
#     4  10  19  31  46  65  93 125 155 186 225 273
#     4  10  19  31  48  68  90 118 157 197 227 262
#
# _framework density 17.272877000000001
#
# number of rings (size 3 to 8) (size 9 to 14) (size 15 to 20)
#    0.000    3.125    0.000    3.750    0.000    2.500 
#    0.000    5.000    0.000    9.375    0.000    3.500 
#    0.000    0.000    0.000    0.000    0.000    0.000 
#
# Total GULP energy -792909.797886 kJ/mol
# GULP energy per Si atom -12389.215592 kJ/mol
# Density = 1.723356 g / cm^3
# Si number density = 17.272877 Si / 1000 Ang^3
#
#
#
# Elastic Constant Matrix: (Units=GPa)
#
#
# Indices 1 2 3 4 5 6 
#
# 1 40.7965 37.0804 24.9539 0.0000 0.0000 0.0000
# 2 37.0804 136.7358 52.9287 0.0000 0.0000 0.0000
# 3 24.9539 52.9287 77.8188 0.0000 0.0000 0.0000
# 4 0.0000 0.0000 0.0000 20.3477 0.0000 0.0000
# 5 0.0000 0.0000 0.0000 0.0000 22.2465 0.0000
# 6 0.0000 0.0000 0.0000 0.0000 0.0000 14.2230
#
#
#
# Elastic Compliance Matrix: (Units=1/GPa)
#
#
# Indices 1 2 3 4 5 6 
#
# 1 0.034745 -0.006935 -0.006424 0.000000 0.000000 0.000000
# 2 -0.006935 0.011311 -0.005469 0.000000 0.000000 0.000000
# 3 -0.006424 -0.005469 0.018631 0.000000 0.000000 0.000000
# 4 0.000000 0.000000 0.000000 0.049146 0.000000 0.000000
# 5 0.000000 0.000000 0.000000 0.000000 0.044951 0.000000
# 6 0.000000 0.000000 0.000000 0.000000 0.000000 0.070309
#
#
# Mechanical properties :
#
#
# Convention : Reuss Voigt Hill
#
# Bulk Modulus (GPa) = 36.99820 53.91969 45.45894
# Shear Modulus (GPa) = 18.13166 20.72263 19.42714
#
# Velocity S-wave (km/s) = 3.24345 3.46746 3.35732
# Velocity P-wave (km/s) = 5.95760 6.87860 6.43460
#
# Compressibility (1/GPa) = 0.02702834
#
# Stress axis : x y z
#
# Youngs Moduli (GPa) = 28.78086 88.40704 53.67527
#
# Poissons Ratio (x) = 0.61315 0.34484
# Poissons Ratio (y) = 0.19961 0.29357
# Poissons Ratio (z) = 0.18490 0.48354
#
# Static dielectric constant tensor:
#      x y z
#    x 2.891920 0.000000 0.000000 
#    y 0.000000 3.515630 0.000000 
#    z 0.000000 0.000000 3.118120 
# 
# 
# High freq. dielectric constant tensor:
#      x y z
#    x 1.628800 0.000000 0.000000 
#    y 0.000000 1.665450 0.000000 
#    z 0.000000 0.000000 1.652430 
# 
# From -- ./inp_files/27043.got.cif
#   From: 2010.03.12/outbox.cif.g09.slc.cpg/sg53_14_cif.got.tgz:27043.got - 2010.04.16 14:36:59.
