data_PCOD8218046
_publ_section_title
;
Structure prediction by ZEFSAII (Michael W. Deem and Ramdas Pophale) SiO2 
 PCOD8218046
Probable space group: P M N A
;
_chemical_formula_sum "Si O2"
_cell_formula_units_Z 48
_cell_length_a 8.663560
_cell_length_b 30.761027
_cell_length_c 9.552761
_cell_angle_alpha 90.000000
_cell_angle_beta 90.000000
_cell_angle_gamma 90.000000
_cell_volume 2545.810836
_symmetry_space_group_name_H-M "P M N A"
_symmetry_group_IT_number 53
_symmetry_cell_setting 'orthorhombic'
loop_
_space_group_symop_operation_xyz
x,y,z
1/2-x,-y,1/2+z
x,-y,-z
1/2-x,y,1/2-z
-x,-y,-z
1/2+x,y,1/2-z
-x,y,z
1/2+x,-y,1/2+z
loop_
_atom_site_type_symbol
_atom_site_label
_atom_site_fract_x
_atom_site_fract_y
_atom_site_fract_z
Si Si1 0.816751 0.372183 0.405507
Si Si2 0.317347 0.213873 0.898268
Si Si3 0.681628 0.459777 0.402681
Si Si4 0.682514 0.039607 0.096012
Si Si5 0.681139 0.885166 0.103266
Si Si6 0.682723 0.284806 0.404156
O O1 0.750000 0.373183 0.250000
O O2 0.756635 0.416846 0.475827
O O3 0.749104 0.328668 0.478941
O O4 0.000000 0.370305 0.406552
O O5 0.250000 0.228707 0.750000
O O6 0.500000 0.220815 0.900452
O O7 0.269482 0.164180 0.930350
O O8 0.236371 0.242451 0.014838
O O9 0.725420 0.500000 0.500000
O O10 0.750000 0.468932 0.250000
O O11 0.500000 0.452654 0.389151
O O12 0.750000 0.035935 0.250000
O O13 0.500000 0.038511 0.109456
O O14 0.740262 0.084213 0.022649
O O15 0.742044 0.000000 0.000000
O O16 0.750000 0.901352 0.250000
O O17 0.500000 0.889237 0.119983
O O18 0.750000 0.280854 0.250000
O O19 0.500000 0.287378 0.398390
#
# Coordination Sequence:
#
# PCOD8218046 Si02
#       6
#     8   8   8   8   8   8
#     4  10  18  31  52  76 103 136 174 215 262 314
#     4  10  20  36  55  78 108 141 177 216 265 319
#     4  10  20  34  53  77 105 137 174 215 261 313
#     4  10  21  36  54  79 109 140 177 219 263 312
#     4   9  19  35  55  78 105 138 176 217 259 311
#     4  11  21  35  55  79 106 137 176 220 265 313
#
# _framework density 18.854503000000001
#
# number of rings (size 3 to 8) (size 9 to 14) (size 15 to 20)
#    0.000    2.000    0.000    6.500    0.000    3.667 
#    0.000    2.500    0.000    2.000    0.000    0.000 
#    0.000    0.000    0.000    0.000    0.000    0.000 
#
# Total GULP energy -595145.639261 kJ/mol
# GULP energy per Si atom -12398.867485 kJ/mol
# Density = 1.881159 g / cm^3
# Si number density = 18.854503 Si / 1000 Ang^3
#
#
#
# Elastic Constant Matrix: (Units=GPa)
#
#
# Indices 1 2 3 4 5 6 
#
# 1 110.5605 59.4029 43.6448 0.0000 0.0000 0.0000
# 2 59.4029 150.5915 81.1127 0.0000 0.0000 0.0000
# 3 43.6448 81.1127 108.2807 0.0000 0.0000 0.0000
# 4 0.0000 0.0000 0.0000 31.9744 0.0000 0.0000
# 5 0.0000 0.0000 0.0000 0.0000 31.2524 0.0000
# 6 0.0000 0.0000 0.0000 0.0000 0.0000 22.2605
#
#
#
# Elastic Compliance Matrix: (Units=1/GPa)
#
#
# Indices 1 2 3 4 5 6 
#
# 1 0.011761 -0.003497 -0.002121 0.000000 0.000000 0.000000
# 2 -0.003497 0.012172 -0.007708 0.000000 0.000000 0.000000
# 3 -0.002121 -0.007708 0.015864 0.000000 0.000000 0.000000
# 4 0.000000 0.000000 0.000000 0.031275 0.000000 0.000000
# 5 0.000000 0.000000 0.000000 0.000000 0.031998 0.000000
# 6 0.000000 0.000000 0.000000 0.000000 0.000000 0.044923
#
#
# Mechanical properties :
#
#
# Convention : Reuss Voigt Hill
#
# Bulk Modulus (GPa) = 76.07594 81.97259 79.02426
# Shear Modulus (GPa) = 27.92883 29.44895 28.68889
#
# Velocity S-wave (km/s) = 3.85292 3.95638 3.90499
# Velocity P-wave (km/s) = 7.76079 8.02754 7.89529
#
# Compressibility (1/GPa) = 0.01314476
#
# Stress axis : x y z
#
# Youngs Moduli (GPa) = 85.02738 82.15718 63.03383
#
# Poissons Ratio (x) = 0.28729 0.13370
# Poissons Ratio (y) = 0.29732 0.48589
# Poissons Ratio (z) = 0.18035 0.63330
#
# Static dielectric constant tensor:
#      x y z
#    x 3.499670 0.000000 0.000000 
#    y 0.000000 4.239920 0.000000 
#    z 0.000000 0.000000 3.327710 
# 
# 
# High freq. dielectric constant tensor:
#      x y z
#    x 1.742650 0.000000 0.000000 
#    y 0.000000 1.755020 0.000000 
#    z 0.000000 0.000000 1.705360 
# 
# From -- ./inp_files/6703.got.cif
#   From: 2010.03.12/outbox.cif.g09.slc.cpg/sg53_4_cif.got.tgz:6703.got - 2010.04.16 14:36:59.
