data_PCOD8218135
_publ_section_title
;
Structure prediction by ZEFSAII (Michael W. Deem and Ramdas Pophale) SiO2 
 PCOD8218135
Probable space group: P M N A
;
_chemical_formula_sum "Si O2"
_cell_formula_units_Z 48
_cell_length_a 10.044924
_cell_length_b 14.833432
_cell_length_c 17.741578
_cell_angle_alpha 90.000000
_cell_angle_beta 90.000000
_cell_angle_gamma 90.000000
_cell_volume 2643.507490
_symmetry_space_group_name_H-M "P M N A"
_symmetry_group_IT_number 53
_symmetry_cell_setting 'orthorhombic'
loop_
_space_group_symop_operation_xyz
x,y,z
1/2-x,-y,1/2+z
x,-y,-z
1/2-x,y,1/2-z
-x,-y,-z
1/2+x,y,1/2-z
-x,y,z
1/2+x,-y,1/2+z
loop_
_atom_site_type_symbol
_atom_site_label
_atom_site_fract_x
_atom_site_fract_y
_atom_site_fract_z
Si Si1 0.241677 0.792243 0.534377
Si Si2 0.153466 0.513942 0.319487
Si Si3 0.500000 0.099001 0.970664
Si Si4 0.845924 0.690688 0.679995
Si Si5 0.500000 0.108104 0.506250
Si Si6 0.000000 0.219428 0.842801
Si Si7 0.739770 0.312431 0.889348
Si Si8 0.000000 0.802405 0.327050
O O1 0.129277 0.855935 0.503373
O O2 0.203904 0.757797 0.616260
O O3 0.374525 0.851560 0.537959
O O4 0.254468 0.707602 0.478066
O O5 0.250000 0.532551 0.250000
O O6 0.169270 0.411939 0.348993
O O7 0.202935 0.581945 0.384403
O O8 0.000000 0.532864 0.296460
O O9 0.500000 0.107136 0.879102
O O10 0.500000 0.000000 0.000000
O O11 0.750000 0.708672 0.750000
O O12 0.000000 0.710555 0.701587
O O13 0.500000 0.140555 0.593851
O O14 0.500000 0.000000 0.500000
O O15 0.875797 0.286386 0.848179
O O16 0.000000 0.170629 0.761027
O O17 0.628165 0.255588 0.847125
#
# Coordination Sequence:
#
# PCOD8218135 Si02
#       8
#     8   8   4   8   4   4   8   4
#     4  10  21  39  58  82 112 146 189 232 288 346
#     4  10  20  33  52  81 116 153 190 230 273 324
#     4  10  20  36  59  83 111 141 183 236 290 344
#     4  10  22  39  59  83 114 153 195 236 276 326
#     4  10  22  40  61  83 113 151 187 232 292 348
#     4  10  20  34  53  81 115 145 183 229 281 340
#     4  10  20  32  53  82 112 149 184 227 279 334
#     4  10  18  32  53  79 111 143 181 229 281 340
#
# _framework density 18.157695
#
# number of rings (size 3 to 8) (size 9 to 14) (size 15 to 20)
#    0.000    2.000    1.667    2.000    2.333    0.667 
#    0.000    3.333    0.000    3.000    0.000    0.000 
#    0.000    0.000    0.000    0.000    0.000    0.000 
#
# Total GULP energy -595071.174238 kJ/mol
# GULP energy per Si atom -12397.316130 kJ/mol
# Density = 1.811637 g / cm^3
# Si number density = 18.157695 Si / 1000 Ang^3
#
#
#
# Elastic Constant Matrix: (Units=GPa)
#
#
# Indices 1 2 3 4 5 6 
#
# 1 156.5842 47.5601 49.7810 0.0000 0.0000 0.0000
# 2 47.5601 87.4298 54.8858 0.0000 0.0000 0.0000
# 3 49.7810 54.8858 110.8644 0.0000 0.0000 0.0000
# 4 0.0000 0.0000 0.0000 23.5033 0.0000 0.0000
# 5 0.0000 0.0000 0.0000 0.0000 29.2978 0.0000
# 6 0.0000 0.0000 0.0000 0.0000 0.0000 16.5616
#
#
#
# Elastic Compliance Matrix: (Units=1/GPa)
#
#
# Indices 1 2 3 4 5 6 
#
# 1 0.007967 -0.003030 -0.002077 0.000000 0.000000 0.000000
# 2 -0.003030 0.017748 -0.007426 0.000000 0.000000 0.000000
# 3 -0.002077 -0.007426 0.013629 0.000000 0.000000 0.000000
# 4 0.000000 0.000000 0.000000 0.042547 0.000000 0.000000
# 5 0.000000 0.000000 0.000000 0.000000 0.034132 0.000000
# 6 0.000000 0.000000 0.000000 0.000000 0.000000 0.060381
#
#
# Mechanical properties :
#
#
# Convention : Reuss Voigt Hill
#
# Bulk Modulus (GPa) = 70.03956 73.25915 71.64936
# Shear Modulus (GPa) = 24.24483 27.38264 25.81373
#
# Velocity S-wave (km/s) = 3.65805 3.88757 3.77456
# Velocity P-wave (km/s) = 7.51655 7.78361 7.65124
#
# Compressibility (1/GPa) = 0.01427765
#
# Stress axis : x y z
#
# Youngs Moduli (GPa) = 125.51705 56.34544 73.37173
#
# Poissons Ratio (x) = 0.17071 0.15243
# Poissons Ratio (y) = 0.38029 0.54485
# Poissons Ratio (z) = 0.26076 0.41842
#
# Static dielectric constant tensor:
#      x y z
#    x 3.528750 0.000000 0.000000 
#    y 0.000000 3.349650 0.000000 
#    z 0.000000 0.000000 3.422470 
# 
# 
# High freq. dielectric constant tensor:
#      x y z
#    x 1.730110 0.000000 0.000000 
#    y 0.000000 1.688920 0.000000 
#    z 0.000000 0.000000 1.691260 
# 
# From -- ./inp_files/26379.got.cif
#   From: 2010.03.12/outbox.cif.g09.slc.cpg/sg53_14_cif.got.tgz:26379.got - 2010.04.16 14:36:59.
