data_PCOD8218645
_publ_section_title
;
Structure prediction by ZEFSAII (Michael W. Deem and Ramdas Pophale) SiO2 
 PCOD8218645
Probable space group: P M N A
;
_chemical_formula_sum "Si O2"
_cell_formula_units_Z 48
_cell_length_a 9.077665
_cell_length_b 19.498116
_cell_length_c 17.068987
_cell_angle_alpha 90.000000
_cell_angle_beta 90.000000
_cell_angle_gamma 90.000000
_cell_volume 3021.165725
_symmetry_space_group_name_H-M "P M N A"
_symmetry_group_IT_number 53
_symmetry_cell_setting 'orthorhombic'
loop_
_space_group_symop_operation_xyz
x,y,z
1/2-x,-y,1/2+z
x,-y,-z
1/2-x,y,1/2-z
-x,-y,-z
1/2+x,y,1/2-z
-x,y,z
1/2+x,-y,1/2+z
loop_
_atom_site_type_symbol
_atom_site_label
_atom_site_fract_x
_atom_site_fract_y
_atom_site_fract_z
Si Si1 0.670759 0.649653 0.970400
Si Si2 0.170871 0.203005 0.533153
Si Si3 0.838081 0.551804 0.071562
Si Si4 0.174664 0.573344 0.831617
Si Si5 0.165966 0.151941 0.829596
Si Si6 0.333595 0.926579 0.476788
O O1 0.500000 0.632411 0.956880
O O2 0.763918 0.626076 0.895906
O O3 0.698836 0.730277 0.980817
O O4 0.722647 0.611442 0.050381
O O5 0.252176 0.210410 0.617975
O O6 0.237122 0.136327 0.487239
O O7 0.000000 0.191129 0.549532
O O8 0.786110 0.505674 0.145563
O O9 0.000000 0.584160 0.087387
O O10 0.850358 0.500000 0.000000
O O11 0.250000 0.591443 0.750000
O O12 0.000000 0.583796 0.826097
O O13 0.250000 0.136944 0.750000
O O14 0.166254 0.081958 0.881794
O O15 0.000000 0.176423 0.811346
O O16 0.500000 0.921310 0.510169
O O17 0.263873 0.000000 0.500000
#
# Coordination Sequence:
#
# PCOD8218645 Si02
#       6
#     8   8   8   8   8   8
#     4  10  19  31  49  72  97 126 161 199 237 286
#     4   9  18  30  46  71  99 128 163 197 236 285
#     4   8  16  30  47  67  91 120 156 195 236 283
#     4  10  20  33  50  71  95 124 160 201 243 289
#     4   9  17  29  47  69  95 123 154 195 237 282
#     4   8  16  30  48  70  94 124 162 197 232 278
#
# _framework density 15.887907
#
# number of rings (size 3 to 8) (size 9 to 14) (size 15 to 20)
#    1.000    2.000    0.000    2.500    0.000    6.667 
#    0.000    0.833    0.000    3.000    0.000    4.667 
#    0.000    0.000    0.000    0.000    0.000    0.000 
#
# Total GULP energy -594635.678919 kJ/mol
# GULP energy per Si atom -12388.243311 kJ/mol
# Density = 1.585175 g / cm^3
# Si number density = 15.887907 Si / 1000 Ang^3
#
#
#
# Elastic Constant Matrix: (Units=GPa)
#
#
# Indices 1 2 3 4 5 6 
#
# 1 114.3213 60.7977 45.4197 0.0000 0.0000 0.0000
# 2 60.7977 98.2531 35.7927 0.0000 0.0000 0.0000
# 3 45.4197 35.7927 72.2288 0.0000 0.0000 0.0000
# 4 0.0000 0.0000 0.0000 17.4686 0.0000 0.0000
# 5 0.0000 0.0000 0.0000 0.0000 14.4751 0.0000
# 6 0.0000 0.0000 0.0000 0.0000 0.0000 23.9552
#
#
#
# Elastic Compliance Matrix: (Units=1/GPa)
#
#
# Indices 1 2 3 4 5 6 
#
# 1 0.014804 -0.007040 -0.005820 0.000000 0.000000 0.000000
# 2 -0.007040 0.015768 -0.003387 0.000000 0.000000 0.000000
# 3 -0.005820 -0.003387 0.019183 0.000000 0.000000 0.000000
# 4 0.000000 0.000000 0.000000 0.057245 0.000000 0.000000
# 5 0.000000 0.000000 0.000000 0.000000 0.069084 0.000000
# 6 0.000000 0.000000 0.000000 0.000000 0.000000 0.041745
#
#
# Mechanical properties :
#
#
# Convention : Reuss Voigt Hill
#
# Bulk Modulus (GPa) = 57.93566 63.20260 60.56913
# Shear Modulus (GPa) = 19.52543 20.69934 20.11238
#
# Velocity S-wave (km/s) = 3.50944 3.61340 3.56180
# Velocity P-wave (km/s) = 7.27777 7.56806 7.42434
#
# Compressibility (1/GPa) = 0.01726053
#
# Stress axis : x y z
#
# Youngs Moduli (GPa) = 67.55082 63.42035 52.12902
#
# Poissons Ratio (x) = 0.44648 0.30341
# Poissons Ratio (y) = 0.47556 0.17655
# Poissons Ratio (z) = 0.39317 0.21479
#
# Static dielectric constant tensor:
#      x y z
#    x 3.131930 0.000000 0.000000 
#    y 0.000000 2.905750 0.000000 
#    z 0.000000 0.000000 2.864030 
# 
# 
# High freq. dielectric constant tensor:
#      x y z
#    x 1.625280 0.000000 0.000000 
#    y 0.000000 1.589060 0.000000 
#    z 0.000000 0.000000 1.582010 
# 
# From -- ./inp_files/26631.got.cif
#   From: 2010.03.12/outbox.cif.g09.slc.cpg/sg53_14_cif.got.tgz:26631.got - 2010.04.16 14:36:59.
