data_PCOD8218148
_publ_section_title
;
Structure prediction by ZEFSAII (Michael W. Deem and Ramdas Pophale) SiO2 
 PCOD8218148
Probable space group: P M N A
;
_chemical_formula_sum "Si O2"
_cell_formula_units_Z 52
_cell_length_a 22.326602
_cell_length_b 14.151198
_cell_length_c 9.039113
_cell_angle_alpha 90.000000
_cell_angle_beta 90.000000
_cell_angle_gamma 90.000000
_cell_volume 2855.891171
_symmetry_space_group_name_H-M "P M N A"
_symmetry_group_IT_number 53
_symmetry_cell_setting 'orthorhombic'
loop_
_space_group_symop_operation_xyz
x,y,z
1/2-x,-y,1/2+z
x,-y,-z
1/2-x,y,1/2-z
-x,-y,-z
1/2+x,y,1/2-z
-x,y,z
1/2+x,-y,1/2+z
loop_
_atom_site_type_symbol
_atom_site_label
_atom_site_fract_x
_atom_site_fract_y
_atom_site_fract_z
Si Si1 0.344458 0.259629 0.553513
Si Si2 0.633727 0.613662 0.990337
Si Si3 0.930214 0.247560 0.689016
Si Si4 0.755615 0.592344 0.086180
Si Si5 0.346231 0.104368 0.970881
Si Si6 0.320554 0.751342 0.771060
Si Si7 0.250000 0.850614 0.250000
O O1 0.406979 0.258201 0.641259
O O2 0.319440 0.366423 0.536182
O O3 0.348872 0.216988 0.388169
O O4 0.292851 0.214537 0.653249
O O5 0.638707 0.660764 0.825912
O O6 0.625223 0.500000 0.000000
O O7 0.581414 0.658322 0.091281
O O8 0.696574 0.656987 0.056032
O O9 0.899219 0.158720 0.611800
O O10 0.000000 0.227934 0.698689
O O11 0.750000 0.557566 0.250000
O O12 0.740990 0.500000 0.000000
O O13 0.289161 0.087477 0.862862
O O14 0.327382 0.159051 0.120344
O O15 0.371449 0.000000 0.000000
O O16 0.250000 0.724280 0.750000
#
# Coordination Sequence:
#
# PCOD8218148 Si02
#       7
#     8   8   8   8   8   8   4
#     4  11  19  34  52  79 115 146 193 229 285 346
#     4  10  21  34  55  87 116 151 194 233 291 349
#     4  10  22  42  60  76 112 163 206 243 275 320
#     4  11  20  29  49  82 117 147 180 235 292 349
#     4  10  22  37  59  91 116 149 187 232 294 354
#     4  11  20  34  56  87 121 148 175 229 296 357
#     4  10  18  32  54  78 118 146 170 226 292 360
#
# _framework density 18.207975999999999
#
# number of rings (size 3 to 8) (size 9 to 14) (size 15 to 20)
#    0.000    1.538    5.385    0.923    5.385    0.615 
#    0.000    5.385    0.000    4.154    0.000    0.000 
#    0.000    0.000    0.000    0.000    0.000    0.000 
#
# Total GULP energy -644216.155788 kJ/mol
# GULP energy per Si atom -12388.772227 kJ/mol
# Density = 1.816653 g / cm^3
# Si number density = 18.207976 Si / 1000 Ang^3
#
#
#
# Elastic Constant Matrix: (Units=GPa)
#
#
# Indices 1 2 3 4 5 6 
#
# 1 108.5228 24.1588 42.7607 0.0000 0.0000 0.0000
# 2 24.1588 87.8355 29.5441 0.0000 0.0000 0.0000
# 3 42.7607 29.5441 139.2423 0.0000 0.0000 0.0000
# 4 0.0000 0.0000 0.0000 61.6175 0.0000 0.0000
# 5 0.0000 0.0000 0.0000 0.0000 19.9071 0.0000
# 6 0.0000 0.0000 0.0000 0.0000 0.0000 14.0253
#
#
#
# Elastic Compliance Matrix: (Units=1/GPa)
#
#
# Indices 1 2 3 4 5 6 
#
# 1 0.010799 -0.001997 -0.002893 0.000000 0.000000 0.000000
# 2 -0.001997 0.012629 -0.002066 0.000000 0.000000 0.000000
# 3 -0.002893 -0.002066 0.008508 0.000000 0.000000 0.000000
# 4 0.000000 0.000000 0.000000 0.016229 0.000000 0.000000
# 5 0.000000 0.000000 0.000000 0.000000 0.050233 0.000000
# 6 0.000000 0.000000 0.000000 0.000000 0.000000 0.071300
#
#
# Mechanical properties :
#
#
# Convention : Reuss Voigt Hill
#
# Bulk Modulus (GPa) = 55.48015 58.72531 57.10273
# Shear Modulus (GPa) = 26.36860 35.05244 30.71052
#
# Velocity S-wave (km/s) = 3.80964 4.39237 4.11134
# Velocity P-wave (km/s) = 7.06311 7.61882 7.34622
#
# Compressibility (1/GPa) = 0.01802447
#
# Stress axis : x y z
#
# Youngs Moduli (GPa) = 92.60099 79.18109 117.53042
#
# Poissons Ratio (x) = 0.15815 0.33996
# Poissons Ratio (y) = 0.18495 0.24285
# Poissons Ratio (z) = 0.26785 0.16361
#
# Static dielectric constant tensor:
#      x y z
#    x 3.103400 0.000000 0.000000 
#    y 0.000000 3.136500 0.000000 
#    z 0.000000 0.000000 0.705340 
# 
# 
# High freq. dielectric constant tensor:
#      x y z
#    x 1.667370 0.000000 0.000000 
#    y 0.000000 1.692670 0.000000 
#    z 0.000000 0.000000 1.724310 
# 
# From -- ./inp_files/10969.got.cif
#   From: 2010.03.12/outbox.cif.g09.slc.cpg/sg53_6_cif.got.tgz:10969.got - 2010.04.16 14:36:59.
