data_PCOD8218756
_publ_section_title
;
Structure prediction by ZEFSAII (Michael W. Deem and Ramdas Pophale) SiO2 
 PCOD8218756
Probable space group: P M N A
;
_chemical_formula_sum "Si O2"
_cell_formula_units_Z 56
_cell_length_a 8.802641
_cell_length_b 19.156886
_cell_length_c 18.309178
_cell_angle_alpha 90.000000
_cell_angle_beta 90.000000
_cell_angle_gamma 90.000000
_cell_volume 3087.498477
_symmetry_space_group_name_H-M "P M N A"
_symmetry_group_IT_number 53
_symmetry_cell_setting 'orthorhombic'
loop_
_space_group_symop_operation_xyz
x,y,z
1/2-x,-y,1/2+z
x,-y,-z
1/2-x,y,1/2-z
-x,-y,-z
1/2+x,y,1/2-z
-x,y,z
1/2+x,-y,1/2+z
loop_
_atom_site_type_symbol
_atom_site_label
_atom_site_fract_x
_atom_site_fract_y
_atom_site_fract_z
Si Si1 0.321662 0.775044 0.104577
Si Si2 0.679574 0.085826 0.577269
Si Si3 0.177580 0.801049 0.826091
Si Si4 0.680595 0.355357 0.674656
Si Si5 0.322556 0.428510 0.529525
Si Si6 0.679624 0.068202 0.412347
Si Si7 0.823763 0.714932 0.964614
O O1 0.500000 0.768171 0.116606
O O2 0.267262 0.853951 0.121652
O O3 0.238279 0.723098 0.160400
O O4 0.277652 0.757572 0.021407
O O5 0.500000 0.098879 0.582607
O O6 0.737765 0.086060 0.493532
O O7 0.725164 0.010376 0.611581
O O8 0.250000 0.779571 0.750000
O O9 0.245374 0.874904 0.855409
O O10 0.216671 0.739653 0.883297
O O11 0.000000 0.808027 0.813947
O O12 0.750000 0.384159 0.750000
O O13 0.500000 0.354525 0.678907
O O14 0.740385 0.405504 0.609100
O O15 0.244687 0.500000 0.500000
O O16 0.500000 0.441565 0.538647
O O17 0.289056 0.367533 0.470806
O O18 0.500000 0.074624 0.415619
O O19 0.000000 0.730519 0.983869
#
# Coordination Sequence:
#
# PCOD8218756 Si02
#       7
#     8   8   8   8   8   8   8
#     4  11  20  30  49  77 105 131 166 213 260 306
#     4   9  15  29  51  71  91 125 170 212 258 308
#     4  10  19  32  48  69  97 132 172 210 256 302
#     4  10  20  35  55  78 107 141 174 211 255 308
#     4   8  15  30  55  83 104 129 168 209 248 295
#     4   8  15  28  49  69  90 125 171 214 254 309
#     4   9  17  32  53  72  97 134 174 210 246 301
#
# _framework density 18.137658999999999
#
# number of rings (size 3 to 8) (size 9 to 14) (size 15 to 20)
#    0.000    2.714    1.429    3.429    0.000    0.571 
#    0.000    3.571    0.000   12.429    0.000    0.000 
#    0.000    0.000    0.000    0.000    0.000    0.000 
#
# Total GULP energy -694132.680688 kJ/mol
# GULP energy per Si atom -12395.226441 kJ/mol
# Density = 1.809638 g / cm^3
# Si number density = 18.137659 Si / 1000 Ang^3
#
#
#
# Elastic Constant Matrix: (Units=GPa)
#
#
# Indices 1 2 3 4 5 6 
#
# 1 51.9606 27.0408 25.8507 0.0000 0.0000 0.0000
# 2 27.0408 141.8567 59.3737 0.0000 0.0000 0.0000
# 3 25.8507 59.3737 113.8403 0.0000 0.0000 0.0000
# 4 0.0000 0.0000 0.0000 20.7593 0.0000 0.0000
# 5 0.0000 0.0000 0.0000 0.0000 25.2811 0.0000
# 6 0.0000 0.0000 0.0000 0.0000 0.0000 10.4676
#
#
#
# Elastic Compliance Matrix: (Units=1/GPa)
#
#
# Indices 1 2 3 4 5 6 
#
# 1 0.022506 -0.002752 -0.003675 0.000000 0.000000 0.000000
# 2 -0.002752 0.009354 -0.004254 0.000000 0.000000 0.000000
# 3 -0.003675 -0.004254 0.011838 0.000000 0.000000 0.000000
# 4 0.000000 0.000000 0.000000 0.048171 0.000000 0.000000
# 5 0.000000 0.000000 0.000000 0.000000 0.039555 0.000000
# 6 0.000000 0.000000 0.000000 0.000000 0.000000 0.095533
#
#
# Mechanical properties :
#
#
# Convention : Reuss Voigt Hill
#
# Bulk Modulus (GPa) = 44.77165 59.13200 51.95182
# Shear Modulus (GPa) = 19.54921 24.32776 21.93849
#
# Velocity S-wave (km/s) = 3.28658 3.66633 3.48164
# Velocity P-wave (km/s) = 6.25621 7.11303 6.69833
#
# Compressibility (1/GPa) = 0.02233556
#
# Stress axis : x y z
#
# Youngs Moduli (GPa) = 44.43273 106.90190 84.47728
#
# Poissons Ratio (x) = 0.29417 0.31049
# Poissons Ratio (y) = 0.12227 0.35936
# Poissons Ratio (z) = 0.16331 0.45475
#
# Static dielectric constant tensor:
#      x y z
#    x 2.991390 0.000000 0.000000 
#    y 0.000000 3.683680 0.000000 
#    z 0.000000 0.000000 3.296330 
# 
# 
# High freq. dielectric constant tensor:
#      x y z
#    x 1.668890 0.000000 0.000000 
#    y 0.000000 1.706560 0.000000 
#    z 0.000000 0.000000 1.681550 
# 
# From -- ./inp_files/26684.got.cif
#   From: 2010.03.12/outbox.cif.g09.slc.cpg/sg53_14_cif.got.tgz:26684.got - 2010.04.16 14:36:59.
