data_PCOD8218846
_publ_section_title
;
Structure prediction by ZEFSAII (Michael W. Deem and Ramdas Pophale) SiO2 
 PCOD8218846
Probable space group: P M N A
;
_chemical_formula_sum "Si O2"
_cell_formula_units_Z 48
_cell_length_a 8.700891
_cell_length_b 16.425965
_cell_length_c 18.279616
_cell_angle_alpha 90.000000
_cell_angle_beta 90.000000
_cell_angle_gamma 90.000000
_cell_volume 2612.532426
_symmetry_space_group_name_H-M "P M N A"
_symmetry_group_IT_number 53
_symmetry_cell_setting 'orthorhombic'
loop_
_space_group_symop_operation_xyz
x,y,z
1/2-x,-y,1/2+z
x,-y,-z
1/2-x,y,1/2-z
-x,-y,-z
1/2+x,y,1/2-z
-x,y,z
1/2+x,-y,1/2+z
loop_
_atom_site_type_symbol
_atom_site_label
_atom_site_fract_x
_atom_site_fract_y
_atom_site_fract_z
Si Si1 0.317405 0.167868 0.174130
Si Si2 0.182177 0.522131 0.671257
Si Si3 0.676646 0.235951 0.542029
Si Si4 0.178713 0.323510 0.107444
Si Si5 0.180991 0.914108 0.526245
Si Si6 0.182073 0.350801 0.827890
O O1 0.250000 0.132544 0.250000
O O2 0.500000 0.170586 0.177883
O O3 0.253776 0.258700 0.162602
O O4 0.258609 0.110435 0.107344
O O5 0.250000 0.544745 0.750000
O O6 0.237236 0.590202 0.614551
O O7 0.245408 0.435260 0.644428
O O8 0.000000 0.518822 0.675563
O O9 0.500000 0.209746 0.545248
O O10 0.706633 0.297522 0.475733
O O11 0.774344 0.154097 0.532838
O O12 0.729199 0.280124 0.616004
O O13 0.000000 0.331768 0.127110
O O14 0.000000 0.921156 0.528873
O O15 0.253338 0.000000 0.500000
O O16 0.250000 0.324849 0.750000
O O17 0.000000 0.362083 0.822462
#
# Coordination Sequence:
#
# PCOD8218846 Si02
#       6
#     8   8   8   8   8   8
#     4  10  19  32  51  76 105 135 168 206 250 301
#     4  11  21  33  49  72 101 136 175 212 252 295
#     4   9  20  36  55  77 101 131 167 207 253 304
#     4  10  19  33  51  73 102 135 169 207 252 300
#     4   9  19  36  57  79 104 134 167 206 253 303
#     4  10  20  36  54  74 100 133 173 213 254 296
#
# _framework density 18.372978
#
# number of rings (size 3 to 8) (size 9 to 14) (size 15 to 20)
#    0.000    2.167    0.000    4.500    0.000    3.667 
#    0.000    4.167    0.000    4.000    0.000    0.000 
#    0.000    0.000    0.000    0.000    0.000    0.000 
#
# Total GULP energy -595298.816188 kJ/mol
# GULP energy per Si atom -12402.058671 kJ/mol
# Density = 1.833116 g / cm^3
# Si number density = 18.372978 Si / 1000 Ang^3
#
#
#
# Elastic Constant Matrix: (Units=GPa)
#
#
# Indices 1 2 3 4 5 6 
#
# 1 85.3713 41.2585 37.6762 0.0000 0.0000 0.0000
# 2 41.2585 130.5443 76.6717 0.0000 0.0000 0.0000
# 3 37.6762 76.6717 104.9911 0.0000 0.0000 0.0000
# 4 0.0000 0.0000 0.0000 23.3534 0.0000 0.0000
# 5 0.0000 0.0000 0.0000 0.0000 25.5146 0.0000
# 6 0.0000 0.0000 0.0000 0.0000 0.0000 25.6254
#
#
#
# Elastic Compliance Matrix: (Units=1/GPa)
#
#
# Indices 1 2 3 4 5 6 
#
# 1 0.014426 -0.002660 -0.003235 0.000000 0.000000 0.000000
# 2 -0.002660 0.013904 -0.009199 0.000000 0.000000 0.000000
# 3 -0.003235 -0.009199 0.017403 0.000000 0.000000 0.000000
# 4 0.000000 0.000000 0.000000 0.042820 0.000000 0.000000
# 5 0.000000 0.000000 0.000000 0.000000 0.039193 0.000000
# 6 0.000000 0.000000 0.000000 0.000000 0.000000 0.039024
#
#
# Mechanical properties :
#
#
# Convention : Reuss Voigt Hill
#
# Bulk Modulus (GPa) = 64.32292 70.23549 67.27921
# Shear Modulus (GPa) = 24.73544 25.91869 25.32707
#
# Velocity S-wave (km/s) = 3.67317 3.76000 3.71684
# Velocity P-wave (km/s) = 7.28527 7.56047 7.42414
#
# Compressibility (1/GPa) = 0.01554656
#
# Stress axis : x y z
#
# Youngs Moduli (GPa) = 69.31717 71.92411 57.46126
#
# Poissons Ratio (x) = 0.19130 0.18587
# Poissons Ratio (y) = 0.18436 0.52858
# Poissons Ratio (z) = 0.22422 0.66162
#
# Static dielectric constant tensor:
#      x y z
#    x 3.404490 0.000000 0.000000 
#    y 0.000000 3.432650 0.000000 
#    z 0.000000 0.000000 3.469840 
# 
# 
# High freq. dielectric constant tensor:
#      x y z
#    x 1.720110 0.000000 0.000000 
#    y 0.000000 1.702740 0.000000 
#    z 0.000000 0.000000 1.709040 
# 
# From -- ./inp_files/26203.got.cif
#   From: 2010.03.12/outbox.cif.g09.slc.cpg/sg53_14_cif.got.tgz:26203.got - 2010.04.16 14:36:59.
