data_PCOD8218002
_publ_section_title
;
Structure prediction by ZEFSAII (Michael W. Deem and Ramdas Pophale) SiO2 
 PCOD8218002
Probable space group: P M N A
;
_chemical_formula_sum "Si O2"
_cell_formula_units_Z 64
_cell_length_a 8.917905
_cell_length_b 14.723934
_cell_length_c 29.517350
_cell_angle_alpha 90.000000
_cell_angle_beta 90.000000
_cell_angle_gamma 90.000000
_cell_volume 3875.824187
_symmetry_space_group_name_H-M "P M N A"
_symmetry_group_IT_number 53
_symmetry_cell_setting 'orthorhombic'
loop_
_space_group_symop_operation_xyz
x,y,z
1/2-x,-y,1/2+z
x,-y,-z
1/2-x,y,1/2-z
-x,-y,-z
1/2+x,y,1/2-z
-x,y,z
1/2+x,-y,1/2+z
loop_
_atom_site_type_symbol
_atom_site_label
_atom_site_fract_x
_atom_site_fract_y
_atom_site_fract_z
Si Si1 0.675203 0.325652 0.043427
Si Si2 0.822137 0.538085 0.889956
Si Si3 0.174778 0.372604 0.558136
Si Si4 0.324879 0.290588 0.794826
Si Si5 0.327126 0.052949 0.565235
Si Si6 0.676017 0.201971 0.884806
Si Si7 0.323146 0.498683 0.203358
Si Si8 0.325619 0.137050 0.469675
O O1 0.500000 0.333304 0.055003
O O2 0.772172 0.374614 0.081553
O O3 0.720840 0.220545 0.043275
O O4 0.708864 0.373936 0.995315
O O5 0.769254 0.448250 0.916087
O O6 0.749868 0.549253 0.840227
O O7 0.000000 0.535999 0.885074
O O8 0.223267 0.273769 0.576411
O O9 0.000000 0.391873 0.568382
O O10 0.250000 0.250392 0.750000
O O11 0.500000 0.276625 0.790227
O O12 0.257289 0.235837 0.837141
O O13 0.284266 0.395554 0.801731
O O14 0.500000 0.072077 0.573400
O O15 0.237490 0.101752 0.605329
O O16 0.277120 0.098677 0.518262
O O17 0.295273 0.945045 0.565771
O O18 0.500000 0.195700 0.881400
O O19 0.250000 0.460972 0.250000
O O20 0.500000 0.479501 0.204341
O O21 0.500000 0.166105 0.469002
#
# Coordination Sequence:
#
# PCOD8218002 Si02
#       8
#     8   8   8   8   8   8   8   8
#     4  11  22  35  52  71  97 136 176 214 256 298
#     4  12  24  35  50  73 100 136 175 210 253 303
#     4  10  20  35  49  68 101 138 172 210 251 293
#     4   9  18  31  48  69  97 128 161 202 247 291
#     4   9  18  31  49  72  99 130 161 200 247 294
#     4  10  18  31  49  72 100 132 167 205 246 293
#     4  10  19  35  54  74 101 130 166 210 254 299
#     4   9  18  33  49  70 100 129 162 205 249 292
#
# _framework density 16.512616000000001
#
# number of rings (size 3 to 8) (size 9 to 14) (size 15 to 20)
#    0.000    2.000    2.500    3.000    0.000    4.500 
#    0.000    1.250    0.000    0.000    0.000    0.875 
#    0.000    4.000    0.000    0.000    0.000    0.000 
#
# Total GULP energy -793597.902390 kJ/mol
# GULP energy per Si atom -12399.967225 kJ/mol
# Density = 1.647503 g / cm^3
# Si number density = 16.512616 Si / 1000 Ang^3
#
#
#
# Elastic Constant Matrix: (Units=GPa)
#
#
# Indices 1 2 3 4 5 6 
#
# 1 66.4597 32.2764 46.8015 0.0000 0.0000 0.0000
# 2 32.2764 63.5585 34.8060 0.0000 0.0000 0.0000
# 3 46.8015 34.8060 114.6619 0.0000 0.0000 0.0000
# 4 0.0000 0.0000 0.0000 21.5462 0.0000 0.0000
# 5 0.0000 0.0000 0.0000 0.0000 28.1436 0.0000
# 6 0.0000 0.0000 0.0000 0.0000 0.0000 28.8540
#
#
#
# Elastic Compliance Matrix: (Units=1/GPa)
#
#
# Indices 1 2 3 4 5 6 
#
# 1 0.024275 -0.008277 -0.007396 0.000000 0.000000 0.000000
# 2 -0.008277 0.021693 -0.003206 0.000000 0.000000 0.000000
# 3 -0.007396 -0.003206 0.012713 0.000000 0.000000 0.000000
# 4 0.000000 0.000000 0.000000 0.046412 0.000000 0.000000
# 5 0.000000 0.000000 0.000000 0.000000 0.035532 0.000000
# 6 0.000000 0.000000 0.000000 0.000000 0.000000 0.034657
#
#
# Mechanical properties :
#
#
# Convention : Reuss Voigt Hill
#
# Bulk Modulus (GPa) = 47.79601 52.49422 50.14511
# Shear Modulus (GPa) = 22.72578 24.42849 23.57714
#
# Velocity S-wave (km/s) = 3.71383 3.85045 3.78276
# Velocity P-wave (km/s) = 6.88462 7.18522 7.03653
#
# Compressibility (1/GPa) = 0.02092225
#
# Stress axis : x y z
#
# Youngs Moduli (GPa) = 41.19534 46.09827 78.65803
#
# Poissons Ratio (x) = 0.38156 0.58172
# Poissons Ratio (y) = 0.34098 0.25221
# Poissons Ratio (z) = 0.30466 0.14781
#
# Static dielectric constant tensor:
#      x y z
#    x 3.055550 0.000000 0.000000 
#    y 0.000000 2.999680 0.000000 
#    z 0.000000 0.000000 3.246020 
# 
# 
# High freq. dielectric constant tensor:
#      x y z
#    x 1.637990 0.000000 0.000000 
#    y 0.000000 1.614850 0.000000 
#    z 0.000000 0.000000 1.627360 
# 
# From -- ./inp_files/38406.got.cif
#   From: 2010.03.12/outbox.cif.g09.slc.cpg/sg53_20_cif.got.tgz:38406.got - 2010.04.16 14:36:59.
