data_PCOD8218691
_publ_section_title
;
Structure prediction by ZEFSAII (Michael W. Deem and Ramdas Pophale) SiO2 
 PCOD8218691
Probable space group: P M N A
;
_chemical_formula_sum "Si O2"
_cell_formula_units_Z 48
_cell_length_a 8.816170
_cell_length_b 16.368238
_cell_length_c 18.516677
_cell_angle_alpha 90.000000
_cell_angle_beta 90.000000
_cell_angle_gamma 90.000000
_cell_volume 2672.052200
_symmetry_space_group_name_H-M "P M N A"
_symmetry_group_IT_number 53
_symmetry_cell_setting 'orthorhombic'
loop_
_space_group_symop_operation_xyz
x,y,z
1/2-x,-y,1/2+z
x,-y,-z
1/2-x,y,1/2-z
-x,-y,-z
1/2+x,y,1/2-z
-x,y,z
1/2+x,-y,1/2+z
loop_
_atom_site_type_symbol
_atom_site_label
_atom_site_fract_x
_atom_site_fract_y
_atom_site_fract_z
Si Si1 0.820272 0.832148 0.825522
Si Si2 0.678252 0.916526 0.530324
Si Si3 0.822738 0.516081 0.674365
Si Si4 0.822496 0.348134 0.825672
Si Si5 0.176002 0.682444 0.600967
Si Si6 0.176034 0.749061 0.035467
O O1 0.750000 0.861879 0.750000
O O2 0.762469 0.892941 0.889386
O O3 0.768470 0.740440 0.844570
O O4 0.000000 0.832758 0.818970
O O5 0.500000 0.929217 0.535807
O O6 0.719026 0.844220 0.474289
O O7 0.754460 0.000000 0.500000
O O8 0.750000 0.541720 0.750000
O O9 0.747589 0.432820 0.645194
O O10 0.789472 0.588216 0.618276
O O11 0.000000 0.500618 0.685464
O O12 0.750000 0.321097 0.750000
O O13 0.786510 0.276952 0.882996
O O14 0.000000 0.360773 0.814446
O O15 0.225409 0.694456 0.518529
O O16 0.000000 0.703479 0.610856
O O17 0.000000 0.734773 0.016088
#
# Coordination Sequence:
#
# PCOD8218691 Si02
#       6
#     8   8   8   8   8   8
#     4  10  19  31  50  75 103 133 165 201 243 295
#     4   8  15  31  54  75  96 126 162 199 240 289
#     4  10  20  32  47  69  96 129 167 203 242 286
#     4  10  20  34  51  70  95 128 166 206 244 285
#     4  10  20  32  49  73 100 130 163 202 246 292
#     4   9  19  34  52  74  97 126 164 201 244 297
#
# _framework density 17.963719999999999
#
# number of rings (size 3 to 8) (size 9 to 14) (size 15 to 20)
#    0.000    2.500    0.000    4.500    0.000    6.000 
#    0.000    4.167    0.000   12.500    0.000    0.000 
#    0.000    0.000    0.000    0.000    0.000    0.000 
#
# Total GULP energy -595134.194131 kJ/mol
# GULP energy per Si atom -12398.629044 kJ/mol
# Density = 1.792283 g / cm^3
# Si number density = 17.963720 Si / 1000 Ang^3
#
#
#
# Elastic Constant Matrix: (Units=GPa)
#
#
# Indices 1 2 3 4 5 6 
#
# 1 75.9032 43.0195 42.6692 0.0000 0.0000 0.0000
# 2 43.0195 126.9632 88.1029 0.0000 0.0000 0.0000
# 3 42.6692 88.1029 124.8873 0.0000 0.0000 0.0000
# 4 0.0000 0.0000 0.0000 26.8301 0.0000 0.0000
# 5 0.0000 0.0000 0.0000 0.0000 28.3751 0.0000
# 6 0.0000 0.0000 0.0000 0.0000 0.0000 16.3141
#
#
#
# Elastic Compliance Matrix: (Units=1/GPa)
#
#
# Indices 1 2 3 4 5 6 
#
# 1 0.017021 -0.003393 -0.003422 0.000000 0.000000 0.000000
# 2 -0.003393 0.016106 -0.010203 0.000000 0.000000 0.000000
# 3 -0.003422 -0.010203 0.016374 0.000000 0.000000 0.000000
# 4 0.000000 0.000000 0.000000 0.037272 0.000000 0.000000
# 5 0.000000 0.000000 0.000000 0.000000 0.035242 0.000000
# 6 0.000000 0.000000 0.000000 0.000000 0.000000 0.061297
#
#
# Mechanical properties :
#
#
# Convention : Reuss Voigt Hill
#
# Bulk Modulus (GPa) = 64.65831 75.03745 69.84788
# Shear Modulus (GPa) = 22.47166 24.56800 23.51983
#
# Velocity S-wave (km/s) = 3.54071 3.70218 3.62235
# Velocity P-wave (km/s) = 7.26550 7.75482 7.51414
#
# Compressibility (1/GPa) = 0.01546592
#
# Stress axis : x y z
#
# Youngs Moduli (GPa) = 58.74989 62.08889 61.07178
#
# Poissons Ratio (x) = 0.21065 0.20899
# Poissons Ratio (y) = 0.19932 0.62311
# Poissons Ratio (z) = 0.20105 0.63349
#
# Static dielectric constant tensor:
#      x y z
#    x 3.288290 0.000000 0.000000 
#    y 0.000000 3.416260 0.000000 
#    z 0.000000 0.000000 3.361210 
# 
# 
# High freq. dielectric constant tensor:
#      x y z
#    x 1.691830 0.000000 0.000000 
#    y 0.000000 1.684620 0.000000 
#    z 0.000000 0.000000 1.693190 
# 
# From -- ./inp_files/30534.got.cif
#   From: 2010.03.12/outbox.cif.g09.slc.cpg/sg53_16_cif.got.tgz:30534.got - 2010.04.16 14:36:59.
