data_PCOD8218607
_publ_section_title
;
Structure prediction by ZEFSAII (Michael W. Deem and Ramdas Pophale) SiO2 
 PCOD8218607
Probable space group: P M N A
;
_chemical_formula_sum "Si O2"
_cell_formula_units_Z 64
_cell_length_a 8.938943
_cell_length_b 18.622383
_cell_length_c 19.372450
_cell_angle_alpha 90.000000
_cell_angle_beta 90.000000
_cell_angle_gamma 90.000000
_cell_volume 3224.823656
_symmetry_space_group_name_H-M "P M N A"
_symmetry_group_IT_number 53
_symmetry_cell_setting 'orthorhombic'
loop_
_space_group_symop_operation_xyz
x,y,z
1/2-x,-y,1/2+z
x,-y,-z
1/2-x,y,1/2-z
-x,-y,-z
1/2+x,y,1/2-z
-x,y,z
1/2+x,-y,1/2+z
loop_
_atom_site_type_symbol
_atom_site_label
_atom_site_fract_x
_atom_site_fract_y
_atom_site_fract_z
Si Si1 0.341066 0.757799 0.109072
Si Si2 0.179330 0.034120 0.326110
Si Si3 0.326698 0.355096 0.682615
Si Si4 0.821183 0.140408 0.071644
Si Si5 0.324689 0.906952 0.071045
Si Si6 0.169881 0.514061 0.815922
Si Si7 0.672426 0.427703 0.462389
Si Si8 0.836890 0.719648 0.541792
O O1 0.500000 0.738944 0.146849
O O2 0.212805 0.699843 0.122540
O O3 0.291758 0.839641 0.123097
O O4 0.371615 0.759713 0.028425
O O5 0.250000 0.020726 0.250000
O O6 0.248459 0.105674 0.359977
O O7 0.000000 0.039656 0.318725
O O8 0.227329 0.973125 0.381561
O O9 0.250000 0.322317 0.750000
O O10 0.500000 0.357742 0.693223
O O11 0.263281 0.434851 0.666558
O O12 0.774077 0.225017 0.080220
O O13 0.000000 0.135741 0.073831
O O14 0.765536 0.100311 0.001339
O O15 0.500000 0.913359 0.052062
O O16 0.250000 0.549291 0.750000
O O17 0.189523 0.565281 0.880442
O O18 0.000000 0.504568 0.794376
O O19 0.734248 0.500000 0.500000
O O20 0.500000 0.416969 0.485594
O O21 0.765960 0.357282 0.478842
O O22 0.000000 0.708965 0.579377
#
# Coordination Sequence:
#
# PCOD8218607 Si02
#       8
#     8   8   8   8   8   8   8   8
#     4   9  18  33  51  75 107 140 176 219 267 321
#     4  11  23  40  61  86 119 154 190 236 288 338
#     4  10  19  31  48  70  99 139 182 221 267 323
#     4  11  22  38  62  88 114 148 192 236 281 338
#     4   9  20  38  59  84 116 152 187 229 281 335
#     4   9  19  34  51  72 101 138 178 221 269 324
#     4  10  20  35  56  83 114 144 180 230 284 335
#     4  10  21  37  57  82 111 143 183 230 280 334
#
# _framework density 19.846046000000001
#
# number of rings (size 3 to 8) (size 9 to 14) (size 15 to 20)
#    0.000    2.125    0.000    4.125    0.000    7.750 
#    0.000    1.875    0.000    1.500    0.000    0.000 
#    0.000    0.000    0.000    0.000    0.000    0.000 
#
# Total GULP energy -792872.767692 kJ/mol
# GULP energy per Si atom -12388.636995 kJ/mol
# Density = 1.980088 g / cm^3
# Si number density = 19.846046 Si / 1000 Ang^3
#
#
#
# Elastic Constant Matrix: (Units=GPa)
#
#
# Indices 1 2 3 4 5 6 
#
# 1 98.7274 41.9741 37.0268 0.0000 0.0000 0.0000
# 2 41.9741 104.7616 23.9740 0.0000 0.0000 0.0000
# 3 37.0268 23.9740 66.1777 0.0000 0.0000 0.0000
# 4 0.0000 0.0000 0.0000 19.1232 0.0000 0.0000
# 5 0.0000 0.0000 0.0000 0.0000 32.1189 0.0000
# 6 0.0000 0.0000 0.0000 0.0000 0.0000 18.5010
#
#
#
# Elastic Compliance Matrix: (Units=1/GPa)
#
#
# Indices 1 2 3 4 5 6 
#
# 1 0.014384 -0.004276 -0.006499 0.000000 0.000000 0.000000
# 2 -0.004276 0.011679 -0.001839 0.000000 0.000000 0.000000
# 3 -0.006499 -0.001839 0.019413 0.000000 0.000000 0.000000
# 4 0.000000 0.000000 0.000000 0.052292 0.000000 0.000000
# 5 0.000000 0.000000 0.000000 0.000000 0.031134 0.000000
# 6 0.000000 0.000000 0.000000 0.000000 0.000000 0.054051
#
#
# Mechanical properties :
#
#
# Convention : Reuss Voigt Hill
#
# Bulk Modulus (GPa) = 49.38378 52.84628 51.11503
# Shear Modulus (GPa) = 23.26317 25.06140 24.16229
#
# Velocity S-wave (km/s) = 3.42743 3.55743 3.49304
# Velocity P-wave (km/s) = 6.37185 6.59998 6.48692
#
# Compressibility (1/GPa) = 0.02024956
#
# Stress axis : x y z
#
# Youngs Moduli (GPa) = 69.52058 85.62035 51.51148
#
# Poissons Ratio (x) = 0.36611 0.33477
# Poissons Ratio (y) = 0.29727 0.09471
# Poissons Ratio (z) = 0.45182 0.15743
#
# Static dielectric constant tensor:
#      x y z
#    x 3.633840 0.000000 0.000000 
#    y 0.000000 3.696030 0.000000 
#    z 0.000000 0.000000 3.489790 
# 
# 
# High freq. dielectric constant tensor:
#      x y z
#    x 1.773440 0.000000 0.000000 
#    y 0.000000 1.777300 0.000000 
#    z 0.000000 0.000000 1.753720 
# 
# From -- ./inp_files/31275.got.cif
#   From: 2010.03.12/outbox.cif.g09.slc.cpg/sg53_16_cif.got.tgz:31275.got - 2010.04.16 14:36:59.
