data_PCOD8218654
_publ_section_title
;
Structure prediction by ZEFSAII (Michael W. Deem and Ramdas Pophale) SiO2 
 PCOD8218654
Probable space group: P M N A
;
_chemical_formula_sum "Si O2"
_cell_formula_units_Z 56
_cell_length_a 9.341746
_cell_length_b 14.878777
_cell_length_c 20.729629
_cell_angle_alpha 90.000000
_cell_angle_beta 90.000000
_cell_angle_gamma 90.000000
_cell_volume 2881.288985
_symmetry_space_group_name_H-M "P M N A"
_symmetry_group_IT_number 53
_symmetry_cell_setting 'orthorhombic'
loop_
_space_group_symop_operation_xyz
x,y,z
1/2-x,-y,1/2+z
x,-y,-z
1/2-x,y,1/2-z
-x,-y,-z
1/2+x,y,1/2-z
-x,y,z
1/2+x,-y,1/2+z
loop_
_atom_site_type_symbol
_atom_site_label
_atom_site_fract_x
_atom_site_fract_y
_atom_site_fract_z
Si Si1 0.662198 0.276312 0.993555
Si Si2 0.162218 0.456501 0.568392
Si Si3 0.158872 0.163617 0.308522
Si Si4 0.670148 0.921582 0.047745
Si Si5 0.340880 0.951924 0.189999
Si Si6 0.837144 0.281996 0.111747
Si Si7 0.334546 0.538988 0.684388
O O1 0.500000 0.269296 0.020421
O O2 0.668042 0.347407 0.935010
O O3 0.718087 0.177229 0.974708
O O4 0.767879 0.319536 0.046439
O O5 0.209137 0.500000 0.500000
O O6 0.268217 0.483214 0.625495
O O7 0.000000 0.488340 0.584603
O O8 0.250000 0.204226 0.250000
O O9 0.242878 0.193620 0.372439
O O10 0.000000 0.206197 0.307216
O O11 0.148056 0.058034 0.303942
O O12 0.500000 0.931582 0.051094
O O13 0.731462 0.931510 0.120625
O O14 0.730803 0.000000 0.000000
O O15 0.250000 0.912230 0.250000
O O16 0.500000 0.909514 0.194484
O O17 0.823389 0.355734 0.167752
O O18 0.000000 0.252768 0.100283
O O19 0.250000 0.518273 0.750000
O O20 0.500000 0.510240 0.692873
#
# Coordination Sequence:
#
# PCOD8218654 Si02
#       7
#     8   8   8   8   8   8   8
#     4  10  20  35  58  83 108 146 189 230 279 335
#     4  10  20  37  60  85 113 148 189 231 277 335
#     4  10  19  31  49  73 104 142 182 225 277 336
#     4   9  17  32  55  83 112 144 188 235 277 327
#     4   9  18  33  53  76 104 142 186 231 279 336
#     4  11  22  34  51  79 112 145 182 228 282 342
#     4  11  24  39  58  83 114 151 189 236 288 340
#
# _framework density 19.435746999999999
#
# number of rings (size 3 to 8) (size 9 to 14) (size 15 to 20)
#    0.000    2.000    1.429    2.571    0.000    6.571 
#    0.000    1.429    0.000    3.429    0.000    0.000 
#    0.000    0.000    0.000    0.000    0.000    0.000 
#
# Total GULP energy -694174.815690 kJ/mol
# GULP energy per Si atom -12395.978852 kJ/mol
# Density = 1.939151 g / cm^3
# Si number density = 19.435747 Si / 1000 Ang^3
#
#
#
# Elastic Constant Matrix: (Units=GPa)
#
#
# Indices 1 2 3 4 5 6 
#
# 1 126.7674 27.2168 66.9272 0.0000 0.0000 0.0000
# 2 27.2168 71.2188 31.3255 0.0000 0.0000 0.0000
# 3 66.9272 31.3255 140.9077 0.0000 0.0000 0.0000
# 4 0.0000 0.0000 0.0000 28.2998 0.0000 0.0000
# 5 0.0000 0.0000 0.0000 0.0000 36.5734 0.0000
# 6 0.0000 0.0000 0.0000 0.0000 0.0000 16.7966
#
#
#
# Elastic Compliance Matrix: (Units=1/GPa)
#
#
# Indices 1 2 3 4 5 6 
#
# 1 0.010798 -0.002073 -0.004668 0.000000 0.000000 0.000000
# 2 -0.002073 0.015961 -0.002564 0.000000 0.000000 0.000000
# 3 -0.004668 -0.002564 0.009884 0.000000 0.000000 0.000000
# 4 0.000000 0.000000 0.000000 0.035336 0.000000 0.000000
# 5 0.000000 0.000000 0.000000 0.000000 0.027342 0.000000
# 6 0.000000 0.000000 0.000000 0.000000 0.000000 0.059536
#
#
# Mechanical properties :
#
#
# Convention : Reuss Voigt Hill
#
# Bulk Modulus (GPa) = 55.45240 65.53697 60.49469
# Shear Modulus (GPa) = 27.25125 30.56224 28.90674
#
# Velocity S-wave (km/s) = 3.74855 3.96975 3.86073
# Velocity P-wave (km/s) = 6.87958 7.40303 7.14610
#
# Compressibility (1/GPa) = 0.01803348
#
# Stress axis : x y z
#
# Youngs Moduli (GPa) = 92.60975 62.65197 101.17537
#
# Poissons Ratio (x) = 0.12990 0.47227
# Poissons Ratio (y) = 0.19202 0.25937
# Poissons Ratio (z) = 0.43228 0.16061
#
# Static dielectric constant tensor:
#      x y z
#    x 3.601580 0.000000 0.000000 
#    y 0.000000 3.367910 0.000000 
#    z 0.000000 0.000000 3.614610 
# 
# 
# High freq. dielectric constant tensor:
#      x y z
#    x 1.742950 0.000000 0.000000 
#    y 0.000000 1.739490 0.000000 
#    z 0.000000 0.000000 1.755480 
# 
# From -- ./inp_files/30748.got.cif
#   From: 2010.03.12/outbox.cif.g09.slc.cpg/sg53_16_cif.got.tgz:30748.got - 2010.04.16 14:36:59.
