data_PCOD8218641
_publ_section_title
;
Structure prediction by ZEFSAII (Michael W. Deem and Ramdas Pophale) SiO2 
 PCOD8218641
Probable space group: P M N A
;
_chemical_formula_sum "Si O2"
_cell_formula_units_Z 64
_cell_length_a 8.709958
_cell_length_b 17.347331
_cell_length_c 21.900827
_cell_angle_alpha 90.000000
_cell_angle_beta 90.000000
_cell_angle_gamma 90.000000
_cell_volume 3309.095040
_symmetry_space_group_name_H-M "P M N A"
_symmetry_group_IT_number 53
_symmetry_cell_setting 'orthorhombic'
loop_
_space_group_symop_operation_xyz
x,y,z
1/2-x,-y,1/2+z
x,-y,-z
1/2-x,y,1/2-z
-x,-y,-z
1/2+x,y,1/2-z
-x,y,z
1/2+x,-y,1/2+z
loop_
_atom_site_type_symbol
_atom_site_label
_atom_site_fract_x
_atom_site_fract_y
_atom_site_fract_z
Si Si1 0.172252 0.770746 0.600532
Si Si2 0.325584 0.626039 0.814527
Si Si3 0.180986 0.389096 0.535246
Si Si4 0.680152 0.539738 0.581744
Si Si5 0.683088 0.061145 0.552332
Si Si6 0.831531 0.137442 0.191641
Si Si7 0.832295 0.959026 0.189531
Si Si8 0.322196 0.766059 0.477584
O O1 0.181698 0.707531 0.652541
O O2 0.227868 0.850185 0.631587
O O3 0.292772 0.750046 0.548507
O O4 0.000000 0.779364 0.573747
O O5 0.250000 0.637664 0.750000
O O6 0.500000 0.596180 0.809210
O O7 0.223843 0.563483 0.850151
O O8 0.223900 0.405868 0.464582
O O9 0.272188 0.450580 0.575838
O O10 0.230949 0.302848 0.556819
O O11 0.000000 0.398723 0.543982
O O12 0.500000 0.549197 0.568389
O O13 0.500000 0.053546 0.552973
O O14 0.747357 0.048264 0.621939
O O15 0.738628 0.147861 0.536627
O O16 0.744832 0.000000 0.500000
O O17 0.750000 0.176115 0.250000
O O18 0.000000 0.175619 0.183111
O O19 0.851772 0.048050 0.203545
O O20 0.750000 0.921945 0.250000
O O21 0.000000 0.919127 0.186133
O O22 0.500000 0.758406 0.461285
#
# Coordination Sequence:
#
# PCOD8218641 Si02
#       8
#     8   8   8   8   8   8   8   8
#     4  11  22  34  49  72 108 146 183 225 275 332
#     4  11  23  37  53  77 112 153 189 227 273 330
#     4  11  21  36  57  82 113 144 178 228 284 335
#     4  11  21  36  59  84 109 141 186 230 273 329
#     4   9  18  34  56  83 114 150 192 242 295 347
#     4  10  19  31  49  71  99 137 183 229 273 329
#     4   9  18  34  55  78 105 141 186 235 289 348
#     4  11  21  34  56  82 109 143 189 236 284 339
#
# _framework density 19.340637000000001
#
# number of rings (size 3 to 8) (size 9 to 14) (size 15 to 20)
#    0.000    1.625    1.250    5.625    0.000    5.000 
#    0.000    1.250    0.000    3.375    0.000    3.500 
#    0.000    0.000    0.000    0.000    0.000    0.000 
#
# Total GULP energy -793121.544429 kJ/mol
# GULP energy per Si atom -12392.524132 kJ/mol
# Density = 1.929662 g / cm^3
# Si number density = 19.340637 Si / 1000 Ang^3
#
#
#
# Elastic Constant Matrix: (Units=GPa)
#
#
# Indices 1 2 3 4 5 6 
#
# 1 80.0127 22.4722 27.1709 0.0000 0.0000 0.0000
# 2 22.4722 87.9485 21.3378 0.0000 0.0000 0.0000
# 3 27.1709 21.3378 100.0444 0.0000 0.0000 0.0000
# 4 0.0000 0.0000 0.0000 19.9025 0.0000 0.0000
# 5 0.0000 0.0000 0.0000 0.0000 26.9215 0.0000
# 6 0.0000 0.0000 0.0000 0.0000 0.0000 20.2494
#
#
#
# Elastic Compliance Matrix: (Units=1/GPa)
#
#
# Indices 1 2 3 4 5 6 
#
# 1 0.014430 -0.002886 -0.003304 0.000000 0.000000 0.000000
# 2 -0.002886 0.012568 -0.001897 0.000000 0.000000 0.000000
# 3 -0.003304 -0.001897 0.011297 0.000000 0.000000 0.000000
# 4 0.000000 0.000000 0.000000 0.050245 0.000000 0.000000
# 5 0.000000 0.000000 0.000000 0.000000 0.037145 0.000000
# 6 0.000000 0.000000 0.000000 0.000000 0.000000 0.049384
#
#
# Mechanical properties :
#
#
# Convention : Reuss Voigt Hill
#
# Bulk Modulus (GPa) = 45.20118 45.55191 45.37655
# Shear Modulus (GPa) = 25.17417 26.54966 25.86192
#
# Velocity S-wave (km/s) = 3.61171 3.70907 3.66071
# Velocity P-wave (km/s) = 6.38862 6.47661 6.43277
#
# Compressibility (1/GPa) = 0.02212331
#
# Stress axis : x y z
#
# Youngs Moduli (GPa) = 69.29842 79.56835 88.51632
#
# Poissons Ratio (x) = 0.22961 0.29243
# Poissons Ratio (y) = 0.19997 0.16790
# Poissons Ratio (z) = 0.22894 0.15092
#
# Static dielectric constant tensor:
#      x y z
#    x 3.703680 0.000000 0.000000 
#    y 0.000000 3.518150 0.000000 
#    z 0.000000 0.000000 3.578800 
# 
# 
# High freq. dielectric constant tensor:
#      x y z
#    x 1.749680 0.000000 0.000000 
#    y 0.000000 1.738050 0.000000 
#    z 0.000000 0.000000 1.736440 
# 
# From -- ./inp_files/31163.got.cif
#   From: 2010.03.12/outbox.cif.g09.slc.cpg/sg53_16_cif.got.tgz:31163.got - 2010.04.16 14:36:59.
