data_PCOD8218557
_publ_section_title
;
Structure prediction by ZEFSAII (Michael W. Deem and Ramdas Pophale) SiO2 
 PCOD8218557
Probable space group: P M N A
;
_chemical_formula_sum "Si O2"
_cell_formula_units_Z 64
_cell_length_a 8.872537
_cell_length_b 23.053659
_cell_length_c 16.912862
_cell_angle_alpha 90.000000
_cell_angle_beta 90.000000
_cell_angle_gamma 90.000000
_cell_volume 3459.431928
_symmetry_space_group_name_H-M "P M N A"
_symmetry_group_IT_number 53
_symmetry_cell_setting 'orthorhombic'
loop_
_space_group_symop_operation_xyz
x,y,z
1/2-x,-y,1/2+z
x,-y,-z
1/2-x,y,1/2-z
-x,-y,-z
1/2+x,y,1/2-z
-x,y,z
1/2+x,-y,1/2+z
loop_
_atom_site_type_symbol
_atom_site_label
_atom_site_fract_x
_atom_site_fract_y
_atom_site_fract_z
Si Si1 0.177416 0.631423 0.513205
Si Si2 0.821428 0.040996 0.665889
Si Si3 0.824696 0.763803 0.511907
Si Si4 0.825742 0.132225 0.934616
Si Si5 0.824520 0.932641 0.902557
Si Si6 0.823919 0.173379 0.327508
Si Si7 0.822061 0.561684 0.667781
Si Si8 0.169552 0.463437 0.920507
O O1 0.229337 0.697737 0.505483
O O2 0.227318 0.606581 0.598886
O O3 0.254748 0.598189 0.440140
O O4 0.000000 0.623936 0.503903
O O5 0.750000 0.026308 0.750000
O O6 0.767516 0.104446 0.637386
O O7 0.000000 0.039189 0.671460
O O8 0.761787 0.993507 0.603507
O O9 0.732029 0.802557 0.449874
O O10 0.789417 0.783530 0.600837
O O11 0.000000 0.771006 0.492018
O O12 0.000000 0.134761 0.911038
O O13 0.796614 0.092563 0.010764
O O14 0.756145 0.888432 0.839100
O O15 0.000000 0.942514 0.884945
O O16 0.750000 0.202454 0.250000
O O17 0.000000 0.163029 0.315470
O O18 0.750000 0.583151 0.750000
O O19 0.762342 0.497275 0.646823
O O20 0.000000 0.559179 0.677661
O O21 0.000000 0.453574 0.889713
O O22 0.172299 0.500000 0.000000
#
# Coordination Sequence:
#
# PCOD8218557 Si02
#       8
#     8   8   8   8   8   8   8   8
#     4   9  18  33  52  74 101 135 174 212 250 295
#     4  12  24  37  55  78 104 132 165 208 259 313
#     4   9  19  35  53  73  99 135 176 212 249 297
#     4  10  21  37  56  78 104 134 170 212 256 303
#     4  10  20  35  54  76 103 133 167 208 254 307
#     4  10  19  31  47  69 100 136 172 209 251 300
#     4  10  19  31  49  75 108 141 170 206 252 299
#     4   9  17  30  49  73 100 131 168 207 246 291
#
# _framework density 18.500149
#
# number of rings (size 3 to 8) (size 9 to 14) (size 15 to 20)
#    0.000    2.125    0.000    3.750    0.000    6.500 
#    0.000    0.000    0.000    0.750    0.000    0.000 
#    0.000    0.000    0.000    0.000    0.000    0.000 
#
# Total GULP energy -793772.830603 kJ/mol
# GULP energy per Si atom -12402.700478 kJ/mol
# Density = 1.845804 g / cm^3
# Si number density = 18.500149 Si / 1000 Ang^3
#
#
#
# Elastic Constant Matrix: (Units=GPa)
#
#
# Indices 1 2 3 4 5 6 
#
# 1 100.8731 47.0801 24.9313 0.0000 0.0000 0.0000
# 2 47.0801 125.4516 26.3135 0.0000 0.0000 0.0000
# 3 24.9313 26.3135 32.0212 0.0000 0.0000 0.0000
# 4 0.0000 0.0000 0.0000 18.0783 0.0000 0.0000
# 5 0.0000 0.0000 0.0000 0.0000 30.8809 0.0000
# 6 0.0000 0.0000 0.0000 0.0000 0.0000 27.8169
#
#
#
# Elastic Compliance Matrix: (Units=1/GPa)
#
#
# Indices 1 2 3 4 5 6 
#
# 1 0.013396 -0.003431 -0.007610 0.000000 0.000000 0.000000
# 2 -0.003431 0.010510 -0.005965 0.000000 0.000000 0.000000
# 3 -0.007610 -0.005965 0.042057 0.000000 0.000000 0.000000
# 4 0.000000 0.000000 0.000000 0.055315 0.000000 0.000000
# 5 0.000000 0.000000 0.000000 0.000000 0.032382 0.000000
# 6 0.000000 0.000000 0.000000 0.000000 0.000000 0.035949
#
#
# Mechanical properties :
#
#
# Convention : Reuss Voigt Hill
#
# Bulk Modulus (GPa) = 31.29972 50.55507 40.92739
# Shear Modulus (GPa) = 21.34269 26.02328 23.68298
#
# Velocity S-wave (km/s) = 3.40023 3.75461 3.58180
# Velocity P-wave (km/s) = 5.68953 6.79575 6.26710
#
# Compressibility (1/GPa) = 0.03194917
#
# Stress axis : x y z
#
# Youngs Moduli (GPa) = 74.65088 95.14737 23.77741
#
# Poissons Ratio (x) = 0.32644 0.18095
# Poissons Ratio (y) = 0.25612 0.14184
# Poissons Ratio (z) = 0.56812 0.56759
#
# Static dielectric constant tensor:
#      x y z
#    x 3.459090 0.000000 0.000000 
#    y 0.000000 3.400830 0.000000 
#    z 0.000000 0.000000 3.260140 
# 
# 
# High freq. dielectric constant tensor:
#      x y z
#    x 1.728240 0.000000 0.000000 
#    y 0.000000 1.706570 0.000000 
#    z 0.000000 0.000000 1.699390 
# 
# From -- ./inp_files/20857.got.cif
#   From: 2010.03.12/outbox.cif.g09.slc.cpg/sg53_11_cif.got.tgz:20857.got - 2010.04.16 14:36:59.
