data_PCOD8218896
_publ_section_title
;
Structure prediction by ZEFSAII (Michael W. Deem and Ramdas Pophale) SiO2 
 PCOD8218896
Probable space group: P M N A
;
_chemical_formula_sum "Si O2"
_cell_formula_units_Z 64
_cell_length_a 9.035056
_cell_length_b 15.161877
_cell_length_c 23.761770
_cell_angle_alpha 90.000000
_cell_angle_beta 90.000000
_cell_angle_gamma 90.000000
_cell_volume 3255.087038
_symmetry_space_group_name_H-M "P M N A"
_symmetry_group_IT_number 53
_symmetry_cell_setting 'orthorhombic'
loop_
_space_group_symop_operation_xyz
x,y,z
1/2-x,-y,1/2+z
x,-y,-z
1/2-x,y,1/2-z
-x,-y,-z
1/2+x,y,1/2-z
-x,y,z
1/2+x,-y,1/2+z
loop_
_atom_site_type_symbol
_atom_site_label
_atom_site_fract_x
_atom_site_fract_y
_atom_site_fract_z
Si Si1 0.666736 0.869344 0.009543
Si Si2 0.675942 0.229449 0.808559
Si Si3 0.675067 0.612496 0.114759
Si Si4 0.327135 0.110310 0.397520
Si Si5 0.825504 0.688904 0.882492
Si Si6 0.676230 0.449943 0.190794
Si Si7 0.668278 0.335082 0.004212
Si Si8 0.173267 0.943632 0.370600
O O1 0.500000 0.898511 0.994014
O O2 0.674904 0.764966 0.016624
O O3 0.719418 0.912351 0.067349
O O4 0.772786 0.905011 0.961020
O O5 0.750000 0.253363 0.750000
O O6 0.500000 0.235680 0.802819
O O7 0.736542 0.301082 0.853313
O O8 0.726010 0.131489 0.827174
O O9 0.500000 0.619672 0.113872
O O10 0.727073 0.524767 0.146730
O O11 0.728345 0.608730 0.049398
O O12 0.500000 0.096793 0.395281
O O13 0.282055 0.208177 0.377396
O O14 0.253448 0.036586 0.357147
O O15 0.740278 0.642459 0.831425
O O16 0.000000 0.673674 0.877093
O O17 0.771832 0.648726 0.942030
O O18 0.750000 0.473335 0.250000
O O19 0.500000 0.444352 0.197587
O O20 0.500000 0.361767 0.020874
O O21 0.000000 0.958849 0.365313
#
# Coordination Sequence:
#
# PCOD8218896 Si02
#       8
#     8   8   8   8   8   8   8   8
#     4   9  16  29  51  78 108 145 184 220 262 320
#     4  10  20  36  55  79 112 149 186 228 275 328
#     4   9  18  35  60  87 115 145 183 226 273 335
#     4  10  21  34  51  77 110 143 179 227 279 325
#     4  10  22  40  57  80 116 151 186 235 286 335
#     4  11  23  40  63  87 110 143 187 234 281 333
#     4   9  16  32  58  85 114 150 187 224 271 334
#     4  10  19  32  52  77 107 145 187 225 265 321
#
# _framework density 19.661532999999999
#
# number of rings (size 3 to 8) (size 9 to 14) (size 15 to 20)
#    0.000    2.250    1.250    1.875    0.000    4.500 
#    0.000    5.625    0.000    1.500    0.000    0.000 
#    0.000    0.000    0.000    0.000    0.000    0.000 
#
# Total GULP energy -793580.733772 kJ/mol
# GULP energy per Si atom -12399.698965 kJ/mol
# Density = 1.961678 g / cm^3
# Si number density = 19.661533 Si / 1000 Ang^3
#
#
#
# Elastic Constant Matrix: (Units=GPa)
#
#
# Indices 1 2 3 4 5 6 
#
# 1 52.5082 28.6659 20.3167 0.0000 0.0000 0.0000
# 2 28.6659 63.8099 27.7487 0.0000 0.0000 0.0000
# 3 20.3167 27.7487 51.4990 0.0000 0.0000 0.0000
# 4 0.0000 0.0000 0.0000 26.2127 0.0000 0.0000
# 5 0.0000 0.0000 0.0000 0.0000 28.9734 0.0000
# 6 0.0000 0.0000 0.0000 0.0000 0.0000 22.4223
#
#
#
# Elastic Compliance Matrix: (Units=1/GPa)
#
#
# Indices 1 2 3 4 5 6 
#
# 1 0.026269 -0.009527 -0.005230 0.000000 0.000000 0.000000
# 2 -0.009527 0.023922 -0.009131 0.000000 0.000000 0.000000
# 3 -0.005230 -0.009131 0.026401 0.000000 0.000000 0.000000
# 4 0.000000 0.000000 0.000000 0.038150 0.000000 0.000000
# 5 0.000000 0.000000 0.000000 0.000000 0.034514 0.000000
# 6 0.000000 0.000000 0.000000 0.000000 0.000000 0.044598
#
#
# Mechanical properties :
#
#
# Convention : Reuss Voigt Hill
#
# Bulk Modulus (GPa) = 34.70271 35.69774 35.20023
# Shear Modulus (GPa) = 19.90148 21.59407 20.74778
#
# Velocity S-wave (km/s) = 3.18497 3.31764 3.25198
# Velocity P-wave (km/s) = 5.58692 5.73334 5.66061
#
# Compressibility (1/GPa) = 0.02881619
#
# Stress axis : x y z
#
# Youngs Moduli (GPa) = 38.06728 41.80196 37.87675
#
# Poissons Ratio (x) = 0.39824 0.19810
# Poissons Ratio (y) = 0.36266 0.34587
# Poissons Ratio (z) = 0.19910 0.38171
#
# Static dielectric constant tensor:
#      x y z
#    x 3.347690 0.000000 0.000000 
#    y 0.000000 3.790800 0.000000 
#    z 0.000000 0.000000 3.515750 
# 
# 
# High freq. dielectric constant tensor:
#      x y z
#    x 1.743890 0.000000 0.000000 
#    y 0.000000 1.776660 0.000000 
#    z 0.000000 0.000000 1.754000 
# 
# From -- ./inp_files/34298.got.cif
#   From: 2010.03.12/outbox.cif.g09.slc.cpg/sg53_18_cif.got.tgz:34298.got - 2010.04.16 14:36:59.
