data_PCOD8218055
_publ_section_title
;
Structure prediction by ZEFSAII (Michael W. Deem and Ramdas Pophale) SiO2 
 PCOD8218055
Probable space group: P M N A
;
_chemical_formula_sum "Si O2"
_cell_formula_units_Z 48
_cell_length_a 8.966219
_cell_length_b 17.071549
_cell_length_c 15.635184
_cell_angle_alpha 90.000000
_cell_angle_beta 90.000000
_cell_angle_gamma 90.000000
_cell_volume 2393.234571
_symmetry_space_group_name_H-M "P M N A"
_symmetry_group_IT_number 53
_symmetry_cell_setting 'orthorhombic'
loop_
_space_group_symop_operation_xyz
x,y,z
1/2-x,-y,1/2+z
x,-y,-z
1/2-x,y,1/2-z
-x,-y,-z
1/2+x,y,1/2-z
-x,y,z
1/2+x,-y,1/2+z
loop_
_atom_site_type_symbol
_atom_site_label
_atom_site_fract_x
_atom_site_fract_y
_atom_site_fract_z
Si Si1 0.664703 0.006239 0.898415
Si Si2 0.676355 0.834112 0.903643
Si Si3 0.177270 0.684203 0.835684
Si Si4 0.322504 0.588410 0.499968
Si Si5 0.827968 0.681345 0.163482
Si Si6 0.171832 0.155856 0.916222
O O1 0.500000 0.027783 0.863720
O O2 0.714624 0.920438 0.865062
O O3 0.778419 0.074742 0.870105
O O4 0.660477 0.000000 0.000000
O O5 0.500000 0.818112 0.900862
O O6 0.764169 0.772576 0.845884
O O7 0.729277 0.826539 0.001200
O O8 0.250000 0.648189 0.750000
O O9 0.000000 0.684525 0.827778
O O10 0.234298 0.632029 0.914949
O O11 0.260727 0.500000 0.500000
O O12 0.500000 0.590098 0.498788
O O13 0.259787 0.633458 0.416715
O O14 0.750000 0.653477 0.250000
O O15 0.803416 0.773918 0.150224
O O16 0.000000 0.660157 0.172994
O O17 0.000000 0.149920 0.944786
#
# Coordination Sequence:
#
# PCOD8218055 Si02
#       6
#     8   8   8   8   8   8
#     4   8  16  29  47  76 110 147 192 238 287 338
#     4  10  19  33  54  80 113 153 195 239 288 339
#     4  11  22  38  60  88 119 152 193 237 286 346
#     4   9  19  39  64  86 115 152 185 228 288 348
#     4  10  21  37  57  86 116 150 192 230 280 338
#     4  10  18  31  52  80 113 150 195 241 287 342
#
# _framework density 20.056538
#
# number of rings (size 3 to 8) (size 9 to 14) (size 15 to 20)
#    0.000    2.333    1.667    2.500    0.000    5.667 
#    0.000    0.833    0.000    5.500    0.000    0.000 
#    0.000    0.000    0.000    0.000    0.000    0.000 
#
# Total GULP energy -595117.649818 kJ/mol
# GULP energy per Si atom -12398.284371 kJ/mol
# Density = 2.001089 g / cm^3
# Si number density = 20.056538 Si / 1000 Ang^3
#
#
#
# Elastic Constant Matrix: (Units=GPa)
#
#
# Indices 1 2 3 4 5 6 
#
# 1 70.3294 42.2375 40.2888 0.0000 0.0000 0.0000
# 2 42.2375 141.1161 62.0426 0.0000 0.0000 0.0000
# 3 40.2888 62.0426 129.9179 0.0000 0.0000 0.0000
# 4 0.0000 0.0000 0.0000 10.4556 0.0000 0.0000
# 5 0.0000 0.0000 0.0000 0.0000 28.8582 0.0000
# 6 0.0000 0.0000 0.0000 0.0000 0.0000 17.3969
#
#
#
# Elastic Compliance Matrix: (Units=1/GPa)
#
#
# Indices 1 2 3 4 5 6 
#
# 1 0.018835 -0.003885 -0.003986 0.000000 0.000000 0.000000
# 2 -0.003885 0.009771 -0.003461 0.000000 0.000000 0.000000
# 3 -0.003986 -0.003461 0.010586 0.000000 0.000000 0.000000
# 4 0.000000 0.000000 0.000000 0.095642 0.000000 0.000000
# 5 0.000000 0.000000 0.000000 0.000000 0.034652 0.000000
# 6 0.000000 0.000000 0.000000 0.000000 0.000000 0.057481
#
#
# Mechanical properties :
#
#
# Convention : Reuss Voigt Hill
#
# Bulk Modulus (GPa) = 60.50314 70.05571 65.27943
# Shear Modulus (GPa) = 19.59690 24.46178 22.02934
#
# Velocity S-wave (km/s) = 3.12922 3.49613 3.31775
# Velocity P-wave (km/s) = 6.57935 7.16255 6.87713
#
# Compressibility (1/GPa) = 0.01652807
#
# Stress axis : x y z
#
# Youngs Moduli (GPa) = 53.09157 102.34281 94.46347
#
# Poissons Ratio (x) = 0.39764 0.37649
# Poissons Ratio (y) = 0.20628 0.32697
# Poissons Ratio (z) = 0.21160 0.35424
#
# Static dielectric constant tensor:
#      x y z
#    x 3.477340 0.000000 0.000000 
#    y 0.000000 3.997570 0.000000 
#    z 0.000000 0.000000 3.446850 
# 
# 
# High freq. dielectric constant tensor:
#      x y z
#    x 1.765320 0.000000 0.000000 
#    y 0.000000 1.787620 0.000000 
#    z 0.000000 0.000000 1.764630 
# 
# From -- ./inp_files/20246.got.cif
#   From: 2010.03.12/outbox.cif.g09.slc.cpg/sg53_11_cif.got.tgz:20246.got - 2010.04.16 14:36:59.
