data_PCOD8218507
_publ_section_title
;
Structure prediction by ZEFSAII (Michael W. Deem and Ramdas Pophale) SiO2 
 PCOD8218507
Probable space group: P M N A
;
_chemical_formula_sum "Si O2"
_cell_formula_units_Z 48
_cell_length_a 9.248612
_cell_length_b 14.650248
_cell_length_c 20.478945
_cell_angle_alpha 90.000000
_cell_angle_beta 90.000000
_cell_angle_gamma 90.000000
_cell_volume 2774.783583
_symmetry_space_group_name_H-M "P M N A"
_symmetry_group_IT_number 53
_symmetry_cell_setting 'orthorhombic'
loop_
_space_group_symop_operation_xyz
x,y,z
1/2-x,-y,1/2+z
x,-y,-z
1/2-x,y,1/2-z
-x,-y,-z
1/2+x,y,1/2-z
-x,y,z
1/2+x,-y,1/2+z
loop_
_atom_site_type_symbol
_atom_site_label
_atom_site_fract_x
_atom_site_fract_y
_atom_site_fract_z
Si Si1 0.667595 0.221736 0.020523
Si Si2 0.168550 0.604903 0.814725
Si Si3 0.661668 0.806626 0.645411
Si Si4 0.831379 0.426086 0.446521
Si Si5 0.670821 0.076003 0.551998
Si Si6 0.336673 0.997042 0.310292
O O1 0.500000 0.199841 0.012962
O O2 0.721911 0.180895 0.088739
O O3 0.700247 0.329371 0.019283
O O4 0.752656 0.172626 0.961970
O O5 0.250000 0.567387 0.750000
O O6 0.188380 0.714213 0.814510
O O7 0.239426 0.561960 0.880064
O O8 0.000000 0.576811 0.811964
O O9 0.500000 0.805606 0.614039
O O10 0.676925 0.893088 0.692616
O O11 0.782462 0.500000 0.500000
O O12 0.000000 0.436126 0.427917
O O13 0.500000 0.090180 0.549593
O O14 0.720139 0.000000 0.500000
O O15 0.725529 0.042397 0.622326
O O16 0.250000 0.954447 0.250000
O O17 0.500000 0.964876 0.301805
#
# Coordination Sequence:
#
# PCOD8218507 Si02
#       6
#     8   8   8   8   8   8
#     4  10  19  30  50  78 100 124 165 213 252 289
#     4  10  19  30  49  75 105 136 167 205 250 306
#     4   9  17  31  47  67  99 137 167 193 240 303
#     4   9  19  36  55  75 103 135 167 209 262 311
#     4  10  19  34  52  68  97 137 172 201 242 298
#     4  10  20  32  47  67  95 133 169 205 246 289
#
# _framework density 17.298646999999999
#
# number of rings (size 3 to 8) (size 9 to 14) (size 15 to 20)
#    0.000    2.333    1.667    1.500    0.000    3.333 
#    0.000    0.000    0.000    1.000    0.000    2.333 
#    0.000    0.000    0.000    0.000    0.000    0.000 
#
# Total GULP energy -595141.335292 kJ/mol
# GULP energy per Si atom -12398.777819 kJ/mol
# Density = 1.725927 g / cm^3
# Si number density = 17.298647 Si / 1000 Ang^3
#
#
#
# Elastic Constant Matrix: (Units=GPa)
#
#
# Indices 1 2 3 4 5 6 
#
# 1 75.6349 37.6280 66.7772 0.0000 0.0000 0.0000
# 2 37.6280 55.2294 49.1596 0.0000 0.0000 0.0000
# 3 66.7772 49.1596 144.0477 0.0000 0.0000 0.0000
# 4 0.0000 0.0000 0.0000 20.1915 0.0000 0.0000
# 5 0.0000 0.0000 0.0000 0.0000 34.7798 0.0000
# 6 0.0000 0.0000 0.0000 0.0000 0.0000 21.8884
#
#
#
# Elastic Compliance Matrix: (Units=1/GPa)
#
#
# Indices 1 2 3 4 5 6 
#
# 1 0.025672 -0.009907 -0.008520 0.000000 0.000000 0.000000
# 2 -0.009907 0.029829 -0.005587 0.000000 0.000000 0.000000
# 3 -0.008520 -0.005587 0.012799 0.000000 0.000000 0.000000
# 4 0.000000 0.000000 0.000000 0.049526 0.000000 0.000000
# 5 0.000000 0.000000 0.000000 0.000000 0.028752 0.000000
# 6 0.000000 0.000000 0.000000 0.000000 0.000000 0.045686
#
#
# Mechanical properties :
#
#
# Convention : Reuss Voigt Hill
#
# Bulk Modulus (GPa) = 49.33028 64.67128 57.00078
# Shear Modulus (GPa) = 20.23878 23.46176 21.85027
#
# Velocity S-wave (km/s) = 3.42418 3.68676 3.55790
# Velocity P-wave (km/s) = 6.64922 7.45582 7.06404
#
# Compressibility (1/GPa) = 0.02027153
#
# Stress axis : x y z
#
# Youngs Moduli (GPa) = 38.95231 33.52429 78.13294
#
# Poissons Ratio (x) = 0.33212 0.66571
# Poissons Ratio (y) = 0.38590 0.43655
# Poissons Ratio (z) = 0.33188 0.18731
#
# Static dielectric constant tensor:
#      x y z
#    x 3.263060 0.000000 0.000000 
#    y 0.000000 3.050550 0.000000 
#    z 0.000000 0.000000 3.113860 
# 
# 
# High freq. dielectric constant tensor:
#      x y z
#    x 1.672200 0.000000 0.000000 
#    y 0.000000 1.636380 0.000000 
#    z 0.000000 0.000000 1.660930 
# 
# From -- ./inp_files/30497.got.cif
#   From: 2010.03.12/outbox.cif.g09.slc.cpg/sg53_16_cif.got.tgz:30497.got - 2010.04.16 14:36:59.
