data_PCOD8218376
_publ_section_title
;
Structure prediction by ZEFSAII (Michael W. Deem and Ramdas Pophale) SiO2 
 PCOD8218376
Probable space group: P M N A
;
_chemical_formula_sum "Si O2"
_cell_formula_units_Z 40
_cell_length_a 13.649105
_cell_length_b 13.109061
_cell_length_c 10.013586
_cell_angle_alpha 90.000000
_cell_angle_beta 90.000000
_cell_angle_gamma 90.000000
_cell_volume 1791.700402
_symmetry_space_group_name_H-M "P M N A"
_symmetry_group_IT_number 53
_symmetry_cell_setting 'orthorhombic'
loop_
_space_group_symop_operation_xyz
x,y,z
1/2-x,-y,1/2+z
x,-y,-z
1/2-x,y,1/2-z
-x,-y,-z
1/2+x,y,1/2-z
-x,y,z
1/2+x,-y,1/2+z
loop_
_atom_site_type_symbol
_atom_site_label
_atom_site_fract_x
_atom_site_fract_y
_atom_site_fract_z
Si Si1 0.886875 0.569029 0.128718
Si Si2 0.892054 0.407231 0.340913
Si Si3 0.393600 0.206228 0.311223
Si Si4 0.747324 0.279660 0.983759
Si Si5 0.613817 0.112946 0.026001
O O1 0.861543 0.512406 0.268011
O O2 0.000000 0.603468 0.127349
O O3 0.864437 0.500000 0.000000
O O4 0.818942 0.670732 0.125793
O O5 0.900649 0.325339 0.223805
O O6 0.809174 0.374508 0.445625
O O7 0.000000 0.417548 0.409978
O O8 0.500000 0.170263 0.367140
O O9 0.309275 0.202633 0.420779
O O10 0.366646 0.141000 0.180563
O O11 0.667051 0.197752 0.930761
O O12 0.500000 0.119216 0.989063
O O13 0.655398 0.000000 0.000000
#
# Coordination Sequence:
#
# PCOD8218376 Si02
#       5
#     8   8   8   8   8
#     4  10  19  29  46  78 114 144 176 219 269 315
#     4   9  17  29  45  72 109 143 176 217 262 310
#     4   9  16  27  47  76 102 126 164 214 257 309
#     4  11  18  29  54  81 105 135 189 220 251 319
#     4   9  18  31  48  74 104 132 167 220 277 316
#
# _framework density 22.325161000000001
#
# number of rings (size 3 to 8) (size 9 to 14) (size 15 to 20)
#    0.000    2.400    2.000    4.800    0.000    0.000 
#    0.000    0.000    0.000    9.600   10.400    0.000 
#    0.000    0.000    0.000    0.000    0.000    0.000 
#
# Total GULP energy -495574.331078 kJ/mol
# GULP energy per Si atom -12389.358277 kJ/mol
# Density = 2.227435 g / cm^3
# Si number density = 22.325161 Si / 1000 Ang^3
#
#
#
# Elastic Constant Matrix: (Units=GPa)
#
#
# Indices 1 2 3 4 5 6 
#
# 1 122.7665 68.8193 25.1063 0.0000 0.0000 0.0000
# 2 68.8193 149.8549 39.6478 0.0000 0.0000 0.0000
# 3 25.1063 39.6478 22.3472 0.0000 0.0000 0.0000
# 4 0.0000 0.0000 0.0000 28.0341 0.0000 0.0000
# 5 0.0000 0.0000 0.0000 0.0000 -21.3331 0.0000
# 6 0.0000 0.0000 0.0000 0.0000 0.0000 38.1496
#
#
#
# Elastic Compliance Matrix: (Units=1/GPa)
#
#
# Indices 1 2 3 4 5 6 
#
# 1 0.011475 -0.003503 -0.006676 0.000000 0.000000 0.000000
# 2 -0.003503 0.013646 -0.020275 0.000000 0.000000 0.000000
# 3 -0.006676 -0.020275 0.088219 0.000000 0.000000 0.000000
# 4 0.000000 0.000000 0.000000 0.035671 0.000000 0.000000
# 5 0.000000 0.000000 0.000000 0.000000 -0.046876 0.000000
# 6 0.000000 0.000000 0.000000 0.000000 0.000000 0.026213
#
#
# Mechanical properties :
#
#
# Convention : Reuss Voigt Hill
#
# Bulk Modulus (GPa) = 19.07226 62.45728 40.76477
# Shear Modulus (GPa) = 24.18576 19.72980 21.95778
#
# Velocity S-wave (km/s) = 3.29499 2.97601 3.13955
# Velocity P-wave (km/s) = 4.79973 6.31235 5.60728
#
# Compressibility (1/GPa) = 0.05243218
#
# Stress axis : x y z
#
# Youngs Moduli (GPa) = 87.14848 73.28036 11.33540
#
# Poissons Ratio (x) = 0.25673 0.07567
# Poissons Ratio (y) = 0.30532 0.22982
# Poissons Ratio (z) = 0.58178 1.48574
#
# Static dielectric constant tensor:
#      x y z
#    x 4.588500 0.000000 0.000000 
#    y 0.000000 3.899030 0.000000 
#    z 0.000000 0.000000 3.390340 
# 
# 
# High freq. dielectric constant tensor:
#      x y z
#    x 1.914120 0.000000 0.000000 
#    y 0.000000 1.846830 0.000000 
#    z 0.000000 0.000000 1.818710 
# 
# From -- ./inp_files/15774.got.cif
#   From: 2010.03.12/outbox.cif.g09.slc.cpg/sg53_8_cif.got.tgz:15774.got - 2010.04.16 14:36:59.
