data_PCOD8218548
_publ_section_title
;
Structure prediction by ZEFSAII (Michael W. Deem and Ramdas Pophale) SiO2 
 PCOD8218548
Probable space group: P M N A
;
_chemical_formula_sum "Si O2"
_cell_formula_units_Z 48
_cell_length_a 9.851756
_cell_length_b 10.288435
_cell_length_c 28.966815
_cell_angle_alpha 90.000000
_cell_angle_beta 90.000000
_cell_angle_gamma 90.000000
_cell_volume 2936.051783
_symmetry_space_group_name_H-M "P M N A"
_symmetry_group_IT_number 53
_symmetry_cell_setting 'orthorhombic'
loop_
_space_group_symop_operation_xyz
x,y,z
1/2-x,-y,1/2+z
x,-y,-z
1/2-x,y,1/2-z
-x,-y,-z
1/2+x,y,1/2-z
-x,y,z
1/2+x,-y,1/2+z
loop_
_atom_site_type_symbol
_atom_site_label
_atom_site_fract_x
_atom_site_fract_y
_atom_site_fract_z
Si Si1 0.343003 0.130067 0.472379
Si Si2 0.659099 0.219024 0.107339
Si Si3 0.843866 0.621008 0.032366
Si Si4 0.349605 0.211443 0.211226
Si Si5 0.350573 0.479462 0.787890
Si Si6 0.341833 0.520273 0.108576
O O1 0.500000 0.136689 0.456779
O O2 0.249336 0.133185 0.427059
O O3 0.305521 0.248811 0.505566
O O4 0.310151 0.000000 0.500000
O O5 0.500000 0.196009 0.097618
O O6 0.696583 0.173756 0.159392
O O7 0.696484 0.370036 0.100255
O O8 0.748507 0.613098 0.076908
O O9 0.000000 0.620809 0.048592
O O10 0.811198 0.500000 0.000000
O O11 0.250000 0.151226 0.250000
O O12 0.500000 0.155962 0.220906
O O13 0.352564 0.365877 0.214990
O O14 0.250000 0.418432 0.750000
O O15 0.500000 0.424785 0.776877
O O16 0.306277 0.437950 0.839179
O O17 0.500000 0.543065 0.097771
#
# Coordination Sequence:
#
# PCOD8218548 Si02
#       6
#     8   8   8   8   8   8
#     4  10  21  35  48  65  92 123 154 192 235 274
#     4   9  17  29  45  66  93 122 153 188 226 270
#     4  10  19  31  47  68  90 116 155 192 222 267
#     4   8  14  24  38  60  89 118 147 181 220 265
#     4   8  14  24  37  58  89 120 148 178 219 269
#     4   9  17  28  44  67  93 121 152 188 229 270
#
# _framework density 16.348485
#
# number of rings (size 3 to 8) (size 9 to 14) (size 15 to 20)
#    0.000    3.000    1.667    2.000    0.000    2.667 
#    0.000    3.333    0.000    0.000    0.000    1.167 
#    0.000    0.000    0.000    0.000    0.000    0.000 
#
# Total GULP energy -595050.661887 kJ/mol
# GULP energy per Si atom -12396.888789 kJ/mol
# Density = 1.631128 g / cm^3
# Si number density = 16.348485 Si / 1000 Ang^3
#
#
#
# Elastic Constant Matrix: (Units=GPa)
#
#
# Indices 1 2 3 4 5 6 
#
# 1 92.1250 29.0829 92.5027 0.0000 0.0000 0.0000
# 2 29.0829 57.4590 39.6822 0.0000 0.0000 0.0000
# 3 92.5027 39.6822 146.4558 0.0000 0.0000 0.0000
# 4 0.0000 0.0000 0.0000 13.1788 0.0000 0.0000
# 5 0.0000 0.0000 0.0000 0.0000 39.1146 0.0000
# 6 0.0000 0.0000 0.0000 0.0000 0.0000 -1.9938
#
#
#
# Elastic Compliance Matrix: (Units=1/GPa)
#
#
# Indices 1 2 3 4 5 6 
#
# 1 0.029982 -0.002580 -0.018238 0.000000 0.000000 0.000000
# 2 -0.002580 0.021632 -0.004232 0.000000 0.000000 0.000000
# 3 -0.018238 -0.004232 0.019494 0.000000 0.000000 0.000000
# 4 0.000000 0.000000 0.000000 0.075880 0.000000 0.000000
# 5 0.000000 0.000000 0.000000 0.000000 0.025566 0.000000
# 6 0.000000 0.000000 0.000000 0.000000 0.000000 -0.501543
#
#
# Mechanical properties :
#
#
# Convention : Reuss Voigt Hill
#
# Bulk Modulus (GPa) = 47.59917 68.73060 58.16489
# Shear Modulus (GPa) = -18.38993 19.04470 0.32738
#
# Velocity S-wave (km/s) = -3.35755 3.41680 0.44798
# Velocity P-wave (km/s) = 3.76134 7.59594 5.99358
#
# Compressibility (1/GPa) = 0.02100877
#
# Stress axis : x y z
#
# Youngs Moduli (GPa) = 33.35360 46.22774 51.29872
#
# Poissons Ratio (x) = 0.11927 0.93557
# Poissons Ratio (y) = 0.08605 0.21708
# Poissons Ratio (z) = 0.60829 0.19562
#
# Static dielectric constant tensor:
#      x y z
#    x 3.251800 0.000000 0.000000 
#    y 0.000000 2.686140 0.000000 
#    z 0.000000 0.000000 3.201830 
# 
# 
# High freq. dielectric constant tensor:
#      x y z
#    x 1.633480 0.000000 0.000000 
#    y 0.000000 1.571420 0.000000 
#    z 0.000000 0.000000 1.636910 
# 
# From -- ./inp_files/34902.got.cif
#   From: 2010.03.12/outbox.cif.g09.slc.cpg/sg53_18_cif.got.tgz:34902.got - 2010.04.16 14:36:59.
