data_PCOD8218801
_publ_section_title
;
Structure prediction by ZEFSAII (Michael W. Deem and Ramdas Pophale) SiO2 
 PCOD8218801
Probable space group: P M N A
;
_chemical_formula_sum "Si O2"
_cell_formula_units_Z 56
_cell_length_a 19.414444
_cell_length_b 14.595221
_cell_length_c 10.013871
_cell_angle_alpha 90.000000
_cell_angle_beta 90.000000
_cell_angle_gamma 90.000000
_cell_volume 2837.511468
_symmetry_space_group_name_H-M "P M N A"
_symmetry_group_IT_number 53
_symmetry_cell_setting 'orthorhombic'
loop_
_space_group_symop_operation_xyz
x,y,z
1/2-x,-y,1/2+z
x,-y,-z
1/2-x,y,1/2-z
-x,-y,-z
1/2+x,y,1/2-z
-x,y,z
1/2+x,-y,1/2+z
loop_
_atom_site_type_symbol
_atom_site_label
_atom_site_fract_x
_atom_site_fract_y
_atom_site_fract_z
Si Si1 0.923064 0.350815 0.141970
Si Si2 0.419073 0.594729 0.930796
Si Si3 0.168749 0.720073 0.382338
Si Si4 0.674289 0.287394 0.580909
Si Si5 0.425369 0.146054 0.258284
Si Si6 0.840315 0.894305 0.526677
Si Si7 0.690432 0.099942 0.440845
O O1 0.897770 0.408047 0.272779
O O2 0.927840 0.247393 0.188203
O O3 0.000000 0.383381 0.095466
O O4 0.868453 0.355206 0.019236
O O5 0.500000 0.614353 0.940697
O O6 0.397865 0.500000 0.000000
O O7 0.381399 0.674946 0.010274
O O8 0.245525 0.684683 0.418472
O O9 0.145913 0.697072 0.231062
O O10 0.165872 0.831435 0.393887
O O11 0.664705 0.180645 0.540243
O O12 0.500000 0.099083 0.280146
O O13 0.406053 0.146494 0.103131
O O14 0.364703 0.087634 0.324167
O O15 0.768360 0.878562 0.608507
O O16 0.854407 0.000000 0.500000
O O17 0.694152 0.000000 0.500000
#
# Coordination Sequence:
#
# PCOD8218801 Si02
#       7
#     8   8   8   8   8   8   8
#     4   9  18  36  58  82 112 146 186 227 276 341
#     4  10  21  39  63  86 110 146 188 228 278 344
#     4  10  20  37  56  82 117 146 187 239 287 333
#     4   9  20  35  55  83 115 149 185 236 287 334
#     4  10  19  32  50  74 108 142 183 235 280 329
#     4  10  20  32  53  78 107 147 190 234 278 333
#     4   9  19  33  52  74 104 149 196 231 273 332
#
# _framework density 19.735603000000001
#
# number of rings (size 3 to 8) (size 9 to 14) (size 15 to 20)
#    0.000    2.429    1.429    0.429    2.000    1.714 
#    0.000    3.571    0.000    2.571    0.000    0.000 
#    0.000    0.000    0.000    0.000    0.000    0.000 
#
# Total GULP energy -693762.572104 kJ/mol
# GULP energy per Si atom -12388.617359 kJ/mol
# Density = 1.969068 g / cm^3
# Si number density = 19.735603 Si / 1000 Ang^3
#
#
#
# Elastic Constant Matrix: (Units=GPa)
#
#
# Indices 1 2 3 4 5 6 
#
# 1 93.6010 27.8440 61.6146 0.0000 0.0000 0.0000
# 2 27.8440 55.1475 30.0342 0.0000 0.0000 0.0000
# 3 61.6146 30.0342 128.2475 0.0000 0.0000 0.0000
# 4 0.0000 0.0000 0.0000 21.0183 0.0000 0.0000
# 5 0.0000 0.0000 0.0000 0.0000 22.2630 0.0000
# 6 0.0000 0.0000 0.0000 0.0000 0.0000 14.3266
#
#
#
# Elastic Compliance Matrix: (Units=1/GPa)
#
#
# Indices 1 2 3 4 5 6 
#
# 1 0.016595 -0.004627 -0.006889 0.000000 0.000000 0.000000
# 2 -0.004627 0.022074 -0.002947 0.000000 0.000000 0.000000
# 3 -0.006889 -0.002947 0.011797 0.000000 0.000000 0.000000
# 4 0.000000 0.000000 0.000000 0.047577 0.000000 0.000000
# 5 0.000000 0.000000 0.000000 0.000000 0.044918 0.000000
# 6 0.000000 0.000000 0.000000 0.000000 0.000000 0.069800
#
#
# Mechanical properties :
#
#
# Convention : Reuss Voigt Hill
#
# Bulk Modulus (GPa) = 46.42316 57.33129 51.87723
# Shear Modulus (GPa) = 20.09102 22.02181 21.05642
#
# Velocity S-wave (km/s) = 3.19409 3.34405 3.26993
# Velocity P-wave (km/s) = 6.09726 6.63498 6.37179
#
# Compressibility (1/GPa) = 0.02154097
#
# Stress axis : x y z
#
# Youngs Moduli (GPa) = 60.25913 45.30208 84.76492
#
# Poissons Ratio (x) = 0.20960 0.58397
# Poissons Ratio (y) = 0.27881 0.24977
# Poissons Ratio (z) = 0.41514 0.13349
#
# Static dielectric constant tensor:
#      x y z
#    x 4.003230 0.000000 0.000000 
#    y 0.000000 3.346150 0.000000 
#    z 0.000000 0.000000 3.820230 
# 
# 
# High freq. dielectric constant tensor:
#      x y z
#    x 1.771810 0.000000 0.000000 
#    y 0.000000 1.745650 0.000000 
#    z 0.000000 0.000000 1.763280 
# 
# From -- ./inp_files/11090.got.cif
#   From: 2010.03.12/outbox.cif.g09.slc.cpg/sg53_6_cif.got.tgz:11090.got - 2010.04.16 14:36:59.
