data_PCOD8218175
_publ_section_title
;
Structure prediction by ZEFSAII (Michael W. Deem and Ramdas Pophale) SiO2 
 PCOD8218175
Probable space group: P M N A
;
_chemical_formula_sum "Si O2"
_cell_formula_units_Z 64
_cell_length_a 27.688412
_cell_length_b 9.332000
_cell_length_c 11.720765
_cell_angle_alpha 90.000000
_cell_angle_beta 90.000000
_cell_angle_gamma 90.000000
_cell_volume 3028.508083
_symmetry_space_group_name_H-M "P M N A"
_symmetry_group_IT_number 53
_symmetry_cell_setting 'orthorhombic'
loop_
_space_group_symop_operation_xyz
x,y,z
1/2-x,-y,1/2+z
x,-y,-z
1/2-x,y,1/2-z
-x,-y,-z
1/2+x,y,1/2-z
-x,y,z
1/2+x,-y,1/2+z
loop_
_atom_site_type_symbol
_atom_site_label
_atom_site_fract_x
_atom_site_fract_y
_atom_site_fract_z
Si Si1 0.947719 0.984025 0.624914
Si Si2 0.180418 0.844317 0.444892
Si Si3 0.374563 0.235058 0.156805
Si Si4 0.554510 0.521597 0.866664
Si Si5 0.552457 0.244011 0.720710
Si Si6 0.274843 0.329627 0.529603
Si Si7 0.155395 0.161476 0.818053
Si Si8 0.202582 0.130292 0.181279
O O1 0.909437 0.894036 0.697285
O O2 0.000000 0.904454 0.615716
O O3 0.924656 0.000000 0.500000
O O4 0.955917 0.136392 0.677364
O O5 0.139693 0.773379 0.523819
O O6 0.223251 0.729545 0.430662
O O7 0.158100 0.860342 0.319027
O O8 0.196609 0.000000 0.500000
O O9 0.404917 0.374987 0.182118
O O10 0.327023 0.228893 0.231816
O O11 0.500000 0.579807 0.849823
O O12 0.564042 0.388564 0.785689
O O13 0.564110 0.500000 0.000000
O O14 0.500000 0.252051 0.652690
O O15 0.599256 0.195074 0.646054
O O16 0.274057 0.500000 0.500000
O O17 0.313042 0.292774 0.630675
O O18 0.287575 0.238971 0.419073
O O19 0.174808 0.009831 0.867778
O O20 0.250000 0.076724 0.250000
#
# Coordination Sequence:
#
# PCOD8218175 Si02
#       8
#     8   8   8   8   8   8   8   8
#     4  10  18  32  56  91 129 165 207 257 316 391
#     4  12  22  43  67 100 134 175 215 268 333 391
#     4  12  22  36  65  94 136 168 222 261 326 394
#     4  10  21  36  55  90 139 182 213 257 328 403
#     4  10  21  37  59  91 129 167 215 272 328 389
#     4  12  29  45  64  94 130 173 227 275 323 391
#     4  12  23  43  73  95 128 176 219 266 336 398
#     4  12  24  46  67  94 130 174 214 280 327 388
#
# _framework density 21.132517
#
# number of rings (size 3 to 8) (size 9 to 14) (size 15 to 20)
#    0.000    0.750    3.750    5.250    1.750    4.500 
#    0.000    0.000    0.000    3.375    0.000    0.000 
#    0.000    0.000    0.000    0.000    0.000    0.000 
#
# Total GULP energy -793007.680408 kJ/mol
# GULP energy per Si atom -12390.745006 kJ/mol
# Density = 2.108442 g / cm^3
# Si number density = 21.132517 Si / 1000 Ang^3
#
#
#
# Elastic Constant Matrix: (Units=GPa)
#
#
# Indices 1 2 3 4 5 6 
#
# 1 144.9385 51.3310 10.7212 0.0000 0.0000 0.0000
# 2 51.3310 117.3032 11.8181 0.0000 0.0000 0.0000
# 3 10.7212 11.8181 43.5128 0.0000 0.0000 0.0000
# 4 0.0000 0.0000 0.0000 20.8969 0.0000 0.0000
# 5 0.0000 0.0000 0.0000 0.0000 29.5941 0.0000
# 6 0.0000 0.0000 0.0000 0.0000 0.0000 32.4708
#
#
#
# Elastic Compliance Matrix: (Units=1/GPa)
#
#
# Indices 1 2 3 4 5 6 
#
# 1 0.008214 -0.003486 -0.001077 0.000000 0.000000 0.000000
# 2 -0.003486 0.010244 -0.001923 0.000000 0.000000 0.000000
# 3 -0.001077 -0.001923 0.023770 0.000000 0.000000 0.000000
# 4 0.000000 0.000000 0.000000 0.047854 0.000000 0.000000
# 5 0.000000 0.000000 0.000000 0.000000 0.033791 0.000000
# 6 0.000000 0.000000 0.000000 0.000000 0.000000 0.030797
#
#
# Mechanical properties :
#
#
# Convention : Reuss Voigt Hill
#
# Bulk Modulus (GPa) = 34.18245 50.38834 42.28540
# Shear Modulus (GPa) = 28.18607 32.05130 30.11869
#
# Velocity S-wave (km/s) = 3.65605 3.89868 3.77932
# Velocity P-wave (km/s) = 5.83376 6.64545 6.25279
#
# Compressibility (1/GPa) = 0.02925478
#
# Stress axis : x y z
#
# Youngs Moduli (GPa) = 121.74868 97.61785 42.07070
#
# Poissons Ratio (x) = 0.34027 0.04531
# Poissons Ratio (y) = 0.42438 0.08092
# Poissons Ratio (z) = 0.13113 0.18776
#
# Static dielectric constant tensor:
#      x y z
#    x 4.651510 0.000000 0.000000 
#    y 0.000000 3.826620 0.000000 
#    z 0.000000 0.000000 3.505770 
# 
# 
# High freq. dielectric constant tensor:
#      x y z
#    x 1.858030 0.000000 0.000000 
#    y 0.000000 1.827810 0.000000 
#    z 0.000000 0.000000 1.786800 
# 
# From -- ./inp_files/19045.got.cif
#   From: 2010.03.12/outbox.cif.g09.slc.cpg/sg53_10_cif.got.tgz:19045.got - 2010.04.16 14:36:59.
