data_PCOD8218753
_publ_section_title
;
Structure prediction by ZEFSAII (Michael W. Deem and Ramdas Pophale) SiO2 
 PCOD8218753
Probable space group: P M N A
;
_chemical_formula_sum "Si O2"
_cell_formula_units_Z 48
_cell_length_a 9.077612
_cell_length_b 15.124524
_cell_length_c 21.791269
_cell_angle_alpha 90.000000
_cell_angle_beta 90.000000
_cell_angle_gamma 90.000000
_cell_volume 2991.822701
_symmetry_space_group_name_H-M "P M N A"
_symmetry_group_IT_number 53
_symmetry_cell_setting 'orthorhombic'
loop_
_space_group_symop_operation_xyz
x,y,z
1/2-x,-y,1/2+z
x,-y,-z
1/2-x,y,1/2-z
-x,-y,-z
1/2+x,y,1/2-z
-x,y,z
1/2+x,-y,1/2+z
loop_
_atom_site_type_symbol
_atom_site_label
_atom_site_fract_x
_atom_site_fract_y
_atom_site_fract_z
Si Si1 0.827122 0.306853 0.685250
Si Si2 0.837294 0.967602 0.569530
Si Si3 0.173809 0.442197 0.586397
Si Si4 0.325908 0.803101 0.535258
Si Si5 0.327637 0.842784 0.091501
Si Si6 0.825896 0.371782 0.456095
O O1 0.750000 0.306567 0.750000
O O2 0.765403 0.390081 0.645705
O O3 0.787269 0.216275 0.650092
O O4 0.000000 0.315460 0.696029
O O5 0.723801 0.886804 0.576948
O O6 0.000000 0.934931 0.589499
O O7 0.840605 0.000000 0.500000
O O8 0.789762 0.054757 0.608488
O O9 0.216819 0.545958 0.588488
O O10 0.231393 0.396052 0.524308
O O11 0.000000 0.432716 0.583912
O O12 0.500000 0.799634 0.534074
O O13 0.264922 0.809810 0.466462
O O14 0.261489 0.714571 0.566654
O O15 0.500000 0.833116 0.073850
O O16 0.000000 0.353041 0.454528
#
# Coordination Sequence:
#
# PCOD8218753 Si02
#       6
#     8   8   8   8   8   8
#     4  10  19  32  48  68  91 118 152 188 224 267
#     4   8  15  27  43  61  82 116 153 180 209 253
#     4   8  15  28  48  66  83 114 157 192 219 257
#     4  11  19  25  39  67  97 120 140 177 231 276
#     4   9  17  31  47  60  84 121 158 187 210 256
#     4   9  15  28  48  65  84 118 155 187 221 266
#
# _framework density 16.043733
#
# number of rings (size 3 to 8) (size 9 to 14) (size 15 to 20)
#    0.000    2.833    1.667    3.500    0.000    3.667 
#    0.000    2.500    0.000    0.000    0.000    1.167 
#    0.000    0.000    0.000    0.000    0.000    0.000 
#
# Total GULP energy -594846.186762 kJ/mol
# GULP energy per Si atom -12392.628891 kJ/mol
# Density = 1.600722 g / cm^3
# Si number density = 16.043733 Si / 1000 Ang^3
#
#
#
# Elastic Constant Matrix: (Units=GPa)
#
#
# Indices 1 2 3 4 5 6 
#
# 1 70.1392 59.4429 25.7595 0.0000 0.0000 0.0000
# 2 59.4429 165.6288 56.1383 0.0000 0.0000 0.0000
# 3 25.7595 56.1383 70.8383 0.0000 0.0000 0.0000
# 4 0.0000 0.0000 0.0000 18.1860 0.0000 0.0000
# 5 0.0000 0.0000 0.0000 0.0000 18.2085 0.0000
# 6 0.0000 0.0000 0.0000 0.0000 0.0000 9.3720
#
#
#
# Elastic Compliance Matrix: (Units=1/GPa)
#
#
# Indices 1 2 3 4 5 6 
#
# 1 0.020748 -0.006685 -0.002247 0.000000 0.000000 0.000000
# 2 -0.006685 0.010409 -0.005818 0.000000 0.000000 0.000000
# 3 -0.002247 -0.005818 0.019544 0.000000 0.000000 0.000000
# 4 0.000000 0.000000 0.000000 0.054987 0.000000 0.000000
# 5 0.000000 0.000000 0.000000 0.000000 0.054919 0.000000
# 6 0.000000 0.000000 0.000000 0.000000 0.000000 0.106701
#
#
# Mechanical properties :
#
#
# Convention : Reuss Voigt Hill
#
# Bulk Modulus (GPa) = 47.16672 65.47641 56.32157
# Shear Modulus (GPa) = 16.45413 20.17101 18.31257
#
# Velocity S-wave (km/s) = 3.20594 3.54962 3.38215
# Velocity P-wave (km/s) = 6.57014 7.59602 7.10163
#
# Compressibility (1/GPa) = 0.02120139
#
# Stress axis : x y z
#
# Youngs Moduli (GPa) = 48.19779 96.07516 51.16554
#
# Poissons Ratio (x) = 0.64222 0.11499
# Poissons Ratio (y) = 0.32218 0.29767
# Poissons Ratio (z) = 0.10832 0.55895
#
# Static dielectric constant tensor:
#      x y z
#    x 2.789570 0.000000 0.000000 
#    y 0.000000 3.648670 0.000000 
#    z 0.000000 0.000000 2.694890 
# 
# 
# High freq. dielectric constant tensor:
#      x y z
#    x 1.594880 0.000000 0.000000 
#    y 0.000000 1.639320 0.000000 
#    z 0.000000 0.000000 1.554080 
# 
# From -- ./inp_files/30509.got.cif
#   From: 2010.03.12/outbox.cif.g09.slc.cpg/sg53_16_cif.got.tgz:30509.got - 2010.04.16 14:36:59.
