data_PCOD8218847
_publ_section_title
;
Structure prediction by ZEFSAII (Michael W. Deem and Ramdas Pophale) SiO2 
 PCOD8218847
Probable space group: P M N A
;
_chemical_formula_sum "Si O2"
_cell_formula_units_Z 64
_cell_length_a 8.923025
_cell_length_b 19.588938
_cell_length_c 20.300168
_cell_angle_alpha 90.000000
_cell_angle_beta 90.000000
_cell_angle_gamma 90.000000
_cell_volume 3548.318810
_symmetry_space_group_name_H-M "P M N A"
_symmetry_group_IT_number 53
_symmetry_cell_setting 'orthorhombic'
loop_
_space_group_symop_operation_xyz
x,y,z
1/2-x,-y,1/2+z
x,-y,-z
1/2-x,y,1/2-z
-x,-y,-z
1/2+x,y,1/2-z
-x,y,z
1/2+x,-y,1/2+z
loop_
_atom_site_type_symbol
_atom_site_label
_atom_site_fract_x
_atom_site_fract_y
_atom_site_fract_z
Si Si1 0.675693 0.444171 0.817101
Si Si2 0.326641 0.811913 0.101944
Si Si3 0.674266 0.679741 0.564786
Si Si4 0.823646 0.600369 0.682358
Si Si5 0.171850 0.830797 0.968021
Si Si6 0.822229 0.076174 0.818868
Si Si7 0.674654 0.658883 0.071491
Si Si8 0.674425 0.976397 0.569606
O O1 0.750000 0.417267 0.750000
O O2 0.500000 0.435839 0.807817
O O3 0.722498 0.522091 0.831337
O O4 0.731610 0.399259 0.878579
O O5 0.500000 0.828931 0.112859
O O6 0.231108 0.848762 0.158578
O O7 0.294913 0.731228 0.106407
O O8 0.277755 0.839378 0.030785
O O9 0.500000 0.662192 0.572268
O O10 0.765815 0.645511 0.622793
O O11 0.705599 0.760837 0.570463
O O12 0.730592 0.651036 0.495009
O O13 0.750000 0.626453 0.750000
O O14 0.000000 0.609150 0.688768
O O15 0.202804 0.895217 0.919966
O O16 0.000000 0.831582 0.993345
O O17 0.750000 0.056458 0.750000
O O18 0.000000 0.075559 0.812177
O O19 0.757746 0.019683 0.870167
O O20 0.500000 0.650357 0.053370
O O21 0.500000 0.994171 0.567770
O O22 0.746415 0.000000 0.500000
#
# Coordination Sequence:
#
# PCOD8218847 Si02
#       8
#     8   8   8   8   8   8   8   8
#     4   9  19  35  54  75 100 136 178 219 262 313
#     4  10  19  32  51  76 105 136 170 209 255 306
#     4  10  20  33  53  81 110 138 173 216 261 312
#     4  10  20  36  57  77 102 136 176 219 266 318
#     4   9  17  33  55  78 102 133 174 212 253 305
#     4  11  22  36  53  74 105 138 173 215 259 310
#     4   9  19  35  53  76 108 141 175 215 260 307
#     4   9  16  31  57  79  96 131 176 214 255 304
#
# _framework density 18.036711
#
# number of rings (size 3 to 8) (size 9 to 14) (size 15 to 20)
#    0.000    2.375    1.250    1.500    0.000    3.000 
#    0.000    6.250    0.000    1.500    0.000    0.000 
#    0.000    0.000    0.000    0.000    0.000    0.000 
#
# Total GULP energy -793636.296523 kJ/mol
# GULP energy per Si atom -12400.567133 kJ/mol
# Density = 1.799566 g / cm^3
# Si number density = 18.036711 Si / 1000 Ang^3
#
#
#
# Elastic Constant Matrix: (Units=GPa)
#
#
# Indices 1 2 3 4 5 6 
#
# 1 63.0206 36.1042 47.1568 0.0000 0.0000 0.0000
# 2 36.1042 99.9592 74.8178 0.0000 0.0000 0.0000
# 3 47.1568 74.8178 132.3139 0.0000 0.0000 0.0000
# 4 0.0000 0.0000 0.0000 28.1280 0.0000 0.0000
# 5 0.0000 0.0000 0.0000 0.0000 34.7224 0.0000
# 6 0.0000 0.0000 0.0000 0.0000 0.0000 21.6807
#
#
#
# Elastic Compliance Matrix: (Units=1/GPa)
#
#
# Indices 1 2 3 4 5 6 
#
# 1 0.022387 -0.003665 -0.005906 0.000000 0.000000 0.000000
# 2 -0.003665 0.017945 -0.008841 0.000000 0.000000 0.000000
# 3 -0.005906 -0.008841 0.014662 0.000000 0.000000 0.000000
# 4 0.000000 0.000000 0.000000 0.035552 0.000000 0.000000
# 5 0.000000 0.000000 0.000000 0.000000 0.028800 0.000000
# 6 0.000000 0.000000 0.000000 0.000000 0.000000 0.046124
#
#
# Mechanical properties :
#
#
# Convention : Reuss Voigt Hill
#
# Bulk Modulus (GPa) = 55.03762 67.93905 61.48833
# Shear Modulus (GPa) = 23.99794 26.05390 25.02592
#
# Velocity S-wave (km/s) = 3.65157 3.80477 3.72896
# Velocity P-wave (km/s) = 6.95407 7.55318 7.25981
#
# Compressibility (1/GPa) = 0.01816939
#
# Stress axis : x y z
#
# Youngs Moduli (GPa) = 44.66850 55.72514 68.20373
#
# Poissons Ratio (x) = 0.20425 0.40283
# Poissons Ratio (y) = 0.16372 0.60299
# Poissons Ratio (z) = 0.26382 0.49266
#
# Static dielectric constant tensor:
#      x y z
#    x 3.268430 0.000000 0.000000 
#    y 0.000000 3.501210 0.000000 
#    z 0.000000 0.000000 3.278540 
# 
# 
# High freq. dielectric constant tensor:
#      x y z
#    x 1.692560 0.000000 0.000000 
#    y 0.000000 1.703250 0.000000 
#    z 0.000000 0.000000 1.687090 
# 
# From -- ./inp_files/26900.got.cif
#   From: 2010.03.12/outbox.cif.g09.slc.cpg/sg53_14_cif.got.tgz:26900.got - 2010.04.16 14:36:59.
