data_PCOD8218418
_publ_section_title
;
Structure prediction by ZEFSAII (Michael W. Deem and Ramdas Pophale) SiO2 
 PCOD8218418
Probable space group: P M N A
;
_chemical_formula_sum "Si O2"
_cell_formula_units_Z 56
_cell_length_a 9.090496
_cell_length_b 20.760348
_cell_length_c 16.710962
_cell_angle_alpha 90.000000
_cell_angle_beta 90.000000
_cell_angle_gamma 90.000000
_cell_volume 3153.723839
_symmetry_space_group_name_H-M "P M N A"
_symmetry_group_IT_number 53
_symmetry_cell_setting 'orthorhombic'
loop_
_space_group_symop_operation_xyz
x,y,z
1/2-x,-y,1/2+z
x,-y,-z
1/2-x,y,1/2-z
-x,-y,-z
1/2+x,y,1/2-z
-x,y,z
1/2+x,-y,1/2+z
loop_
_atom_site_type_symbol
_atom_site_label
_atom_site_fract_x
_atom_site_fract_y
_atom_site_fract_z
Si Si1 0.334104 0.461588 0.118838
Si Si2 0.826389 0.147597 0.968154
Si Si3 0.172953 0.291582 0.002975
Si Si4 0.661908 0.960002 0.581010
Si Si5 0.825161 0.934901 0.333326
Si Si6 0.664297 0.406347 0.941850
Si Si7 0.327063 0.656304 0.672774
O O1 0.500000 0.455401 0.153480
O O2 0.282716 0.536877 0.118917
O O3 0.221999 0.418790 0.170365
O O4 0.332100 0.435861 0.029344
O O5 0.731578 0.116820 0.897355
O O6 0.000000 0.141441 0.947847
O O7 0.774070 0.220865 0.977842
O O8 0.792685 0.112095 0.053332
O O9 0.227942 0.306578 0.093203
O O10 0.000000 0.297603 0.000008
O O11 0.234922 0.342771 0.938564
O O12 0.500000 0.960101 0.622205
O O13 0.654004 0.000000 0.500000
O O14 0.778466 0.992273 0.641263
O O15 0.750000 0.916717 0.250000
O O16 0.000000 0.931387 0.326129
O O17 0.500000 0.384923 0.918661
O O18 0.250000 0.689011 0.750000
O O19 0.500000 0.660735 0.683334
#
# Coordination Sequence:
#
# PCOD8218418 Si02
#       7
#     8   8   8   8   8   8   8
#     4   8  14  26  43  63  87 115 147 188 235 279
#     4   9  18  34  53  73 101 134 164 197 240 288
#     4   9  18  31  48  70  97 130 165 198 237 289
#     4   8  15  30  51  72  97 128 158 193 237 280
#     4  11  21  33  52  77 102 127 160 201 244 289
#     4   8  14  25  43  66  90 115 147 188 232 276
#     4  10  19  30  45  66  92 125 163 203 247 292
#
# _framework density 17.756786999999999
#
# number of rings (size 3 to 8) (size 9 to 14) (size 15 to 20)
#    0.000    3.000    0.000    3.429    0.000    4.286 
#    0.000    3.571    0.000    2.571    0.000    6.000 
#    0.000    0.000    0.000    0.000    0.000    0.000 
#
# Total GULP energy -693935.110631 kJ/mol
# GULP energy per Si atom -12391.698404 kJ/mol
# Density = 1.771637 g / cm^3
# Si number density = 17.756787 Si / 1000 Ang^3
#
#
#
# Elastic Constant Matrix: (Units=GPa)
#
#
# Indices 1 2 3 4 5 6 
#
# 1 83.7684 42.5230 39.0328 0.0000 0.0000 0.0000
# 2 42.5230 122.3016 29.4465 0.0000 0.0000 0.0000
# 3 39.0328 29.4465 60.1185 0.0000 0.0000 0.0000
# 4 0.0000 0.0000 0.0000 15.2704 0.0000 0.0000
# 5 0.0000 0.0000 0.0000 0.0000 23.9043 0.0000
# 6 0.0000 0.0000 0.0000 0.0000 0.0000 24.0918
#
#
#
# Elastic Compliance Matrix: (Units=1/GPa)
#
#
# Indices 1 2 3 4 5 6 
#
# 1 0.018745 -0.004067 -0.010178 0.000000 0.000000 0.000000
# 2 -0.004067 0.010152 -0.002332 0.000000 0.000000 0.000000
# 3 -0.010178 -0.002332 0.024385 0.000000 0.000000 0.000000
# 4 0.000000 0.000000 0.000000 0.065486 0.000000 0.000000
# 5 0.000000 0.000000 0.000000 0.000000 0.041834 0.000000
# 6 0.000000 0.000000 0.000000 0.000000 0.000000 0.041508
#
#
# Mechanical properties :
#
#
# Convention : Reuss Voigt Hill
#
# Bulk Modulus (GPa) = 49.68497 54.24369 51.96433
# Shear Modulus (GPa) = 20.66351 22.99904 21.83127
#
# Velocity S-wave (km/s) = 3.41500 3.60283 3.51017
# Velocity P-wave (km/s) = 6.60236 6.92254 6.76435
#
# Compressibility (1/GPa) = 0.02012681
#
# Stress axis : x y z
#
# Youngs Moduli (GPa) = 53.34809 98.50299 41.00945
#
# Poissons Ratio (x) = 0.40058 0.41741
# Poissons Ratio (y) = 0.21695 0.09564
# Poissons Ratio (z) = 0.54300 0.22972
#
# Static dielectric constant tensor:
#      x y z
#    x 3.246020 0.000000 0.000000 
#    y 0.000000 3.680890 0.000000 
#    z 0.000000 0.000000 3.169750 
# 
# 
# High freq. dielectric constant tensor:
#      x y z
#    x 1.681040 0.000000 0.000000 
#    y 0.000000 1.679810 0.000000 
#    z 0.000000 0.000000 1.656600 
# 
# From -- ./inp_files/26720.got.cif
#   From: 2010.03.12/outbox.cif.g09.slc.cpg/sg53_14_cif.got.tgz:26720.got - 2010.04.16 14:36:59.
