data_PCOD8218968
_publ_section_title
;
Structure prediction by ZEFSAII (Michael W. Deem and Ramdas Pophale) SiO2 
 PCOD8218968
Probable space group: P M N A
;
_chemical_formula_sum "Si O2"
_cell_formula_units_Z 64
_cell_length_a 8.903304
_cell_length_b 24.701981
_cell_length_c 14.394727
_cell_angle_alpha 90.000000
_cell_angle_beta 90.000000
_cell_angle_gamma 90.000000
_cell_volume 3165.821459
_symmetry_space_group_name_H-M "P M N A"
_symmetry_group_IT_number 53
_symmetry_cell_setting 'orthorhombic'
loop_
_space_group_symop_operation_xyz
x,y,z
1/2-x,-y,1/2+z
x,-y,-z
1/2-x,y,1/2-z
-x,-y,-z
1/2+x,y,1/2-z
-x,y,z
1/2+x,-y,1/2+z
loop_
_atom_site_type_symbol
_atom_site_label
_atom_site_fract_x
_atom_site_fract_y
_atom_site_fract_z
Si Si1 0.323272 0.378757 0.545044
Si Si2 0.829110 0.978683 0.594337
Si Si3 0.823296 0.587397 0.841321
Si Si4 0.176347 0.729450 0.149411
Si Si5 0.821987 0.830688 0.025764
Si Si6 0.167026 0.482129 0.605171
Si Si7 0.179006 0.137244 0.345562
Si Si8 0.329124 0.906746 0.159566
O O1 0.500000 0.389156 0.551607
O O2 0.272653 0.382405 0.436507
O O3 0.274368 0.321173 0.586118
O O4 0.243092 0.423250 0.609636
O O5 0.757792 0.924111 0.636624
O O6 0.000000 0.963035 0.568299
O O7 0.748485 0.000000 0.500000
O O8 0.821596 0.028065 0.667081
O O9 0.750000 0.615944 0.750000
O O10 0.768805 0.525143 0.840689
O O11 0.000000 0.589247 0.829739
O O12 0.250000 0.727385 0.250000
O O13 0.000000 0.729833 0.165193
O O14 0.229058 0.782311 0.093264
O O15 0.742965 0.823581 0.925930
O O16 0.000000 0.833279 0.013021
O O17 0.759158 0.886510 0.068855
O O18 0.155747 0.500000 0.500000
O O19 0.000000 0.479585 0.649473
O O20 0.250000 0.158209 0.250000
O O21 0.000000 0.140798 0.340300
O O22 0.250000 0.881572 0.250000
O O23 0.500000 0.886004 0.155569
#
# Coordination Sequence:
#
# PCOD8218968 Si02
#       8
#     8   8   8   8   8   8   8   8
#     4   9  19  37  57  79 111 151 189 232 286 337
#     4   9  17  33  55  81 113 150 186 226 275 331
#     4  10  19  32  53  80 113 152 191 229 275 330
#     4  10  23  42  63  85 111 143 184 235 288 341
#     4  11  23  40  60  84 113 146 188 235 285 338
#     4   9  17  30  50  78 112 148 187 229 271 322
#     4  11  22  39  62  86 116 152 190 232 281 336
#     4  11  21  35  56  82 114 148 185 228 278 334
#
# _framework density 20.215923
#
# number of rings (size 3 to 8) (size 9 to 14) (size 15 to 20)
#    0.000    2.000    1.250    2.625    0.000    5.000 
#    0.000    4.375    0.000    1.500    0.000    0.000 
#    0.000    0.000    0.000    0.000    0.000    0.000 
#
# Total GULP energy -793489.997848 kJ/mol
# GULP energy per Si atom -12398.281216 kJ/mol
# Density = 2.016991 g / cm^3
# Si number density = 20.215923 Si / 1000 Ang^3
#
#
#
# Elastic Constant Matrix: (Units=GPa)
#
#
# Indices 1 2 3 4 5 6 
#
# 1 84.1085 33.4840 52.4079 0.0000 0.0000 0.0000
# 2 33.4840 88.1412 41.7011 0.0000 0.0000 0.0000
# 3 52.4079 41.7011 149.8711 0.0000 0.0000 0.0000
# 4 0.0000 0.0000 0.0000 26.0667 0.0000 0.0000
# 5 0.0000 0.0000 0.0000 0.0000 35.8023 0.0000
# 6 0.0000 0.0000 0.0000 0.0000 0.0000 21.9193
#
#
#
# Elastic Compliance Matrix: (Units=1/GPa)
#
#
# Indices 1 2 3 4 5 6 
#
# 1 0.016363 -0.004041 -0.004597 0.000000 0.000000 0.000000
# 2 -0.004041 0.014063 -0.002500 0.000000 0.000000 0.000000
# 3 -0.004597 -0.002500 0.008976 0.000000 0.000000 0.000000
# 4 0.000000 0.000000 0.000000 0.038363 0.000000 0.000000
# 5 0.000000 0.000000 0.000000 0.000000 0.027931 0.000000
# 6 0.000000 0.000000 0.000000 0.000000 0.000000 0.045622
#
#
# Mechanical properties :
#
#
# Convention : Reuss Voigt Hill
#
# Bulk Modulus (GPa) = 58.39417 64.14519 61.26968
# Shear Modulus (GPa) = 27.88572 29.72618 28.80595
#
# Velocity S-wave (km/s) = 3.71805 3.83878 3.77890
# Velocity P-wave (km/s) = 6.88330 7.17267 7.02948
#
# Compressibility (1/GPa) = 0.01712500
#
# Stress axis : x y z
#
# Youngs Moduli (GPa) = 61.11418 71.10680 111.41196
#
# Poissons Ratio (x) = 0.28734 0.51221
# Poissons Ratio (y) = 0.24696 0.27853
# Poissons Ratio (z) = 0.28097 0.17777
#
# Static dielectric constant tensor:
#      x y z
#    x 3.566870 0.000000 0.000000 
#    y 0.000000 3.570190 0.000000 
#    z 0.000000 0.000000 3.793460 
# 
# 
# High freq. dielectric constant tensor:
#      x y z
#    x 1.780620 0.000000 0.000000 
#    y 0.000000 1.766180 0.000000 
#    z 0.000000 0.000000 1.799450 
# 
# From -- ./inp_files/21008.got.cif
#   From: 2010.03.12/outbox.cif.g09.slc.cpg/sg53_11_cif.got.tgz:21008.got - 2010.04.16 14:36:59.
