data_PCOD8218183
_publ_section_title
;
Structure prediction by ZEFSAII (Michael W. Deem and Ramdas Pophale) SiO2 
 PCOD8218183
Probable space group: P M N A
;
_chemical_formula_sum "Si O2"
_cell_formula_units_Z 64
_cell_length_a 17.827407
_cell_length_b 9.345644
_cell_length_c 20.478696
_cell_angle_alpha 90.000000
_cell_angle_beta 90.000000
_cell_angle_gamma 90.000000
_cell_volume 3411.926855
_symmetry_space_group_name_H-M "P M N A"
_symmetry_group_IT_number 53
_symmetry_cell_setting 'orthorhombic'
loop_
_space_group_symop_operation_xyz
x,y,z
1/2-x,-y,1/2+z
x,-y,-z
1/2-x,y,1/2-z
-x,-y,-z
1/2+x,y,1/2-z
-x,y,z
1/2+x,-y,1/2+z
loop_
_atom_site_type_symbol
_atom_site_label
_atom_site_fract_x
_atom_site_fract_y
_atom_site_fract_z
Si Si1 0.806395 0.923640 0.932578
Si Si2 0.331582 0.832447 0.247485
Si Si3 0.851150 0.661527 0.486511
Si Si4 0.821656 0.662275 0.015304
Si Si5 0.583287 0.165290 0.876726
Si Si6 0.795168 0.133456 0.305548
Si Si7 0.912296 0.163403 0.396481
Si Si8 0.589718 0.163097 0.617283
O O1 0.748789 0.917984 0.871466
O O2 0.879089 0.011430 0.908617
O O3 0.831807 0.762398 0.951092
O O4 0.774102 0.000000 0.000000
O O5 0.250000 0.757025 0.250000
O O6 0.368753 0.772726 0.182344
O O7 0.382857 0.801629 0.309877
O O8 0.321943 0.001955 0.239364
O O9 0.874837 0.500000 0.500000
O O10 0.765351 0.673123 0.462304
O O11 0.908285 0.720777 0.433577
O O12 0.863727 0.757673 0.549592
O O13 0.876691 0.711314 0.072584
O O14 0.843757 0.500000 0.000000
O O15 0.500000 0.161359 0.849980
O O16 0.603000 0.006643 0.903218
O O17 0.750000 0.226916 0.250000
O O18 0.871601 0.213080 0.328777
O O19 0.000000 0.204600 0.397630
O O20 0.500000 0.161422 0.614011
#
# Coordination Sequence:
#
# PCOD8218183 Si02
#       8
#     8   8   8   8   8   8   8   8
#     4  10  20  35  62  89 115 150 193 245 287 344
#     4  10  18  32  58  85 114 150 187 233 290 351
#     4  11  22  36  57  81 112 151 198 239 283 340
#     4  10  23  39  60  84 117 158 200 239 293 349
#     4  10  21  33  52  81 114 148 186 232 291 350
#     4  10  18  33  56  85 116 152 187 231 291 341
#     4  10  21  34  55  85 114 146 187 235 289 345
#     4  11  22  37  61  93 121 149 195 252 300 348
#
# _framework density 18.757729000000001
#
# number of rings (size 3 to 8) (size 9 to 14) (size 15 to 20)
#    0.000    1.750    3.750    1.875    5.250    5.000 
#    0.000    0.000    2.750    0.000    0.000    0.000 
#    0.000    0.000    0.000    0.000    0.000    0.000 
#
# Total GULP energy -792890.496702 kJ/mol
# GULP energy per Si atom -12388.914011 kJ/mol
# Density = 1.871504 g / cm^3
# Si number density = 18.757729 Si / 1000 Ang^3
#
#
#
# Elastic Constant Matrix: (Units=GPa)
#
#
# Indices 1 2 3 4 5 6 
#
# 1 108.9556 34.5698 42.1831 0.0000 0.0000 0.0000
# 2 34.5698 93.1023 37.6012 0.0000 0.0000 0.0000
# 3 42.1831 37.6012 105.0281 0.0000 0.0000 0.0000
# 4 0.0000 0.0000 0.0000 2.0426 0.0000 0.0000
# 5 0.0000 0.0000 0.0000 0.0000 29.4435 0.0000
# 6 0.0000 0.0000 0.0000 0.0000 0.0000 19.2027
#
#
#
# Elastic Compliance Matrix: (Units=1/GPa)
#
#
# Indices 1 2 3 4 5 6 
#
# 1 0.011461 -0.002802 -0.003600 0.000000 0.000000 0.000000
# 2 -0.002802 0.013241 -0.003615 0.000000 0.000000 0.000000
# 3 -0.003600 -0.003615 0.012261 0.000000 0.000000 0.000000
# 4 0.000000 0.000000 0.000000 0.489577 0.000000 0.000000
# 5 0.000000 0.000000 0.000000 0.000000 0.033963 0.000000
# 6 0.000000 0.000000 0.000000 0.000000 0.000000 0.052076
#
#
# Mechanical properties :
#
#
# Convention : Reuss Voigt Hill
#
# Bulk Modulus (GPa) = 59.06800 59.53271 59.30035
# Shear Modulus (GPa) = 7.83383 22.98655 15.41019
#
# Velocity S-wave (km/s) = 2.04582 3.50443 2.86936
# Velocity P-wave (km/s) = 6.09416 6.94128 6.53147
#
# Compressibility (1/GPa) = 0.01692964
#
# Stress axis : x y z
#
# Youngs Moduli (GPa) = 87.25455 75.52174 81.55615
#
# Poissons Ratio (x) = 0.21158 0.29361
# Poissons Ratio (y) = 0.24445 0.29485
# Poissons Ratio (z) = 0.31412 0.27303
#
# Static dielectric constant tensor:
#      x y z
#    x 3.639100 0.000000 0.000000 
#    y 0.000000 3.214030 0.000000 
#    z 0.000000 0.000000 3.882350 
# 
# 
# High freq. dielectric constant tensor:
#      x y z
#    x 1.735530 0.000000 0.000000 
#    y 0.000000 1.688150 0.000000 
#    z 0.000000 0.000000 1.737370 
# 
# From -- ./inp_files/32823.got.cif
#   From: 2010.03.12/outbox.cif.g09.slc.cpg/sg53_17_cif.got.tgz:32823.got - 2010.04.16 14:36:59.
