data_PCOD8218789
_publ_section_title
;
Structure prediction by ZEFSAII (Michael W. Deem and Ramdas Pophale) SiO2 
 PCOD8218789
Probable space group: P M N A
;
_chemical_formula_sum "Si O2"
_cell_formula_units_Z 64
_cell_length_a 8.784926
_cell_length_b 19.134398
_cell_length_c 21.274873
_cell_angle_alpha 90.000000
_cell_angle_beta 90.000000
_cell_angle_gamma 90.000000
_cell_volume 3576.184257
_symmetry_space_group_name_H-M "P M N A"
_symmetry_group_IT_number 53
_symmetry_cell_setting 'orthorhombic'
loop_
_space_group_symop_operation_xyz
x,y,z
1/2-x,-y,1/2+z
x,-y,-z
1/2-x,y,1/2-z
-x,-y,-z
1/2+x,y,1/2-z
-x,y,z
1/2+x,-y,1/2+z
loop_
_atom_site_type_symbol
_atom_site_label
_atom_site_fract_x
_atom_site_fract_y
_atom_site_fract_z
Si Si1 0.669413 0.663347 0.033414
Si Si2 0.676878 0.297471 0.311193
Si Si3 0.179737 0.945016 0.445562
Si Si4 0.680047 0.191089 0.502215
Si Si5 0.679333 0.833718 0.866940
Si Si6 0.667654 0.600138 0.896758
Si Si7 0.321598 0.017412 0.183727
Si Si8 0.170230 0.469082 0.930187
O O1 0.500000 0.675018 0.061334
O O2 0.752019 0.737545 0.029538
O O3 0.654814 0.625085 0.967473
O O4 0.764992 0.609609 0.076347
O O5 0.750000 0.333449 0.250000
O O6 0.500000 0.279933 0.304752
O O7 0.773538 0.227264 0.320240
O O8 0.703440 0.351000 0.367259
O O9 0.267318 0.872574 0.454188
O O10 0.227909 0.970517 0.375945
O O11 0.000000 0.932155 0.450680
O O12 0.229256 0.000000 0.500000
O O13 0.500000 0.197805 0.502513
O O14 0.734633 0.176565 0.432018
O O15 0.500000 0.833105 0.881226
O O16 0.731551 0.904506 0.833122
O O17 0.500000 0.607271 0.864995
O O18 0.722099 0.520223 0.889744
O O19 0.250000 0.992322 0.250000
O O20 0.500000 0.013641 0.193202
O O21 0.000000 0.468483 0.902246
O O22 0.166855 0.500000 0.000000
#
# Coordination Sequence:
#
# PCOD8218789 Si02
#       8
#     8   8   8   8   8   8   8   8
#     4  10  19  32  51  73 103 139 174 212 260 322
#     4  12  24  36  50  72 103 142 186 230 272 319
#     4  10  20  39  59  77 107 147 186 224 275 337
#     4  12  23  33  52  82 111 142 180 229 279 325
#     4  11  21  37  55  75 105 146 186 223 270 329
#     4  10  19  32  50  71  99 137 178 216 262 315
#     4  10  22  38  59  81 106 142 182 229 277 329
#     4   9  17  29  47  72 102 131 166 211 255 302
#
# _framework density 17.896170999999999
#
# number of rings (size 3 to 8) (size 9 to 14) (size 15 to 20)
#    0.000    1.500    2.500    4.125    0.000    5.250 
#    0.000    0.000    0.000    0.000    0.000    0.875 
#    0.000    2.000    0.000    0.000    0.000    0.000 
#
# Total GULP energy -793501.015418 kJ/mol
# GULP energy per Si atom -12398.453366 kJ/mol
# Density = 1.785544 g / cm^3
# Si number density = 17.896171 Si / 1000 Ang^3
#
#
#
# Elastic Constant Matrix: (Units=GPa)
#
#
# Indices 1 2 3 4 5 6 
#
# 1 108.7723 58.8033 24.3331 0.0000 0.0000 0.0000
# 2 58.8033 114.4971 27.9718 0.0000 0.0000 0.0000
# 3 24.3331 27.9718 43.6382 0.0000 0.0000 0.0000
# 4 0.0000 0.0000 0.0000 -25.3461 0.0000 0.0000
# 5 0.0000 0.0000 0.0000 0.0000 25.8998 0.0000
# 6 0.0000 0.0000 0.0000 0.0000 0.0000 -14.5579
#
#
#
# Elastic Compliance Matrix: (Units=1/GPa)
#
#
# Indices 1 2 3 4 5 6 
#
# 1 0.013180 -0.005897 -0.003569 0.000000 0.000000 0.000000
# 2 -0.005897 0.012994 -0.005041 0.000000 0.000000 0.000000
# 3 -0.003569 -0.005041 0.028137 0.000000 0.000000 0.000000
# 4 0.000000 0.000000 0.000000 -0.039454 0.000000 0.000000
# 5 0.000000 0.000000 0.000000 0.000000 0.038610 0.000000
# 6 0.000000 0.000000 0.000000 0.000000 0.000000 -0.068691
#
#
# Mechanical properties :
#
#
# Convention : Reuss Voigt Hill
#
# Bulk Modulus (GPa) = 39.53076 54.34710 46.93893
# Shear Modulus (GPa) = 224.99579 7.58579 116.29079
#
# Velocity S-wave (km/s) = 11.22479 2.06106 8.06981
# Velocity P-wave (km/s) = 13.78881 6.00815 10.63553
#
# Compressibility (1/GPa) = 0.02529676
#
# Stress axis : x y z
#
# Youngs Moduli (GPa) = 75.87288 76.95943 35.54017
#
# Poissons Ratio (x) = 0.45382 0.12686
# Poissons Ratio (y) = 0.44742 0.17915
# Poissons Ratio (z) = 0.27082 0.38794
#
# Static dielectric constant tensor:
#      x y z
#    x 3.515500 0.000000 0.000000 
#    y 0.000000 3.431280 0.000000 
#    z 0.000000 0.000000 3.090500 
# 
# 
# High freq. dielectric constant tensor:
#      x y z
#    x 1.706290 0.000000 0.000000 
#    y 0.000000 1.693780 0.000000 
#    z 0.000000 0.000000 1.652520 
# 
# From -- ./inp_files/34459.got.cif
#   From: 2010.03.12/outbox.cif.g09.slc.cpg/sg53_18_cif.got.tgz:34459.got - 2010.04.16 14:36:59.
