data_PCOD8218947
_publ_section_title
;
Structure prediction by ZEFSAII (Michael W. Deem and Ramdas Pophale) SiO2 
 PCOD8218947
Probable space group: P M N A
;
_chemical_formula_sum "Si O2"
_cell_formula_units_Z 64
_cell_length_a 9.117032
_cell_length_b 18.974985
_cell_length_c 21.378544
_cell_angle_alpha 90.000000
_cell_angle_beta 90.000000
_cell_angle_gamma 90.000000
_cell_volume 3698.392880
_symmetry_space_group_name_H-M "P M N A"
_symmetry_group_IT_number 53
_symmetry_cell_setting 'orthorhombic'
loop_
_space_group_symop_operation_xyz
x,y,z
1/2-x,-y,1/2+z
x,-y,-z
1/2-x,y,1/2-z
-x,-y,-z
1/2+x,y,1/2-z
-x,y,z
1/2+x,-y,1/2+z
loop_
_atom_site_type_symbol
_atom_site_label
_atom_site_fract_x
_atom_site_fract_y
_atom_site_fract_z
Si Si1 0.171058 0.826622 0.015406
Si Si2 0.673186 0.962570 0.813686
Si Si3 0.666764 0.698884 0.690572
Si Si4 0.826943 0.043695 0.560643
Si Si5 0.160371 0.530282 0.069422
Si Si6 0.672934 0.403659 0.109004
Si Si7 0.328524 0.332811 0.506541
Si Si8 0.165518 0.841448 0.873947
O O1 0.258936 0.877972 0.061578
O O2 0.219275 0.745613 0.027090
O O3 0.000000 0.835277 0.028887
O O4 0.211699 0.851793 0.945591
O O5 0.750000 0.990488 0.750000
O O6 0.500000 0.963485 0.803294
O O7 0.725191 0.883026 0.828191
O O8 0.721721 0.008564 0.873829
O O9 0.750000 0.730835 0.750000
O O10 0.500000 0.679180 0.706938
O O11 0.752645 0.628818 0.670254
O O12 0.674730 0.757984 0.637128
O O13 0.000000 0.050591 0.556822
O O14 0.768699 0.000000 0.500000
O O15 0.282001 0.486290 0.107201
O O16 0.198063 0.613820 0.065081
O O17 0.000000 0.519984 0.100895
O O18 0.154222 0.500000 0.000000
O O19 0.500000 0.397648 0.113172
O O20 0.729578 0.359259 0.050198
O O21 0.500000 0.334004 0.485482
O O22 0.000000 0.868589 0.861405
#
# Coordination Sequence:
#
# PCOD8218947 Si02
#       8
#     8   8   8   8   8   8   8   8
#     4  10  19  32  53  79 104 135 173 213 256 311
#     4  11  23  38  56  76 104 137 176 219 262 314
#     4  11  22  36  49  67  98 134 176 216 254 302
#     4  10  21  37  53  75 106 138 171 214 266 317
#     4   8  15  28  47  66  92 128 159 194 242 291
#     4  11  20  29  45  69  97 130 168 207 249 295
#     4   9  17  32  49  70  99 130 164 202 250 301
#     4  10  20  34  53  75 102 135 174 215 255 304
#
# _framework density 17.304814
#
# number of rings (size 3 to 8) (size 9 to 14) (size 15 to 20)
#    0.000    2.000    2.500    3.000    0.000    6.000 
#    0.000    0.000    0.000    0.000    0.000    0.875 
#    0.000    2.000    0.000    0.000    0.000    0.000 
#
# Total GULP energy -793431.431071 kJ/mol
# GULP energy per Si atom -12397.366110 kJ/mol
# Density = 1.726543 g / cm^3
# Si number density = 17.304814 Si / 1000 Ang^3
#
#
#
# Elastic Constant Matrix: (Units=GPa)
#
#
# Indices 1 2 3 4 5 6 
#
# 1 93.1470 42.7538 38.8356 0.0000 0.0000 0.0000
# 2 42.7538 109.3770 40.1989 0.0000 0.0000 0.0000
# 3 38.8356 40.1989 72.5090 0.0000 0.0000 0.0000
# 4 0.0000 0.0000 0.0000 22.0968 0.0000 0.0000
# 5 0.0000 0.0000 0.0000 0.0000 23.3072 0.0000
# 6 0.0000 0.0000 0.0000 0.0000 0.0000 26.7220
#
#
#
# Elastic Compliance Matrix: (Units=1/GPa)
#
#
# Indices 1 2 3 4 5 6 
#
# 1 0.014887 -0.003628 -0.005962 0.000000 0.000000 0.000000
# 2 -0.003628 0.012366 -0.004913 0.000000 0.000000 0.000000
# 3 -0.005962 -0.004913 0.019708 0.000000 0.000000 0.000000
# 4 0.000000 0.000000 0.000000 0.045255 0.000000 0.000000
# 5 0.000000 0.000000 0.000000 0.000000 0.042905 0.000000
# 6 0.000000 0.000000 0.000000 0.000000 0.000000 0.037422
#
#
# Mechanical properties :
#
#
# Convention : Reuss Voigt Hill
#
# Bulk Modulus (GPa) = 55.69169 57.62330 56.65749
# Shear Modulus (GPa) = 24.09235 24.64149 24.36692
#
# Velocity S-wave (km/s) = 3.73531 3.77764 3.75654
# Velocity P-wave (km/s) = 7.13134 7.23870 7.18522
#
# Compressibility (1/GPa) = 0.01795600
#
# Stress axis : x y z
#
# Youngs Moduli (GPa) = 67.17479 80.86475 50.74006
#
# Poissons Ratio (x) = 0.29336 0.30251
# Poissons Ratio (y) = 0.24369 0.24928
# Poissons Ratio (z) = 0.40049 0.39728
#
# Static dielectric constant tensor:
#      x y z
#    x 3.162070 0.000000 0.000000 
#    y 0.000000 3.375770 0.000000 
#    z 0.000000 0.000000 3.019360 
# 
# 
# High freq. dielectric constant tensor:
#      x y z
#    x 1.669220 0.000000 0.000000 
#    y 0.000000 1.666750 0.000000 
#    z 0.000000 0.000000 1.630680 
# 
# From -- ./inp_files/31141.got.cif
#   From: 2010.03.12/outbox.cif.g09.slc.cpg/sg53_16_cif.got.tgz:31141.got - 2010.04.16 14:36:59.
