data_PCOD8218400
_publ_section_title
;
Structure prediction by ZEFSAII (Michael W. Deem and Ramdas Pophale) SiO2 
 PCOD8218400
Probable space group: P M N A
;
_chemical_formula_sum "Si O2"
_cell_formula_units_Z 64
_cell_length_a 9.264460
_cell_length_b 20.728703
_cell_length_c 19.878758
_cell_angle_alpha 90.000000
_cell_angle_beta 90.000000
_cell_angle_gamma 90.000000
_cell_volume 3817.521453
_symmetry_space_group_name_H-M "P M N A"
_symmetry_group_IT_number 53
_symmetry_cell_setting 'orthorhombic'
loop_
_space_group_symop_operation_xyz
x,y,z
1/2-x,-y,1/2+z
x,-y,-z
1/2-x,y,1/2-z
-x,-y,-z
1/2+x,y,1/2-z
-x,y,z
1/2+x,-y,1/2+z
loop_
_atom_site_type_symbol
_atom_site_label
_atom_site_fract_x
_atom_site_fract_y
_atom_site_fract_z
Si Si1 0.328479 0.484838 0.815106
Si Si2 0.671490 0.379551 0.315699
Si Si3 0.667813 0.562412 0.039107
Si Si4 0.167246 0.050053 0.054985
Si Si5 0.343846 0.193982 0.191783
Si Si6 0.159099 0.043876 0.310352
Si Si7 0.662006 0.193211 0.437131
Si Si8 0.337313 0.331736 0.462226
O O1 0.250000 0.452088 0.750000
O O2 0.500000 0.494617 0.802322
O O3 0.249075 0.552227 0.828304
O O4 0.302367 0.441230 0.881071
O O5 0.750000 0.347848 0.250000
O O6 0.500000 0.388182 0.302709
O O7 0.701782 0.337410 0.382629
O O8 0.500000 0.567287 0.022936
O O9 0.731801 0.500000 0.000000
O O10 0.737428 0.627237 0.010834
O O11 0.257091 0.034035 0.120697
O O12 0.193513 0.123741 0.028155
O O13 0.000000 0.038391 0.071780
O O14 0.223689 0.000000 0.000000
O O15 0.250000 0.227308 0.250000
O O16 0.500000 0.227596 0.192400
O O17 0.359912 0.118582 0.206811
O O18 0.274579 0.205756 0.120675
O O19 0.250000 0.010712 0.250000
O O20 0.000000 0.011729 0.315237
O O21 0.500000 0.191285 0.406406
O O22 0.677653 0.256104 0.484932
O O23 0.500000 0.356379 0.473113
#
# Coordination Sequence:
#
# PCOD8218400 Si02
#       8
#     8   8   8   8   8   8   8   8
#     4  10  19  32  50  71  94 121 154 193 236 275
#     4  10  19  30  44  64  91 125 161 192 226 266
#     4  10  20  34  51  71  96 125 156 194 238 279
#     4   9  17  30  49  70  93 125 160 196 240 287
#     4   9  16  26  41  61  85 119 158 191 226 267
#     4   9  16  26  42  65  93 122 153 191 231 273
#     4   9  18  32  45  63  93 122 156 197 235 282
#     4  10  21  33  47  68  94 126 161 198 238 279
#
# _framework density 16.764806
#
# number of rings (size 3 to 8) (size 9 to 14) (size 15 to 20)
#    0.000    2.500    1.250    2.250    0.000    6.000 
#    0.000    1.250    0.000    0.000    0.000    0.875 
#    0.000    2.000    0.000    0.000    0.000    0.000 
#
# Total GULP energy -793035.538513 kJ/mol
# GULP energy per Si atom -12391.180289 kJ/mol
# Density = 1.672665 g / cm^3
# Si number density = 16.764806 Si / 1000 Ang^3
#
#
#
# Elastic Constant Matrix: (Units=GPa)
#
#
# Indices 1 2 3 4 5 6 
#
# 1 102.4376 41.9831 50.7300 0.0000 0.0000 0.0000
# 2 41.9831 81.3488 51.3777 0.0000 0.0000 0.0000
# 3 50.7300 51.3777 94.3116 0.0000 0.0000 0.0000
# 4 0.0000 0.0000 0.0000 12.3405 0.0000 0.0000
# 5 0.0000 0.0000 0.0000 0.0000 24.7856 0.0000
# 6 0.0000 0.0000 0.0000 0.0000 0.0000 -2.3366
#
#
#
# Elastic Compliance Matrix: (Units=1/GPa)
#
#
# Indices 1 2 3 4 5 6 
#
# 1 0.014027 -0.003771 -0.005490 0.000000 0.000000 0.000000
# 2 -0.003771 0.019755 -0.008733 0.000000 0.000000 0.000000
# 3 -0.005490 -0.008733 0.018314 0.000000 0.000000 0.000000
# 4 0.000000 0.000000 0.000000 0.081034 0.000000 0.000000
# 5 0.000000 0.000000 0.000000 0.000000 0.040346 0.000000
# 6 0.000000 0.000000 0.000000 0.000000 0.000000 -0.427970
#
#
# Mechanical properties :
#
#
# Convention : Reuss Voigt Hill
#
# Bulk Modulus (GPa) = 62.09030 62.91994 62.50512
# Shear Modulus (GPa) = -23.45912 15.89171 -3.78371
#
# Velocity S-wave (km/s) = -3.74479 3.08217 -1.50394
# Velocity P-wave (km/s) = 4.29168 7.09076 5.86078
#
# Compressibility (1/GPa) = 0.01610558
#
# Stress axis : x y z
#
# Youngs Moduli (GPa) = 71.29251 50.62087 54.60337
#
# Poissons Ratio (x) = 0.19091 0.29979
# Poissons Ratio (y) = 0.26887 0.47685
# Poissons Ratio (z) = 0.39142 0.44207
#
# Static dielectric constant tensor:
#      x y z
#    x 3.356980 0.000000 0.000000 
#    y 0.000000 2.975270 0.000000 
#    z 0.000000 0.000000 3.070370 
# 
# 
# High freq. dielectric constant tensor:
#      x y z
#    x 1.661830 0.000000 0.000000 
#    y 0.000000 1.613170 0.000000 
#    z 0.000000 0.000000 1.623890 
# 
# From -- ./inp_files/31169.got.cif
#   From: 2010.03.12/outbox.cif.g09.slc.cpg/sg53_16_cif.got.tgz:31169.got - 2010.04.16 14:36:59.
