data_PCOD8218965
_publ_section_title
;
Structure prediction by ZEFSAII (Michael W. Deem and Ramdas Pophale) SiO2 
 PCOD8218965
Probable space group: P M N A
;
_chemical_formula_sum "Si O2"
_cell_formula_units_Z 48
_cell_length_a 8.948758
_cell_length_b 11.549486
_cell_length_c 23.264215
_cell_angle_alpha 90.000000
_cell_angle_beta 90.000000
_cell_angle_gamma 90.000000
_cell_volume 2404.439330
_symmetry_space_group_name_H-M "P M N A"
_symmetry_group_IT_number 53
_symmetry_cell_setting 'orthorhombic'
loop_
_space_group_symop_operation_xyz
x,y,z
1/2-x,-y,1/2+z
x,-y,-z
1/2-x,y,1/2-z
-x,-y,-z
1/2+x,y,1/2-z
-x,y,z
1/2+x,-y,1/2+z
loop_
_atom_site_type_symbol
_atom_site_label
_atom_site_fract_x
_atom_site_fract_y
_atom_site_fract_z
Si Si1 0.175461 0.112203 0.687541
Si Si2 0.675679 0.250168 0.476038
Si Si3 0.825555 0.718124 0.411474
Si Si4 0.329987 0.543617 0.916858
Si Si5 0.829258 0.312667 0.304731
Si Si6 0.676782 0.108164 0.365216
O O1 0.250000 0.120903 0.750000
O O2 0.209108 0.228784 0.651325
O O3 0.000000 0.090981 0.696352
O O4 0.242567 0.011685 0.647825
O O5 0.500000 0.257941 0.480162
O O6 0.741636 0.211728 0.537643
O O7 0.735961 0.378205 0.460601
O O8 0.723477 0.154896 0.428496
O O9 0.766850 0.586298 0.413449
O O10 0.000000 0.726049 0.424491
O O11 0.500000 0.545859 0.939088
O O12 0.317426 0.591746 0.853171
O O13 0.750000 0.370571 0.250000
O O14 0.734032 0.198631 0.318338
O O15 0.000000 0.277068 0.292677
O O16 0.500000 0.092738 0.359554
#
# Coordination Sequence:
#
# PCOD8218965 Si02
#       6
#     8   8   8   8   8   8
#     4  11  24  41  60  82 110 147 189 228 271 324
#     4  10  21  36  58  88 115 141 179 229 279 323
#     4  10  22  39  58  81 112 150 186 221 268 329
#     4   9  19  36  56  79 111 150 186 222 271 330
#     4  10  19  32  53  80 109 142 183 230 278 327
#     4  10  21  38  58  81 111 144 181 227 279 330
#
# _framework density 19.963073000000001
#
# number of rings (size 3 to 8) (size 9 to 14) (size 15 to 20)
#    0.000    2.000    0.000    3.000    0.000    8.000 
#    0.000    3.333    0.000    0.000    0.000    0.000 
#    0.000    0.000    0.000    0.000    0.000    0.000 
#
# Total GULP energy -595225.524940 kJ/mol
# GULP energy per Si atom -12400.531770 kJ/mol
# Density = 1.991764 g / cm^3
# Si number density = 19.963073 Si / 1000 Ang^3
#
#
#
# Elastic Constant Matrix: (Units=GPa)
#
#
# Indices 1 2 3 4 5 6 
#
# 1 88.7739 42.7990 57.5191 0.0000 0.0000 0.0000
# 2 42.7990 90.9303 54.6726 0.0000 0.0000 0.0000
# 3 57.5191 54.6726 123.2824 0.0000 0.0000 0.0000
# 4 0.0000 0.0000 0.0000 11.7511 0.0000 0.0000
# 5 0.0000 0.0000 0.0000 0.0000 38.6048 0.0000
# 6 0.0000 0.0000 0.0000 0.0000 0.0000 10.9485
#
#
#
# Elastic Compliance Matrix: (Units=1/GPa)
#
#
# Indices 1 2 3 4 5 6 
#
# 1 0.017405 -0.004513 -0.006119 0.000000 0.000000 0.000000
# 2 -0.004513 0.016166 -0.005064 0.000000 0.000000 0.000000
# 3 -0.006119 -0.005064 0.013212 0.000000 0.000000 0.000000
# 4 0.000000 0.000000 0.000000 0.085099 0.000000 0.000000
# 5 0.000000 0.000000 0.000000 0.000000 0.025903 0.000000
# 6 0.000000 0.000000 0.000000 0.000000 0.000000 0.091337
#
#
# Mechanical properties :
#
#
# Convention : Reuss Voigt Hill
#
# Bulk Modulus (GPa) = 64.97048 68.10756 66.53902
# Shear Modulus (GPa) = 17.50426 22.12728 19.81577
#
# Velocity S-wave (km/s) = 2.96435 3.33289 3.15401
# Velocity P-wave (km/s) = 6.65826 7.00012 6.83133
#
# Compressibility (1/GPa) = 0.01539161
#
# Stress axis : x y z
#
# Youngs Moduli (GPa) = 57.45427 61.85748 75.68831
#
# Poissons Ratio (x) = 0.27916 0.46315
# Poissons Ratio (y) = 0.25929 0.38326
# Poissons Ratio (z) = 0.35157 0.31323
#
# Static dielectric constant tensor:
#      x y z
#    x 3.653580 0.000000 0.000000 
#    y 0.000000 3.632670 0.000000 
#    z 0.000000 0.000000 3.790500 
# 
# 
# High freq. dielectric constant tensor:
#      x y z
#    x 1.781870 0.000000 0.000000 
#    y 0.000000 1.767690 0.000000 
#    z 0.000000 0.000000 1.793420 
# 
# From -- ./inp_files/33930.got.cif
#   From: 2010.03.12/outbox.cif.g09.slc.cpg/sg53_17_cif.got.tgz:33930.got - 2010.04.16 14:36:59.
