data_PCOD8218817
_publ_section_title
;
Structure prediction by ZEFSAII (Michael W. Deem and Ramdas Pophale) SiO2 
 PCOD8218817
Probable space group: P M N A
;
_chemical_formula_sum "Si O2"
_cell_formula_units_Z 64
_cell_length_a 8.855896
_cell_length_b 18.987015
_cell_length_c 21.304769
_cell_angle_alpha 90.000000
_cell_angle_beta 90.000000
_cell_angle_gamma 90.000000
_cell_volume 3582.333636
_symmetry_space_group_name_H-M "P M N A"
_symmetry_group_IT_number 53
_symmetry_cell_setting 'orthorhombic'
loop_
_space_group_symop_operation_xyz
x,y,z
1/2-x,-y,1/2+z
x,-y,-z
1/2-x,y,1/2-z
-x,-y,-z
1/2+x,y,1/2-z
-x,y,z
1/2+x,-y,1/2+z
loop_
_atom_site_type_symbol
_atom_site_label
_atom_site_fract_x
_atom_site_fract_y
_atom_site_fract_z
Si Si1 0.326805 0.318370 0.484016
Si Si2 0.678556 0.462293 0.815057
Si Si3 0.822452 0.829933 0.505512
Si Si4 0.822488 0.546415 0.559603
Si Si5 0.834811 0.967236 0.568756
Si Si6 0.826318 0.329603 0.873319
Si Si7 0.677599 0.205080 0.813458
Si Si8 0.176131 0.904827 0.112318
O O1 0.500000 0.303342 0.466436
O O2 0.234627 0.246480 0.473890
O O3 0.259339 0.378148 0.439019
O O4 0.312035 0.349982 0.553960
O O5 0.750000 0.491863 0.750000
O O6 0.500000 0.455648 0.807026
O O7 0.721400 0.511379 0.874018
O O8 0.747841 0.386025 0.828497
O O9 0.793312 0.884356 0.563489
O O10 0.729936 0.859710 0.447058
O O11 0.000000 0.827561 0.487996
O O12 0.766576 0.500000 0.500000
O O13 0.000000 0.559006 0.553803
O O14 0.000000 0.975916 0.600136
O O15 0.839833 0.000000 0.500000
O O16 0.713716 0.011881 0.608554
O O17 0.736261 0.256426 0.868142
O O18 0.000000 0.320567 0.852735
O O19 0.750000 0.234293 0.750000
O O20 0.500000 0.205559 0.809050
O O21 0.738354 0.126528 0.827182
O O22 0.000000 0.894565 0.120956
#
# Coordination Sequence:
#
# PCOD8218817 Si02
#       8
#     8   8   8   8   8   8   8   8
#     4  11  22  33  53  81 111 142 178 224 273 325
#     4  11  23  39  59  81 107 143 183 229 275 328
#     4  10  19  32  51  73 103 138 173 212 258 314
#     4  10  21  38  58  79 107 142 183 224 273 332
#     4   8  16  30  47  70  97 131 169 204 249 302
#     4  11  22  36  53  77 108 142 181 224 268 323
#     4  12  24  37  52  70 100 141 183 227 267 315
#     4  11  20  31  48  72 101 134 173 216 262 311
#
# _framework density 17.865449000000002
#
# number of rings (size 3 to 8) (size 9 to 14) (size 15 to 20)
#    0.000    1.500    2.500    4.875    0.000    5.000 
#    0.000    0.000    0.000    0.000    0.000    0.875 
#    0.000    4.000    0.000    0.000    0.000    0.000 
#
# Total GULP energy -793538.597505 kJ/mol
# GULP energy per Si atom -12399.040586 kJ/mol
# Density = 1.782479 g / cm^3
# Si number density = 17.865449 Si / 1000 Ang^3
#
#
#
# Elastic Constant Matrix: (Units=GPa)
#
#
# Indices 1 2 3 4 5 6 
#
# 1 124.6063 46.3636 41.1364 0.0000 0.0000 0.0000
# 2 46.3636 104.9802 37.5636 0.0000 0.0000 0.0000
# 3 41.1364 37.5636 69.3231 0.0000 0.0000 0.0000
# 4 0.0000 0.0000 0.0000 22.4174 0.0000 0.0000
# 5 0.0000 0.0000 0.0000 0.0000 24.5105 0.0000
# 6 0.0000 0.0000 0.0000 0.0000 0.0000 30.5956
#
#
#
# Elastic Compliance Matrix: (Units=1/GPa)
#
#
# Indices 1 2 3 4 5 6 
#
# 1 0.010713 -0.003047 -0.004706 0.000000 0.000000 0.000000
# 2 -0.003047 0.012684 -0.005064 0.000000 0.000000 0.000000
# 3 -0.004706 -0.005064 0.019962 0.000000 0.000000 0.000000
# 4 0.000000 0.000000 0.000000 0.044608 0.000000 0.000000
# 5 0.000000 0.000000 0.000000 0.000000 0.040799 0.000000
# 6 0.000000 0.000000 0.000000 0.000000 0.000000 0.032684
#
#
# Mechanical properties :
#
#
# Convention : Reuss Voigt Hill
#
# Bulk Modulus (GPa) = 56.42362 61.00409 58.71385
# Shear Modulus (GPa) = 25.90781 27.09444 26.50113
#
# Velocity S-wave (km/s) = 3.81223 3.89856 3.85564
# Velocity P-wave (km/s) = 7.14343 7.38143 7.26341
#
# Compressibility (1/GPa) = 0.01772307
#
# Stress axis : x y z
#
# Youngs Moduli (GPa) = 93.34789 78.84198 50.09582
#
# Poissons Ratio (x) = 0.24026 0.23573
# Poissons Ratio (y) = 0.28447 0.25371
# Poissons Ratio (z) = 0.43926 0.39929
#
# Static dielectric constant tensor:
#      x y z
#    x 3.351290 0.000000 0.000000 
#    y 0.000000 3.420950 0.000000 
#    z 0.000000 0.000000 3.095360 
# 
# 
# High freq. dielectric constant tensor:
#      x y z
#    x 1.704930 0.000000 0.000000 
#    y 0.000000 1.690650 0.000000 
#    z 0.000000 0.000000 1.651970 
# 
# From -- ./inp_files/31128.got.cif
#   From: 2010.03.12/outbox.cif.g09.slc.cpg/sg53_16_cif.got.tgz:31128.got - 2010.04.16 14:36:59.
