data_PCOD8218330
_publ_section_title
;
Structure prediction by ZEFSAII (Michael W. Deem and Ramdas Pophale) SiO2 
 PCOD8218330
Probable space group: P M N A
;
_chemical_formula_sum "Si O2"
_cell_formula_units_Z 64
_cell_length_a 8.614560
_cell_length_b 14.150708
_cell_length_c 29.843937
_cell_angle_alpha 90.000000
_cell_angle_beta 90.000000
_cell_angle_gamma 90.000000
_cell_volume 3638.039282
_symmetry_space_group_name_H-M "P M N A"
_symmetry_group_IT_number 53
_symmetry_cell_setting 'orthorhombic'
loop_
_space_group_symop_operation_xyz
x,y,z
1/2-x,-y,1/2+z
x,-y,-z
1/2-x,y,1/2-z
-x,-y,-z
1/2+x,y,1/2-z
-x,y,z
1/2+x,-y,1/2+z
loop_
_atom_site_type_symbol
_atom_site_label
_atom_site_fract_x
_atom_site_fract_y
_atom_site_fract_z
Si Si1 0.817995 0.990463 0.449794
Si Si2 0.825430 0.691345 0.995523
Si Si3 0.184621 0.615138 0.376944
Si Si4 0.318981 0.791689 0.076659
Si Si5 0.179771 0.456600 0.439219
Si Si6 0.815040 0.518092 0.702011
Si Si7 0.181861 0.658372 0.860504
Si Si8 0.328164 0.169050 0.412170
O O1 0.744511 0.896989 0.425593
O O2 0.000000 0.975676 0.454774
O O3 0.745455 0.000000 0.500000
O O4 0.787567 0.081906 0.419335
O O5 0.708992 0.738604 0.030128
O O6 0.000000 0.687625 0.014753
O O7 0.771058 0.584698 0.982379
O O8 0.816224 0.754545 0.951268
O O9 0.245778 0.723833 0.382928
O O10 0.237552 0.560449 0.422841
O O11 0.246088 0.564399 0.331985
O O12 0.000000 0.611830 0.375096
O O13 0.500000 0.802913 0.084175
O O14 0.206489 0.392186 0.395801
O O15 0.000000 0.455830 0.452225
O O16 0.750000 0.488761 0.750000
O O17 0.738429 0.618969 0.687724
O O18 0.000000 0.526836 0.702921
O O19 0.207648 0.772238 0.866190
O O20 0.000000 0.634692 0.868968
O O21 0.500000 0.124711 0.410462
#
# Coordination Sequence:
#
# PCOD8218330 Si02
#       8
#     8   8   8   8   8   8   8   8
#     4  10  19  29  44  68  89 117 166 216 249 274
#     4  10  19  29  41  62  88 121 161 199 241 282
#     4   8  17  32  48  66  90 122 156 187 229 284
#     4  10  19  32  46  61  88 123 161 204 240 278
#     4   9  16  28  45  63  86 121 161 195 230 278
#     4  10  19  33  54  79 101 125 152 182 227 282
#     4   9  17  30  47  72  99 124 153 189 234 282
#     4   9  18  30  45  63  91 127 158 194 241 285
#
# _framework density 17.591892999999999
#
# number of rings (size 3 to 8) (size 9 to 14) (size 15 to 20)
#    0.000    2.625    1.250    3.000    0.000    3.750 
#    0.000    6.250    0.000    0.000    0.000    0.875 
#    0.000    4.000    0.000    0.000    0.000    0.000 
#
# Total GULP energy -792838.233614 kJ/mol
# GULP energy per Si atom -12388.097400 kJ/mol
# Density = 1.755185 g / cm^3
# Si number density = 17.591893 Si / 1000 Ang^3
#
#
#
# Elastic Constant Matrix: (Units=GPa)
#
#
# Indices 1 2 3 4 5 6 
#
# 1 25.3879 25.6399 11.1914 0.0000 0.0000 0.0000
# 2 25.6399 132.4208 39.6899 0.0000 0.0000 0.0000
# 3 11.1914 39.6899 63.4773 0.0000 0.0000 0.0000
# 4 0.0000 0.0000 0.0000 17.7482 0.0000 0.0000
# 5 0.0000 0.0000 0.0000 0.0000 17.1990 0.0000
# 6 0.0000 0.0000 0.0000 0.0000 0.0000 12.4852
#
#
#
# Elastic Compliance Matrix: (Units=1/GPa)
#
#
# Indices 1 2 3 4 5 6 
#
# 1 0.049542 -0.008583 -0.003368 0.000000 0.000000 0.000000
# 2 -0.008583 0.010780 -0.005227 0.000000 0.000000 0.000000
# 3 -0.003368 -0.005227 0.019616 0.000000 0.000000 0.000000
# 4 0.000000 0.000000 0.000000 0.056344 0.000000 0.000000
# 5 0.000000 0.000000 0.000000 0.000000 0.058143 0.000000
# 6 0.000000 0.000000 0.000000 0.000000 0.000000 0.080095
#
#
# Mechanical properties :
#
#
# Convention : Reuss Voigt Hill
#
# Bulk Modulus (GPa) = 21.93868 41.59205 31.76536
# Shear Modulus (GPa) = 15.42879 19.13747 17.28313
#
# Velocity S-wave (km/s) = 2.96470 3.30185 3.13780
# Velocity P-wave (km/s) = 4.92110 6.18307 5.58782
#
# Compressibility (1/GPa) = 0.04558160
#
# Stress axis : x y z
#
# Youngs Moduli (GPa) = 20.18499 92.76157 50.97923
#
# Poissons Ratio (x) = 0.79618 0.17169
# Poissons Ratio (y) = 0.17325 0.26648
# Poissons Ratio (z) = 0.06798 0.48489
#
# Static dielectric constant tensor:
#      x y z
#    x 3.139000 0.000000 0.000000 
#    y 0.000000 3.625580 0.000000 
#    z 0.000000 0.000000 3.117020 
# 
# 
# High freq. dielectric constant tensor:
#      x y z
#    x 1.669340 0.000000 0.000000 
#    y 0.000000 1.680370 0.000000 
#    z 0.000000 0.000000 1.635920 
# 
# From -- ./inp_files/38415.got.cif
#   From: 2010.03.12/outbox.cif.g09.slc.cpg/sg53_20_cif.got.tgz:38415.got - 2010.04.16 14:36:59.
