data_PCOD8218773
_publ_section_title
;
Structure prediction by ZEFSAII (Michael W. Deem and Ramdas Pophale) SiO2 
 PCOD8218773
Probable space group: P M N A
;
_chemical_formula_sum "Si O2"
_cell_formula_units_Z 64
_cell_length_a 8.789951
_cell_length_b 18.160954
_cell_length_c 22.982501
_cell_angle_alpha 90.000000
_cell_angle_beta 90.000000
_cell_angle_gamma 90.000000
_cell_volume 3668.786169
_symmetry_space_group_name_H-M "P M N A"
_symmetry_group_IT_number 53
_symmetry_cell_setting 'orthorhombic'
loop_
_space_group_symop_operation_xyz
x,y,z
1/2-x,-y,1/2+z
x,-y,-z
1/2-x,y,1/2-z
-x,-y,-z
1/2+x,y,1/2-z
-x,y,z
1/2+x,-y,1/2+z
loop_
_atom_site_type_symbol
_atom_site_label
_atom_site_fract_x
_atom_site_fract_y
_atom_site_fract_z
Si Si1 0.820249 0.593458 0.686155
Si Si2 0.176787 0.866556 0.612821
Si Si3 0.823832 0.436466 0.688091
Si Si4 0.321950 0.084813 0.501339
Si Si5 0.320478 0.723543 0.186015
Si Si6 0.322657 0.005167 0.809679
Si Si7 0.321243 0.140078 0.628566
Si Si8 0.820568 0.739281 0.813727
O O1 0.750000 0.590079 0.750000
O O2 0.781521 0.513846 0.654831
O O3 0.741097 0.663759 0.655625
O O4 0.000000 0.607766 0.688829
O O5 0.226874 0.869614 0.545887
O O6 0.212688 0.945631 0.640844
O O7 0.276015 0.805950 0.645036
O O8 0.000000 0.845842 0.617901
O O9 0.750000 0.436501 0.750000
O O10 0.782908 0.358031 0.658268
O O11 0.000000 0.438830 0.701152
O O12 0.500000 0.092529 0.487415
O O13 0.277367 0.118772 0.563171
O O14 0.271212 0.000000 0.500000
O O15 0.250000 0.733193 0.250000
O O16 0.500000 0.737398 0.190693
O O17 0.246703 0.779915 0.141062
O O18 0.250000 0.975997 0.750000
O O19 0.500000 0.017212 0.800215
O O20 0.248927 0.082475 0.826483
O O21 0.500000 0.140891 0.638251
O O22 0.750000 0.751293 0.750000
O O23 0.000000 0.735487 0.807250
#
# Coordination Sequence:
#
# PCOD8218773 Si02
#       8
#     8   8   8   8   8   8   8   8
#     4   9  15  26  44  68  99 133 170 204 243 293
#     4  11  23  37  55  77 100 130 169 212 256 301
#     4   8  15  26  43  67  97 134 168 203 243 292
#     4  10  21  39  59  76  96 128 167 213 260 303
#     4  10  19  32  49  73 106 138 171 208 252 299
#     4  11  23  36  52  74 100 131 165 202 247 299
#     4  11  22  36  54  74  99 131 168 207 254 301
#     4  11  21  33  50  74 107 140 171 207 252 302
#
# _framework density 17.444462000000001
#
# number of rings (size 3 to 8) (size 9 to 14) (size 15 to 20)
#    0.000    1.875    1.250    4.500    0.000    4.750 
#    0.000    0.000    0.000    0.000    0.000    0.875 
#    0.000    7.000    0.000    0.000    0.000    0.000 
#
# Total GULP energy -793208.656753 kJ/mol
# GULP energy per Si atom -12393.885262 kJ/mol
# Density = 1.740476 g / cm^3
# Si number density = 17.444462 Si / 1000 Ang^3
#
#
#
# Elastic Constant Matrix: (Units=GPa)
#
#
# Indices 1 2 3 4 5 6 
#
# 1 92.3856 52.2079 34.7610 0.0000 0.0000 0.0000
# 2 52.2079 132.8742 34.6592 0.0000 0.0000 0.0000
# 3 34.7610 34.6592 67.6678 0.0000 0.0000 0.0000
# 4 0.0000 0.0000 0.0000 9.4486 0.0000 0.0000
# 5 0.0000 0.0000 0.0000 0.0000 24.9141 0.0000
# 6 0.0000 0.0000 0.0000 0.0000 0.0000 21.8430
#
#
#
# Elastic Compliance Matrix: (Units=1/GPa)
#
#
# Indices 1 2 3 4 5 6 
#
# 1 0.015565 -0.004651 -0.005613 0.000000 0.000000 0.000000
# 2 -0.004651 0.010076 -0.002772 0.000000 0.000000 0.000000
# 3 -0.005613 -0.002772 0.019081 0.000000 0.000000 0.000000
# 4 0.000000 0.000000 0.000000 0.105836 0.000000 0.000000
# 5 0.000000 0.000000 0.000000 0.000000 0.040138 0.000000
# 6 0.000000 0.000000 0.000000 0.000000 0.000000 0.045781
#
#
# Mechanical properties :
#
#
# Convention : Reuss Voigt Hill
#
# Bulk Modulus (GPa) = 53.61973 59.57598 56.59786
# Shear Modulus (GPa) = 18.60345 22.66109 20.63227
#
# Velocity S-wave (km/s) = 3.26918 3.60813 3.44283
# Velocity P-wave (km/s) = 6.71224 7.18221 6.95120
#
# Compressibility (1/GPa) = 0.01864985
#
# Stress axis : x y z
#
# Youngs Moduli (GPa) = 64.24758 99.24092 52.40753
#
# Poissons Ratio (x) = 0.46161 0.29417
# Poissons Ratio (y) = 0.29884 0.14526
# Poissons Ratio (z) = 0.36063 0.27506
#
# Static dielectric constant tensor:
#      x y z
#    x 3.215170 0.000000 0.000000 
#    y 0.000000 3.996280 0.000000 
#    z 0.000000 0.000000 2.891750 
# 
# 
# High freq. dielectric constant tensor:
#      x y z
#    x 1.689790 0.000000 0.000000 
#    y 0.000000 1.694550 0.000000 
#    z 0.000000 0.000000 1.624630 
# 
# From -- ./inp_files/34426.got.cif
#   From: 2010.03.12/outbox.cif.g09.slc.cpg/sg53_18_cif.got.tgz:34426.got - 2010.04.16 14:36:59.
