data_PCOD8218816
_publ_section_title
;
Structure prediction by ZEFSAII (Michael W. Deem and Ramdas Pophale) SiO2 
 PCOD8218816
Probable space group: P M N A
;
_chemical_formula_sum "Si O2"
_cell_formula_units_Z 64
_cell_length_a 8.666726
_cell_length_b 14.840816
_cell_length_c 29.616058
_cell_angle_alpha 90.000000
_cell_angle_beta 90.000000
_cell_angle_gamma 90.000000
_cell_volume 3809.255463
_symmetry_space_group_name_H-M "P M N A"
_symmetry_group_IT_number 53
_symmetry_cell_setting 'orthorhombic'
loop_
_space_group_symop_operation_xyz
x,y,z
1/2-x,-y,1/2+z
x,-y,-z
1/2-x,y,1/2-z
-x,-y,-z
1/2+x,y,1/2-z
-x,y,z
1/2+x,-y,1/2+z
loop_
_atom_site_type_symbol
_atom_site_label
_atom_site_fract_x
_atom_site_fract_y
_atom_site_fract_z
Si Si1 0.180687 0.443156 0.559152
Si Si2 0.820528 0.988763 0.296031
Si Si3 0.819053 0.379933 0.033044
Si Si4 0.682399 0.781316 0.203455
Si Si5 0.678894 0.968695 0.894445
Si Si6 0.821974 0.189598 0.461158
Si Si7 0.819189 0.132916 0.947059
Si Si8 0.181058 0.701775 0.115858
O O1 0.272933 0.395591 0.518681
O O2 0.231297 0.547283 0.564372
O O3 0.226750 0.389234 0.603889
O O4 0.000000 0.437675 0.549277
O O5 0.750000 0.030776 0.250000
O O6 0.769714 0.885362 0.301976
O O7 0.000000 0.997992 0.289236
O O8 0.766868 0.039365 0.341972
O O9 0.774832 0.279573 0.047693
O O10 0.000000 0.393576 0.038782
O O11 0.750000 0.743369 0.250000
O O12 0.500000 0.767007 0.200205
O O13 0.769992 0.725058 0.165975
O O14 0.500000 0.998867 0.896614
O O15 0.705097 0.872413 0.917451
O O16 0.778354 0.042609 0.920471
O O17 0.768341 0.135341 0.505357
O O18 0.000000 0.215520 0.467157
O O19 0.767138 0.218497 0.917666
O O20 0.000000 0.134832 0.956986
O O21 0.000000 0.683894 0.113112
#
# Coordination Sequence:
#
# PCOD8218816 Si02
#       8
#     8   8   8   8   8   8   8   8
#     4  11  21  34  54  76  99 131 169 206 251 305
#     4   9  18  32  50  71  97 127 165 209 255 298
#     4  11  21  35  52  73 102 131 165 212 257 297
#     4  10  19  32  51  73 101 134 171 212 257 307
#     4  10  21  36  51  71 100 137 175 212 252 303
#     4  11  22  35  52  71  99 138 178 214 253 301
#     4  11  22  33  48  71 103 138 175 213 250 296
#     4  11  21  33  50  75 105 137 172 210 254 303
#
# _framework density 16.801183999999999
#
# number of rings (size 3 to 8) (size 9 to 14) (size 15 to 20)
#    0.000    1.500    2.500    4.875    0.000    4.500 
#    0.000    0.000    0.000    0.000    0.000    0.875 
#    0.000    2.000    0.000    0.000    0.000    0.000 
#
# Total GULP energy -793769.487845 kJ/mol
# GULP energy per Si atom -12402.648248 kJ/mol
# Density = 1.676294 g / cm^3
# Si number density = 16.801184 Si / 1000 Ang^3
#
#
#
# Elastic Constant Matrix: (Units=GPa)
#
#
# Indices 1 2 3 4 5 6 
#
# 1 66.3810 28.9129 26.9841 0.0000 0.0000 0.0000
# 2 28.9129 78.0069 45.9347 0.0000 0.0000 0.0000
# 3 26.9841 45.9347 118.1275 0.0000 0.0000 0.0000
# 4 0.0000 0.0000 0.0000 10.0805 0.0000 0.0000
# 5 0.0000 0.0000 0.0000 0.0000 27.1011 0.0000
# 6 0.0000 0.0000 0.0000 0.0000 0.0000 23.1105
#
#
#
# Elastic Compliance Matrix: (Units=1/GPa)
#
#
# Indices 1 2 3 4 5 6 
#
# 1 0.018323 -0.005612 -0.002003 0.000000 0.000000 0.000000
# 2 -0.005612 0.018345 -0.005852 0.000000 0.000000 0.000000
# 3 -0.002003 -0.005852 0.011199 0.000000 0.000000 0.000000
# 4 0.000000 0.000000 0.000000 0.099201 0.000000 0.000000
# 5 0.000000 0.000000 0.000000 0.000000 0.036899 0.000000
# 6 0.000000 0.000000 0.000000 0.000000 0.000000 0.043270
#
#
# Mechanical properties :
#
#
# Convention : Reuss Voigt Hill
#
# Bulk Modulus (GPa) = 47.77111 51.79764 49.78437
# Shear Modulus (GPa) = 19.14619 22.77068 20.95843
#
# Velocity S-wave (km/s) = 3.37942 3.68544 3.53574
# Velocity P-wave (km/s) = 6.61228 7.00047 6.80914
#
# Compressibility (1/GPa) = 0.02093315
#
# Stress axis : x y z
#
# Youngs Moduli (GPa) = 54.57565 54.51036 89.29698
#
# Poissons Ratio (x) = 0.30589 0.17890
# Poissons Ratio (y) = 0.30626 0.52254
# Poissons Ratio (z) = 0.10934 0.31898
#
# Static dielectric constant tensor:
#      x y z
#    x 3.235010 0.000000 0.000000 
#    y 0.000000 3.124660 0.000000 
#    z 0.000000 0.000000 3.326790 
# 
# 
# High freq. dielectric constant tensor:
#      x y z
#    x 1.661920 0.000000 0.000000 
#    y 0.000000 1.627330 0.000000 
#    z 0.000000 0.000000 1.635800 
# 
# From -- ./inp_files/38435.got.cif
#   From: 2010.03.12/outbox.cif.g09.slc.cpg/sg53_20_cif.got.tgz:38435.got - 2010.04.16 14:36:59.
