data_PCOD8218437
_publ_section_title
;
Structure prediction by ZEFSAII (Michael W. Deem and Ramdas Pophale) SiO2 
 PCOD8218437
Probable space group: P M N A
;
_chemical_formula_sum "Si O2"
_cell_formula_units_Z 64
_cell_length_a 8.799053
_cell_length_b 21.433103
_cell_length_c 19.509837
_cell_angle_alpha 90.000000
_cell_angle_beta 90.000000
_cell_angle_gamma 90.000000
_cell_volume 3679.379850
_symmetry_space_group_name_H-M "P M N A"
_symmetry_group_IT_number 53
_symmetry_cell_setting 'orthorhombic'
loop_
_space_group_symop_operation_xyz
x,y,z
1/2-x,-y,1/2+z
x,-y,-z
1/2-x,y,1/2-z
-x,-y,-z
1/2+x,y,1/2-z
-x,y,z
1/2+x,-y,1/2+z
loop_
_atom_site_type_symbol
_atom_site_label
_atom_site_fract_x
_atom_site_fract_y
_atom_site_fract_z
Si Si1 0.820892 0.394278 0.321324
Si Si2 0.176268 0.060545 0.964626
Si Si3 0.180139 0.534981 0.321713
Si Si4 0.178367 0.353600 0.589036
Si Si5 0.321666 0.894130 0.318191
Si Si6 0.175334 0.775841 0.364214
Si Si7 0.319006 0.693812 0.943416
Si Si8 0.676640 0.806239 0.503865
O O1 0.750000 0.371724 0.250000
O O2 0.768275 0.464646 0.339968
O O3 0.763070 0.348644 0.380759
O O4 0.000000 0.391396 0.313674
O O5 0.244092 0.074491 0.888276
O O6 0.198168 0.119428 0.016285
O O7 0.000000 0.046298 0.953040
O O8 0.254694 0.000000 0.000000
O O9 0.250000 0.556321 0.250000
O O10 0.243942 0.581692 0.380503
O O11 0.000000 0.540313 0.315964
O O12 0.213942 0.297856 0.643895
O O13 0.243570 0.339119 0.513149
O O14 0.000000 0.359926 0.579195
O O15 0.250000 0.925733 0.250000
O O16 0.500000 0.901519 0.314271
O O17 0.279256 0.820356 0.317367
O O18 0.209656 0.789444 0.443103
O O19 0.000000 0.790552 0.347780
O O20 0.500000 0.702920 0.943300
O O21 0.235499 0.761632 0.934535
O O22 0.500000 0.792980 0.485743
#
# Coordination Sequence:
#
# PCOD8218437 Si02
#       8
#     8   8   8   8   8   8   8   8
#     4   9  18  31  48  66  85 113 149 190 236 282
#     4   8  15  29  49  71  93 120 154 187 221 266
#     4   9  17  30  44  60  84 114 149 187 227 274
#     4   8  15  27  44  65  88 115 148 185 225 268
#     4  10  19  30  46  68  94 124 158 194 230 269
#     4   9  16  28  44  63  91 122 150 183 223 266
#     4   9  17  30  47  67  90 117 148 187 232 271
#     4   9  16  27  46  71  93 115 145 180 221 267
#
# _framework density 17.394237
#
# number of rings (size 3 to 8) (size 9 to 14) (size 15 to 20)
#    0.000    3.125    0.000    2.625    0.000    1.500 
#    0.000    6.875    0.000   14.250    0.000   10.500 
#    0.000    0.000    0.000    0.000    0.000    0.000 
#
# Total GULP energy -792862.658838 kJ/mol
# GULP energy per Si atom -12388.479044 kJ/mol
# Density = 1.735465 g / cm^3
# Si number density = 17.394237 Si / 1000 Ang^3
#
#
#
# Elastic Constant Matrix: (Units=GPa)
#
#
# Indices 1 2 3 4 5 6 
#
# 1 27.0780 24.5259 20.4543 0.0000 0.0000 0.0000
# 2 24.5259 126.3836 73.9060 0.0000 0.0000 0.0000
# 3 20.4543 73.9060 102.0356 0.0000 0.0000 0.0000
# 4 0.0000 0.0000 0.0000 21.6280 0.0000 0.0000
# 5 0.0000 0.0000 0.0000 0.0000 22.9301 0.0000
# 6 0.0000 0.0000 0.0000 0.0000 0.0000 17.7248
#
#
#
# Elastic Compliance Matrix: (Units=1/GPa)
#
#
# Indices 1 2 3 4 5 6 
#
# 1 0.046118 -0.006147 -0.004792 0.000000 0.000000 0.000000
# 2 -0.006147 0.014546 -0.009303 0.000000 0.000000 0.000000
# 3 -0.004792 -0.009303 0.017500 0.000000 0.000000 0.000000
# 4 0.000000 0.000000 0.000000 0.046236 0.000000 0.000000
# 5 0.000000 0.000000 0.000000 0.000000 0.043611 0.000000
# 6 0.000000 0.000000 0.000000 0.000000 0.000000 0.056418
#
#
# Mechanical properties :
#
#
# Convention : Reuss Voigt Hill
#
# Bulk Modulus (GPa) = 26.54093 54.80773 40.67433
# Shear Modulus (GPa) = 18.01969 21.56400 19.79184
#
# Velocity S-wave (km/s) = 3.22212 3.52479 3.37685
# Velocity P-wave (km/s) = 5.39762 6.93852 6.21600
#
# Compressibility (1/GPa) = 0.03767766
#
# Stress axis : x y z
#
# Youngs Moduli (GPa) = 21.68341 68.74857 57.14336
#
# Poissons Ratio (x) = 0.42261 0.27386
# Poissons Ratio (y) = 0.13329 0.53163
# Poissons Ratio (z) = 0.10392 0.63960
#
# Static dielectric constant tensor:
#      x y z
#    x 3.007630 0.000000 0.000000 
#    y 0.000000 3.609180 0.000000 
#    z 0.000000 0.000000 3.291130 
# 
# 
# High freq. dielectric constant tensor:
#      x y z
#    x 1.650540 0.000000 0.000000 
#    y 0.000000 1.667390 0.000000 
#    z 0.000000 0.000000 1.648430 
# 
# From -- ./inp_files/31377.got.cif
#   From: 2010.03.12/outbox.cif.g09.slc.cpg/sg53_16_cif.got.tgz:31377.got - 2010.04.16 14:36:59.
