data_PCOD8218636
_publ_section_title
;
Structure prediction by ZEFSAII (Michael W. Deem and Ramdas Pophale) SiO2 
 PCOD8218636
Probable space group: P M N A
;
_chemical_formula_sum "Si O2"
_cell_formula_units_Z 64
_cell_length_a 9.740964
_cell_length_b 20.278399
_cell_length_c 19.595804
_cell_angle_alpha 90.000000
_cell_angle_beta 90.000000
_cell_angle_gamma 90.000000
_cell_volume 3870.781790
_symmetry_space_group_name_H-M "P M N A"
_symmetry_group_IT_number 53
_symmetry_cell_setting 'orthorhombic'
loop_
_space_group_symop_operation_xyz
x,y,z
1/2-x,-y,1/2+z
x,-y,-z
1/2-x,y,1/2-z
-x,-y,-z
1/2+x,y,1/2-z
-x,y,z
1/2+x,-y,1/2+z
loop_
_atom_site_type_symbol
_atom_site_label
_atom_site_fract_x
_atom_site_fract_y
_atom_site_fract_z
Si Si1 0.337500 0.938290 0.040813
Si Si2 0.836617 0.441796 0.954365
Si Si3 0.150874 0.558480 0.194551
Si Si4 0.658497 0.981662 0.187224
Si Si5 0.657273 0.864640 0.812755
Si Si6 0.651076 0.713886 0.308001
Si Si7 0.162809 0.706628 0.036927
Si Si8 0.161762 0.810516 0.539692
O O1 0.500000 0.942841 0.034126
O O2 0.294252 0.941361 0.120222
O O3 0.285410 0.870935 0.006977
O O4 0.272038 0.000000 0.000000
O O5 0.782241 0.456500 0.878599
O O6 0.792931 0.368932 0.978457
O O7 0.000000 0.444559 0.952869
O O8 0.772599 0.500000 0.000000
O O9 0.250000 0.525475 0.250000
O O10 0.139097 0.636423 0.204760
O O11 0.000000 0.526545 0.202234
O O12 0.750000 0.956341 0.250000
O O13 0.500000 0.968321 0.205122
O O14 0.684251 0.058588 0.172104
O O15 0.750000 0.839191 0.750000
O O16 0.500000 0.852701 0.791857
O O17 0.694451 0.824746 0.881135
O O18 0.750000 0.745609 0.250000
O O19 0.500000 0.745694 0.298746
O O20 0.704006 0.726709 0.385332
O O21 0.000000 0.716791 0.026009
O O22 0.249749 0.747986 0.982849
O O23 0.000000 0.797308 0.528808
#
# Coordination Sequence:
#
# PCOD8218636 Si02
#       8
#     8   8   8   8   8   8   8   8
#     4   9  15  28  49  68  87 117 155 188 220 265
#     4   8  14  27  48  69  88 117 157 190 220 271
#     4   8  13  22  39  63  87 109 139 180 219 257
#     4   9  16  28  47  68  91 118 151 192 231 268
#     4   9  17  29  47  70  91 114 150 195 234 271
#     4   8  14  25  41  61  85 114 147 182 219 260
#     4   9  18  31  46  68  96 122 151 192 236 273
#     4  10  19  31  49  71  93 121 157 191 227 277
#
# _framework density 16.534127000000002
#
# number of rings (size 3 to 8) (size 9 to 14) (size 15 to 20)
#    0.000    3.250    1.250    1.500    0.000    1.000 
#    0.000    3.125    0.000    6.000    0.000    3.500 
#    0.000    0.000    0.000    0.000    0.000    0.000 
#
# Total GULP energy -793180.397224 kJ/mol
# GULP energy per Si atom -12393.443707 kJ/mol
# Density = 1.649649 g / cm^3
# Si number density = 16.534127 Si / 1000 Ang^3
#
#
#
# Elastic Constant Matrix: (Units=GPa)
#
#
# Indices 1 2 3 4 5 6 
#
# 1 57.7813 32.2430 59.3553 0.0000 0.0000 0.0000
# 2 32.2430 70.0111 59.9474 0.0000 0.0000 0.0000
# 3 59.3553 59.9474 135.5955 0.0000 0.0000 0.0000
# 4 0.0000 0.0000 0.0000 23.8961 0.0000 0.0000
# 5 0.0000 0.0000 0.0000 0.0000 29.9257 0.0000
# 6 0.0000 0.0000 0.0000 0.0000 0.0000 5.1940
#
#
#
# Elastic Compliance Matrix: (Units=1/GPa)
#
#
# Indices 1 2 3 4 5 6 
#
# 1 0.032288 -0.004454 -0.012165 0.000000 0.000000 0.000000
# 2 -0.004454 0.023599 -0.008483 0.000000 0.000000 0.000000
# 3 -0.012165 -0.008483 0.016450 0.000000 0.000000 0.000000
# 4 0.000000 0.000000 0.000000 0.041848 0.000000 0.000000
# 5 0.000000 0.000000 0.000000 0.000000 0.033416 0.000000
# 6 0.000000 0.000000 0.000000 0.000000 0.000000 0.192531
#
#
# Mechanical properties :
#
#
# Convention : Reuss Voigt Hill
#
# Bulk Modulus (GPa) = 45.18124 62.94215 54.06170
# Shear Modulus (GPa) = 12.57187 19.25930 15.91558
#
# Velocity S-wave (km/s) = 2.76045 3.41665 3.10593
# Velocity P-wave (km/s) = 6.12744 7.32907 6.75503
#
# Compressibility (1/GPa) = 0.02213308
#
# Stress axis : x y z
#
# Youngs Moduli (GPa) = 30.97129 42.37531 60.78916
#
# Poissons Ratio (x) = 0.18874 0.73947
# Poissons Ratio (y) = 0.13795 0.51570
# Poissons Ratio (z) = 0.37675 0.35949
#
# Static dielectric constant tensor:
#      x y z
#    x 3.051780 0.000000 0.000000 
#    y 0.000000 2.872800 0.000000 
#    z 0.000000 0.000000 3.316370 
# 
# 
# High freq. dielectric constant tensor:
#      x y z
#    x 1.611580 0.000000 0.000000 
#    y 0.000000 1.598460 0.000000 
#    z 0.000000 0.000000 1.644810 
# 
# From -- ./inp_files/27064.got.cif
#   From: 2010.03.12/outbox.cif.g09.slc.cpg/sg53_14_cif.got.tgz:27064.got - 2010.04.16 14:36:59.
