data_PCOD8218072
_publ_section_title
;
Structure prediction by ZEFSAII (Michael W. Deem and Ramdas Pophale) SiO2 
 PCOD8218072
Probable space group: P M N A
;
_chemical_formula_sum "Si O2"
_cell_formula_units_Z 64
_cell_length_a 9.052512
_cell_length_b 14.452097
_cell_length_c 25.287517
_cell_angle_alpha 90.000000
_cell_angle_beta 90.000000
_cell_angle_gamma 90.000000
_cell_volume 3308.309749
_symmetry_space_group_name_H-M "P M N A"
_symmetry_group_IT_number 53
_symmetry_cell_setting 'orthorhombic'
loop_
_space_group_symop_operation_xyz
x,y,z
1/2-x,-y,1/2+z
x,-y,-z
1/2-x,y,1/2-z
-x,-y,-z
1/2+x,y,1/2-z
-x,y,z
1/2+x,-y,1/2+z
loop_
_atom_site_type_symbol
_atom_site_label
_atom_site_fract_x
_atom_site_fract_y
_atom_site_fract_z
Si Si1 0.324058 0.777164 0.303396
Si Si2 0.669585 0.526714 0.941590
Si Si3 0.171174 0.291031 0.095426
Si Si4 0.824491 0.979733 0.164946
Si Si5 0.665506 0.961769 0.448443
Si Si6 0.675237 0.819998 0.697601
Si Si7 0.668084 0.665224 0.105155
Si Si8 0.162519 0.242405 0.981351
O O1 0.250000 0.738354 0.250000
O O2 0.500000 0.771146 0.299354
O O3 0.267414 0.883689 0.309703
O O4 0.273213 0.711381 0.351264
O O5 0.500000 0.555346 0.949573
O O6 0.753335 0.611024 0.914298
O O7 0.685123 0.445325 0.897931
O O8 0.734802 0.500000 0.000000
O O9 0.234758 0.236167 0.146450
O O10 0.000000 0.310086 0.105402
O O11 0.198848 0.227620 0.043431
O O12 0.755236 0.989972 0.105999
O O13 0.000000 0.972869 0.159787
O O14 0.775146 0.071727 0.195733
O O15 0.500000 0.005213 0.449008
O O16 0.659456 0.852163 0.449617
O O17 0.752736 0.000000 0.500000
O O18 0.750000 0.777053 0.750000
O O19 0.500000 0.812257 0.701967
O O20 0.500000 0.695035 0.116845
O O21 0.712903 0.695805 0.045903
O O22 0.000000 0.289632 0.976249
#
# Coordination Sequence:
#
# PCOD8218072 Si02
#       8
#     8   8   8   8   8   8   8   8
#     4  11  22  38  59  85 115 151 194 236 281 331
#     4  10  21  38  59  84 114 149 185 223 280 348
#     4  10  21  35  57  88 116 144 187 239 284 334
#     4   9  17  31  53  81 113 148 188 231 272 327
#     4   9  15  25  46  77 111 147 184 223 272 329
#     4  10  21  38  57  82 114 150 193 236 279 327
#     4  11  22  37  57  82 114 150 186 229 280 336
#     4  10  18  31  53  83 114 145 182 228 284 337
#
# _framework density 19.345227000000001
#
# number of rings (size 3 to 8) (size 9 to 14) (size 15 to 20)
#    0.000    2.000    2.500    1.875    0.000    4.750 
#    0.000    1.250    0.000    1.875    0.000    0.000 
#    0.000    0.000    0.000    0.000    0.000    0.000 
#
# Total GULP energy -793200.870572 kJ/mol
# GULP energy per Si atom -12393.763603 kJ/mol
# Density = 1.930120 g / cm^3
# Si number density = 19.345227 Si / 1000 Ang^3
#
#
#
# Elastic Constant Matrix: (Units=GPa)
#
#
# Indices 1 2 3 4 5 6 
#
# 1 50.5405 27.6297 36.3976 0.0000 0.0000 0.0000
# 2 27.6297 74.4507 39.6784 0.0000 0.0000 0.0000
# 3 36.3976 39.6784 140.2955 0.0000 0.0000 0.0000
# 4 0.0000 0.0000 0.0000 21.1516 0.0000 0.0000
# 5 0.0000 0.0000 0.0000 0.0000 29.1468 0.0000
# 6 0.0000 0.0000 0.0000 0.0000 0.0000 16.7753
#
#
#
# Elastic Compliance Matrix: (Units=1/GPa)
#
#
# Indices 1 2 3 4 5 6 
#
# 1 0.027514 -0.007544 -0.005005 0.000000 0.000000 0.000000
# 2 -0.007544 0.017884 -0.003101 0.000000 0.000000 0.000000
# 3 -0.005005 -0.003101 0.009303 0.000000 0.000000 0.000000
# 4 0.000000 0.000000 0.000000 0.047278 0.000000 0.000000
# 5 0.000000 0.000000 0.000000 0.000000 0.034309 0.000000
# 6 0.000000 0.000000 0.000000 0.000000 0.000000 0.059612
#
#
# Mechanical properties :
#
#
# Convention : Reuss Voigt Hill
#
# Bulk Modulus (GPa) = 42.72963 52.52202 47.62583
# Shear Modulus (GPa) = 21.27667 24.18679 22.73173
#
# Velocity S-wave (km/s) = 3.31998 3.53975 3.43163
# Velocity P-wave (km/s) = 6.06896 6.62686 6.35404
#
# Compressibility (1/GPa) = 0.02340296
#
# Stress axis : x y z
#
# Youngs Moduli (GPa) = 36.34468 55.91633 107.49026
#
# Poissons Ratio (x) = 0.42182 0.53795
# Poissons Ratio (y) = 0.27417 0.33331
# Poissons Ratio (z) = 0.18189 0.17339
#
# Static dielectric constant tensor:
#      x y z
#    x 3.215290 0.000000 0.000000 
#    y 0.000000 3.471540 0.000000 
#    z 0.000000 0.000000 3.694440 
# 
# 
# High freq. dielectric constant tensor:
#      x y z
#    x 1.717530 0.000000 0.000000 
#    y 0.000000 1.745030 0.000000 
#    z 0.000000 0.000000 1.762820 
# 
# From -- ./inp_files/34233.got.cif
#   From: 2010.03.12/outbox.cif.g09.slc.cpg/sg53_18_cif.got.tgz:34233.got - 2010.04.16 14:36:59.
