data_PCOD8218604
_publ_section_title
;
Structure prediction by ZEFSAII (Michael W. Deem and Ramdas Pophale) SiO2 
 PCOD8218604
Probable space group: P M N A
;
_chemical_formula_sum "Si O2"
_cell_formula_units_Z 56
_cell_length_a 9.189493
_cell_length_b 18.855479
_cell_length_c 18.293654
_cell_angle_alpha 90.000000
_cell_angle_beta 90.000000
_cell_angle_gamma 90.000000
_cell_volume 3169.783363
_symmetry_space_group_name_H-M "P M N A"
_symmetry_group_IT_number 53
_symmetry_cell_setting 'orthorhombic'
loop_
_space_group_symop_operation_xyz
x,y,z
1/2-x,-y,1/2+z
x,-y,-z
1/2-x,y,1/2-z
-x,-y,-z
1/2+x,y,1/2-z
-x,y,z
1/2+x,-y,1/2+z
loop_
_atom_site_type_symbol
_atom_site_label
_atom_site_fract_x
_atom_site_fract_y
_atom_site_fract_z
Si Si1 0.168951 0.891151 0.903360
Si Si2 0.162956 0.290208 0.526497
Si Si3 0.329402 0.626833 0.682149
Si Si4 0.836352 0.760563 0.638680
Si Si5 0.830005 0.578193 0.978076
Si Si6 0.830116 0.842738 0.064673
Si Si7 0.829948 0.964098 0.173466
O O1 0.264146 0.837801 0.854086
O O2 0.000000 0.873901 0.889649
O O3 0.210544 0.969905 0.878361
O O4 0.207677 0.882436 0.988809
O O5 0.160507 0.261732 0.445026
O O6 0.245324 0.365585 0.528571
O O7 0.245536 0.231500 0.575056
O O8 0.000000 0.300842 0.557166
O O9 0.250000 0.586593 0.750000
O O10 0.500000 0.630342 0.696671
O O11 0.264259 0.705939 0.681990
O O12 0.291915 0.586538 0.607347
O O13 0.000000 0.761697 0.671085
O O14 0.000000 0.590504 0.992386
O O15 0.778844 0.500000 0.000000
O O16 0.780919 0.893469 0.130727
O O17 0.000000 0.825073 0.067895
O O18 0.750000 0.969256 0.250000
O O19 0.000000 0.962776 0.189773
#
# Coordination Sequence:
#
# PCOD8218604 Si02
#       7
#     8   8   8   8   8   8   8
#     4   9  17  31  50  70  93 124 164 204 242 288
#     4   9  17  29  48  75 100 121 151 194 239 280
#     4  10  19  31  48  70  98 131 163 195 234 283
#     4   9  17  29  45  68  97 125 155 191 233 283
#     4   9  18  33  53  76 101 130 163 197 235 283
#     4   9  17  32  53  71  90 123 166 205 240 287
#     4  10  21  34  48  68  94 125 161 205 255 299
#
# _framework density 17.666823999999998
#
# number of rings (size 3 to 8) (size 9 to 14) (size 15 to 20)
#    0.000    2.714    0.000    1.714    0.000    7.714 
#    0.000    1.429    0.000    5.143    0.000    2.000 
#    0.000    0.000    0.000    0.000    0.000    0.000 
#
# Total GULP energy -694324.200284 kJ/mol
# GULP energy per Si atom -12398.646434 kJ/mol
# Density = 1.762661 g / cm^3
# Si number density = 17.666824 Si / 1000 Ang^3
#
#
#
# Elastic Constant Matrix: (Units=GPa)
#
#
# Indices 1 2 3 4 5 6 
#
# 1 84.9599 59.4324 33.1782 0.0000 0.0000 0.0000
# 2 59.4324 135.4367 37.1151 0.0000 0.0000 0.0000
# 3 33.1782 37.1151 54.0777 0.0000 0.0000 0.0000
# 4 0.0000 0.0000 0.0000 15.1498 0.0000 0.0000
# 5 0.0000 0.0000 0.0000 0.0000 25.1734 0.0000
# 6 0.0000 0.0000 0.0000 0.0000 0.0000 22.8842
#
#
#
# Elastic Compliance Matrix: (Units=1/GPa)
#
#
# Indices 1 2 3 4 5 6 
#
# 1 0.019091 -0.006365 -0.007344 0.000000 0.000000 0.000000
# 2 -0.006365 0.011216 -0.003793 0.000000 0.000000 0.000000
# 3 -0.007344 -0.003793 0.025601 0.000000 0.000000 0.000000
# 4 0.000000 0.000000 0.000000 0.066008 0.000000 0.000000
# 5 0.000000 0.000000 0.000000 0.000000 0.039725 0.000000
# 6 0.000000 0.000000 0.000000 0.000000 0.000000 0.043698
#
#
# Mechanical properties :
#
#
# Convention : Reuss Voigt Hill
#
# Bulk Modulus (GPa) = 47.83840 59.32506 53.58173
# Shear Modulus (GPa) = 20.21756 22.29138 21.25447
#
# Velocity S-wave (km/s) = 3.38654 3.55599 3.47230
# Velocity P-wave (km/s) = 6.51371 7.10724 6.81694
#
# Compressibility (1/GPa) = 0.02090371
#
# Stress axis : x y z
#
# Youngs Moduli (GPa) = 52.38153 89.15922 39.06090
#
# Poissons Ratio (x) = 0.56747 0.28688
# Poissons Ratio (y) = 0.33339 0.14815
# Poissons Ratio (z) = 0.38471 0.33817
#
# Static dielectric constant tensor:
#      x y z
#    x 3.379020 0.000000 0.000000 
#    y 0.000000 3.266330 0.000000 
#    z 0.000000 0.000000 3.162690 
# 
# 
# High freq. dielectric constant tensor:
#      x y z
#    x 1.686380 0.000000 0.000000 
#    y 0.000000 1.673660 0.000000 
#    z 0.000000 0.000000 1.659050 
# 
# From -- ./inp_files/31028.got.cif
#   From: 2010.03.12/outbox.cif.g09.slc.cpg/sg53_16_cif.got.tgz:31028.got - 2010.04.16 14:36:59.
