data_PCOD8218225
_publ_section_title
;
Structure prediction by ZEFSAII (Michael W. Deem and Ramdas Pophale) SiO2 
 PCOD8218225
Probable space group: P M N A
;
_chemical_formula_sum "Si O2"
_cell_formula_units_Z 64
_cell_length_a 9.147095
_cell_length_b 18.621289
_cell_length_c 19.788745
_cell_angle_alpha 90.000000
_cell_angle_beta 90.000000
_cell_angle_gamma 90.000000
_cell_volume 3370.630778
_symmetry_space_group_name_H-M "P M N A"
_symmetry_group_IT_number 53
_symmetry_cell_setting 'orthorhombic'
loop_
_space_group_symop_operation_xyz
x,y,z
1/2-x,-y,1/2+z
x,-y,-z
1/2-x,y,1/2-z
-x,-y,-z
1/2+x,y,1/2-z
-x,y,z
1/2+x,-y,1/2+z
loop_
_atom_site_type_symbol
_atom_site_label
_atom_site_fract_x
_atom_site_fract_y
_atom_site_fract_z
Si Si1 0.665301 0.024294 0.576240
Si Si2 0.838570 0.579519 0.186989
Si Si3 0.826499 0.572099 0.036662
Si Si4 0.328673 0.925684 0.818954
Si Si5 0.674227 0.708661 0.551109
Si Si6 0.659554 0.747471 0.310098
Si Si7 0.327977 0.759013 0.819358
Si Si8 0.826458 0.182635 0.941850
O O1 0.500000 0.023726 0.606057
O O2 0.736467 0.103813 0.573457
O O3 0.661957 0.000000 0.500000
O O4 0.766880 0.972814 0.620024
O O5 0.750000 0.544425 0.250000
O O6 0.762218 0.569027 0.113380
O O7 0.852120 0.663376 0.200592
O O8 0.000000 0.544094 0.187463
O O9 0.000000 0.577781 0.043583
O O10 0.774291 0.500000 0.000000
O O11 0.772288 0.640203 0.993035
O O12 0.250000 0.949320 0.750000
O O13 0.500000 0.940159 0.810969
O O14 0.295934 0.842482 0.835044
O O15 0.500000 0.705750 0.563410
O O16 0.757884 0.709607 0.622232
O O17 0.724634 0.781177 0.511891
O O18 0.750000 0.783918 0.250000
O O19 0.500000 0.783283 0.307038
O O20 0.730745 0.765362 0.382254
O O21 0.250000 0.736192 0.750000
O O22 0.500000 0.743430 0.813721
O O23 0.000000 0.178604 0.944982
#
# Coordination Sequence:
#
# PCOD8218225 Si02
#       8
#     8   8   8   8   8   8   8   8
#     4  10  20  33  50  74 103 137 176 216 261 316
#     4   9  16  29  50  74 101 135 173 210 248 297
#     4   9  17  31  54  83 111 142 181 218 260 318
#     4  10  21  37  56  76 103 138 177 221 269 321
#     4  10  18  33  57  80 105 139 177 220 265 312
#     4   9  16  28  45  67  95 127 164 206 247 291
#     4  10  21  37  57  81 105 134 174 220 268 321
#     4   9  17  30  49  72 100 135 175 215 257 308
#
# _framework density 18.987544
#
# number of rings (size 3 to 8) (size 9 to 14) (size 15 to 20)
#    0.000    2.500    1.250    1.500    0.000    3.250 
#    0.000    4.375    0.000    3.000    0.000    0.000 
#    0.000    0.000    0.000    0.000    0.000    0.000 
#
# Total GULP energy -793216.928394 kJ/mol
# GULP energy per Si atom -12394.014506 kJ/mol
# Density = 1.894433 g / cm^3
# Si number density = 18.987544 Si / 1000 Ang^3
#
#
#
# Elastic Constant Matrix: (Units=GPa)
#
#
# Indices 1 2 3 4 5 6 
#
# 1 66.1772 25.9528 55.6003 0.0000 0.0000 0.0000
# 2 25.9528 63.1688 45.4918 0.0000 0.0000 0.0000
# 3 55.6003 45.4918 163.4276 0.0000 0.0000 0.0000
# 4 0.0000 0.0000 0.0000 25.9153 0.0000 0.0000
# 5 0.0000 0.0000 0.0000 0.0000 -16.5032 0.0000
# 6 0.0000 0.0000 0.0000 0.0000 0.0000 12.7082
#
#
#
# Elastic Compliance Matrix: (Units=1/GPa)
#
#
# Indices 1 2 3 4 5 6 
#
# 1 0.022179 -0.004600 -0.006265 0.000000 0.000000 0.000000
# 2 -0.004600 0.020754 -0.004212 0.000000 0.000000 0.000000
# 3 -0.006265 -0.004212 0.009423 0.000000 0.000000 0.000000
# 4 0.000000 0.000000 0.000000 0.038587 0.000000 0.000000
# 5 0.000000 0.000000 0.000000 0.000000 -0.060594 0.000000
# 6 0.000000 0.000000 0.000000 0.000000 0.000000 0.078689
#
#
# Mechanical properties :
#
#
# Convention : Reuss Voigt Hill
#
# Bulk Modulus (GPa) = 45.04312 60.76260 52.90286
# Shear Modulus (GPa) = 34.10815 15.47264 24.79040
#
# Velocity S-wave (km/s) = 4.24293 2.85771 3.61725
# Velocity P-wave (km/s) = 6.91211 6.55435 6.73560
#
# Compressibility (1/GPa) = 0.02220095
#
# Stress axis : x y z
#
# Youngs Moduli (GPa) = 45.08835 48.18357 106.12563
#
# Poissons Ratio (x) = 0.22166 0.66487
# Poissons Ratio (y) = 0.20742 0.44700
# Poissons Ratio (z) = 0.28248 0.20295
#
# Static dielectric constant tensor:
#      x y z
#    x 3.378300 0.000000 0.000000 
#    y 0.000000 3.410390 0.000000 
#    z 0.000000 0.000000 3.631860 
# 
# 
# High freq. dielectric constant tensor:
#      x y z
#    x 1.702490 0.000000 0.000000 
#    y 0.000000 1.717990 0.000000 
#    z 0.000000 0.000000 1.754280 
# 
# From -- ./inp_files/27010.got.cif
#   From: 2010.03.12/outbox.cif.g09.slc.cpg/sg53_14_cif.got.tgz:27010.got - 2010.04.16 14:36:59.
