data_PCOD8218374
_publ_section_title
;
Structure prediction by ZEFSAII (Michael W. Deem and Ramdas Pophale) SiO2 
 PCOD8218374
Probable space group: P M N A
;
_chemical_formula_sum "Si O2"
_cell_formula_units_Z 64
_cell_length_a 25.541272
_cell_length_b 9.647081
_cell_length_c 15.914520
_cell_angle_alpha 90.000000
_cell_angle_beta 90.000000
_cell_angle_gamma 90.000000
_cell_volume 3921.317355
_symmetry_space_group_name_H-M "P M N A"
_symmetry_group_IT_number 53
_symmetry_cell_setting 'orthorhombic'
loop_
_space_group_symop_operation_xyz
x,y,z
1/2-x,-y,1/2+z
x,-y,-z
1/2-x,y,1/2-z
-x,-y,-z
1/2+x,y,1/2-z
-x,y,z
1/2+x,-y,1/2+z
loop_
_atom_site_type_symbol
_atom_site_label
_atom_site_fract_x
_atom_site_fract_y
_atom_site_fract_z
Si Si1 0.719696 0.958484 0.672317
Si Si2 0.198429 0.439642 0.800633
Si Si3 0.559119 0.795710 0.548906
Si Si4 0.809633 0.092477 0.572352
Si Si5 0.662177 0.700301 0.612786
Si Si6 0.851663 0.827081 0.254116
Si Si7 0.246772 0.354821 0.971545
Si Si8 0.441185 0.910639 0.368379
O O1 0.750000 0.886700 0.750000
O O2 0.673432 0.855118 0.645985
O O3 0.759340 0.999379 0.598239
O O4 0.695129 0.102363 0.702907
O O5 0.250000 0.478507 0.750000
O O6 0.167984 0.583269 0.816221
O O7 0.159830 0.337702 0.748831
O O8 0.215388 0.363784 0.885293
O O9 0.500000 0.734507 0.554296
O O10 0.602314 0.686939 0.580939
O O11 0.574126 0.828120 0.452700
O O12 0.563301 0.928178 0.609395
O O13 0.849793 0.119311 0.649282
O O14 0.791669 0.239415 0.533892
O O15 0.838063 0.000000 0.500000
O O16 0.703243 0.679121 0.539548
O O17 0.906427 0.865815 0.211091
O O18 0.273794 0.500000 0.000000
O O19 0.500000 0.873889 0.341357
#
# Coordination Sequence:
#
# PCOD8218374 Si02
#       8
#     8   8   8   8   8   8   8   8
#     4  10  19  29  45  72  98 129 166 209 246 297
#     4  11  20  33  46  68 103 141 171 197 251 307
#     4   9  18  32  50  76 106 134 174 215 250 296
#     4  11  20  32  49  74  98 134 168 217 259 300
#     4  11  20  30  49  70 101 140 172 204 244 299
#     4  11  19  33  52  70 103 131 170 210 259 306
#     4  10  20  31  44  66 100 138 165 198 245 312
#     4   9  18  32  53  77 101 134 169 212 262 305
#
# _framework density 16.321045999999999
#
# number of rings (size 3 to 8) (size 9 to 14) (size 15 to 20)
#    0.000    1.750    5.000    2.250    0.000    0.000 
#    0.000    0.625    0.000    5.250    0.000    0.000 
#    0.000    0.500    0.000    0.250    0.000    0.000 
#
# Total GULP energy -793355.094784 kJ/mol
# GULP energy per Si atom -12396.173356 kJ/mol
# Density = 1.628390 g / cm^3
# Si number density = 16.321046 Si / 1000 Ang^3
#
#
#
# Elastic Constant Matrix: (Units=GPa)
#
#
# Indices 1 2 3 4 5 6 
#
# 1 83.2552 29.6202 41.6342 0.0000 0.0000 0.0000
# 2 29.6202 79.2079 39.0324 0.0000 0.0000 0.0000
# 3 41.6342 39.0324 85.1571 0.0000 0.0000 0.0000
# 4 0.0000 0.0000 0.0000 30.4312 0.0000 0.0000
# 5 0.0000 0.0000 0.0000 0.0000 30.2197 0.0000
# 6 0.0000 0.0000 0.0000 0.0000 0.0000 63.8047
#
#
#
# Elastic Compliance Matrix: (Units=1/GPa)
#
#
# Indices 1 2 3 4 5 6 
#
# 1 0.016370 -0.002813 -0.006714 0.000000 0.000000 0.000000
# 2 -0.002813 0.016792 -0.006321 0.000000 0.000000 0.000000
# 3 -0.006714 -0.006321 0.017923 0.000000 0.000000 0.000000
# 4 0.000000 0.000000 0.000000 0.032861 0.000000 0.000000
# 5 0.000000 0.000000 0.000000 0.000000 0.033091 0.000000
# 6 0.000000 0.000000 0.000000 0.000000 0.000000 0.015673
#
#
# Mechanical properties :
#
#
# Convention : Reuss Voigt Hill
#
# Bulk Modulus (GPa) = 51.57856 52.02154 51.80005
# Shear Modulus (GPa) = 29.26223 34.04669 31.65446
#
# Velocity S-wave (km/s) = 4.23888 4.57230 4.40874
# Velocity P-wave (km/s) = 7.45845 7.73418 7.59757
#
# Compressibility (1/GPa) = 0.01938790
#
# Stress axis : x y z
#
# Youngs Moduli (GPa) = 61.08905 59.55194 55.79419
#
# Poissons Ratio (x) = 0.16752 0.37460
# Poissons Ratio (y) = 0.17184 0.35270
# Poissons Ratio (z) = 0.41015 0.37646
#
# Static dielectric constant tensor:
#      x y z
#    x 2.866920 0.000000 0.000000 
#    y 0.000000 3.170830 0.000000 
#    z 0.000000 0.000000 2.936110 
# 
# 
# High freq. dielectric constant tensor:
#      x y z
#    x 1.592880 0.000000 0.000000 
#    y 0.000000 1.628770 0.000000 
#    z 0.000000 0.000000 1.623320 
# 
# From -- ./inp_files/25236.got.cif
#   From: 2010.03.12/outbox.cif.g09.slc.cpg/sg53_13_cif.got.tgz:25236.got - 2010.04.16 14:36:59.
