data_PCOD8218198
_publ_section_title
;
Structure prediction by ZEFSAII (Michael W. Deem and Ramdas Pophale) SiO2 
 PCOD8218198
Probable space group: P M N A
;
_chemical_formula_sum "Si O2"
_cell_formula_units_Z 48
_cell_length_a 8.583918
_cell_length_b 15.215248
_cell_length_c 20.512451
_cell_angle_alpha 90.000000
_cell_angle_beta 90.000000
_cell_angle_gamma 90.000000
_cell_volume 2679.058225
_symmetry_space_group_name_H-M "P M N A"
_symmetry_group_IT_number 53
_symmetry_cell_setting 'orthorhombic'
loop_
_space_group_symop_operation_xyz
x,y,z
1/2-x,-y,1/2+z
x,-y,-z
1/2-x,y,1/2-z
-x,-y,-z
1/2+x,y,1/2-z
-x,y,z
1/2+x,-y,1/2+z
loop_
_atom_site_type_symbol
_atom_site_label
_atom_site_fract_x
_atom_site_fract_y
_atom_site_fract_z
Si Si1 0.673775 0.236102 0.010439
Si Si2 0.184408 0.617649 0.817016
Si Si3 0.823961 0.806177 0.657141
Si Si4 0.814255 0.422362 0.452063
Si Si5 0.814341 0.067200 0.554041
Si Si6 0.317714 0.011260 0.316403
O O1 0.500000 0.255628 0.985652
O O2 0.752868 0.165976 0.961055
O O3 0.671684 0.187154 0.079542
O O4 0.756302 0.331569 0.017201
O O5 0.250000 0.574359 0.750000
O O6 0.246365 0.716713 0.819345
O O7 0.244830 0.562879 0.879810
O O8 0.000000 0.615767 0.816366
O O9 0.721245 0.885641 0.683573
O O10 0.000000 0.812406 0.684965
O O11 0.761864 0.500000 0.500000
O O12 0.000000 0.415903 0.444468
O O13 0.000000 0.069048 0.549436
O O14 0.746800 0.000000 0.500000
O O15 0.763147 0.040094 0.625261
O O16 0.250000 0.969683 0.250000
O O17 0.500000 0.996305 0.320639
#
# Coordination Sequence:
#
# PCOD8218198 Si02
#       6
#     8   8   8   8   8   8
#     4   8  15  29  52  77 101 133 170 207 254 308
#     4  11  21  33  50  76 108 141 174 214 264 318
#     4  10  18  33  52  74 104 139 174 209 258 317
#     4   9  18  34  56  81 108 139 175 215 262 319
#     4  10  18  33  54  75 101 138 176 212 256 309
#     4  12  24  35  48  71 103 140 180 223 267 310
#
# _framework density 17.916744999999999
#
# number of rings (size 3 to 8) (size 9 to 14) (size 15 to 20)
#    0.000    2.000    1.667    5.000    0.000    0.667 
#    0.000    0.833    0.000    1.000    0.000    0.000 
#    0.000    0.000    0.000    0.000    0.000    0.000 
#
# Total GULP energy -594970.310711 kJ/mol
# GULP energy per Si atom -12395.214806 kJ/mol
# Density = 1.787597 g / cm^3
# Si number density = 17.916745 Si / 1000 Ang^3
#
#
#
# Elastic Constant Matrix: (Units=GPa)
#
#
# Indices 1 2 3 4 5 6 
#
# 1 42.0034 13.9609 14.2309 0.0000 0.0000 0.0000
# 2 13.9609 79.1916 58.9948 0.0000 0.0000 0.0000
# 3 14.2309 58.9948 130.2296 0.0000 0.0000 0.0000
# 4 0.0000 0.0000 0.0000 21.3200 0.0000 0.0000
# 5 0.0000 0.0000 0.0000 0.0000 27.6062 0.0000
# 6 0.0000 0.0000 0.0000 0.0000 0.0000 11.6903
#
#
#
# Elastic Compliance Matrix: (Units=1/GPa)
#
#
# Indices 1 2 3 4 5 6 
#
# 1 0.025399 -0.003638 -0.001128 0.000000 0.000000 0.000000
# 2 -0.003638 0.019581 -0.008473 0.000000 0.000000 0.000000
# 3 -0.001128 -0.008473 0.011640 0.000000 0.000000 0.000000
# 4 0.000000 0.000000 0.000000 0.046904 0.000000 0.000000
# 5 0.000000 0.000000 0.000000 0.000000 0.036224 0.000000
# 6 0.000000 0.000000 0.000000 0.000000 0.000000 0.085541
#
#
# Mechanical properties :
#
#
# Convention : Reuss Voigt Hill
#
# Bulk Modulus (GPa) = 33.17432 47.31085 40.24259
# Shear Modulus (GPa) = 19.09765 23.07250 21.08508
#
# Velocity S-wave (km/s) = 3.26837 3.59243 3.43423
# Velocity P-wave (km/s) = 5.72704 6.60838 6.18343
#
# Compressibility (1/GPa) = 0.03014380
#
# Stress axis : x y z
#
# Youngs Moduli (GPa) = 39.37213 51.07072 85.90963
#
# Poissons Ratio (x) = 0.18577 0.09687
# Poissons Ratio (y) = 0.14322 0.72788
# Poissons Ratio (z) = 0.04440 0.43271
#
# Static dielectric constant tensor:
#      x y z
#    x 3.146230 0.000000 0.000000 
#    y 0.000000 3.265970 0.000000 
#    z 0.000000 0.000000 3.543930 
# 
# 
# High freq. dielectric constant tensor:
#      x y z
#    x 1.678670 0.000000 0.000000 
#    y 0.000000 1.665760 0.000000 
#    z 0.000000 0.000000 1.697310 
# 
# From -- ./inp_files/30516.got.cif
#   From: 2010.03.12/outbox.cif.g09.slc.cpg/sg53_16_cif.got.tgz:30516.got - 2010.04.16 14:36:59.
