data_PCOD8218270
_publ_section_title
;
Structure prediction by ZEFSAII (Michael W. Deem and Ramdas Pophale) SiO2 
 PCOD8218270
Probable space group: P M N A
;
_chemical_formula_sum "Si O2"
_cell_formula_units_Z 64
_cell_length_a 18.119572
_cell_length_b 11.337367
_cell_length_c 16.906493
_cell_angle_alpha 90.000000
_cell_angle_beta 90.000000
_cell_angle_gamma 90.000000
_cell_volume 3473.071062
_symmetry_space_group_name_H-M "P M N A"
_symmetry_group_IT_number 53
_symmetry_cell_setting 'orthorhombic'
loop_
_space_group_symop_operation_xyz
x,y,z
1/2-x,-y,1/2+z
x,-y,-z
1/2-x,y,1/2-z
-x,-y,-z
1/2+x,y,1/2-z
-x,y,z
1/2+x,-y,1/2+z
loop_
_atom_site_type_symbol
_atom_site_label
_atom_site_fract_x
_atom_site_fract_y
_atom_site_fract_z
Si Si1 0.211730 0.795060 0.328446
Si Si2 0.824508 0.464542 0.717170
Si Si3 0.084853 0.523881 0.127066
Si Si4 0.083250 0.937694 0.384214
Si Si5 0.584327 0.430127 0.077702
Si Si6 0.216025 0.860937 0.008825
Si Si7 0.413922 0.309942 0.480787
Si Si8 0.372585 0.168389 0.050074
O O1 0.250000 0.840598 0.250000
O O2 0.197072 0.655704 0.327263
O O3 0.134031 0.862217 0.326577
O O4 0.264570 0.827583 0.401325
O O5 0.750000 0.527133 0.750000
O O6 0.873971 0.440623 0.793464
O O7 0.865354 0.544853 0.653507
O O8 0.103391 0.620080 0.060916
O O9 0.000000 0.526831 0.149020
O O10 0.105079 0.393865 0.093891
O O11 0.093124 0.884922 0.471024
O O12 0.000000 0.923863 0.354500
O O13 0.107077 0.075458 0.380996
O O14 0.500000 0.467901 0.095386
O O15 0.587911 0.291449 0.064216
O O16 0.613214 0.500000 0.000000
O O17 0.140236 0.802063 0.978678
O O18 0.284132 0.816821 0.954708
O O19 0.206171 0.000000 0.000000
O O20 0.500000 0.270106 0.477861
#
# Coordination Sequence:
#
# PCOD8218270 Si02
#       8
#     8   8   8   8   8   8   8   8
#     4  10  21  38  55  82 117 147 188 241 288 340
#     4  11  23  37  55  87 117 152 191 233 294 355
#     4   9  19  38  59  84 118 152 187 237 291 341
#     4  10  18  34  59  82 104 144 191 229 276 336
#     4  11  23  37  56  84 119 154 189 240 297 350
#     4  11  20  37  60  82 113 155 192 240 291 335
#     4   9  19  35  61  89 113 152 198 237 283 344
#     4  10  19  35  55  83 110 143 187 233 280 340
#
# _framework density 18.427495
#
# number of rings (size 3 to 8) (size 9 to 14) (size 15 to 20)
#    0.000    1.875    2.500    5.625    1.750    2.250 
#    0.000    2.500    0.000    1.500    0.000    0.000 
#    0.000    0.000    0.000    0.000    0.000    0.000 
#
# Total GULP energy -793472.111028 kJ/mol
# GULP energy per Si atom -12398.001735 kJ/mol
# Density = 1.838555 g / cm^3
# Si number density = 18.427495 Si / 1000 Ang^3
#
#
#
# Elastic Constant Matrix: (Units=GPa)
#
#
# Indices 1 2 3 4 5 6 
#
# 1 113.6295 37.0348 32.0917 0.0000 0.0000 0.0000
# 2 37.0348 90.8267 31.6196 0.0000 0.0000 0.0000
# 3 32.0917 31.6196 64.1157 0.0000 0.0000 0.0000
# 4 0.0000 0.0000 0.0000 20.2914 0.0000 0.0000
# 5 0.0000 0.0000 0.0000 0.0000 23.1857 0.0000
# 6 0.0000 0.0000 0.0000 0.0000 0.0000 32.9059
#
#
#
# Elastic Compliance Matrix: (Units=1/GPa)
#
#
# Indices 1 2 3 4 5 6 
#
# 1 0.010918 -0.003078 -0.003947 0.000000 0.000000 0.000000
# 2 -0.003078 0.014160 -0.005442 0.000000 0.000000 0.000000
# 3 -0.003947 -0.005442 0.020256 0.000000 0.000000 0.000000
# 4 0.000000 0.000000 0.000000 0.049282 0.000000 0.000000
# 5 0.000000 0.000000 0.000000 0.000000 0.043130 0.000000
# 6 0.000000 0.000000 0.000000 0.000000 0.000000 0.030390
#
#
# Mechanical properties :
#
#
# Convention : Reuss Voigt Hill
#
# Bulk Modulus (GPa) = 49.02038 52.22934 50.62486
# Shear Modulus (GPa) = 25.01611 26.46498 25.74055
#
# Velocity S-wave (km/s) = 3.68848 3.79379 3.74151
# Velocity P-wave (km/s) = 6.69323 6.89892 6.79686
#
# Compressibility (1/GPa) = 0.02039968
#
# Stress axis : x y z
#
# Youngs Moduli (GPa) = 91.58803 70.62295 49.36698
#
# Poissons Ratio (x) = 0.21737 0.19485
# Poissons Ratio (y) = 0.28190 0.26868
# Poissons Ratio (z) = 0.36150 0.38436
#
# Static dielectric constant tensor:
#      x y z
#    x 3.606410 0.000000 0.000000 
#    y 0.000000 3.390850 0.000000 
#    z 0.000000 0.000000 3.245330 
# 
# 
# High freq. dielectric constant tensor:
#      x y z
#    x 1.728360 0.000000 0.000000 
#    y 0.000000 1.710420 0.000000 
#    z 0.000000 0.000000 1.694860 
# 
# From -- ./inp_files/29122.got.cif
#   From: 2010.03.12/outbox.cif.g09.slc.cpg/sg53_15_cif.got.tgz:29122.got - 2010.04.16 14:36:59.
