data_PCOD8218996
_publ_section_title
;
Structure prediction by ZEFSAII (Michael W. Deem and Ramdas Pophale) SiO2 
 PCOD8218996
Probable space group: P M N A
;
_chemical_formula_sum "Si O2"
_cell_formula_units_Z 64
_cell_length_a 8.531993
_cell_length_b 19.705349
_cell_length_c 20.802112
_cell_angle_alpha 90.000000
_cell_angle_beta 90.000000
_cell_angle_gamma 90.000000
_cell_volume 3497.373796
_symmetry_space_group_name_H-M "P M N A"
_symmetry_group_IT_number 53
_symmetry_cell_setting 'orthorhombic'
loop_
_space_group_symop_operation_xyz
x,y,z
1/2-x,-y,1/2+z
x,-y,-z
1/2-x,y,1/2-z
-x,-y,-z
1/2+x,y,1/2-z
-x,y,z
1/2+x,-y,1/2+z
loop_
_atom_site_type_symbol
_atom_site_label
_atom_site_fract_x
_atom_site_fract_y
_atom_site_fract_z
Si Si1 0.814777 0.456540 0.817359
Si Si2 0.317112 0.827822 0.130250
Si Si3 0.683849 0.678963 0.514826
Si Si4 0.686871 0.539830 0.562704
Si Si5 0.183755 0.827949 0.989516
Si Si6 0.816076 0.039255 0.818184
Si Si7 0.814548 0.685751 0.130124
Si Si8 0.815648 0.958379 0.562388
O O1 0.750000 0.483511 0.750000
O O2 0.744146 0.504365 0.873444
O O3 0.762072 0.378465 0.827487
O O4 0.000000 0.461245 0.817831
O O5 0.500000 0.841074 0.140446
O O6 0.222121 0.881549 0.172796
O O7 0.270793 0.753247 0.155898
O O8 0.276555 0.838775 0.055596
O O9 0.500000 0.668241 0.513108
O O10 0.751644 0.617715 0.558708
O O11 0.727499 0.754108 0.540965
O O12 0.745357 0.671524 0.442086
O O13 0.747458 0.500000 0.500000
O O14 0.500000 0.536788 0.565333
O O15 0.232844 0.884850 0.938504
O O16 0.000000 0.831356 0.005522
O O17 0.750000 0.013947 0.750000
O O18 0.000000 0.026449 0.821439
O O19 0.732436 0.996237 0.873343
O O20 0.000000 0.698325 0.131762
O O21 0.000000 0.947627 0.560808
O O22 0.757703 0.000000 0.500000
#
# Coordination Sequence:
#
# PCOD8218996 Si02
#       8
#     8   8   8   8   8   8   8   8
#     4  10  20  32  50  74 104 139 174 217 266 319
#     4  11  21  34  52  78 111 147 183 220 265 321
#     4   8  14  26  48  78 104 127 171 228 270 309
#     4   9  14  26  51  78 100 129 176 226 266 305
#     4  10  19  32  54  83 111 141 180 228 277 322
#     4  12  25  41  60  82 112 147 185 227 275 326
#     4   9  17  31  49  72 101 138 180 220 262 312
#     4  11  22  37  59  85 114 146 185 227 272 324
#
# _framework density 18.299446
#
# number of rings (size 3 to 8) (size 9 to 14) (size 15 to 20)
#    0.000    2.000    2.500    3.750    0.000    1.500 
#    0.000    1.250    0.000    4.875    0.000    1.750 
#    0.000    0.000    0.000    0.000    0.000    0.000 
#
# Total GULP energy -793480.712169 kJ/mol
# GULP energy per Si atom -12398.136128 kJ/mol
# Density = 1.825780 g / cm^3
# Si number density = 18.299446 Si / 1000 Ang^3
#
#
#
# Elastic Constant Matrix: (Units=GPa)
#
#
# Indices 1 2 3 4 5 6 
#
# 1 34.3829 16.9635 5.8323 0.0000 0.0000 0.0000
# 2 16.9635 124.1586 58.0088 0.0000 0.0000 0.0000
# 3 5.8323 58.0088 106.6790 0.0000 0.0000 0.0000
# 4 0.0000 0.0000 0.0000 24.9421 0.0000 0.0000
# 5 0.0000 0.0000 0.0000 0.0000 24.0321 0.0000
# 6 0.0000 0.0000 0.0000 0.0000 0.0000 14.1501
#
#
#
# Elastic Compliance Matrix: (Units=1/GPa)
#
#
# Indices 1 2 3 4 5 6 
#
# 1 0.031240 -0.004652 0.000822 0.000000 0.000000 0.000000
# 2 -0.004652 0.011490 -0.005994 0.000000 0.000000 0.000000
# 3 0.000822 -0.005994 0.012588 0.000000 0.000000 0.000000
# 4 0.000000 0.000000 0.000000 0.040093 0.000000 0.000000
# 5 0.000000 0.000000 0.000000 0.000000 0.041611 0.000000
# 6 0.000000 0.000000 0.000000 0.000000 0.000000 0.070671
#
#
# Mechanical properties :
#
#
# Convention : Reuss Voigt Hill
#
# Bulk Modulus (GPa) = 28.03457 47.42551 37.73004
# Shear Modulus (GPa) = 20.90026 24.91924 22.90975
#
# Velocity S-wave (km/s) = 3.38320 3.69419 3.54211
# Velocity P-wave (km/s) = 5.53304 6.64595 6.11487
#
# Compressibility (1/GPa) = 0.03567024
#
# Stress axis : x y z
#
# Youngs Moduli (GPa) = 32.01015 87.03101 79.43980
#
# Poissons Ratio (x) = 0.40489 -0.06528
# Poissons Ratio (y) = 0.14892 0.47613
# Poissons Ratio (z) = -0.02630 0.52163
#
# Static dielectric constant tensor:
#      x y z
#    x 3.109150 0.000000 0.000000 
#    y 0.000000 3.731810 0.000000 
#    z 0.000000 0.000000 3.371410 
# 
# 
# High freq. dielectric constant tensor:
#      x y z
#    x 1.689720 0.000000 0.000000 
#    y 0.000000 1.718630 0.000000 
#    z 0.000000 0.000000 1.682670 
# 
# From -- ./inp_files/26898.got.cif
#   From: 2010.03.12/outbox.cif.g09.slc.cpg/sg53_14_cif.got.tgz:26898.got - 2010.04.16 14:36:59.
