data_PCOD8218353
_publ_section_title
;
Structure prediction by ZEFSAII (Michael W. Deem and Ramdas Pophale) SiO2 
 PCOD8218353
Probable space group: P M N A
;
_chemical_formula_sum "Si O2"
_cell_formula_units_Z 48
_cell_length_a 9.258973
_cell_length_b 15.146961
_cell_length_c 20.412752
_cell_angle_alpha 90.000000
_cell_angle_beta 90.000000
_cell_angle_gamma 90.000000
_cell_volume 2862.792588
_symmetry_space_group_name_H-M "P M N A"
_symmetry_group_IT_number 53
_symmetry_cell_setting 'orthorhombic'
loop_
_space_group_symop_operation_xyz
x,y,z
1/2-x,-y,1/2+z
x,-y,-z
1/2-x,y,1/2-z
-x,-y,-z
1/2+x,y,1/2-z
-x,y,z
1/2+x,-y,1/2+z
loop_
_atom_site_type_symbol
_atom_site_label
_atom_site_fract_x
_atom_site_fract_y
_atom_site_fract_z
Si Si1 0.162525 0.245157 0.990045
Si Si2 0.670077 0.415605 0.959026
Si Si3 0.831053 0.008062 0.812197
Si Si4 0.170373 0.622254 0.312690
Si Si5 0.672173 0.068987 0.447391
Si Si6 0.161933 0.206939 0.840924
O O1 0.261158 0.331313 0.994218
O O2 0.164937 0.201693 0.918876
O O3 0.000000 0.273288 0.009381
O O4 0.223684 0.169254 0.038278
O O5 0.500000 0.403935 0.963837
O O6 0.715925 0.423339 0.882011
O O7 0.724069 0.500000 0.000000
O O8 0.750000 0.966537 0.750000
O O9 0.793266 0.111397 0.815457
O O10 0.000000 0.992152 0.804388
O O11 0.770956 0.957981 0.875962
O O12 0.250000 0.576058 0.250000
O O13 0.221102 0.724001 0.314040
O O14 0.000000 0.616872 0.301810
O O15 0.500000 0.064838 0.451260
O O16 0.737352 0.000000 0.500000
O O17 0.000000 0.234114 0.817491
#
# Coordination Sequence:
#
# PCOD8218353 Si02
#       6
#     8   8   8   8   8   8
#     4   9  16  28  50  75  93 116 158 203 234 268
#     4   9  19  35  52  70  96 127 155 188 241 295
#     4  10  19  29  43  64  93 128 162 195 232 276
#     4  10  19  30  46  68  95 124 152 185 229 284
#     4   9  15  28  49  69  91 124 163 195 229 274
#     4   9  16  27  44  67  94 123 153 187 229 276
#
# _framework density 16.766843999999999
#
# number of rings (size 3 to 8) (size 9 to 14) (size 15 to 20)
#    0.000    2.667    1.667    1.000    0.000    3.000 
#    0.000    0.833    0.000    2.000    0.000    7.000 
#    0.000    0.000    0.000    0.000    0.000    0.000 
#
# Total GULP energy -595007.811265 kJ/mol
# GULP energy per Si atom -12395.996068 kJ/mol
# Density = 1.672868 g / cm^3
# Si number density = 16.766844 Si / 1000 Ang^3
#
#
#
# Elastic Constant Matrix: (Units=GPa)
#
#
# Indices 1 2 3 4 5 6 
#
# 1 40.3724 32.0325 38.2951 0.0000 0.0000 0.0000
# 2 32.0325 86.4078 69.2474 0.0000 0.0000 0.0000
# 3 38.2951 69.2474 132.9166 0.0000 0.0000 0.0000
# 4 0.0000 0.0000 0.0000 21.7879 0.0000 0.0000
# 5 0.0000 0.0000 0.0000 0.0000 22.3974 0.0000
# 6 0.0000 0.0000 0.0000 0.0000 0.0000 14.4275
#
#
#
# Elastic Compliance Matrix: (Units=1/GPa)
#
#
# Indices 1 2 3 4 5 6 
#
# 1 0.037823 -0.009079 -0.006167 0.000000 0.000000 0.000000
# 2 -0.009079 0.022048 -0.008871 0.000000 0.000000 0.000000
# 3 -0.006167 -0.008871 0.013922 0.000000 0.000000 0.000000
# 4 0.000000 0.000000 0.000000 0.045897 0.000000 0.000000
# 5 0.000000 0.000000 0.000000 0.000000 0.044648 0.000000
# 6 0.000000 0.000000 0.000000 0.000000 0.000000 0.069312
#
#
# Mechanical properties :
#
#
# Convention : Reuss Voigt Hill
#
# Bulk Modulus (GPa) = 39.12589 59.87185 49.49887
# Shear Modulus (GPa) = 17.21744 19.73067 18.47405
#
# Velocity S-wave (km/s) = 3.20796 3.43413 3.32297
# Velocity P-wave (km/s) = 6.09158 7.17707 6.65649
#
# Compressibility (1/GPa) = 0.02555853
#
# Stress axis : x y z
#
# Youngs Moduli (GPa) = 26.43906 45.35609 71.82928
#
# Poissons Ratio (x) = 0.41179 0.44299
# Poissons Ratio (y) = 0.24004 0.63718
# Poissons Ratio (z) = 0.16306 0.40234
#
# Static dielectric constant tensor:
#      x y z
#    x 2.940340 0.000000 0.000000 
#    y 0.000000 2.968080 0.000000 
#    z 0.000000 0.000000 3.410270 
# 
# 
# High freq. dielectric constant tensor:
#      x y z
#    x 1.627640 0.000000 0.000000 
#    y 0.000000 1.615870 0.000000 
#    z 0.000000 0.000000 1.651780 
# 
# From -- ./inp_files/30471.got.cif
#   From: 2010.03.12/outbox.cif.g09.slc.cpg/sg53_16_cif.got.tgz:30471.got - 2010.04.16 14:36:59.
