data_PCOD8218493
_publ_section_title
;
Structure prediction by ZEFSAII (Michael W. Deem and Ramdas Pophale) SiO2 
 PCOD8218493
Probable space group: P M N A
;
_chemical_formula_sum "Si O2"
_cell_formula_units_Z 64
_cell_length_a 8.844675
_cell_length_b 16.426849
_cell_length_c 22.495679
_cell_angle_alpha 90.000000
_cell_angle_beta 90.000000
_cell_angle_gamma 90.000000
_cell_volume 3268.400367
_symmetry_space_group_name_H-M "P M N A"
_symmetry_group_IT_number 53
_symmetry_cell_setting 'orthorhombic'
loop_
_space_group_symop_operation_xyz
x,y,z
1/2-x,-y,1/2+z
x,-y,-z
1/2-x,y,1/2-z
-x,-y,-z
1/2+x,y,1/2-z
-x,y,z
1/2+x,-y,1/2+z
loop_
_atom_site_type_symbol
_atom_site_label
_atom_site_fract_x
_atom_site_fract_y
_atom_site_fract_z
Si Si1 0.322997 0.501811 0.920989
Si Si2 0.821413 0.020917 0.686133
Si Si3 0.823489 0.674199 0.191856
Si Si4 0.169792 0.188672 0.632636
Si Si5 0.677320 0.046112 0.058893
Si Si6 0.170186 0.792005 0.499022
Si Si7 0.177248 0.377030 0.989868
Si Si8 0.322101 0.488890 0.307979
O O1 0.500000 0.481928 0.917003
O O2 0.288918 0.566665 0.971912
O O3 0.260071 0.551344 0.864059
O O4 0.224512 0.416124 0.925855
O O5 0.750000 0.992277 0.750000
O O6 0.779259 0.115435 0.675605
O O7 0.000000 0.006656 0.691446
O O8 0.758641 0.976107 0.625422
O O9 0.750000 0.715663 0.250000
O O10 0.775409 0.731819 0.137411
O O11 0.765098 0.582224 0.187653
O O12 0.000000 0.674267 0.197904
O O13 0.180596 0.160306 0.563998
O O14 0.000000 0.215304 0.648619
O O15 0.500000 0.026351 0.059999
O O16 0.710752 0.142554 0.049924
O O17 0.746889 0.000000 0.000000
O O18 0.286373 0.717147 0.499972
O O19 0.000000 0.758182 0.508213
O O20 0.000000 0.391492 0.002459
O O21 0.250000 0.447409 0.250000
O O22 0.500000 0.475490 0.309225
#
# Coordination Sequence:
#
# PCOD8218493 Si02
#       8
#     8   8   8   8   8   8   8   8
#     4  11  21  36  57  80 108 142 185 231 275 331
#     4  10  20  34  53  79 108 143 183 225 278 333
#     4  10  20  31  44  64  97 138 178 216 259 315
#     4  10  19  30  48  73 103 136 174 219 268 323
#     4   9  16  33  59  82 106 141 188 235 275 323
#     4  10  19  33  56  82 105 136 183 232 273 326
#     4  11  22  36  54  80 113 146 177 222 284 342
#     4  10  20  34  51  74 104 142 183 225 273 330
#
# _framework density 19.581443
#
# number of rings (size 3 to 8) (size 9 to 14) (size 15 to 20)
#    0.000    1.875    1.250    4.875    0.000    5.500 
#    0.000    0.625    0.000    1.500    0.000    3.500 
#    0.000    0.000    0.000    0.000    0.000    0.000 
#
# Total GULP energy -792886.602830 kJ/mol
# GULP energy per Si atom -12388.853169 kJ/mol
# Density = 1.953688 g / cm^3
# Si number density = 19.581443 Si / 1000 Ang^3
#
#
#
# Elastic Constant Matrix: (Units=GPa)
#
#
# Indices 1 2 3 4 5 6 
#
# 1 70.9360 13.4230 15.8508 0.0000 0.0000 0.0000
# 2 13.4230 46.6923 17.6503 0.0000 0.0000 0.0000
# 3 15.8508 17.6503 92.7768 0.0000 0.0000 0.0000
# 4 0.0000 0.0000 0.0000 21.0312 0.0000 0.0000
# 5 0.0000 0.0000 0.0000 0.0000 28.6242 0.0000
# 6 0.0000 0.0000 0.0000 0.0000 0.0000 20.6032
#
#
#
# Elastic Compliance Matrix: (Units=1/GPa)
#
#
# Indices 1 2 3 4 5 6 
#
# 1 0.015214 -0.003654 -0.001904 0.000000 0.000000 0.000000
# 2 -0.003654 0.023954 -0.003933 0.000000 0.000000 0.000000
# 3 -0.001904 -0.003933 0.011852 0.000000 0.000000 0.000000
# 4 0.000000 0.000000 0.000000 0.047548 0.000000 0.000000
# 5 0.000000 0.000000 0.000000 0.000000 0.034935 0.000000
# 6 0.000000 0.000000 0.000000 0.000000 0.000000 0.048536
#
#
# Mechanical properties :
#
#
# Convention : Reuss Voigt Hill
#
# Bulk Modulus (GPa) = 31.21269 33.80591 32.50930
# Shear Modulus (GPa) = 23.61820 24.95048 24.28434
#
# Velocity S-wave (km/s) = 3.47674 3.57345 3.52543
# Velocity P-wave (km/s) = 5.66493 5.85899 5.76278
#
# Compressibility (1/GPa) = 0.03203825
#
# Stress axis : x y z
#
# Youngs Moduli (GPa) = 65.72843 41.74686 84.37331
#
# Poissons Ratio (x) = 0.15254 0.16066
# Poissons Ratio (y) = 0.24017 0.33183
# Poissons Ratio (z) = 0.12516 0.16418
#
# Static dielectric constant tensor:
#      x y z
#    x 3.260070 0.000000 0.000000 
#    y 0.000000 3.263420 0.000000 
#    z 0.000000 0.000000 4.069840 
# 
# 
# High freq. dielectric constant tensor:
#      x y z
#    x 1.743030 0.000000 0.000000 
#    y 0.000000 1.729380 0.000000 
#    z 0.000000 0.000000 1.776270 
# 
# From -- ./inp_files/31256.got.cif
#   From: 2010.03.12/outbox.cif.g09.slc.cpg/sg53_16_cif.got.tgz:31256.got - 2010.04.16 14:36:59.
