data_PCOD8218807
_publ_section_title
;
Structure prediction by ZEFSAII (Michael W. Deem and Ramdas Pophale) SiO2 
 PCOD8218807
Probable space group: P M N A
;
_chemical_formula_sum "Si O2"
_cell_formula_units_Z 56
_cell_length_a 9.024578
_cell_length_b 14.967016
_cell_length_c 20.696210
_cell_angle_alpha 90.000000
_cell_angle_beta 90.000000
_cell_angle_gamma 90.000000
_cell_volume 2795.457850
_symmetry_space_group_name_H-M "P M N A"
_symmetry_group_IT_number 53
_symmetry_cell_setting 'orthorhombic'
loop_
_space_group_symop_operation_xyz
x,y,z
1/2-x,-y,1/2+z
x,-y,-z
1/2-x,y,1/2-z
-x,-y,-z
1/2+x,y,1/2-z
-x,y,z
1/2+x,-y,1/2+z
loop_
_atom_site_type_symbol
_atom_site_label
_atom_site_fract_x
_atom_site_fract_y
_atom_site_fract_z
Si Si1 0.166179 0.848485 0.187910
Si Si2 0.676263 0.915554 0.543052
Si Si3 0.835175 0.262882 0.485135
Si Si4 0.334019 0.940552 0.686473
Si Si5 0.333660 0.291398 0.872093
Si Si6 0.326235 0.449416 0.065182
Si Si7 0.676347 0.543678 0.316510
O O1 0.250000 0.809935 0.250000
O O2 0.261763 0.808080 0.129271
O O3 0.000000 0.811458 0.185625
O O4 0.167293 0.953693 0.186825
O O5 0.500000 0.922334 0.544680
O O6 0.723542 0.820493 0.514035
O O7 0.738358 0.915296 0.617154
O O8 0.736235 0.000000 0.500000
O O9 0.834599 0.316463 0.552871
O O10 0.793590 0.342517 0.436215
O O11 0.000000 0.224997 0.471053
O O12 0.250000 0.902542 0.750000
O O13 0.500000 0.902556 0.691372
O O14 0.500000 0.292872 0.843636
O O15 0.230167 0.355939 0.830481
O O16 0.500000 0.469058 0.077590
O O17 0.230242 0.481580 0.125323
O O18 0.274069 0.500000 0.000000
O O19 0.750000 0.509426 0.250000
O O20 0.500000 0.540050 0.310601
#
# Coordination Sequence:
#
# PCOD8218807 Si02
#       7
#     8   8   8   8   8   8   8
#     4  10  19  32  50  76 109 148 193 241 294 357
#     4  10  21  38  59  86 122 159 199 253 306 353
#     4  10  22  38  61  89 116 154 198 243 301 361
#     4   9  19  35  55  78 109 152 197 244 303 356
#     4  11  21  36  55  81 117 155 193 238 300 364
#     4  10  20  42  67  88 121 160 197 246 303 360
#     4  12  25  40  61  90 122 159 203 250 303 360
#
# _framework density 20.032495999999998
#
# number of rings (size 3 to 8) (size 9 to 14) (size 15 to 20)
#    0.000    1.714    1.429    3.429    0.000    4.571 
#    0.000    0.714    0.000    1.714    0.000    0.000 
#    0.000    0.000    0.000    0.000    0.000    0.000 
#
# Total GULP energy -694086.573925 kJ/mol
# GULP energy per Si atom -12394.403106 kJ/mol
# Density = 1.998690 g / cm^3
# Si number density = 20.032496 Si / 1000 Ang^3
#
#
#
# Elastic Constant Matrix: (Units=GPa)
#
#
# Indices 1 2 3 4 5 6 
#
# 1 104.9882 33.5998 50.3508 0.0000 0.0000 0.0000
# 2 33.5998 67.6886 32.5641 0.0000 0.0000 0.0000
# 3 50.3508 32.5641 126.9111 0.0000 0.0000 0.0000
# 4 0.0000 0.0000 0.0000 30.3967 0.0000 0.0000
# 5 0.0000 0.0000 0.0000 0.0000 31.9503 0.0000
# 6 0.0000 0.0000 0.0000 0.0000 0.0000 28.9463
#
#
#
# Elastic Compliance Matrix: (Units=1/GPa)
#
#
# Indices 1 2 3 4 5 6 
#
# 1 0.012853 -0.004480 -0.003950 0.000000 0.000000 0.000000
# 2 -0.004480 0.018415 -0.002948 0.000000 0.000000 0.000000
# 3 -0.003950 -0.002948 0.010203 0.000000 0.000000 0.000000
# 4 0.000000 0.000000 0.000000 0.032898 0.000000 0.000000
# 5 0.000000 0.000000 0.000000 0.000000 0.031299 0.000000
# 6 0.000000 0.000000 0.000000 0.000000 0.000000 0.034547
#
#
# Mechanical properties :
#
#
# Convention : Reuss Voigt Hill
#
# Bulk Modulus (GPa) = 53.42935 59.17968 56.30451
# Shear Modulus (GPa) = 29.54934 30.46355 30.00645
#
# Velocity S-wave (km/s) = 3.84483 3.90385 3.87446
# Velocity P-wave (km/s) = 6.81466 7.06584 6.94138
#
# Compressibility (1/GPa) = 0.01871631
#
# Stress axis : x y z
#
# Youngs Moduli (GPa) = 77.80396 54.30224 98.01073
#
# Poissons Ratio (x) = 0.24326 0.38712
# Poissons Ratio (y) = 0.34855 0.28893
# Poissons Ratio (z) = 0.30731 0.16008
#
# Static dielectric constant tensor:
#      x y z
#    x 3.637350 0.000000 0.000000 
#    y 0.000000 3.379420 0.000000 
#    z 0.000000 0.000000 3.927090 
# 
# 
# High freq. dielectric constant tensor:
#      x y z
#    x 1.775740 0.000000 0.000000 
#    y 0.000000 1.766770 0.000000 
#    z 0.000000 0.000000 1.788190 
# 
# From -- ./inp_files/30734.got.cif
#   From: 2010.03.12/outbox.cif.g09.slc.cpg/sg53_16_cif.got.tgz:30734.got - 2010.04.16 14:36:59.
