data_PCOD8218841
_publ_section_title
;
Structure prediction by ZEFSAII (Michael W. Deem and Ramdas Pophale) SiO2 
 PCOD8218841
Probable space group: P M N A
;
_chemical_formula_sum "Si O2"
_cell_formula_units_Z 56
_cell_length_a 9.413143
_cell_length_b 15.686235
_cell_length_c 19.823300
_cell_angle_alpha 90.000000
_cell_angle_beta 90.000000
_cell_angle_gamma 90.000000
_cell_volume 2927.044512
_symmetry_space_group_name_H-M "P M N A"
_symmetry_group_IT_number 53
_symmetry_cell_setting 'orthorhombic'
loop_
_space_group_symop_operation_xyz
x,y,z
1/2-x,-y,1/2+z
x,-y,-z
1/2-x,y,1/2-z
-x,-y,-z
1/2+x,y,1/2-z
-x,y,z
1/2+x,-y,1/2+z
loop_
_atom_site_type_symbol
_atom_site_label
_atom_site_fract_x
_atom_site_fract_y
_atom_site_fract_z
Si Si1 0.162221 0.498603 0.313007
Si Si2 0.166133 0.577645 0.453881
Si Si3 0.833301 0.697935 0.683889
Si Si4 0.338254 0.184199 0.408993
Si Si5 0.163173 0.745450 0.049321
Si Si6 0.667231 0.161282 0.683930
Si Si7 0.163642 0.033333 0.185879
O O1 0.250000 0.533857 0.250000
O O2 0.200199 0.556166 0.376637
O O3 0.198745 0.400995 0.330048
O O4 0.000000 0.507572 0.292020
O O5 0.221147 0.500000 0.500000
O O6 0.248316 0.663059 0.472648
O O7 0.000000 0.592900 0.467159
O O8 0.750000 0.729741 0.750000
O O9 0.771990 0.747876 0.620364
O O10 0.000000 0.716611 0.692631
O O11 0.500000 0.210258 0.389621
O O12 0.320016 0.184104 0.490030
O O13 0.302960 0.090413 0.379932
O O14 0.219686 0.785210 0.119251
O O15 0.000000 0.717882 0.057442
O O16 0.750000 0.194888 0.750000
O O17 0.500000 0.172183 0.696350
O O18 0.708345 0.063268 0.669053
O O19 0.250000 0.068933 0.250000
O O20 0.000000 0.038337 0.206532
#
# Coordination Sequence:
#
# PCOD8218841 Si02
#       7
#     8   8   8   8   8   8   8
#     4   9  19  34  52  74  99 130 169 213 259 309
#     4  10  21  38  57  76 102 137 176 215 259 313
#     4  10  19  32  51  75 105 140 175 213 259 309
#     4  10  20  33  50  76 108 139 174 214 256 307
#     4  10  22  37  54  79 107 136 173 217 265 312
#     4   9  19  37  58  79 105 138 176 218 263 311
#     4   9  18  33  54  78 105 139 175 211 253 303
#
# _framework density 19.131926
#
# number of rings (size 3 to 8) (size 9 to 14) (size 15 to 20)
#    0.000    2.429    0.000    1.714    0.000    6.571 
#    0.000    5.714    0.000    0.000    0.000    6.000 
#    0.000    0.000    0.000    0.000    0.000    0.000 
#
# Total GULP energy -694504.796181 kJ/mol
# GULP energy per Si atom -12401.871360 kJ/mol
# Density = 1.908838 g / cm^3
# Si number density = 19.131926 Si / 1000 Ang^3
#
#
#
# Elastic Constant Matrix: (Units=GPa)
#
#
# Indices 1 2 3 4 5 6 
#
# 1 59.1275 34.5658 43.8840 0.0000 0.0000 0.0000
# 2 34.5658 82.1310 53.7876 0.0000 0.0000 0.0000
# 3 43.8840 53.7876 117.3310 0.0000 0.0000 0.0000
# 4 0.0000 0.0000 0.0000 29.9030 0.0000 0.0000
# 5 0.0000 0.0000 0.0000 0.0000 31.0779 0.0000
# 6 0.0000 0.0000 0.0000 0.0000 0.0000 21.8659
#
#
#
# Elastic Compliance Matrix: (Units=1/GPa)
#
#
# Indices 1 2 3 4 5 6 
#
# 1 0.025587 -0.006432 -0.006621 0.000000 0.000000 0.000000
# 2 -0.006432 0.019016 -0.006312 0.000000 0.000000 0.000000
# 3 -0.006621 -0.006312 0.013893 0.000000 0.000000 0.000000
# 4 0.000000 0.000000 0.000000 0.033441 0.000000 0.000000
# 5 0.000000 0.000000 0.000000 0.000000 0.032177 0.000000
# 6 0.000000 0.000000 0.000000 0.000000 0.000000 0.045733
#
#
# Mechanical properties :
#
#
# Convention : Reuss Voigt Hill
#
# Bulk Modulus (GPa) = 50.59309 58.11825 54.35567
# Shear Modulus (GPa) = 23.23765 24.99284 24.11524
#
# Velocity S-wave (km/s) = 3.48889 3.61826 3.55416
# Velocity P-wave (km/s) = 6.53694 6.92093 6.73167
#
# Compressibility (1/GPa) = 0.01976554
#
# Stress axis : x y z
#
# Youngs Moduli (GPa) = 39.08190 52.58621 71.97925
#
# Poissons Ratio (x) = 0.33825 0.47660
# Poissons Ratio (y) = 0.25139 0.45432
# Poissons Ratio (z) = 0.25878 0.33191
#
# Static dielectric constant tensor:
#      x y z
#    x 3.431980 0.000000 0.000000 
#    y 0.000000 3.430900 0.000000 
#    z 0.000000 0.000000 3.597220 
# 
# 
# High freq. dielectric constant tensor:
#      x y z
#    x 1.737490 0.000000 0.000000 
#    y 0.000000 1.735860 0.000000 
#    z 0.000000 0.000000 1.748850 
# 
# From -- ./inp_files/30809.got.cif
#   From: 2010.03.12/outbox.cif.g09.slc.cpg/sg53_16_cif.got.tgz:30809.got - 2010.04.16 14:36:59.
