data_PCOD8218819
_publ_section_title
;
Structure prediction by ZEFSAII (Michael W. Deem and Ramdas Pophale) SiO2 
 PCOD8218819
Probable space group: P M N A
;
_chemical_formula_sum "Si O2"
_cell_formula_units_Z 44
_cell_length_a 26.651486
_cell_length_b 5.311016
_cell_length_c 16.855067
_cell_angle_alpha 90.000000
_cell_angle_beta 90.000000
_cell_angle_gamma 90.000000
_cell_volume 2385.775211
_symmetry_space_group_name_H-M "P M N A"
_symmetry_group_IT_number 53
_symmetry_cell_setting 'orthorhombic'
loop_
_space_group_symop_operation_xyz
x,y,z
1/2-x,-y,1/2+z
x,-y,-z
1/2-x,y,1/2-z
-x,-y,-z
1/2+x,y,1/2-z
-x,y,z
1/2+x,-y,1/2+z
loop_
_atom_site_type_symbol
_atom_site_label
_atom_site_fract_x
_atom_site_fract_y
_atom_site_fract_z
Si Si1 0.115906 0.992070 0.793010
Si Si2 0.206130 0.065237 0.315933
Si Si3 0.244421 0.431144 0.654644
Si Si4 0.091985 0.500000 0.000000
Si Si5 0.556880 0.497663 0.327931
Si Si6 0.325843 0.837135 0.434326
O O1 0.089108 0.265500 0.795810
O O2 0.155307 0.974706 0.865390
O O3 0.149549 0.950045 0.715309
O O4 0.076722 0.764072 0.792045
O O5 0.250000 0.061912 0.250000
O O6 0.214968 0.315011 0.369866
O O7 0.213180 0.817394 0.370088
O O8 0.250000 0.437079 0.750000
O O9 0.296599 0.399884 0.605901
O O10 0.057360 0.536336 0.922980
O O11 0.126418 0.259419 0.983433
O O12 0.500000 0.538141 0.299697
O O13 0.294531 0.000000 0.500000
#
# Coordination Sequence:
#
# PCOD8218819 Si02
#       6
#     8   8   8   4   8   8
#     4  11  21  36  53  73  96 134 178 231 266 305
#     4  10  19  32  51  73  95 121 167 226 258 320
#     4  10  20  30  50  70 101 122 172 218 258 314
#     4  10  23  32  50  66 102 138 190 226 263 296
#     4  11  23  37  51  70  98 137 185 233 270 298
#     4  11  21  33  48  76 101 141 175 230 263 309
#
# _framework density 18.442643
#
# number of rings (size 3 to 8) (size 9 to 14) (size 15 to 20)
#    0.000    1.455    5.455    1.909   10.182    0.000 
#    0.000    2.727    0.000    0.000    0.000    0.000 
#    0.000    0.000    0.000    0.000    0.000   63.636 
#
# Total GULP energy -545074.088785 kJ/mol
# GULP energy per Si atom -12388.047472 kJ/mol
# Density = 1.840067 g / cm^3
# Si number density = 18.442643 Si / 1000 Ang^3
#
#
#
# Elastic Constant Matrix: (Units=GPa)
#
#
# Indices 1 2 3 4 5 6 
#
# 1 95.8024 41.0270 21.9861 0.0000 0.0000 0.0000
# 2 41.0270 146.9895 13.3439 0.0000 0.0000 0.0000
# 3 21.9861 13.3439 15.8868 0.0000 0.0000 0.0000
# 4 0.0000 0.0000 0.0000 1.6894 0.0000 0.0000
# 5 0.0000 0.0000 0.0000 0.0000 19.8827 0.0000
# 6 0.0000 0.0000 0.0000 0.0000 0.0000 37.1277
#
#
#
# Elastic Compliance Matrix: (Units=1/GPa)
#
#
# Indices 1 2 3 4 5 6 
#
# 1 0.016227 -0.002696 -0.020192 0.000000 0.000000 0.000000
# 2 -0.002696 0.007813 -0.002831 0.000000 0.000000 0.000000
# 3 -0.020192 -0.002831 0.093267 0.000000 0.000000 0.000000
# 4 0.000000 0.000000 0.000000 0.591920 0.000000 0.000000
# 5 0.000000 0.000000 0.000000 0.000000 0.050295 0.000000
# 6 0.000000 0.000000 0.000000 0.000000 0.000000 0.026934
#
#
# Mechanical properties :
#
#
# Convention : Reuss Voigt Hill
#
# Bulk Modulus (GPa) = 15.18176 45.71029 30.44603
# Shear Modulus (GPa) = 5.81497 23.89476 14.85486
#
# Velocity S-wave (km/s) = 1.77760 3.60338 2.84115
# Velocity P-wave (km/s) = 3.53028 6.49241 5.22562
#
# Compressibility (1/GPa) = 0.06586852
#
# Stress axis : x y z
#
# Youngs Moduli (GPa) = 61.62698 127.99639 10.72189
#
# Poissons Ratio (x) = 0.34509 0.21650
# Poissons Ratio (y) = 0.16615 0.03035
# Poissons Ratio (z) = 1.24437 0.36236
#
# Static dielectric constant tensor:
#      x y z
#    x 3.199570 0.000000 0.000000 
#    y 0.000000 4.839970 0.000000 
#    z 0.000000 0.000000 3.068060 
# 
# 
# High freq. dielectric constant tensor:
#      x y z
#    x 1.686050 0.000000 0.000000 
#    y 0.000000 1.748050 0.000000 
#    z 0.000000 0.000000 1.654640 
# 
# From -- ./inp_files/32933.got.cif
#   From: 2010.03.12/outbox.cif.g09.slc.cpg/sg53_17_cif.got.tgz:32933.got - 2010.04.16 14:36:59.
