data_PCOD8218304
_publ_section_title
;
Structure prediction by ZEFSAII (Michael W. Deem and Ramdas Pophale) SiO2 
 PCOD8218304
Probable space group: P M N A
;
_chemical_formula_sum "Si O2"
_cell_formula_units_Z 56
_cell_length_a 15.946377
_cell_length_b 13.956060
_cell_length_c 11.615836
_cell_angle_alpha 90.000000
_cell_angle_beta 90.000000
_cell_angle_gamma 90.000000
_cell_volume 2585.087972
_symmetry_space_group_name_H-M "P M N A"
_symmetry_group_IT_number 53
_symmetry_cell_setting 'orthorhombic'
loop_
_space_group_symop_operation_xyz
x,y,z
1/2-x,-y,1/2+z
x,-y,-z
1/2-x,y,1/2-z
-x,-y,-z
1/2+x,y,1/2-z
-x,y,z
1/2+x,-y,1/2+z
loop_
_atom_site_type_symbol
_atom_site_label
_atom_site_fract_x
_atom_site_fract_y
_atom_site_fract_z
Si Si1 0.593732 0.867098 0.340853
Si Si2 0.098939 0.814849 0.547103
Si Si3 0.900661 0.336661 0.261014
Si Si4 0.904695 0.804667 0.919404
Si Si5 0.335520 0.266378 0.818857
Si Si6 0.845541 0.055391 0.264337
Si Si7 0.597751 0.530124 0.130541
O O1 0.500000 0.906416 0.361102
O O2 0.639498 0.841616 0.463209
O O3 0.591451 0.769663 0.266832
O O4 0.645858 0.943545 0.265372
O O5 0.126458 0.730754 0.633897
O O6 0.155969 0.796654 0.435109
O O7 0.122458 0.917080 0.606789
O O8 0.000000 0.811406 0.515889
O O9 0.864738 0.291860 0.140237
O O10 0.870545 0.445092 0.284339
O O11 0.000000 0.334203 0.254154
O O12 0.903285 0.888666 0.826145
O O13 0.000000 0.781471 0.953926
O O14 0.250000 0.245680 0.750000
O O15 0.346161 0.378374 0.842399
O O16 0.750000 0.088098 0.250000
O O17 0.500000 0.553873 0.149835
O O18 0.613358 0.500000 0.000000
#
# Coordination Sequence:
#
# PCOD8218304 Si02
#       7
#     8   8   8   8   8   8   8
#     4  11  23  42  64  87 124 172 215 257 317 397
#     4  10  20  40  67  93 122 167 226 271 315 388
#     4   8  15  32  64  97 116 148 214 273 304 365
#     4   9  19  38  64  90 122 165 211 252 310 394
#     4  12  26  40  58  90 134 168 209 275 341 385
#     4  11  23  38  63  96 128 162 210 273 328 381
#     4  10  18  36  67  94 117 160 221 273 320 387
#
# _framework density 21.662706
#
# number of rings (size 3 to 8) (size 9 to 14) (size 15 to 20)
#    0.000    1.857    1.429    4.286    2.000    1.714 
#    2.571    6.429    0.000    3.429    0.000    0.000 
#    0.000    0.000    0.000    0.000    0.000    0.000 
#
# Total GULP energy -693958.342948 kJ/mol
# GULP energy per Si atom -12392.113267 kJ/mol
# Density = 2.161340 g / cm^3
# Si number density = 21.662706 Si / 1000 Ang^3
#
#
#
# Elastic Constant Matrix: (Units=GPa)
#
#
# Indices 1 2 3 4 5 6 
#
# 1 62.6078 25.0654 44.0378 0.0000 0.0000 0.0000
# 2 25.0654 112.2216 86.5415 0.0000 0.0000 0.0000
# 3 44.0378 86.5415 156.6120 0.0000 0.0000 0.0000
# 4 0.0000 0.0000 0.0000 37.7473 0.0000 0.0000
# 5 0.0000 0.0000 0.0000 0.0000 28.4630 0.0000
# 6 0.0000 0.0000 0.0000 0.0000 0.0000 18.6126
#
#
#
# Elastic Compliance Matrix: (Units=1/GPa)
#
#
# Indices 1 2 3 4 5 6 
#
# 1 0.019914 -0.000226 -0.005475 0.000000 0.000000 0.000000
# 2 -0.000226 0.015530 -0.008518 0.000000 0.000000 0.000000
# 3 -0.005475 -0.008518 0.012632 0.000000 0.000000 0.000000
# 4 0.000000 0.000000 0.000000 0.026492 0.000000 0.000000
# 5 0.000000 0.000000 0.000000 0.000000 0.035133 0.000000
# 6 0.000000 0.000000 0.000000 0.000000 0.000000 0.053727
#
#
# Mechanical properties :
#
#
# Convention : Reuss Voigt Hill
#
# Bulk Modulus (GPa) = 50.92180 71.41453 61.16817
# Shear Modulus (GPa) = 25.20005 28.68438 26.94222
#
# Velocity S-wave (km/s) = 3.41441 3.64282 3.53046
# Velocity P-wave (km/s) = 6.25315 7.12261 6.70200
#
# Compressibility (1/GPa) = 0.01963795
#
# Stress axis : x y z
#
# Youngs Moduli (GPa) = 50.21648 64.38945 79.16545
#
# Poissons Ratio (x) = 0.01455 0.43341
# Poissons Ratio (y) = 0.01135 0.67436
# Poissons Ratio (z) = 0.27492 0.54849
#
# Static dielectric constant tensor:
#      x y z
#    x 3.473250 0.000000 0.000000 
#    y 0.000000 4.021530 0.000000 
#    z 0.000000 0.000000 4.151120 
# 
# 
# High freq. dielectric constant tensor:
#      x y z
#    x 1.822310 0.000000 0.000000 
#    y 0.000000 1.847470 0.000000 
#    z 0.000000 0.000000 1.857010 
# 
# From -- ./inp_files/16025.got.cif
#   From: 2010.03.12/outbox.cif.g09.slc.cpg/sg53_9_cif.got.tgz:16025.got - 2010.04.16 14:36:59.
