data_PCOD8218791
_publ_section_title
;
Structure prediction by ZEFSAII (Michael W. Deem and Ramdas Pophale) SiO2 
 PCOD8218791
Probable space group: P M N A
;
_chemical_formula_sum "Si O2"
_cell_formula_units_Z 64
_cell_length_a 9.223901
_cell_length_b 21.584665
_cell_length_c 18.436750
_cell_angle_alpha 90.000000
_cell_angle_beta 90.000000
_cell_angle_gamma 90.000000
_cell_volume 3670.661295
_symmetry_space_group_name_H-M "P M N A"
_symmetry_group_IT_number 53
_symmetry_cell_setting 'orthorhombic'
loop_
_space_group_symop_operation_xyz
x,y,z
1/2-x,-y,1/2+z
x,-y,-z
1/2-x,y,1/2-z
-x,-y,-z
1/2+x,y,1/2-z
-x,y,z
1/2+x,-y,1/2+z
loop_
_atom_site_type_symbol
_atom_site_label
_atom_site_fract_x
_atom_site_fract_y
_atom_site_fract_z
Si Si1 0.662216 0.003620 0.317609
Si Si2 0.661852 0.407366 0.540707
Si Si3 0.172034 0.863101 0.175547
Si Si4 0.328335 0.364875 0.178219
Si Si5 0.332392 0.694689 0.972108
Si Si6 0.165363 0.064281 0.034863
Si Si7 0.836421 0.472092 0.113817
Si Si8 0.670243 0.173815 0.963755
O O1 0.750000 0.029190 0.250000
O O2 0.500000 0.997092 0.289579
O O3 0.677248 0.055207 0.379176
O O4 0.710886 0.934815 0.343221
O O5 0.500000 0.385438 0.559823
O O6 0.760689 0.346611 0.535542
O O7 0.714576 0.456210 0.602745
O O8 0.664739 0.440785 0.464029
O O9 0.250000 0.843341 0.250000
O O10 0.241394 0.822366 0.111371
O O11 0.000000 0.850891 0.180604
O O12 0.250000 0.337744 0.250000
O O13 0.500000 0.364698 0.189972
O O14 0.280089 0.322409 0.109557
O O15 0.273526 0.435630 0.166308
O O16 0.500000 0.679719 0.977894
O O17 0.295754 0.765705 0.988519
O O18 0.000000 0.080927 0.010862
O O19 0.276055 0.116894 0.012113
O O20 0.214114 0.000000 0.000000
O O21 0.000000 0.469494 0.146041
O O22 0.500000 0.166782 0.947166
#
# Coordination Sequence:
#
# PCOD8218791 Si02
#       8
#     8   8   8   8   8   8   8   8
#     4   9  18  32  51  73 100 129 159 201 255 313
#     4   8  14  26  47  72  97 124 157 196 242 293
#     4  10  19  34  54  78 103 129 160 202 254 313
#     4  10  19  32  50  72 100 138 179 220 261 303
#     4   9  20  35  49  70 103 138 176 218 259 306
#     4  10  19  35  53  73 102 134 168 215 269 316
#     4   8  14  26  45  72 100 123 153 199 246 292
#     4  11  22  35  52  77 105 137 176 218 261 313
#
# _framework density 17.435551
#
# number of rings (size 3 to 8) (size 9 to 14) (size 15 to 20)
#    0.000    2.625    1.250    1.875    0.000    3.250 
#    0.000    3.125    0.000    3.750    0.000    5.250 
#    0.000    0.000    0.000    0.000    0.000    0.000 
#
# Total GULP energy -793304.738674 kJ/mol
# GULP energy per Si atom -12395.386542 kJ/mol
# Density = 1.739587 g / cm^3
# Si number density = 17.435551 Si / 1000 Ang^3
#
#
#
# Elastic Constant Matrix: (Units=GPa)
#
#
# Indices 1 2 3 4 5 6 
#
# 1 84.5819 50.1113 50.4793 0.0000 0.0000 0.0000
# 2 50.1113 92.7001 45.4114 0.0000 0.0000 0.0000
# 3 50.4793 45.4114 88.1463 0.0000 0.0000 0.0000
# 4 0.0000 0.0000 0.0000 19.6517 0.0000 0.0000
# 5 0.0000 0.0000 0.0000 0.0000 29.9151 0.0000
# 6 0.0000 0.0000 0.0000 0.0000 0.0000 24.6357
#
#
#
# Elastic Compliance Matrix: (Units=1/GPa)
#
#
# Indices 1 2 3 4 5 6 
#
# 1 0.021146 -0.007355 -0.008321 0.000000 0.000000 0.000000
# 2 -0.007355 0.016987 -0.004539 0.000000 0.000000 0.000000
# 3 -0.008321 -0.004539 0.018449 0.000000 0.000000 0.000000
# 4 0.000000 0.000000 0.000000 0.050886 0.000000 0.000000
# 5 0.000000 0.000000 0.000000 0.000000 0.033428 0.000000
# 6 0.000000 0.000000 0.000000 0.000000 0.000000 0.040592
#
#
# Mechanical properties :
#
#
# Convention : Reuss Voigt Hill
#
# Bulk Modulus (GPa) = 61.91380 61.93691 61.92536
# Shear Modulus (GPa) = 21.99714 22.80224 22.39969
#
# Velocity S-wave (km/s) = 3.55579 3.62028 3.58818
# Velocity P-wave (km/s) = 7.24192 7.28531 7.26364
#
# Compressibility (1/GPa) = 0.01615149
#
# Stress axis : x y z
#
# Youngs Moduli (GPa) = 47.28947 58.86797 54.20470
#
# Poissons Ratio (x) = 0.43297 0.45103
# Poissons Ratio (y) = 0.34781 0.24606
# Poissons Ratio (z) = 0.39349 0.26723
#
# Static dielectric constant tensor:
#      x y z
#    x 3.294800 0.000000 0.000000 
#    y 0.000000 3.228320 0.000000 
#    z 0.000000 0.000000 3.277700 
# 
# 
# High freq. dielectric constant tensor:
#      x y z
#    x 1.676300 0.000000 0.000000 
#    y 0.000000 1.649800 0.000000 
#    z 0.000000 0.000000 1.662830 
# 
# From -- ./inp_files/26881.got.cif
#   From: 2010.03.12/outbox.cif.g09.slc.cpg/sg53_14_cif.got.tgz:26881.got - 2010.04.16 14:36:59.
