data_PCOD8218502
_publ_section_title
;
Structure prediction by ZEFSAII (Michael W. Deem and Ramdas Pophale) SiO2 
 PCOD8218502
Probable space group: P M N A
;
_chemical_formula_sum "Si O2"
_cell_formula_units_Z 56
_cell_length_a 9.183661
_cell_length_b 18.960947
_cell_length_c 18.093829
_cell_angle_alpha 90.000000
_cell_angle_beta 90.000000
_cell_angle_gamma 90.000000
_cell_volume 3150.694900
_symmetry_space_group_name_H-M "P M N A"
_symmetry_group_IT_number 53
_symmetry_cell_setting 'orthorhombic'
loop_
_space_group_symop_operation_xyz
x,y,z
1/2-x,-y,1/2+z
x,-y,-z
1/2-x,y,1/2-z
-x,-y,-z
1/2+x,y,1/2-z
-x,y,z
1/2+x,-y,1/2+z
loop_
_atom_site_type_symbol
_atom_site_label
_atom_site_fract_x
_atom_site_fract_y
_atom_site_fract_z
Si Si1 0.330071 0.780670 0.098821
Si Si2 0.671640 0.084881 0.580037
Si Si3 0.168915 0.797098 0.823955
Si Si4 0.828344 0.363780 0.674184
Si Si5 0.331832 0.428882 0.539130
Si Si6 0.672220 0.070603 0.412619
Si Si7 0.834646 0.715791 0.967291
O O1 0.500000 0.794342 0.093792
O O2 0.252516 0.852991 0.125334
O O3 0.292447 0.717747 0.155482
O O4 0.272287 0.760757 0.018017
O O5 0.500000 0.096951 0.586840
O O6 0.727515 0.086922 0.495299
O O7 0.717150 0.008322 0.613221
O O8 0.250000 0.775322 0.750000
O O9 0.233306 0.871015 0.855881
O O10 0.197328 0.734380 0.882304
O O11 0.000000 0.805425 0.805452
O O12 0.750000 0.383941 0.750000
O O13 0.765985 0.414781 0.610880
O O14 0.000000 0.376749 0.681103
O O15 0.277436 0.500000 0.500000
O O16 0.500000 0.434734 0.564174
O O17 0.310122 0.367226 0.478883
O O18 0.500000 0.076206 0.416390
O O19 0.000000 0.737842 0.988226
#
# Coordination Sequence:
#
# PCOD8218502 Si02
#       7
#     8   8   8   8   8   8   8
#     4  10  19  30  48  76 104 126 161 214 260 296
#     4   9  15  28  50  70  90 124 166 207 252 306
#     4  10  19  32  48  68  95 130 170 208 249 295
#     4  10  21  36  54  78 108 141 174 211 256 308
#     4   9  18  34  58  85 109 134 168 210 254 304
#     4   8  15  28  47  68  90 122 168 210 246 302
#     4   9  17  32  53  72  96 133 171 202 240 301
#
# _framework density 17.773857
#
# number of rings (size 3 to 8) (size 9 to 14) (size 15 to 20)
#    0.000    2.714    1.429    1.714    0.000    2.571 
#    0.000    3.571    0.000    5.143    0.000    0.000 
#    0.000    0.000    0.000    0.000    0.000    0.000 
#
# Total GULP energy -694237.789127 kJ/mol
# GULP energy per Si atom -12397.103377 kJ/mol
# Density = 1.773340 g / cm^3
# Si number density = 17.773857 Si / 1000 Ang^3
#
#
#
# Elastic Constant Matrix: (Units=GPa)
#
#
# Indices 1 2 3 4 5 6 
#
# 1 66.2673 45.6988 45.1773 0.0000 0.0000 0.0000
# 2 45.6988 127.9555 51.4900 0.0000 0.0000 0.0000
# 3 45.1773 51.4900 104.9427 0.0000 0.0000 0.0000
# 4 0.0000 0.0000 0.0000 19.3419 0.0000 0.0000
# 5 0.0000 0.0000 0.0000 0.0000 26.1040 0.0000
# 6 0.0000 0.0000 0.0000 0.0000 0.0000 21.2130
#
#
#
# Elastic Compliance Matrix: (Units=1/GPa)
#
#
# Indices 1 2 3 4 5 6 
#
# 1 0.024139 -0.005532 -0.007678 0.000000 0.000000 0.000000
# 2 -0.005532 0.011005 -0.003018 0.000000 0.000000 0.000000
# 3 -0.007678 -0.003018 0.014315 0.000000 0.000000 0.000000
# 4 0.000000 0.000000 0.000000 0.051701 0.000000 0.000000
# 5 0.000000 0.000000 0.000000 0.000000 0.038308 0.000000
# 6 0.000000 0.000000 0.000000 0.000000 0.000000 0.047141
#
#
# Mechanical properties :
#
#
# Convention : Reuss Voigt Hill
#
# Bulk Modulus (GPa) = 58.80875 64.87753 61.84314
# Shear Modulus (GPa) = 22.24848 23.78508 23.01678
#
# Velocity S-wave (km/s) = 3.54185 3.66212 3.60249
# Velocity P-wave (km/s) = 7.06295 7.37986 7.22315
#
# Compressibility (1/GPa) = 0.01700427
#
# Stress axis : x y z
#
# Youngs Moduli (GPa) = 41.42605 90.86370 69.85561
#
# Poissons Ratio (x) = 0.50263 0.53633
# Poissons Ratio (y) = 0.22916 0.21086
# Poissons Ratio (z) = 0.31806 0.27427
#
# Static dielectric constant tensor:
#      x y z
#    x 3.120150 0.000000 0.000000 
#    y 0.000000 3.513080 0.000000 
#    z 0.000000 0.000000 3.062480 
# 
# 
# High freq. dielectric constant tensor:
#      x y z
#    x 1.670740 0.000000 0.000000 
#    y 0.000000 1.692480 0.000000 
#    z 0.000000 0.000000 1.661140 
# 
# From -- ./inp_files/26683.got.cif
#   From: 2010.03.12/outbox.cif.g09.slc.cpg/sg53_14_cif.got.tgz:26683.got - 2010.04.16 14:36:59.
