data_PCOD8218296
_publ_section_title
;
Structure prediction by ZEFSAII (Michael W. Deem and Ramdas Pophale) SiO2 
 PCOD8218296
Probable space group: P M N A
;
_chemical_formula_sum "Si O2"
_cell_formula_units_Z 52
_cell_length_a 9.345500
_cell_length_b 11.645574
_cell_length_c 25.502880
_cell_angle_alpha 90.000000
_cell_angle_beta 90.000000
_cell_angle_gamma 90.000000
_cell_volume 2775.573092
_symmetry_space_group_name_H-M "P M N A"
_symmetry_group_IT_number 53
_symmetry_cell_setting 'orthorhombic'
loop_
_space_group_symop_operation_xyz
x,y,z
1/2-x,-y,1/2+z
x,-y,-z
1/2-x,y,1/2-z
-x,-y,-z
1/2+x,y,1/2-z
-x,y,z
1/2+x,-y,1/2+z
loop_
_atom_site_type_symbol
_atom_site_label
_atom_site_fract_x
_atom_site_fract_y
_atom_site_fract_z
Si Si1 0.666399 0.181307 0.628823
Si Si2 0.168417 0.868797 0.012996
Si Si3 0.171023 0.391827 0.803855
Si Si4 0.750000 0.214342 0.250000
Si Si5 0.841003 0.063846 0.158949
Si Si6 0.665317 0.787988 0.918382
Si Si7 0.342241 0.608344 0.833077
O O1 0.500000 0.201999 0.622328
O O2 0.729383 0.161509 0.570642
O O3 0.728847 0.295463 0.655874
O O4 0.697720 0.070807 0.665843
O O5 0.000000 0.846745 0.007909
O O6 0.249739 0.784442 0.972946
O O7 0.207347 0.000000 0.000000
O O8 0.250000 0.365363 0.750000
O O9 0.217736 0.516357 0.824760
O O10 0.000000 0.391147 0.796065
O O11 0.845641 0.129929 0.214305
O O12 0.655966 0.294714 0.212268
O O13 0.727115 0.113047 0.118613
O O14 0.000000 0.073849 0.133634
O O15 0.500000 0.815472 0.928910
O O16 0.685517 0.665829 0.889553
O O17 0.500000 0.550714 0.831566
#
# Coordination Sequence:
#
# PCOD8218296 Si02
#       7
#     8   8   8   4   8   8   8
#     4   9  20  37  56  83 114 147 190 228 267 335
#     4  10  18  35  61  83 111 151 190 227 278 339
#     4  11  23  39  60  82 112 150 190 231 273 328
#     4  10  20  30  58  86 112 138 190 236 284 320
#     4  10  19  35  56  80 114 152 185 224 280 338
#     4  10  21  35  55  87 118 141 181 236 285 332
#     4  10  21  38  56  81 114 147 190 234 278 333
#
# _framework density 18.734870999999998
#
# number of rings (size 3 to 8) (size 9 to 14) (size 15 to 20)
#    0.000    2.000    2.308    1.385    1.077    4.000 
#    0.000    3.846    0.000    4.615    0.000    0.000 
#    0.000    0.000    0.000    0.000    0.000    0.000 
#
# Total GULP energy -644624.369374 kJ/mol
# GULP energy per Si atom -12396.622488 kJ/mol
# Density = 1.869223 g / cm^3
# Si number density = 18.734871 Si / 1000 Ang^3
#
#
#
# Elastic Constant Matrix: (Units=GPa)
#
#
# Indices 1 2 3 4 5 6 
#
# 1 83.1837 39.7460 48.1442 0.0000 0.0000 0.0000
# 2 39.7460 109.9243 80.6484 0.0000 0.0000 0.0000
# 3 48.1442 80.6484 113.4365 0.0000 0.0000 0.0000
# 4 0.0000 0.0000 0.0000 30.7231 0.0000 0.0000
# 5 0.0000 0.0000 0.0000 0.0000 28.4713 0.0000
# 6 0.0000 0.0000 0.0000 0.0000 0.0000 17.8685
#
#
#
# Elastic Compliance Matrix: (Units=1/GPa)
#
#
# Indices 1 2 3 4 5 6 
#
# 1 0.016084 -0.001688 -0.005627 0.000000 0.000000 0.000000
# 2 -0.001688 0.019193 -0.012929 0.000000 0.000000 0.000000
# 3 -0.005627 -0.012929 0.020396 0.000000 0.000000 0.000000
# 4 0.000000 0.000000 0.000000 0.032549 0.000000 0.000000
# 5 0.000000 0.000000 0.000000 0.000000 0.035123 0.000000
# 6 0.000000 0.000000 0.000000 0.000000 0.000000 0.055965
#
#
# Mechanical properties :
#
#
# Convention : Reuss Voigt Hill
#
# Bulk Modulus (GPa) = 65.84905 71.51350 68.68128
# Shear Modulus (GPa) = 22.23615 24.61298 23.42456
#
# Velocity S-wave (km/s) = 3.44886 3.62850 3.53982
# Velocity P-wave (km/s) = 7.14728 7.47054 7.31070
#
# Compressibility (1/GPa) = 0.01518625
#
# Stress axis : x y z
#
# Youngs Moduli (GPa) = 62.17171 52.10171 49.02995
#
# Poissons Ratio (x) = 0.08793 0.27588
# Poissons Ratio (y) = 0.10492 0.63392
# Poissons Ratio (z) = 0.34982 0.67364
#
# Static dielectric constant tensor:
#      x y z
#    x 3.294480 0.000000 0.000000 
#    y 0.000000 3.473680 0.000000 
#    z 0.000000 0.000000 3.687650 
# 
# 
# High freq. dielectric constant tensor:
#      x y z
#    x 1.715920 0.000000 0.000000 
#    y 0.000000 1.718420 0.000000 
#    z 0.000000 0.000000 1.728980 
# 
# From -- ./inp_files/36233.got.cif
#   From: 2010.03.12/outbox.cif.g09.slc.cpg/sg53_19_cif.got.tgz:36233.got - 2010.04.16 14:36:59.
