data_PCOD8218384
_publ_section_title
;
Structure prediction by ZEFSAII (Michael W. Deem and Ramdas Pophale) SiO2 
 PCOD8218384
Probable space group: P M N A
;
_chemical_formula_sum "Si O2"
_cell_formula_units_Z 48
_cell_length_a 25.481649
_cell_length_b 21.989004
_cell_length_c 5.055066
_cell_angle_alpha 90.000000
_cell_angle_beta 90.000000
_cell_angle_gamma 90.000000
_cell_volume 2832.434774
_symmetry_space_group_name_H-M "P M N A"
_symmetry_group_IT_number 53
_symmetry_cell_setting 'orthorhombic'
loop_
_space_group_symop_operation_xyz
x,y,z
1/2-x,-y,1/2+z
x,-y,-z
1/2-x,y,1/2-z
-x,-y,-z
1/2+x,y,1/2-z
-x,y,z
1/2+x,-y,1/2+z
loop_
_atom_site_type_symbol
_atom_site_label
_atom_site_fract_x
_atom_site_fract_y
_atom_site_fract_z
Si Si1 0.688052 0.327640 0.757238
Si Si2 0.346647 0.122074 0.166250
Si Si3 0.693637 0.060265 0.638183
Si Si4 0.059163 0.040908 0.257164
Si Si5 0.312639 0.463269 0.747923
Si Si6 0.312053 0.253046 0.251761
O O1 0.750000 0.333255 0.750000
O O2 0.663777 0.395045 0.727451
O O3 0.669299 0.279583 0.533891
O O4 0.671624 0.304296 0.043728
O O5 0.303081 0.106907 0.393244
O O6 0.403277 0.099623 0.271332
O O7 0.345045 0.194610 0.154765
O O8 0.337376 0.089956 0.882915
O O9 0.750000 0.041428 0.750000
O O10 0.666968 0.000000 0.500000
O O11 0.000000 0.064920 0.306251
O O12 0.078886 0.000000 0.500000
O O13 0.061759 0.000000 0.000000
O O14 0.334364 0.500000 0.500000
O O15 0.250000 0.460508 0.750000
O O16 0.333858 0.500000 0.000000
O O17 0.250000 0.238079 0.250000
#
# Coordination Sequence:
#
# PCOD8218384 Si02
#       6
#     8   8   8   8   8   8
#     4   9  17  28  40  56  83 115 148 184 215 245
#     4  12  22  34  51  68  89 118 152 183 224 277
#     4  12  23  34  47  67  92 117 145 183 226 268
#     4  10  21  37  55  72  88 108 141 189 240 283
#     4   9  15  23  37  56  76 104 146 189 219 241
#     4  10  19  30  42  59  85 118 149 176 209 258
#
# _framework density 16.946549999999998
#
# number of rings (size 3 to 8) (size 9 to 14) (size 15 to 20)
#    0.000    1.667    0.000    7.500    0.000    5.333 
#    0.000    0.000    0.000    0.000    0.000    0.000 
#    0.000    0.000    0.000    0.000    0.000   16.667 
#
# Total GULP energy -594900.945809 kJ/mol
# GULP energy per Si atom -12393.769704 kJ/mol
# Density = 1.690798 g / cm^3
# Si number density = 16.946550 Si / 1000 Ang^3
#
#
#
# Elastic Constant Matrix: (Units=GPa)
#
#
# Indices 1 2 3 4 5 6 
#
# 1 30.7887 32.1754 9.9864 0.0000 0.0000 0.0000
# 2 32.1754 127.6869 44.6245 0.0000 0.0000 0.0000
# 3 9.9864 44.6245 124.5969 0.0000 0.0000 0.0000
# 4 0.0000 0.0000 0.0000 19.3286 0.0000 0.0000
# 5 0.0000 0.0000 0.0000 0.0000 13.7750 0.0000
# 6 0.0000 0.0000 0.0000 0.0000 0.0000 3.7899
#
#
#
# Elastic Compliance Matrix: (Units=1/GPa)
#
#
# Indices 1 2 3 4 5 6 
#
# 1 0.044118 -0.011295 0.000509 0.000000 0.000000 0.000000
# 2 -0.011295 0.011844 -0.003337 0.000000 0.000000 0.000000
# 3 0.000509 -0.003337 0.009180 0.000000 0.000000 0.000000
# 4 0.000000 0.000000 0.000000 0.051737 0.000000 0.000000
# 5 0.000000 0.000000 0.000000 0.000000 0.072595 0.000000
# 6 0.000000 0.000000 0.000000 0.000000 0.000000 0.263862
#
#
# Mechanical properties :
#
#
# Convention : Reuss Voigt Hill
#
# Bulk Modulus (GPa) = 27.10227 50.73833 38.92030
# Shear Modulus (GPa) = 10.12391 20.46445 15.29418
#
# Velocity S-wave (km/s) = 2.44683 3.47881 3.00741
# Velocity P-wave (km/s) = 4.90002 6.79274 5.92248
#
# Compressibility (1/GPa) = 0.03689727
#
# Stress axis : x y z
#
# Youngs Moduli (GPa) = 22.66639 84.43099 108.93153
#
# Poissons Ratio (x) = 0.95366 -0.05548
# Poissons Ratio (y) = 0.25602 0.36346
# Poissons Ratio (z) = -0.01154 0.28172
#
# Static dielectric constant tensor:
#      x y z
#    x 2.753680 0.000000 0.000000 
#    y 0.000000 3.255080 0.000000 
#    z 0.000000 0.000000 3.635350 
# 
# 
# High freq. dielectric constant tensor:
#      x y z
#    x 1.576440 0.000000 0.000000 
#    y 0.000000 1.652040 0.000000 
#    z 0.000000 0.000000 1.683640 
# 
# From -- ./inp_files/4584.got.cif
#   From: 2010.03.12/outbox.cif.g09.slc.cpg/sg53_3_cif.got.tgz:4584.got - 2010.04.16 14:36:59.
