data_PCOD8218477
_publ_section_title
;
Structure prediction by ZEFSAII (Michael W. Deem and Ramdas Pophale) SiO2 
 PCOD8218477
Probable space group: P M N A
;
_chemical_formula_sum "Si O2"
_cell_formula_units_Z 64
_cell_length_a 8.700064
_cell_length_b 21.510592
_cell_length_c 19.248478
_cell_angle_alpha 90.000000
_cell_angle_beta 90.000000
_cell_angle_gamma 90.000000
_cell_volume 3602.228064
_symmetry_space_group_name_H-M "P M N A"
_symmetry_group_IT_number 53
_symmetry_cell_setting 'orthorhombic'
loop_
_space_group_symop_operation_xyz
x,y,z
1/2-x,-y,1/2+z
x,-y,-z
1/2-x,y,1/2-z
-x,-y,-z
1/2+x,y,1/2-z
-x,y,z
1/2+x,-y,1/2+z
loop_
_atom_site_type_symbol
_atom_site_label
_atom_site_fract_x
_atom_site_fract_y
_atom_site_fract_z
Si Si1 0.817055 0.404755 0.324201
Si Si2 0.182753 0.063474 0.968913
Si Si3 0.319605 0.536324 0.323321
Si Si4 0.175703 0.357951 0.591792
Si Si5 0.317421 0.890011 0.319086
Si Si6 0.177032 0.775781 0.376382
Si Si7 0.319519 0.688623 0.940907
Si Si8 0.677701 0.807847 0.517859
O O1 0.750000 0.385277 0.250000
O O2 0.755774 0.471863 0.347717
O O3 0.755329 0.354343 0.379308
O O4 0.000000 0.406910 0.320728
O O5 0.237599 0.074019 0.889035
O O6 0.235310 0.120053 0.020098
O O7 0.000000 0.060225 0.968248
O O8 0.254195 0.000000 0.000000
O O9 0.250000 0.558164 0.250000
O O10 0.500000 0.526648 0.314725
O O11 0.285367 0.588024 0.380859
O O12 0.188984 0.297470 0.642361
O O13 0.233184 0.340038 0.514522
O O14 0.000000 0.382028 0.590198
O O15 0.250000 0.924250 0.250000
O O16 0.500000 0.885022 0.315132
O O17 0.239448 0.821146 0.316489
O O18 0.291886 0.786416 0.439903
O O19 0.000000 0.791525 0.396240
O O20 0.500000 0.691600 0.938301
O O21 0.261826 0.759821 0.930275
O O22 0.500000 0.804112 0.535979
#
# Coordination Sequence:
#
# PCOD8218477 Si02
#       8
#     8   8   8   8   8   8   8   8
#     4  10  20  36  55  73  94 124 162 203 250 302
#     4   8  15  29  49  73  99 130 166 199 236 284
#     4  11  22  35  50  68  93 126 161 202 247 293
#     4   9  18  33  50  70  96 128 162 195 237 289
#     4  10  19  30  47  70  97 129 165 206 246 286
#     4   9  17  30  47  66  94 128 159 193 235 284
#     4   9  19  34  53  74  99 130 159 197 249 297
#     4   9  16  27  48  75  99 123 155 196 237 280
#
# _framework density 17.766783
#
# number of rings (size 3 to 8) (size 9 to 14) (size 15 to 20)
#    0.000    2.625    0.000    4.875    0.000    4.500 
#    0.000    2.500    0.000   14.250    0.000    3.500 
#    0.000    0.000    0.000    0.000    0.000    0.000 
#
# Total GULP energy -793080.605781 kJ/mol
# GULP energy per Si atom -12391.884465 kJ/mol
# Density = 1.772635 g / cm^3
# Si number density = 17.766783 Si / 1000 Ang^3
#
#
#
# Elastic Constant Matrix: (Units=GPa)
#
#
# Indices 1 2 3 4 5 6 
#
# 1 49.7915 33.1452 26.4096 0.0000 0.0000 0.0000
# 2 33.1452 139.6178 70.8988 0.0000 0.0000 0.0000
# 3 26.4096 70.8988 84.8561 0.0000 0.0000 0.0000
# 4 0.0000 0.0000 0.0000 22.9501 0.0000 0.0000
# 5 0.0000 0.0000 0.0000 0.0000 20.7058 0.0000
# 6 0.0000 0.0000 0.0000 0.0000 0.0000 20.9929
#
#
#
# Elastic Compliance Matrix: (Units=1/GPa)
#
#
# Indices 1 2 3 4 5 6 
#
# 1 0.024972 -0.003442 -0.004896 0.000000 0.000000 0.000000
# 2 -0.003442 0.012915 -0.009720 0.000000 0.000000 0.000000
# 3 -0.004896 -0.009720 0.021429 0.000000 0.000000 0.000000
# 4 0.000000 0.000000 0.000000 0.043573 0.000000 0.000000
# 5 0.000000 0.000000 0.000000 0.000000 0.048296 0.000000
# 6 0.000000 0.000000 0.000000 0.000000 0.000000 0.047635
#
#
# Mechanical properties :
#
#
# Convention : Reuss Voigt Hill
#
# Bulk Modulus (GPa) = 43.10157 59.46363 51.28260
# Shear Modulus (GPa) = 20.60417 22.51722 21.56069
#
# Velocity S-wave (km/s) = 3.40913 3.56389 3.48737
# Velocity P-wave (km/s) = 6.30940 7.10470 6.71883
#
# Compressibility (1/GPa) = 0.02320101
#
# Stress axis : x y z
#
# Youngs Moduli (GPa) = 40.04494 77.42774 46.66486
#
# Poissons Ratio (x) = 0.26651 0.22847
# Poissons Ratio (y) = 0.13784 0.45357
# Poissons Ratio (z) = 0.19606 0.75257
#
# Static dielectric constant tensor:
#      x y z
#    x 3.204500 0.000000 0.000000 
#    y 0.000000 3.619770 0.000000 
#    z 0.000000 0.000000 3.298570 
# 
# 
# High freq. dielectric constant tensor:
#      x y z
#    x 1.684060 0.000000 0.000000 
#    y 0.000000 1.682940 0.000000 
#    z 0.000000 0.000000 1.660920 
# 
# From -- ./inp_files/31375.got.cif
#   From: 2010.03.12/outbox.cif.g09.slc.cpg/sg53_16_cif.got.tgz:31375.got - 2010.04.16 14:36:59.
