data_PCOD8218931
_publ_section_title
;
Structure prediction by ZEFSAII (Michael W. Deem and Ramdas Pophale) SiO2 
 PCOD8218931
Probable space group: P M N A
;
_chemical_formula_sum "Si O2"
_cell_formula_units_Z 64
_cell_length_a 8.913269
_cell_length_b 12.438554
_cell_length_c 29.206607
_cell_angle_alpha 90.000000
_cell_angle_beta 90.000000
_cell_angle_gamma 90.000000
_cell_volume 3238.083297
_symmetry_space_group_name_H-M "P M N A"
_symmetry_group_IT_number 53
_symmetry_cell_setting 'orthorhombic'
loop_
_space_group_symop_operation_xyz
x,y,z
1/2-x,-y,1/2+z
x,-y,-z
1/2-x,y,1/2-z
-x,-y,-z
1/2+x,y,1/2-z
-x,y,z
1/2+x,-y,1/2+z
loop_
_atom_site_type_symbol
_atom_site_label
_atom_site_fract_x
_atom_site_fract_y
_atom_site_fract_z
Si Si1 0.327683 0.069681 0.796074
Si Si2 0.672854 0.451059 0.393956
Si Si3 0.174682 0.330171 0.942872
Si Si4 0.826300 0.169338 0.325523
Si Si5 0.176578 0.878905 0.111255
Si Si6 0.676136 0.887834 0.582519
Si Si7 0.676504 0.295308 0.036002
Si Si8 0.824033 0.622495 0.793943
O O1 0.250000 0.112558 0.750000
O O2 0.500000 0.103147 0.794426
O O3 0.255247 0.127524 0.839711
O O4 0.305891 0.941797 0.798718
O O5 0.500000 0.421405 0.404054
O O6 0.710311 0.571821 0.409091
O O7 0.775483 0.367770 0.421120
O O8 0.708708 0.444679 0.339959
O O9 0.231068 0.221561 0.918594
O O10 0.000000 0.323085 0.955071
O O11 0.263950 0.349057 0.989624
O O12 0.727159 0.169830 0.371157
O O13 0.760381 0.263196 0.294523
O O14 0.000000 0.189471 0.338274
O O15 0.000000 0.876994 0.120355
O O16 0.223365 0.986851 0.083674
O O17 0.500000 0.874074 0.576243
O O18 0.756789 0.825679 0.540807
O O19 0.500000 0.287854 0.034023
O O20 0.750000 0.561472 0.750000
O O21 0.000000 0.640030 0.786291
#
# Coordination Sequence:
#
# PCOD8218931 Si02
#       8
#     8   8   8   8   8   8   8   8
#     4  10  20  33  53  81 114 151 193 237 286 341
#     4  10  22  41  63  85 114 153 194 238 288 343
#     4  10  22  42  64  84 111 151 198 242 290 347
#     4  10  19  32  52  82 117 151 185 230 285 342
#     4   9  20  38  60  84 113 151 194 240 289 344
#     4  10  19  34  57  85 118 153 188 229 283 344
#     4  12  24  37  59  90 120 150 190 239 293 345
#     4  11  22  35  55  83 115 152 190 231 284 344
#
# _framework density 19.764779999999998
#
# number of rings (size 3 to 8) (size 9 to 14) (size 15 to 20)
#    0.000    1.750    1.250    3.375    0.000    6.500 
#    0.000    3.125    0.000    1.500    0.000    0.000 
#    0.000    0.000    0.000    0.000    0.000    0.000 
#
# Total GULP energy -793801.676632 kJ/mol
# GULP energy per Si atom -12403.151197 kJ/mol
# Density = 1.971979 g / cm^3
# Si number density = 19.764780 Si / 1000 Ang^3
#
#
#
# Elastic Constant Matrix: (Units=GPa)
#
#
# Indices 1 2 3 4 5 6 
#
# 1 86.5547 38.0366 46.4443 0.0000 0.0000 0.0000
# 2 38.0366 90.7252 49.1201 0.0000 0.0000 0.0000
# 3 46.4443 49.1201 112.9734 0.0000 0.0000 0.0000
# 4 0.0000 0.0000 0.0000 15.8848 0.0000 0.0000
# 5 0.0000 0.0000 0.0000 0.0000 34.6247 0.0000
# 6 0.0000 0.0000 0.0000 0.0000 0.0000 15.5182
#
#
#
# Elastic Compliance Matrix: (Units=1/GPa)
#
#
# Indices 1 2 3 4 5 6 
#
# 1 0.015905 -0.004091 -0.004760 0.000000 0.000000 0.000000
# 2 -0.004091 0.015468 -0.005044 0.000000 0.000000 0.000000
# 3 -0.004760 -0.005044 0.013001 0.000000 0.000000 0.000000
# 4 0.000000 0.000000 0.000000 0.062953 0.000000 0.000000
# 5 0.000000 0.000000 0.000000 0.000000 0.028881 0.000000
# 6 0.000000 0.000000 0.000000 0.000000 0.000000 0.064440
#
#
# Mechanical properties :
#
#
# Convention : Reuss Voigt Hill
#
# Bulk Modulus (GPa) = 60.29359 61.93948 61.11653
# Shear Modulus (GPa) = 21.37047 23.64904 22.50976
#
# Velocity S-wave (km/s) = 3.29179 3.46283 3.37839
# Velocity P-wave (km/s) = 6.70967 6.88438 6.79758
#
# Compressibility (1/GPa) = 0.01658551
#
# Stress axis : x y z
#
# Youngs Moduli (GPa) = 62.87151 64.64881 76.91461
#
# Poissons Ratio (x) = 0.26449 0.36612
# Poissons Ratio (y) = 0.25722 0.38792
# Poissons Ratio (z) = 0.29927 0.32606
#
# Static dielectric constant tensor:
#      x y z
#    x 3.566110 0.000000 0.000000 
#    y 0.000000 3.565260 0.000000 
#    z 0.000000 0.000000 3.615970 
# 
# 
# High freq. dielectric constant tensor:
#      x y z
#    x 1.771640 0.000000 0.000000 
#    y 0.000000 1.753180 0.000000 
#    z 0.000000 0.000000 1.775770 
# 
# From -- ./inp_files/38269.got.cif
#   From: 2010.03.12/outbox.cif.g09.slc.cpg/sg53_20_cif.got.tgz:38269.got - 2010.04.16 14:36:59.
