data_PCOD8218279
_publ_section_title
;
Structure prediction by ZEFSAII (Michael W. Deem and Ramdas Pophale) SiO2 
 PCOD8218279
Probable space group: P M N A
;
_chemical_formula_sum "Si O2"
_cell_formula_units_Z 64
_cell_length_a 8.986228
_cell_length_b 12.029767
_cell_length_c 31.038895
_cell_angle_alpha 90.000000
_cell_angle_beta 90.000000
_cell_angle_gamma 90.000000
_cell_volume 3355.373737
_symmetry_space_group_name_H-M "P M N A"
_symmetry_group_IT_number 53
_symmetry_cell_setting 'orthorhombic'
loop_
_space_group_symop_operation_xyz
x,y,z
1/2-x,-y,1/2+z
x,-y,-z
1/2-x,y,1/2-z
-x,-y,-z
1/2+x,y,1/2-z
-x,y,z
1/2+x,-y,1/2+z
loop_
_atom_site_type_symbol
_atom_site_label
_atom_site_fract_x
_atom_site_fract_y
_atom_site_fract_z
Si Si1 0.324364 0.986205 0.792886
Si Si2 0.177070 0.490987 0.293501
Si Si3 0.323136 0.630390 0.124478
Si Si4 0.826643 0.026912 0.049209
Si Si5 0.675945 0.252085 0.178218
Si Si6 0.324180 0.481234 0.047291
Si Si7 0.676734 0.116146 0.877921
Si Si8 0.824549 0.758665 0.581355
O O1 0.250000 0.037383 0.750000
O O2 0.500000 0.997287 0.788399
O O3 0.272645 0.857451 0.796139
O O4 0.268736 0.052869 0.834862
O O5 0.250000 0.538456 0.250000
O O6 0.234127 0.567096 0.332867
O O7 0.237437 0.364806 0.300262
O O8 0.000000 0.494966 0.289480
O O9 0.500000 0.624886 0.123903
O O10 0.258451 0.568939 0.081978
O O11 0.266973 0.757046 0.125023
O O12 0.746038 0.938718 0.079919
O O13 0.000000 0.023813 0.060035
O O14 0.763054 0.149226 0.055305
O O15 0.792356 0.000000 0.000000
O O16 0.500000 0.260630 0.175913
O O17 0.736077 0.241098 0.129892
O O18 0.500000 0.497581 0.045662
O O19 0.281210 0.358073 0.060913
O O20 0.254065 0.500000 0.000000
O O21 0.500000 0.108271 0.882290
O O22 0.000000 0.783446 0.579024
#
# Coordination Sequence:
#
# PCOD8218279 Si02
#       8
#     8   8   8   8   8   8   8   8
#     4  10  20  34  52  78 108 140 183 228 273 323
#     4  10  19  33  53  78 111 147 181 222 274 324
#     4   9  18  33  53  80 113 143 175 227 279 316
#     4  11  25  41  56  80 116 150 182 227 285 339
#     4   9  16  31  53  78 110 141 175 226 276 316
#     4   9  17  29  52  89 117 133 170 227 278 319
#     4  10  21  38  60  83 108 144 194 237 270 324
#     4  10  18  34  61  86 110 143 183 229 276 325
#
# _framework density 19.073882000000001
#
# number of rings (size 3 to 8) (size 9 to 14) (size 15 to 20)
#    0.000    2.250    2.500    0.750    1.750    2.000 
#    0.000    1.250    0.000    1.125    0.000    0.000 
#    0.000    0.000    0.000    0.000    0.000    0.000 
#
# Total GULP energy -793554.800184 kJ/mol
# GULP energy per Si atom -12399.293753 kJ/mol
# Density = 1.903047 g / cm^3
# Si number density = 19.073882 Si / 1000 Ang^3
#
#
#
# Elastic Constant Matrix: (Units=GPa)
#
#
# Indices 1 2 3 4 5 6 
#
# 1 24.6402 28.6691 38.8083 0.0000 0.0000 0.0000
# 2 28.6691 139.8990 83.7497 0.0000 0.0000 0.0000
# 3 38.8083 83.7497 149.7569 0.0000 0.0000 0.0000
# 4 0.0000 0.0000 0.0000 167.5301 0.0000 0.0000
# 5 0.0000 0.0000 0.0000 0.0000 27.9460 0.0000
# 6 0.0000 0.0000 0.0000 0.0000 0.0000 7.5401
#
#
#
# Elastic Compliance Matrix: (Units=1/GPa)
#
#
# Indices 1 2 3 4 5 6 
#
# 1 0.071114 -0.005323 -0.015452 0.000000 0.000000 0.000000
# 2 -0.005323 0.011144 -0.004853 0.000000 0.000000 0.000000
# 3 -0.015452 -0.004853 0.013395 0.000000 0.000000 0.000000
# 4 0.000000 0.000000 0.000000 0.005969 0.000000 0.000000
# 5 0.000000 0.000000 0.000000 0.000000 0.035783 0.000000
# 6 0.000000 0.000000 0.000000 0.000000 0.000000 0.132624
#
#
# Mechanical properties :
#
#
# Convention : Reuss Voigt Hill
#
# Bulk Modulus (GPa) = 22.52328 68.52784 45.52556
# Shear Modulus (GPa) = 14.87720 51.47450 33.17585
#
# Velocity S-wave (km/s) = 2.79584 5.20053 4.17506
# Velocity P-wave (km/s) = 4.71766 8.48918 6.86741
#
# Compressibility (1/GPa) = 0.04439851
#
# Stress axis : x y z
#
# Youngs Moduli (GPa) = 14.06186 89.73550 74.65201
#
# Poissons Ratio (x) = 0.47767 1.15351
# Poissons Ratio (y) = 0.07485 0.36226
# Poissons Ratio (z) = 0.21728 0.43545
#
# Static dielectric constant tensor:
#      x y z
#    x 2.975160 0.000000 0.000000 
#    y 0.000000 3.678560 0.000000 
#    z 0.000000 0.000000 3.696650 
# 
# 
# High freq. dielectric constant tensor:
#      x y z
#    x 1.689910 0.000000 0.000000 
#    y 0.000000 1.750620 0.000000 
#    z 0.000000 0.000000 1.759140 
# 
# From -- ./inp_files/38214.got.cif
#   From: 2010.03.12/outbox.cif.g09.slc.cpg/sg53_20_cif.got.tgz:38214.got - 2010.04.16 14:36:59.
