data_PCOD8218323
_publ_section_title
;
Structure prediction by ZEFSAII (Michael W. Deem and Ramdas Pophale) SiO2 
 PCOD8218323
Probable space group: P M N A
;
_chemical_formula_sum "Si O2"
_cell_formula_units_Z 40
_cell_length_a 18.878557
_cell_length_b 10.391488
_cell_length_c 10.832012
_cell_angle_alpha 90.000000
_cell_angle_beta 90.000000
_cell_angle_gamma 90.000000
_cell_volume 2124.984020
_symmetry_space_group_name_H-M "P M N A"
_symmetry_group_IT_number 53
_symmetry_cell_setting 'orthorhombic'
loop_
_space_group_symop_operation_xyz
x,y,z
1/2-x,-y,1/2+z
x,-y,-z
1/2-x,y,1/2-z
-x,-y,-z
1/2+x,y,1/2-z
-x,y,z
1/2+x,-y,1/2+z
loop_
_atom_site_type_symbol
_atom_site_label
_atom_site_fract_x
_atom_site_fract_y
_atom_site_fract_z
Si Si1 0.183035 0.418498 0.322339
Si Si2 0.419544 0.201633 0.733615
Si Si3 0.183614 0.300294 0.574799
Si Si4 0.420750 0.484473 0.632784
Si Si5 0.788260 0.079493 0.873300
O O1 0.250000 0.362382 0.250000
O O2 0.165694 0.317960 0.430761
O O3 0.200855 0.561219 0.368842
O O4 0.116071 0.424621 0.232748
O O5 0.500000 0.148460 0.749011
O O6 0.384561 0.228373 0.867424
O O7 0.419991 0.334981 0.662301
O O8 0.371606 0.099436 0.657512
O O9 0.253938 0.218539 0.600957
O O10 0.382683 0.500000 0.500000
O O11 0.500000 0.539102 0.625839
O O12 0.750000 0.018050 0.750000
O O13 0.778888 0.000000 0.000000
#
# Coordination Sequence:
#
# PCOD8218323 Si02
#       5
#     8   8   8   8   8
#     4  10  19  28  51  79 106 140 177 212 250 317
#     4   9  18  34  56  76 101 138 175 214 261 316
#     4   9  19  34  50  77 106 138 173 215 266 311
#     4   9  18  31  47  74 113 144 165 205 262 311
#     4  10  21  38  56  76 106 138 179 227 275 318
#
# _framework density 18.823671999999998
#
# number of rings (size 3 to 8) (size 9 to 14) (size 15 to 20)
#    0.000    2.600    0.000    3.000    5.600    2.000 
#    0.000    4.000    0.000    9.600    0.000    0.000 
#    0.000    0.000    0.000    0.000    0.000    0.000 
#
# Total GULP energy -495782.133240 kJ/mol
# GULP energy per Si atom -12394.553331 kJ/mol
# Density = 1.878083 g / cm^3
# Si number density = 18.823672 Si / 1000 Ang^3
#
#
#
# Elastic Constant Matrix: (Units=GPa)
#
#
# Indices 1 2 3 4 5 6 
#
# 1 125.2635 27.0088 56.2515 0.0000 0.0000 0.0000
# 2 27.0088 34.0809 36.0359 0.0000 0.0000 0.0000
# 3 56.2515 36.0359 165.9693 0.0000 0.0000 0.0000
# 4 0.0000 0.0000 0.0000 24.0231 0.0000 0.0000
# 5 0.0000 0.0000 0.0000 0.0000 23.3954 0.0000
# 6 0.0000 0.0000 0.0000 0.0000 0.0000 14.2648
#
#
#
# Elastic Compliance Matrix: (Units=1/GPa)
#
#
# Indices 1 2 3 4 5 6 
#
# 1 0.010219 -0.005758 -0.002213 0.000000 0.000000 0.000000
# 2 -0.005758 0.041330 -0.007022 0.000000 0.000000 0.000000
# 3 -0.002213 -0.007022 0.008300 0.000000 0.000000 0.000000
# 4 0.000000 0.000000 0.000000 0.041627 0.000000 0.000000
# 5 0.000000 0.000000 0.000000 0.000000 0.042743 0.000000
# 6 0.000000 0.000000 0.000000 0.000000 0.000000 0.070103
#
#
# Mechanical properties :
#
#
# Convention : Reuss Voigt Hill
#
# Bulk Modulus (GPa) = 33.48739 62.65622 48.07181
# Shear Modulus (GPa) = 19.66473 26.07116 22.86794
#
# Velocity S-wave (km/s) = 3.23566 3.72562 3.48925
# Velocity P-wave (km/s) = 5.63808 7.20175 6.46735
#
# Compressibility (1/GPa) = 0.02986199
#
# Stress axis : x y z
#
# Youngs Moduli (GPa) = 97.86141 24.19538 120.48199
#
# Poissons Ratio (x) = 0.13932 0.26664
# Poissons Ratio (y) = 0.56349 0.84605
# Poissons Ratio (z) = 0.21658 0.16991
#
# Static dielectric constant tensor:
#      x y z
#    x 3.622400 0.000000 0.000000 
#    y 0.000000 3.000730 0.000000 
#    z 0.000000 0.000000 3.891020 
# 
# 
# High freq. dielectric constant tensor:
#      x y z
#    x 1.730780 0.000000 0.000000 
#    y 0.000000 1.685100 0.000000 
#    z 0.000000 0.000000 1.746820 
# 
# From -- ./inp_files/10779.got.cif
#   From: 2010.03.12/outbox.cif.g09.slc.cpg/sg53_6_cif.got.tgz:10779.got - 2010.04.16 14:36:59.
