data_PCOD8218790
_publ_section_title
;
Structure prediction by ZEFSAII (Michael W. Deem and Ramdas Pophale) SiO2 
 PCOD8218790
Probable space group: P M N A
;
_chemical_formula_sum "Si O2"
_cell_formula_units_Z 64
_cell_length_a 9.337069
_cell_length_b 22.370807
_cell_length_c 16.213621
_cell_angle_alpha 90.000000
_cell_angle_beta 90.000000
_cell_angle_gamma 90.000000
_cell_volume 3386.664975
_symmetry_space_group_name_H-M "P M N A"
_symmetry_group_IT_number 53
_symmetry_cell_setting 'orthorhombic'
loop_
_space_group_symop_operation_xyz
x,y,z
1/2-x,-y,1/2+z
x,-y,-z
1/2-x,y,1/2-z
-x,-y,-z
1/2+x,y,1/2-z
-x,y,z
1/2+x,-y,1/2+z
loop_
_atom_site_type_symbol
_atom_site_label
_atom_site_fract_x
_atom_site_fract_y
_atom_site_fract_z
Si Si1 0.165070 0.873804 0.492731
Si Si2 0.159061 0.584438 0.882766
Si Si3 0.833982 0.919807 0.668295
Si Si4 0.663883 0.386246 0.963840
Si Si5 0.664399 0.452920 0.672373
Si Si6 0.833753 0.060271 0.668790
Si Si7 0.159827 0.712373 0.825099
Si Si8 0.338761 0.740908 0.981049
O O1 0.229351 0.890231 0.583534
O O2 0.231741 0.909125 0.414425
O O3 0.186502 0.803557 0.472859
O O4 0.000000 0.892752 0.497583
O O5 0.186389 0.523878 0.833242
O O6 0.161631 0.640229 0.820517
O O7 0.000000 0.581516 0.925485
O O8 0.289252 0.592764 0.945704
O O9 0.750000 0.896621 0.750000
O O10 0.000000 0.902772 0.680962
O O11 0.811570 0.990117 0.657772
O O12 0.500000 0.406063 0.948067
O O13 0.772746 0.419408 0.905377
O O14 0.681380 0.314328 0.955469
O O15 0.750000 0.428048 0.750000
O O16 0.500000 0.434923 0.682124
O O17 0.750000 0.083435 0.750000
O O18 0.000000 0.077405 0.680460
O O19 0.250000 0.739150 0.750000
O O20 0.000000 0.737538 0.817789
O O21 0.224077 0.736397 0.909352
O O22 0.500000 0.738145 0.943721
#
# Coordination Sequence:
#
# PCOD8218790 Si02
#       8
#     8   8   8   8   8   8   8   8
#     4   9  17  32  54  75  99 135 175 211 248 296
#     4   9  19  34  52  74  98 125 157 196 243 295
#     4   9  17  30  50  77 107 137 168 203 248 301
#     4  10  20  34  52  72  96 128 163 198 240 291
#     4  11  22  35  52  74  99 124 155 198 247 297
#     4   9  17  31  52  77 103 132 168 210 255 302
#     4  10  19  32  50  72 100 131 163 201 246 295
#     4   9  19  35  52  70  95 130 171 208 242 287
#
# _framework density 18.897646999999999
#
# number of rings (size 3 to 8) (size 9 to 14) (size 15 to 20)
#    0.000    2.500    0.000    2.250    0.000    5.500 
#    0.000    3.750    0.000    4.500    0.000    0.000 
#    0.000    0.000    0.000    0.000    0.000    0.000 
#
# Total GULP energy -793348.931168 kJ/mol
# GULP energy per Si atom -12396.077050 kJ/mol
# Density = 1.885464 g / cm^3
# Si number density = 18.897647 Si / 1000 Ang^3
#
#
#
# Elastic Constant Matrix: (Units=GPa)
#
#
# Indices 1 2 3 4 5 6 
#
# 1 91.1498 24.7411 32.2243 0.0000 0.0000 0.0000
# 2 24.7411 43.4515 10.7556 0.0000 0.0000 0.0000
# 3 32.2243 10.7556 75.1032 0.0000 0.0000 0.0000
# 4 0.0000 0.0000 0.0000 11.7498 0.0000 0.0000
# 5 0.0000 0.0000 0.0000 0.0000 34.7955 0.0000
# 6 0.0000 0.0000 0.0000 0.0000 0.0000 8.2859
#
#
#
# Elastic Compliance Matrix: (Units=1/GPa)
#
#
# Indices 1 2 3 4 5 6 
#
# 1 0.014780 -0.007098 -0.005325 0.000000 0.000000 0.000000
# 2 -0.007098 0.027268 -0.000860 0.000000 0.000000 0.000000
# 3 -0.005325 -0.000860 0.015723 0.000000 0.000000 0.000000
# 4 0.000000 0.000000 0.000000 0.085108 0.000000 0.000000
# 5 0.000000 0.000000 0.000000 0.000000 0.028739 0.000000
# 6 0.000000 0.000000 0.000000 0.000000 0.000000 0.120686
#
#
# Mechanical properties :
#
#
# Convention : Reuss Voigt Hill
#
# Bulk Modulus (GPa) = 32.04481 38.34960 35.19721
# Shear Modulus (GPa) = 15.18502 20.43182 17.80842
#
# Velocity S-wave (km/s) = 2.83775 3.29170 3.07312
# Velocity P-wave (km/s) = 5.26602 5.89783 5.59086
#
# Compressibility (1/GPa) = 0.03120630
#
# Stress axis : x y z
#
# Youngs Moduli (GPa) = 67.65863 36.67262 63.60103
#
# Poissons Ratio (x) = 0.26029 0.33869
# Poissons Ratio (y) = 0.48021 0.05468
# Poissons Ratio (z) = 0.36030 0.03153
#
# Static dielectric constant tensor:
#      x y z
#    x 3.488450 0.000000 0.000000 
#    y 0.000000 3.444350 0.000000 
#    z 0.000000 0.000000 3.387020 
# 
# 
# High freq. dielectric constant tensor:
#      x y z
#    x 1.726010 0.000000 0.000000 
#    y 0.000000 1.728720 0.000000 
#    z 0.000000 0.000000 1.720380 
# 
# From -- ./inp_files/20887.got.cif
#   From: 2010.03.12/outbox.cif.g09.slc.cpg/sg53_11_cif.got.tgz:20887.got - 2010.04.16 14:36:59.
