data_PCOD8218837
_publ_section_title
;
Structure prediction by ZEFSAII (Michael W. Deem and Ramdas Pophale) SiO2 
 PCOD8218837
Probable space group: P M N A
;
_chemical_formula_sum "Si O2"
_cell_formula_units_Z 64
_cell_length_a 9.031807
_cell_length_b 20.176672
_cell_length_c 19.333629
_cell_angle_alpha 90.000000
_cell_angle_beta 90.000000
_cell_angle_gamma 90.000000
_cell_volume 3523.202156
_symmetry_space_group_name_H-M "P M N A"
_symmetry_group_IT_number 53
_symmetry_cell_setting 'orthorhombic'
loop_
_space_group_symop_operation_xyz
x,y,z
1/2-x,-y,1/2+z
x,-y,-z
1/2-x,y,1/2-z
-x,-y,-z
1/2+x,y,1/2-z
-x,y,z
1/2+x,-y,1/2+z
loop_
_atom_site_type_symbol
_atom_site_label
_atom_site_fract_x
_atom_site_fract_y
_atom_site_fract_z
Si Si1 0.828282 0.105460 0.419383
Si Si2 0.328451 0.741406 0.932942
Si Si3 0.329322 0.100619 0.560755
Si Si4 0.824890 0.005072 0.176452
Si Si5 0.173306 0.364676 0.323387
Si Si6 0.326105 0.650628 0.176014
Si Si7 0.828468 0.746998 0.072819
Si Si8 0.829718 0.492243 0.678339
O O1 0.803530 0.183500 0.408786
O O2 0.766289 0.081393 0.493540
O O3 0.000000 0.085782 0.415577
O O4 0.740151 0.071947 0.356591
O O5 0.500000 0.728182 0.951156
O O6 0.268647 0.692708 0.873620
O O7 0.230074 0.724153 0.998792
O O8 0.500000 0.090304 0.539809
O O9 0.283806 0.055009 0.625105
O O10 0.297785 0.175414 0.584333
O O11 0.750000 0.990627 0.250000
O O12 0.000000 0.012602 0.186760
O O13 0.250000 0.356127 0.250000
O O14 0.209442 0.437393 0.358722
O O15 0.000000 0.355885 0.311006
O O16 0.250000 0.654074 0.250000
O O17 0.500000 0.662748 0.184855
O O18 0.261089 0.708711 0.130553
O O19 0.292834 0.577800 0.140066
O O20 0.000000 0.729147 0.078811
O O21 0.750000 0.492169 0.750000
O O22 0.000000 0.492234 0.697472
#
# Coordination Sequence:
#
# PCOD8218837 Si02
#       8
#     8   8   8   8   8   8   8   8
#     4  10  20  35  56  80 104 134 171 207 248 302
#     4   9  19  35  53  75 104 136 170 208 249 297
#     4   9  20  38  57  76 100 134 173 210 250 299
#     4  11  23  38  55  77 106 135 166 208 254 297
#     4   9  17  31  51  74 100 131 169 210 252 298
#     4  10  19  32  51  75 102 132 168 209 254 303
#     4  10  20  35  54  76 102 133 170 210 253 300
#     4   8  15  28  47  70  96 129 167 206 248 297
#
# _framework density 18.165293999999999
#
# number of rings (size 3 to 8) (size 9 to 14) (size 15 to 20)
#    0.000    2.500    0.000    1.875    0.000    5.500 
#    0.000    3.125    0.000    3.750    0.000    0.000 
#    0.000    0.000    0.000    0.000    0.000    0.000 
#
# Total GULP energy -793251.755067 kJ/mol
# GULP energy per Si atom -12394.558673 kJ/mol
# Density = 1.812395 g / cm^3
# Si number density = 18.165294 Si / 1000 Ang^3
#
#
#
# Elastic Constant Matrix: (Units=GPa)
#
#
# Indices 1 2 3 4 5 6 
#
# 1 76.8313 41.6764 44.7735 0.0000 0.0000 0.0000
# 2 41.6764 90.9663 54.9644 0.0000 0.0000 0.0000
# 3 44.7735 54.9644 92.0892 0.0000 0.0000 0.0000
# 4 0.0000 0.0000 0.0000 22.9418 0.0000 0.0000
# 5 0.0000 0.0000 0.0000 0.0000 34.3738 0.0000
# 6 0.0000 0.0000 0.0000 0.0000 0.0000 24.6284
#
#
#
# Elastic Compliance Matrix: (Units=1/GPa)
#
#
# Indices 1 2 3 4 5 6 
#
# 1 0.019524 -0.005020 -0.006497 0.000000 0.000000 0.000000
# 2 -0.005020 0.018484 -0.008592 0.000000 0.000000 0.000000
# 3 -0.006497 -0.008592 0.019146 0.000000 0.000000 0.000000
# 4 0.000000 0.000000 0.000000 0.043588 0.000000 0.000000
# 5 0.000000 0.000000 0.000000 0.000000 0.029092 0.000000
# 6 0.000000 0.000000 0.000000 0.000000 0.000000 0.040604
#
#
# Mechanical properties :
#
#
# Convention : Reuss Voigt Hill
#
# Bulk Modulus (GPa) = 59.03898 60.30169 59.67033
# Shear Modulus (GPa) = 23.11590 24.28697 23.70144
#
# Velocity S-wave (km/s) = 3.57113 3.66047 3.61607
# Velocity P-wave (km/s) = 7.04098 7.15077 7.09609
#
# Compressibility (1/GPa) = 0.01693796
#
# Stress axis : x y z
#
# Youngs Moduli (GPa) = 51.21824 54.09964 52.23039
#
# Poissons Ratio (x) = 0.27156 0.33932
# Poissons Ratio (y) = 0.25710 0.44877
# Poissons Ratio (z) = 0.33275 0.46483
#
# Static dielectric constant tensor:
#      x y z
#    x 3.414300 0.000000 0.000000 
#    y 0.000000 3.852580 0.000000 
#    z 0.000000 0.000000 2.977110 
# 
# 
# High freq. dielectric constant tensor:
#      x y z
#    x 1.711550 0.000000 0.000000 
#    y 0.000000 1.721980 0.000000 
#    z 0.000000 0.000000 1.679420 
# 
# From -- ./inp_files/26905.got.cif
#   From: 2010.03.12/outbox.cif.g09.slc.cpg/sg53_14_cif.got.tgz:26905.got - 2010.04.16 14:36:59.
