data_PCOD8218027
_publ_section_title
;
Structure prediction by ZEFSAII (Michael W. Deem and Ramdas Pophale) SiO2 
 PCOD8218027
Probable space group: P M N A
;
_chemical_formula_sum "Si O2"
_cell_formula_units_Z 56
_cell_length_a 8.670588
_cell_length_b 19.230694
_cell_length_c 18.401007
_cell_angle_alpha 90.000000
_cell_angle_beta 90.000000
_cell_angle_gamma 90.000000
_cell_volume 3068.210122
_symmetry_space_group_name_H-M "P M N A"
_symmetry_group_IT_number 53
_symmetry_cell_setting 'orthorhombic'
loop_
_space_group_symop_operation_xyz
x,y,z
1/2-x,-y,1/2+z
x,-y,-z
1/2-x,y,1/2-z
-x,-y,-z
1/2+x,y,1/2-z
-x,y,z
1/2+x,-y,1/2+z
loop_
_atom_site_type_symbol
_atom_site_label
_atom_site_fract_x
_atom_site_fract_y
_atom_site_fract_z
Si Si1 0.318316 0.273849 0.394163
Si Si2 0.317563 0.698221 0.329921
Si Si3 0.316688 0.072941 0.467745
Si Si4 0.821087 0.559365 0.328662
Si Si5 0.818347 0.790717 0.042846
Si Si6 0.320355 0.593245 0.829573
Si Si7 0.817358 0.140221 0.326873
O O1 0.500000 0.265669 0.382723
O O2 0.266551 0.257856 0.476202
O O3 0.265441 0.352126 0.380267
O O4 0.237066 0.219342 0.340269
O O5 0.250000 0.709324 0.250000
O O6 0.500000 0.699531 0.325051
O O7 0.264972 0.624508 0.366311
O O8 0.251417 0.759599 0.381934
O O9 0.500000 0.074693 0.456954
O O10 0.261876 0.130844 0.526564
O O11 0.241933 0.088097 0.389602
O O12 0.258724 0.000000 0.500000
O O13 0.750000 0.551853 0.250000
O O14 0.796308 0.483667 0.365847
O O15 0.000000 0.578302 0.322710
O O16 0.000000 0.789917 0.049370
O O17 0.250000 0.597594 0.750000
O O18 0.500000 0.611536 0.824181
O O19 0.750000 0.114210 0.250000
O O20 0.000000 0.137414 0.324206
#
# Coordination Sequence:
#
# PCOD8218027 Si02
#       7
#     8   8   8   8   8   8   8
#     4  10  19  33  51  71  98 132 170 208 249 298
#     4  10  18  31  51  72  95 123 161 206 248 293
#     4   9  18  36  60  81 105 138 171 205 251 303
#     4   9  17  29  45  66  93 125 163 204 248 295
#     4   8  17  33  52  74  98 127 162 198 242 299
#     4  10  19  30  45  68  97 129 165 206 250 295
#     4  11  21  34  53  78 108 139 174 212 250 296
#
# _framework density 18.251684000000001
#
# number of rings (size 3 to 8) (size 9 to 14) (size 15 to 20)
#    0.000    2.429    0.000    5.143    0.000    2.000 
#    0.000    8.571    0.000    6.000    0.000    0.000 
#    0.000    0.000    0.000    0.000    0.000    0.000 
#
# Total GULP energy -694032.207874 kJ/mol
# GULP energy per Si atom -12393.432283 kJ/mol
# Density = 1.821014 g / cm^3
# Si number density = 18.251684 Si / 1000 Ang^3
#
#
#
# Elastic Constant Matrix: (Units=GPa)
#
#
# Indices 1 2 3 4 5 6 
#
# 1 86.7393 40.4014 36.9218 0.0000 0.0000 0.0000
# 2 40.4014 150.5802 79.6522 0.0000 0.0000 0.0000
# 3 36.9218 79.6522 102.2841 0.0000 0.0000 0.0000
# 4 0.0000 0.0000 0.0000 21.2452 0.0000 0.0000
# 5 0.0000 0.0000 0.0000 0.0000 23.0041 0.0000
# 6 0.0000 0.0000 0.0000 0.0000 0.0000 58.0202
#
#
#
# Elastic Compliance Matrix: (Units=1/GPa)
#
#
# Indices 1 2 3 4 5 6 
#
# 1 0.013912 -0.001830 -0.003597 0.000000 0.000000 0.000000
# 2 -0.001830 0.011534 -0.008321 0.000000 0.000000 0.000000
# 3 -0.003597 -0.008321 0.017555 0.000000 0.000000 0.000000
# 4 0.000000 0.000000 0.000000 0.047070 0.000000 0.000000
# 5 0.000000 0.000000 0.000000 0.000000 0.043471 0.000000
# 6 0.000000 0.000000 0.000000 0.000000 0.000000 0.017235
#
#
# Mechanical properties :
#
#
# Convention : Reuss Voigt Hill
#
# Bulk Modulus (GPa) = 64.49552 72.61715 68.55634
# Shear Modulus (GPa) = 27.25688 32.62910 29.94299
#
# Velocity S-wave (km/s) = 3.86863 4.23274 4.05478
# Velocity P-wave (km/s) = 7.44100 7.98505 7.71782
#
# Compressibility (1/GPa) = 0.01550495
#
# Stress axis : x y z
#
# Youngs Moduli (GPa) = 71.87906 86.70381 56.96455
#
# Poissons Ratio (x) = 0.15868 0.20489
# Poissons Ratio (y) = 0.13155 0.47400
# Poissons Ratio (z) = 0.25853 0.72145
#
# Static dielectric constant tensor:
#      x y z
#    x 3.323410 0.000000 0.000000 
#    y 0.000000 3.823800 0.000000 
#    z 0.000000 0.000000 3.357470 
# 
# 
# High freq. dielectric constant tensor:
#      x y z
#    x 1.706800 0.000000 0.000000 
#    y 0.000000 1.709780 0.000000 
#    z 0.000000 0.000000 1.685200 
# 
# From -- ./inp_files/20562.got.cif
#   From: 2010.03.12/outbox.cif.g09.slc.cpg/sg53_11_cif.got.tgz:20562.got - 2010.04.16 14:36:59.
