data_PCOD8218800
_publ_section_title
;
Structure prediction by ZEFSAII (Michael W. Deem and Ramdas Pophale) SiO2 
 PCOD8218800
Probable space group: P M N A
;
_chemical_formula_sum "Si O2"
_cell_formula_units_Z 64
_cell_length_a 8.775090
_cell_length_b 18.220374
_cell_length_c 22.979528
_cell_angle_alpha 90.000000
_cell_angle_beta 90.000000
_cell_angle_gamma 90.000000
_cell_volume 3674.091524
_symmetry_space_group_name_H-M "P M N A"
_symmetry_group_IT_number 53
_symmetry_cell_setting 'orthorhombic'
loop_
_space_group_symop_operation_xyz
x,y,z
1/2-x,-y,1/2+z
x,-y,-z
1/2-x,y,1/2-z
-x,-y,-z
1/2+x,y,1/2-z
-x,y,z
1/2+x,-y,1/2+z
loop_
_atom_site_type_symbol
_atom_site_label
_atom_site_fract_x
_atom_site_fract_y
_atom_site_fract_z
Si Si1 0.177692 0.863533 0.110134
Si Si2 0.823011 0.420743 0.687929
Si Si3 0.177745 0.083513 0.497320
Si Si4 0.180240 0.577236 0.686099
Si Si5 0.178614 0.137301 0.368666
Si Si6 0.320446 0.999278 0.310145
Si Si7 0.180484 0.276859 0.185877
Si Si8 0.679200 0.738622 0.186392
O O1 0.231518 0.867707 0.043680
O O2 0.261083 0.796703 0.140738
O O3 0.000000 0.847794 0.113108
O O4 0.221290 0.939629 0.141221
O O5 0.750000 0.422683 0.750000
O O6 0.781888 0.497925 0.654516
O O7 0.777943 0.342425 0.659107
O O8 0.000000 0.421431 0.699870
O O9 0.215303 0.116175 0.434637
O O10 0.000000 0.087051 0.512657
O O11 0.236925 0.000000 0.500000
O O12 0.250000 0.573332 0.750000
O O13 0.261397 0.646934 0.655746
O O14 0.000000 0.591954 0.688727
O O15 0.242000 0.075714 0.325657
O O16 0.264256 0.212685 0.356188
O O17 0.000000 0.146331 0.357173
O O18 0.250000 0.970158 0.250000
O O19 0.500000 0.010825 0.303832
O O20 0.250000 0.266181 0.250000
O O21 0.000000 0.276615 0.190625
O O22 0.750000 0.751052 0.250000
O O23 0.500000 0.748528 0.193500
#
# Coordination Sequence:
#
# PCOD8218800 Si02
#       8
#     8   8   8   8   8   8   8   8
#     4  11  23  36  53  76 102 134 170 210 255 300
#     4   8  15  26  43  68  98 134 169 205 245 293
#     4  10  21  39  60  78  95 125 167 214 260 303
#     4   9  15  26  44  68  99 133 170 204 244 294
#     4  11  22  37  56  75  98 128 166 208 255 302
#     4  11  23  36  51  73 101 133 166 202 247 298
#     4  11  21  33  49  73 106 138 170 205 250 299
#     4  10  19  32  50  74 107 140 173 211 254 302
#
# _framework density 17.419270999999998
#
# number of rings (size 3 to 8) (size 9 to 14) (size 15 to 20)
#    0.000    1.875    1.250    4.500    0.000    4.750 
#    0.000    0.000    0.000    0.000    0.000    0.875 
#    0.000    7.000    0.000    0.000    0.000    0.000 
#
# Total GULP energy -793188.663060 kJ/mol
# GULP energy per Si atom -12393.572860 kJ/mol
# Density = 1.737962 g / cm^3
# Si number density = 17.419271 Si / 1000 Ang^3
#
#
#
# Elastic Constant Matrix: (Units=GPa)
#
#
# Indices 1 2 3 4 5 6 
#
# 1 87.6075 55.5824 33.6096 0.0000 0.0000 0.0000
# 2 55.5824 149.9598 35.5764 0.0000 0.0000 0.0000
# 3 33.6096 35.5764 62.5632 0.0000 0.0000 0.0000
# 4 0.0000 0.0000 0.0000 7.2037 0.0000 0.0000
# 5 0.0000 0.0000 0.0000 0.0000 24.1182 0.0000
# 6 0.0000 0.0000 0.0000 0.0000 0.0000 26.1421
#
#
#
# Elastic Compliance Matrix: (Units=1/GPa)
#
#
# Indices 1 2 3 4 5 6 
#
# 1 0.016864 -0.004741 -0.006363 0.000000 0.000000 0.000000
# 2 -0.004741 0.009041 -0.002594 0.000000 0.000000 0.000000
# 3 -0.006363 -0.002594 0.020878 0.000000 0.000000 0.000000
# 4 0.000000 0.000000 0.000000 0.138817 0.000000 0.000000
# 5 0.000000 0.000000 0.000000 0.000000 0.041462 0.000000
# 6 0.000000 0.000000 0.000000 0.000000 0.000000 0.038252
#
#
# Mechanical properties :
#
#
# Convention : Reuss Voigt Hill
#
# Bulk Modulus (GPa) = 51.58613 61.07415 56.33014
# Shear Modulus (GPa) = 16.71269 23.18361 19.94815
#
# Velocity S-wave (km/s) = 3.10084 3.65213 3.38772
# Velocity P-wave (km/s) = 6.51912 7.27471 6.90726
#
# Compressibility (1/GPa) = 0.01938505
#
# Stress axis : x y z
#
# Youngs Moduli (GPa) = 59.29921 110.60569 47.89807
#
# Poissons Ratio (x) = 0.52436 0.30480
# Poissons Ratio (y) = 0.28113 0.12427
# Poissons Ratio (z) = 0.37735 0.28696
#
# Static dielectric constant tensor:
#      x y z
#    x 3.174490 0.000000 0.000000 
#    y 0.000000 4.038280 0.000000 
#    z 0.000000 0.000000 2.879080 
# 
# 
# High freq. dielectric constant tensor:
#      x y z
#    x 1.688340 0.000000 0.000000 
#    y 0.000000 1.694780 0.000000 
#    z 0.000000 0.000000 1.624280 
# 
# From -- ./inp_files/34439.got.cif
#   From: 2010.03.12/outbox.cif.g09.slc.cpg/sg53_18_cif.got.tgz:34439.got - 2010.04.16 14:36:59.
