data_PCOD8218257
_publ_section_title
;
Structure prediction by ZEFSAII (Michael W. Deem and Ramdas Pophale) SiO2 
 PCOD8218257
Probable space group: P M N A
;
_chemical_formula_sum "Si O2"
_cell_formula_units_Z 40
_cell_length_a 17.728622
_cell_length_b 7.517504
_cell_length_c 14.492357
_cell_angle_alpha 90.000000
_cell_angle_beta 90.000000
_cell_angle_gamma 90.000000
_cell_volume 1931.468688
_symmetry_space_group_name_H-M "P M N A"
_symmetry_group_IT_number 53
_symmetry_cell_setting 'orthorhombic'
loop_
_space_group_symop_operation_xyz
x,y,z
1/2-x,-y,1/2+z
x,-y,-z
1/2-x,y,1/2-z
-x,-y,-z
1/2+x,y,1/2-z
-x,y,z
1/2+x,-y,1/2+z
loop_
_atom_site_type_symbol
_atom_site_label
_atom_site_fract_x
_atom_site_fract_y
_atom_site_fract_z
Si Si1 0.307707 0.619872 0.668910
Si Si2 0.582002 0.663291 0.067296
Si Si3 0.413813 0.330296 0.726220
Si Si4 0.794186 0.164867 0.452601
Si Si5 0.163832 0.965985 0.738598
O O1 0.250000 0.570657 0.750000
O O2 0.363185 0.450507 0.656143
O O3 0.261033 0.671244 0.575568
O O4 0.354176 0.797906 0.695409
O O5 0.500000 0.761682 0.066881
O O6 0.597837 0.591878 0.170780
O O7 0.578793 0.500000 0.000000
O O8 0.649404 0.787704 0.035530
O O9 0.500000 0.343144 0.692315
O O10 0.390898 0.123324 0.729908
O O11 0.748013 0.000000 0.500000
O O12 0.845591 0.099405 0.366613
O O13 0.250000 0.030029 0.750000
#
# Coordination Sequence:
#
# PCOD8218257 Si02
#       5
#     8   8   8   8   8
#     4   9  20  36  54  78 112 150 190 234 271 335
#     4  10  20  31  49  83 122 153 180 223 288 355
#     4  11  21  34  55  80 114 153 186 227 284 343
#     4  10  18  34  55  80 114 150 195 238 286 332
#     4   9  19  34  53  76 108 149 190 230 270 335
#
# _framework density 20.709627999999999
#
# number of rings (size 3 to 8) (size 9 to 14) (size 15 to 20)
#    0.000    2.600    2.000    3.000    0.000    2.000 
#    0.000    0.000    0.000    0.600    0.000    5.600 
#    0.000    0.000    0.000    0.000    0.000    0.000 
#
# Total GULP energy -495554.185357 kJ/mol
# GULP energy per Si atom -12388.854634 kJ/mol
# Density = 2.066249 g / cm^3
# Si number density = 20.709628 Si / 1000 Ang^3
#
#
#
# Elastic Constant Matrix: (Units=GPa)
#
#
# Indices 1 2 3 4 5 6 
#
# 1 97.2338 49.6892 16.5157 0.0000 0.0000 0.0000
# 2 49.6892 95.1386 2.0182 0.0000 0.0000 0.0000
# 3 16.5157 2.0182 27.8750 0.0000 0.0000 0.0000
# 4 0.0000 0.0000 0.0000 24.6934 0.0000 0.0000
# 5 0.0000 0.0000 0.0000 0.0000 -9.3987 0.0000
# 6 0.0000 0.0000 0.0000 0.0000 0.0000 40.4235
#
#
#
# Elastic Compliance Matrix: (Units=1/GPa)
#
#
# Indices 1 2 3 4 5 6 
#
# 1 0.015951 -0.008143 -0.008861 0.000000 0.000000 0.000000
# 2 -0.008143 0.014684 0.003761 0.000000 0.000000 0.000000
# 3 -0.008861 0.003761 0.040852 0.000000 0.000000 0.000000
# 4 0.000000 0.000000 0.000000 0.040497 0.000000 0.000000
# 5 0.000000 0.000000 0.000000 0.000000 -0.106398 0.000000
# 6 0.000000 0.000000 0.000000 0.000000 0.000000 0.024738
#
#
# Mechanical properties :
#
#
# Convention : Reuss Voigt Hill
#
# Bulk Modulus (GPa) = 22.22126 39.63263 30.92695
# Shear Modulus (GPa) = 69.62816 21.27859 45.45338
#
# Velocity S-wave (km/s) = 5.80467 3.20890 4.68995
# Velocity P-wave (km/s) = 7.46182 5.73657 6.65533
#
# Compressibility (1/GPa) = 0.04500194
#
# Stress axis : x y z
#
# Youngs Moduli (GPa) = 62.69266 68.10106 24.47844
#
# Poissons Ratio (x) = 0.55454 0.21691
# Poissons Ratio (y) = 0.51050 -0.09207
# Poissons Ratio (z) = 0.55553 -0.25616
#
# Static dielectric constant tensor:
#      x y z
#    x 3.805220 0.000000 0.000000 
#    y 0.000000 3.894160 0.000000 
#    z 0.000000 0.000000 3.622650 
# 
# 
# High freq. dielectric constant tensor:
#      x y z
#    x 1.782020 0.000000 0.000000 
#    y 0.000000 1.813000 0.000000 
#    z 0.000000 0.000000 1.785380 
# 
# From -- ./inp_files/23414.got.cif
#   From: 2010.03.12/outbox.cif.g09.slc.cpg/sg53_12_cif.got.tgz:23414.got - 2010.04.16 14:36:59.
