data_PCOD8218602
_publ_section_title
;
Structure prediction by ZEFSAII (Michael W. Deem and Ramdas Pophale) SiO2 
 PCOD8218602
Probable space group: P M N A
;
_chemical_formula_sum "Si O2"
_cell_formula_units_Z 48
_cell_length_a 8.988335
_cell_length_b 14.040106
_cell_length_c 21.669234
_cell_angle_alpha 90.000000
_cell_angle_beta 90.000000
_cell_angle_gamma 90.000000
_cell_volume 2734.596140
_symmetry_space_group_name_H-M "P M N A"
_symmetry_group_IT_number 53
_symmetry_cell_setting 'orthorhombic'
loop_
_space_group_symop_operation_xyz
x,y,z
1/2-x,-y,1/2+z
x,-y,-z
1/2-x,y,1/2-z
-x,-y,-z
1/2+x,y,1/2-z
-x,y,z
1/2+x,-y,1/2+z
loop_
_atom_site_type_symbol
_atom_site_label
_atom_site_fract_x
_atom_site_fract_y
_atom_site_fract_z
Si Si1 0.166124 0.367583 0.409389
Si Si2 0.824697 0.926003 0.054003
Si Si3 0.831780 0.790659 0.691962
Si Si4 0.324299 0.723189 0.035879
Si Si5 0.676180 0.013877 0.314394
Si Si6 0.170520 0.542713 0.068051
O O1 0.169160 0.290869 0.357031
O O2 0.226823 0.311737 0.468734
O O3 0.264723 0.458505 0.388822
O O4 0.000000 0.405464 0.422553
O O5 0.744452 0.826136 0.045412
O O6 0.780480 0.956477 0.123704
O O7 0.000000 0.911217 0.047744
O O8 0.771611 0.000000 0.000000
O O9 0.750000 0.744145 0.750000
O O10 0.000000 0.824031 0.707145
O O11 0.736136 0.881171 0.671048
O O12 0.500000 0.730117 0.045243
O O13 0.256470 0.642059 0.081176
O O14 0.750000 0.974421 0.250000
O O15 0.500000 0.014498 0.304851
O O16 0.000000 0.561140 0.083672
O O17 0.197552 0.500000 0.000000
#
# Coordination Sequence:
#
# PCOD8218602 Si02
#       6
#     8   8   8   8   8   8
#     4   9  18  31  47  70  99 128 158 195 240 288
#     4  10  21  35  51  74 103 132 165 208 253 294
#     4  10  19  31  48  70  97 127 161 200 240 287
#     4  10  19  31  49  72  99 129 160 198 243 290
#     4  10  20  34  52  72  98 133 169 205 245 294
#     4   9  17  29  47  70  95 125 158 191 232 287
#
# _framework density 17.552865000000001
#
# number of rings (size 3 to 8) (size 9 to 14) (size 15 to 20)
#    0.000    2.333    0.000    4.000    0.000    5.667 
#    0.000    0.000    0.000    1.000    0.000    7.000 
#    0.000    0.000    0.000    0.000    0.000    0.000 
#
# Total GULP energy -594790.375379 kJ/mol
# GULP energy per Si atom -12391.466154 kJ/mol
# Density = 1.751291 g / cm^3
# Si number density = 17.552865 Si / 1000 Ang^3
#
#
#
# Elastic Constant Matrix: (Units=GPa)
#
#
# Indices 1 2 3 4 5 6 
#
# 1 80.2767 57.4245 42.8709 0.0000 0.0000 0.0000
# 2 57.4245 122.7713 54.5406 0.0000 0.0000 0.0000
# 3 42.8709 54.5406 80.2094 0.0000 0.0000 0.0000
# 4 0.0000 0.0000 0.0000 -23.5425 0.0000 0.0000
# 5 0.0000 0.0000 0.0000 0.0000 18.8378 0.0000
# 6 0.0000 0.0000 0.0000 0.0000 0.0000 36.4989
#
#
#
# Elastic Compliance Matrix: (Units=1/GPa)
#
#
# Indices 1 2 3 4 5 6 
#
# 1 0.020819 -0.006870 -0.006456 0.000000 0.000000 0.000000
# 2 -0.006870 0.013937 -0.005805 0.000000 0.000000 0.000000
# 3 -0.006456 -0.005805 0.019866 0.000000 0.000000 0.000000
# 4 0.000000 0.000000 0.000000 -0.042476 0.000000 0.000000
# 5 0.000000 0.000000 0.000000 0.000000 0.053085 0.000000
# 6 0.000000 0.000000 0.000000 0.000000 0.000000 0.027398
#
#
# Mechanical properties :
#
#
# Convention : Reuss Voigt Hill
#
# Bulk Modulus (GPa) = 61.12672 65.88105 63.50389
# Shear Modulus (GPa) = 36.67200 14.92028 25.79614
#
# Velocity S-wave (km/s) = 4.57577 2.91867 3.83773
# Velocity P-wave (km/s) = 7.92571 6.99804 7.47628
#
# Compressibility (1/GPa) = 0.01635946
#
# Stress axis : x y z
#
# Youngs Moduli (GPa) = 48.03353 71.74947 50.33795
#
# Poissons Ratio (x) = 0.49288 0.32500
# Poissons Ratio (y) = 0.32997 0.29223
# Poissons Ratio (z) = 0.31012 0.41654
#
# Static dielectric constant tensor:
#      x y z
#    x 3.490200 0.000000 0.000000 
#    y 0.000000 3.289740 0.000000 
#    z 0.000000 0.000000 3.012370 
# 
# 
# High freq. dielectric constant tensor:
#      x y z
#    x 1.691440 0.000000 0.000000 
#    y 0.000000 1.680510 0.000000 
#    z 0.000000 0.000000 1.651900 
# 
# From -- ./inp_files/30489.got.cif
#   From: 2010.03.12/outbox.cif.g09.slc.cpg/sg53_16_cif.got.tgz:30489.got - 2010.04.16 14:36:59.
