data_PCOD8218026
_publ_section_title
;
Structure prediction by ZEFSAII (Michael W. Deem and Ramdas Pophale) SiO2 
 PCOD8218026
Probable space group: P M N A
;
_chemical_formula_sum "Si O2"
_cell_formula_units_Z 56
_cell_length_a 18.162428
_cell_length_b 9.556428
_cell_length_c 16.686705
_cell_angle_alpha 90.000000
_cell_angle_beta 90.000000
_cell_angle_gamma 90.000000
_cell_volume 2896.276937
_symmetry_space_group_name_H-M "P M N A"
_symmetry_group_IT_number 53
_symmetry_cell_setting 'orthorhombic'
loop_
_space_group_symop_operation_xyz
x,y,z
1/2-x,-y,1/2+z
x,-y,-z
1/2-x,y,1/2-z
-x,-y,-z
1/2+x,y,1/2-z
-x,y,z
1/2+x,-y,1/2+z
loop_
_atom_site_type_symbol
_atom_site_label
_atom_site_fract_x
_atom_site_fract_y
_atom_site_fract_z
Si Si1 0.585954 0.124381 0.939555
Si Si2 0.675707 0.445941 0.203512
Si Si3 0.918773 0.278738 0.868551
Si Si4 0.835234 0.346885 0.468782
Si Si5 0.829059 0.770891 0.286760
Si Si6 0.326187 0.333062 0.489303
Si Si7 0.580842 0.395177 0.347189
O O1 0.500000 0.115363 0.913366
O O2 0.638809 0.133362 0.859833
O O3 0.597552 0.260133 0.994679
O O4 0.608655 0.000000 0.000000
O O5 0.750000 0.408490 0.250000
O O6 0.666156 0.349485 0.126882
O O7 0.676899 0.611181 0.181102
O O8 0.607181 0.397332 0.256209
O O9 0.886822 0.221890 0.785627
O O10 0.922648 0.445259 0.874927
O O11 0.000000 0.213653 0.878977
O O12 0.867267 0.240022 0.943585
O O13 0.847113 0.500000 0.500000
O O14 0.757300 0.278671 0.494452
O O15 0.750000 0.821052 0.250000
O O16 0.325074 0.500000 0.500000
O O17 0.365163 0.304766 0.403823
O O18 0.500000 0.326561 0.351527
#
# Coordination Sequence:
#
# PCOD8218026 Si02
#       7
#     8   8   8   8   8   8   8
#     4  11  25  43  59  83 121 159 197 247 300 350
#     4  10  18  31  50  82 116 148 189 243 293 343
#     4   9  16  25  42  72 108 141 175 221 277 339
#     4  11  20  35  57  82 110 148 195 239 291 354
#     4  10  19  34  58  83 110 147 196 241 291 344
#     4   9  16  26  46  74 108 142 177 222 282 335
#     4   9  16  25  40  68 110 148 175 218 280 343
#
# _framework density 19.335169
#
# number of rings (size 3 to 8) (size 9 to 14) (size 15 to 20)
#    0.000    2.143    2.857    1.714    4.000    3.143 
#    0.000    0.714    0.000    0.000    0.000    0.000 
#    0.000    4.000    0.000    0.000    0.000    0.000 
#
# Total GULP energy -693909.541459 kJ/mol
# GULP energy per Si atom -12391.241812 kJ/mol
# Density = 1.929116 g / cm^3
# Si number density = 19.335169 Si / 1000 Ang^3
#
#
#
# Elastic Constant Matrix: (Units=GPa)
#
#
# Indices 1 2 3 4 5 6 
#
# 1 90.9169 25.2358 36.1490 0.0000 0.0000 0.0000
# 2 25.2358 30.2755 30.4320 0.0000 0.0000 0.0000
# 3 36.1490 30.4320 114.7731 0.0000 0.0000 0.0000
# 4 0.0000 0.0000 0.0000 23.0521 0.0000 0.0000
# 5 0.0000 0.0000 0.0000 0.0000 22.9535 0.0000
# 6 0.0000 0.0000 0.0000 0.0000 0.0000 -12.8291
#
#
#
# Elastic Compliance Matrix: (Units=1/GPa)
#
#
# Indices 1 2 3 4 5 6 
#
# 1 0.014598 -0.010289 -0.001870 0.000000 0.000000 0.000000
# 2 -0.010289 0.052283 -0.010622 0.000000 0.000000 0.000000
# 3 -0.001870 -0.010622 0.012118 0.000000 0.000000 0.000000
# 4 0.000000 0.000000 0.000000 0.043380 0.000000 0.000000
# 5 0.000000 0.000000 0.000000 0.000000 0.043566 0.000000
# 6 0.000000 0.000000 0.000000 0.000000 0.000000 -0.077948
#
#
# Mechanical properties :
#
#
# Convention : Reuss Voigt Hill
#
# Bulk Modulus (GPa) = 29.90606 46.62213 38.26409
# Shear Modulus (GPa) = 34.55275 16.24521 25.39898
#
# Velocity S-wave (km/s) = 4.23193 2.90175 3.62832
# Velocity P-wave (km/s) = 6.27533 5.94910 6.11439
#
# Compressibility (1/GPa) = 0.03343804
#
# Stress axis : x y z
#
# Youngs Moduli (GPa) = 68.50079 19.12659 82.52010
#
# Poissons Ratio (x) = 0.19679 0.15430
# Poissons Ratio (y) = 0.70479 0.87655
# Poissons Ratio (z) = 0.12809 0.20317
#
# Static dielectric constant tensor:
#      x y z
#    x 3.810280 0.000000 0.000000 
#    y 0.000000 3.059720 0.000000 
#    z 0.000000 0.000000 4.256710 
# 
# 
# High freq. dielectric constant tensor:
#      x y z
#    x 1.766690 0.000000 0.000000 
#    y 0.000000 1.667340 0.000000 
#    z 0.000000 0.000000 1.771890 
# 
# From -- ./inp_files/24375.got.cif
#   From: 2010.03.12/outbox.cif.g09.slc.cpg/sg53_13_cif.got.tgz:24375.got - 2010.04.16 14:36:59.
