data_PCOD8218517
_publ_section_title
;
Structure prediction by ZEFSAII (Michael W. Deem and Ramdas Pophale) SiO2 
 PCOD8218517
Probable space group: P M N A
;
_chemical_formula_sum "Si O2"
_cell_formula_units_Z 64
_cell_length_a 9.493532
_cell_length_b 18.848550
_cell_length_c 18.519353
_cell_angle_alpha 90.000000
_cell_angle_beta 90.000000
_cell_angle_gamma 90.000000
_cell_volume 3313.840295
_symmetry_space_group_name_H-M "P M N A"
_symmetry_group_IT_number 53
_symmetry_cell_setting 'orthorhombic'
loop_
_space_group_symop_operation_xyz
x,y,z
1/2-x,-y,1/2+z
x,-y,-z
1/2-x,y,1/2-z
-x,-y,-z
1/2+x,y,1/2-z
-x,y,z
1/2+x,-y,1/2+z
loop_
_atom_site_type_symbol
_atom_site_label
_atom_site_fract_x
_atom_site_fract_y
_atom_site_fract_z
Si Si1 0.335239 0.210655 0.571934
Si Si2 0.657284 0.722687 0.185908
Si Si3 0.653737 0.441518 0.811458
Si Si4 0.158995 0.078760 0.580422
Si Si5 0.835076 0.351695 0.176426
Si Si6 0.837269 0.208597 0.097214
Si Si7 0.342686 0.922730 0.908917
Si Si8 0.342437 0.510728 0.584661
O O1 0.500000 0.215904 0.591183
O O2 0.245122 0.271336 0.611639
O O3 0.273111 0.137066 0.604579
O O4 0.308119 0.221424 0.487342
O O5 0.750000 0.758513 0.250000
O O6 0.500000 0.757156 0.180744
O O7 0.636818 0.640785 0.203860
O O8 0.750000 0.478533 0.750000
O O9 0.500000 0.478120 0.810807
O O10 0.730621 0.453933 0.886953
O O11 0.161496 0.077636 0.494621
O O12 0.000000 0.097977 0.606183
O O13 0.204441 0.002455 0.614129
O O14 0.750000 0.366460 0.250000
O O15 0.785309 0.276833 0.141986
O O16 0.803172 0.411083 0.115082
O O17 0.000000 0.349476 0.195168
O O18 0.756550 0.138111 0.124558
O O19 0.000000 0.193622 0.110989
O O20 0.500000 0.907209 0.880874
O O21 0.332168 0.500000 0.500000
O O22 0.500000 0.491205 0.610912
#
# Coordination Sequence:
#
# PCOD8218517 Si02
#       8
#     8   8   8   8   8   8   8   8
#     4  10  19  30  50  78 107 141 179 224 272 323
#     4  10  21  36  53  75 104 140 177 217 265 319
#     4  10  21  37  57  80 107 140 180 223 267 321
#     4   8  14  26  44  69 104 141 174 218 269 322
#     4  10  22  40  58  81 110 146 186 221 271 328
#     4   9  19  33  51  77 108 138 174 224 272 320
#     4   8  14  26  46  72 102 137 178 218 266 320
#     4  10  22  38  60  85 111 145 180 222 275 328
#
# _framework density 19.312940000000001
#
# number of rings (size 3 to 8) (size 9 to 14) (size 15 to 20)
#    0.000    2.625    0.000    2.250    1.750    4.750 
#    0.000    2.500    0.000    0.750    0.000    1.750 
#    0.000    0.000    0.000    0.000    0.000    0.000 
#
# Total GULP energy -793138.577536 kJ/mol
# GULP energy per Si atom -12392.790274 kJ/mol
# Density = 1.926898 g / cm^3
# Si number density = 19.312940 Si / 1000 Ang^3
#
#
#
# Elastic Constant Matrix: (Units=GPa)
#
#
# Indices 1 2 3 4 5 6 
#
# 1 128.7388 39.2303 52.3751 0.0000 0.0000 0.0000
# 2 39.2303 78.5368 35.8738 0.0000 0.0000 0.0000
# 3 52.3751 35.8738 67.7663 0.0000 0.0000 0.0000
# 4 0.0000 0.0000 0.0000 17.2040 0.0000 0.0000
# 5 0.0000 0.0000 0.0000 0.0000 26.8484 0.0000
# 6 0.0000 0.0000 0.0000 0.0000 0.0000 29.9688
#
#
#
# Elastic Compliance Matrix: (Units=1/GPa)
#
#
# Indices 1 2 3 4 5 6 
#
# 1 0.011623 -0.002246 -0.007794 0.000000 0.000000 0.000000
# 2 -0.002246 0.017228 -0.007384 0.000000 0.000000 0.000000
# 3 -0.007794 -0.007384 0.024690 0.000000 0.000000 0.000000
# 4 0.000000 0.000000 0.000000 0.058126 0.000000 0.000000
# 5 0.000000 0.000000 0.000000 0.000000 0.037246 0.000000
# 6 0.000000 0.000000 0.000000 0.000000 0.000000 0.033368
#
#
# Mechanical properties :
#
#
# Convention : Reuss Voigt Hill
#
# Bulk Modulus (GPa) = 53.49937 58.88892 56.19415
# Shear Modulus (GPa) = 22.38542 24.64175 23.51359
#
# Velocity S-wave (km/s) = 3.40823 3.57588 3.49306
# Velocity P-wave (km/s) = 6.57644 6.89981 6.74006
#
# Compressibility (1/GPa) = 0.01869181
#
# Stress axis : x y z
#
# Youngs Moduli (GPa) = 86.03657 58.04656 40.50258
#
# Poissons Ratio (x) = 0.13035 0.31569
# Poissons Ratio (y) = 0.19320 0.29908
# Poissons Ratio (z) = 0.67060 0.42863
#
# Static dielectric constant tensor:
#      x y z
#    x 3.821210 0.000000 0.000000 
#    y 0.000000 3.693430 0.000000 
#    z 0.000000 0.000000 3.221400 
# 
# 
# High freq. dielectric constant tensor:
#      x y z
#    x 1.758190 0.000000 0.000000 
#    y 0.000000 1.749260 0.000000 
#    z 0.000000 0.000000 1.720100 
# 
# From -- ./inp_files/31193.got.cif
#   From: 2010.03.12/outbox.cif.g09.slc.cpg/sg53_16_cif.got.tgz:31193.got - 2010.04.16 14:36:59.
