data_PCOD8218732
_publ_section_title
;
Structure prediction by ZEFSAII (Michael W. Deem and Ramdas Pophale) SiO2 
 PCOD8218732
Probable space group: P M N A
;
_chemical_formula_sum "Si O2"
_cell_formula_units_Z 64
_cell_length_a 17.887309
_cell_length_b 11.013645
_cell_length_c 16.545254
_cell_angle_alpha 90.000000
_cell_angle_beta 90.000000
_cell_angle_gamma 90.000000
_cell_volume 3259.489017
_symmetry_space_group_name_H-M "P M N A"
_symmetry_group_IT_number 53
_symmetry_cell_setting 'orthorhombic'
loop_
_space_group_symop_operation_xyz
x,y,z
1/2-x,-y,1/2+z
x,-y,-z
1/2-x,y,1/2-z
-x,-y,-z
1/2+x,y,1/2-z
-x,y,z
1/2+x,-y,1/2+z
loop_
_atom_site_type_symbol
_atom_site_label
_atom_site_fract_x
_atom_site_fract_y
_atom_site_fract_z
Si Si1 0.763428 0.619556 0.087905
Si Si2 0.278977 0.351547 0.093907
Si Si3 0.875535 0.949859 0.124497
Si Si4 0.585046 0.746809 0.806826
Si Si5 0.226251 0.855431 0.338905
Si Si6 0.631818 0.231152 0.370834
Si Si7 0.918186 0.716483 0.039996
Si Si8 0.083294 0.968524 0.305168
O O1 0.747513 0.485557 0.120679
O O2 0.727885 0.710420 0.152816
O O3 0.853183 0.640371 0.084580
O O4 0.721830 0.650166 0.003375
O O5 0.360417 0.323716 0.131339
O O6 0.221410 0.251729 0.129040
O O7 0.788339 0.919965 0.105444
O O8 0.918686 0.860078 0.063604
O O9 0.903673 0.919251 0.214676
O O10 0.889807 0.091610 0.111376
O O11 0.500000 0.709773 0.828650
O O12 0.600422 0.715824 0.713027
O O13 0.597861 0.889588 0.815093
O O14 0.250000 0.897060 0.250000
O O15 0.143563 0.902017 0.362331
O O16 0.594041 0.303406 0.444248
O O17 0.000000 0.663049 0.062285
O O18 0.000000 0.933548 0.333567
#
# Coordination Sequence:
#
# PCOD8218732 Si02
#       8
#     8   8   8   8   8   8   8   8
#     4   9  21  38  54  74  97 133 181 216 252 315
#     4  10  20  38  56  70  99 140 177 215 262 308
#     4   9  17  29  48  76 109 142 170 197 244 313
#     4  10  20  34  53  78 105 133 171 217 262 306
#     4   9  17  31  51  73  99 132 170 211 255 305
#     4  10  19  31  52  80 108 139 171 204 250 311
#     4  10  19  32  52  79 111 140 166 205 255 305
#     4   9  17  30  49  75 106 136 168 211 261 308
#
# _framework density 19.634979000000001
#
# number of rings (size 3 to 8) (size 9 to 14) (size 15 to 20)
#    0.000    2.500    0.000    2.250    0.000    5.000 
#    0.000   10.000    0.000    1.500    0.000    0.000 
#    0.000    0.000    0.000    0.000    0.000    0.000 
#
# Total GULP energy -793170.560574 kJ/mol
# GULP energy per Si atom -12393.290009 kJ/mol
# Density = 1.959029 g / cm^3
# Si number density = 19.634979 Si / 1000 Ang^3
#
#
#
# Elastic Constant Matrix: (Units=GPa)
#
#
# Indices 1 2 3 4 5 6 
#
# 1 166.3341 44.1861 36.1198 0.0000 0.0000 0.0000
# 2 44.1861 53.6740 13.2077 0.0000 0.0000 0.0000
# 3 36.1198 13.2077 39.0642 0.0000 0.0000 0.0000
# 4 0.0000 0.0000 0.0000 25.8238 0.0000 0.0000
# 5 0.0000 0.0000 0.0000 0.0000 20.2988 0.0000
# 6 0.0000 0.0000 0.0000 0.0000 0.0000 22.0014
#
#
#
# Elastic Compliance Matrix: (Units=1/GPa)
#
#
# Indices 1 2 3 4 5 6 
#
# 1 0.008916 -0.005793 -0.006285 0.000000 0.000000 0.000000
# 2 -0.005793 0.024086 -0.002787 0.000000 0.000000 0.000000
# 3 -0.006285 -0.002787 0.032353 0.000000 0.000000 0.000000
# 4 0.000000 0.000000 0.000000 0.038724 0.000000 0.000000
# 5 0.000000 0.000000 0.000000 0.000000 0.049264 0.000000
# 6 0.000000 0.000000 0.000000 0.000000 0.000000 0.045452
#
#
# Mechanical properties :
#
#
# Convention : Reuss Voigt Hill
#
# Bulk Modulus (GPa) = 28.07120 49.56660 38.81890
# Shear Modulus (GPa) = 20.79878 24.66205 22.73041
#
# Velocity S-wave (km/s) = 3.25818 3.54789 3.40612
# Velocity P-wave (km/s) = 5.33684 6.48708 5.93987
#
# Compressibility (1/GPa) = 0.03562370
#
# Stress axis : x y z
#
# Youngs Moduli (GPa) = 112.16134 41.51815 30.90951
#
# Poissons Ratio (x) = 0.24052 0.19427
# Poissons Ratio (y) = 0.64976 0.08615
# Poissons Ratio (z) = 0.70494 0.11571
#
# Static dielectric constant tensor:
#      x y z
#    x 3.778840 0.000000 0.000000 
#    y 0.000000 3.412990 0.000000 
#    z 0.000000 0.000000 3.384040 
# 
# 
# High freq. dielectric constant tensor:
#      x y z
#    x 1.768000 0.000000 0.000000 
#    y 0.000000 1.748800 0.000000 
#    z 0.000000 0.000000 1.742460 
# 
# From -- ./inp_files/29105.got.cif
#   From: 2010.03.12/outbox.cif.g09.slc.cpg/sg53_15_cif.got.tgz:29105.got - 2010.04.16 14:36:59.
