data_PCOD8218558
_publ_section_title
;
Structure prediction by ZEFSAII (Michael W. Deem and Ramdas Pophale) SiO2 
 PCOD8218558
Probable space group: P M N A
;
_chemical_formula_sum "Si O2"
_cell_formula_units_Z 64
_cell_length_a 9.210084
_cell_length_b 14.102368
_cell_length_c 28.648682
_cell_angle_alpha 90.000000
_cell_angle_beta 90.000000
_cell_angle_gamma 90.000000
_cell_volume 3721.005238
_symmetry_space_group_name_H-M "P M N A"
_symmetry_group_IT_number 53
_symmetry_cell_setting 'orthorhombic'
loop_
_space_group_symop_operation_xyz
x,y,z
1/2-x,-y,1/2+z
x,-y,-z
1/2-x,y,1/2-z
-x,-y,-z
1/2+x,y,1/2-z
-x,y,z
1/2+x,-y,1/2+z
loop_
_atom_site_type_symbol
_atom_site_label
_atom_site_fract_x
_atom_site_fract_y
_atom_site_fract_z
Si Si1 0.662547 0.300392 0.586081
Si Si2 0.829544 0.135084 0.616273
Si Si3 0.659514 0.807817 0.509023
Si Si4 0.669031 0.484192 0.945498
Si Si5 0.167244 0.861620 0.629611
Si Si6 0.165543 0.685110 0.578944
Si Si7 0.831457 0.010747 0.058051
Si Si8 0.334650 0.995545 0.203047
O O1 0.500000 0.320084 0.604953
O O2 0.757020 0.239143 0.622788
O O3 0.657381 0.230806 0.542491
O O4 0.737041 0.399382 0.574737
O O5 0.788399 0.078165 0.662947
O O6 0.000000 0.147889 0.609310
O O7 0.769635 0.079454 0.570296
O O8 0.500000 0.794688 0.532109
O O9 0.774920 0.746730 0.536585
O O10 0.689389 0.924808 0.509074
O O11 0.500000 0.462246 0.936150
O O12 0.728587 0.578519 0.918322
O O13 0.700380 0.500000 0.000000
O O14 0.184799 0.746494 0.626675
O O15 0.283532 0.906693 0.594468
O O16 0.000000 0.890476 0.615552
O O17 0.195768 0.898703 0.682273
O O18 0.000000 0.669521 0.564961
O O19 0.000000 0.982294 0.065645
O O20 0.250000 0.976539 0.250000
O O21 0.500000 0.981430 0.216846
#
# Coordination Sequence:
#
# PCOD8218558 Si02
#       8
#     8   8   8   8   8   8   8   8
#     4  11  22  33  46  65  92 128 166 206 245 280
#     4  10  21  36  49  66  94 124 156 195 235 284
#     4   9  18  29  42  63  91 123 160 200 240 277
#     4  10  19  31  47  69  93 124 169 214 248 279
#     4   8  15  28  45  69  97 124 153 186 226 277
#     4   9  16  28  47  66  91 126 162 199 238 279
#     4   9  16  28  45  64  89 122 158 194 232 276
#     4   9  18  32  52  76  99 121 147 182 229 286
#
# _framework density 17.199653999999999
#
# number of rings (size 3 to 8) (size 9 to 14) (size 15 to 20)
#    0.000    2.625    1.250    1.875    0.000    4.750 
#    0.000    2.500    0.000    0.000    0.000    0.875 
#    0.000    2.000    0.000    0.000    0.000    0.000 
#
# Total GULP energy -792885.442708 kJ/mol
# GULP energy per Si atom -12388.835042 kJ/mol
# Density = 1.716051 g / cm^3
# Si number density = 17.199654 Si / 1000 Ang^3
#
#
#
# Elastic Constant Matrix: (Units=GPa)
#
#
# Indices 1 2 3 4 5 6 
#
# 1 78.0296 59.4690 27.5950 0.0000 0.0000 0.0000
# 2 59.4690 151.1445 32.7755 0.0000 0.0000 0.0000
# 3 27.5950 32.7755 43.8519 0.0000 0.0000 0.0000
# 4 0.0000 0.0000 0.0000 12.5612 0.0000 0.0000
# 5 0.0000 0.0000 0.0000 0.0000 20.4906 0.0000
# 6 0.0000 0.0000 0.0000 0.0000 0.0000 26.1283
#
#
#
# Elastic Compliance Matrix: (Units=1/GPa)
#
#
# Indices 1 2 3 4 5 6 
#
# 1 0.020512 -0.006291 -0.008206 0.000000 0.000000 0.000000
# 2 -0.006291 0.009826 -0.003385 0.000000 0.000000 0.000000
# 3 -0.008206 -0.003385 0.030498 0.000000 0.000000 0.000000
# 4 0.000000 0.000000 0.000000 0.079610 0.000000 0.000000
# 5 0.000000 0.000000 0.000000 0.000000 0.048803 0.000000
# 6 0.000000 0.000000 0.000000 0.000000 0.000000 0.038273
#
#
# Mechanical properties :
#
#
# Convention : Reuss Voigt Hill
#
# Bulk Modulus (GPa) = 39.88544 56.96723 48.42633
# Shear Modulus (GPa) = 18.40655 22.04844 20.22750
#
# Velocity S-wave (km/s) = 3.27489 3.58426 3.43307
# Velocity P-wave (km/s) = 6.12698 7.09382 6.62806
#
# Compressibility (1/GPa) = 0.02507181
#
# Stress axis : x y z
#
# Youngs Moduli (GPa) = 48.75079 101.77537 32.78952
#
# Poissons Ratio (x) = 0.64031 0.26906
# Poissons Ratio (y) = 0.30671 0.11098
# Poissons Ratio (z) = 0.40004 0.34448
#
# Static dielectric constant tensor:
#      x y z
#    x 3.369280 0.000000 0.000000 
#    y 0.000000 3.528700 0.000000 
#    z 0.000000 0.000000 2.903240 
# 
# 
# High freq. dielectric constant tensor:
#      x y z
#    x 1.670170 0.000000 0.000000 
#    y 0.000000 1.677510 0.000000 
#    z 0.000000 0.000000 1.612670 
# 
# From -- ./inp_files/38492.got.cif
#   From: 2010.03.12/outbox.cif.g09.slc.cpg/sg53_20_cif.got.tgz:38492.got - 2010.04.16 14:36:59.
