data_PCOD8218243
_publ_section_title
;
Structure prediction by ZEFSAII (Michael W. Deem and Ramdas Pophale) SiO2 
 PCOD8218243
Probable space group: P M N A
;
_chemical_formula_sum "Si O2"
_cell_formula_units_Z 64
_cell_length_a 9.039066
_cell_length_b 11.788607
_cell_length_c 30.887413
_cell_angle_alpha 90.000000
_cell_angle_beta 90.000000
_cell_angle_gamma 90.000000
_cell_volume 3291.300853
_symmetry_space_group_name_H-M "P M N A"
_symmetry_group_IT_number 53
_symmetry_cell_setting 'orthorhombic'
loop_
_space_group_symop_operation_xyz
x,y,z
1/2-x,-y,1/2+z
x,-y,-z
1/2-x,y,1/2-z
-x,-y,-z
1/2+x,y,1/2-z
-x,y,z
1/2+x,-y,1/2+z
loop_
_atom_site_type_symbol
_atom_site_label
_atom_site_fract_x
_atom_site_fract_y
_atom_site_fract_z
Si Si1 0.670353 0.256316 0.047894
Si Si2 0.170473 0.508368 0.176413
Si Si3 0.673255 0.730818 0.207143
Si Si4 0.329389 0.497776 0.087521
Si Si5 0.324950 0.731185 0.048197
Si Si6 0.175449 0.127655 0.124107
Si Si7 0.326694 0.889021 0.126005
Si Si8 0.669246 0.738819 0.707400
O O1 0.500000 0.218326 0.052211
O O2 0.687426 0.389580 0.056875
O O3 0.764540 0.179427 0.079795
O O4 0.733344 0.235328 0.999449
O O5 0.265622 0.605698 0.198595
O O6 0.228724 0.478785 0.129031
O O7 0.189358 0.395998 0.204940
O O8 0.000000 0.546304 0.173645
O O9 0.750000 0.782132 0.250000
O O10 0.500000 0.721198 0.215514
O O11 0.710459 0.810518 0.166847
O O12 0.500000 0.516026 0.102067
O O13 0.267257 0.607095 0.062056
O O14 0.500000 0.724721 0.046404
O O15 0.272562 0.824454 0.082820
O O16 0.235417 0.201752 0.164473
O O17 0.000000 0.128997 0.121788
O O18 0.232007 0.001200 0.130576
O O19 0.500000 0.918424 0.123789
O O20 0.750000 0.785710 0.750000
O O21 0.500000 0.774459 0.712060
#
# Coordination Sequence:
#
# PCOD8218243 Si02
#       8
#     8   8   8   8   8   8   8   8
#     4  10  20  35  62  91 116 153 195 237 289 348
#     4  11  21  36  59  88 122 156 190 231 289 352
#     4  11  23  40  62  90 121 154 193 240 292 347
#     4  10  18  33  59  90 120 152 190 236 292 348
#     4   9  18  36  60  89 120 149 191 243 288 340
#     4  11  24  42  59  81 118 154 194 245 295 345
#     4  10  22  41  62  83 113 153 199 244 287 340
#     4  10  23  40  59  84 115 151 188 236 287 340
#
# _framework density 19.445198999999999
#
# number of rings (size 3 to 8) (size 9 to 14) (size 15 to 20)
#    0.000    1.750    2.500    1.875    0.000    6.500 
#    0.000    6.250    0.000    1.500    0.000    0.000 
#    0.000    0.000    0.000    0.000    0.000    0.000 
#
# Total GULP energy -793794.321735 kJ/mol
# GULP energy per Si atom -12403.036277 kJ/mol
# Density = 1.940094 g / cm^3
# Si number density = 19.445199 Si / 1000 Ang^3
#
#
#
# Elastic Constant Matrix: (Units=GPa)
#
#
# Indices 1 2 3 4 5 6 
#
# 1 68.2065 42.1093 54.3474 0.0000 0.0000 0.0000
# 2 42.1093 89.7446 40.3941 0.0000 0.0000 0.0000
# 3 54.3474 40.3941 159.4978 0.0000 0.0000 0.0000
# 4 0.0000 0.0000 0.0000 11.7901 0.0000 0.0000
# 5 0.0000 0.0000 0.0000 0.0000 28.7417 0.0000
# 6 0.0000 0.0000 0.0000 0.0000 0.0000 16.3857
#
#
#
# Elastic Compliance Matrix: (Units=1/GPa)
#
#
# Indices 1 2 3 4 5 6 
#
# 1 0.025263 -0.009006 -0.006327 0.000000 0.000000 0.000000
# 2 -0.009006 0.015787 -0.000929 0.000000 0.000000 0.000000
# 3 -0.006327 -0.000929 0.008661 0.000000 0.000000 0.000000
# 4 0.000000 0.000000 0.000000 0.084817 0.000000 0.000000
# 5 0.000000 0.000000 0.000000 0.000000 0.034793 0.000000
# 6 0.000000 0.000000 0.000000 0.000000 0.000000 0.061029
#
#
# Mechanical properties :
#
#
# Convention : Reuss Voigt Hill
#
# Bulk Modulus (GPa) = 58.18832 65.68337 61.93584
# Shear Modulus (GPa) = 18.61482 23.42337 21.01909
#
# Velocity S-wave (km/s) = 3.09738 3.47448 3.29133
# Velocity P-wave (km/s) = 6.54071 7.06739 6.80914
#
# Compressibility (1/GPa) = 0.01718558
#
# Stress axis : x y z
#
# Youngs Moduli (GPa) = 39.58353 63.34442 115.45928
#
# Poissons Ratio (x) = 0.57047 0.73055
# Poissons Ratio (y) = 0.35648 0.10732
# Poissons Ratio (z) = 0.25046 0.05888
#
# Static dielectric constant tensor:
#      x y z
#    x 3.402700 0.000000 0.000000 
#    y 0.000000 3.509060 0.000000 
#    z 0.000000 0.000000 3.863510 
# 
# 
# High freq. dielectric constant tensor:
#      x y z
#    x 1.739550 0.000000 0.000000 
#    y 0.000000 1.755960 0.000000 
#    z 0.000000 0.000000 1.773050 
# 
# From -- ./inp_files/38196.got.cif
#   From: 2010.03.12/outbox.cif.g09.slc.cpg/sg53_20_cif.got.tgz:38196.got - 2010.04.16 14:36:59.
