data_PCOD8218577
_publ_section_title
;
Structure prediction by ZEFSAII (Michael W. Deem and Ramdas Pophale) SiO2 
 PCOD8218577
Probable space group: P M N A
;
_chemical_formula_sum "Si O2"
_cell_formula_units_Z 64
_cell_length_a 8.738714
_cell_length_b 20.234855
_cell_length_c 18.699661
_cell_angle_alpha 90.000000
_cell_angle_beta 90.000000
_cell_angle_gamma 90.000000
_cell_volume 3306.597675
_symmetry_space_group_name_H-M "P M N A"
_symmetry_group_IT_number 53
_symmetry_cell_setting 'orthorhombic'
loop_
_space_group_symop_operation_xyz
x,y,z
1/2-x,-y,1/2+z
x,-y,-z
1/2-x,y,1/2-z
-x,-y,-z
1/2+x,y,1/2-z
-x,y,z
1/2+x,-y,1/2+z
loop_
_atom_site_type_symbol
_atom_site_label
_atom_site_fract_x
_atom_site_fract_y
_atom_site_fract_z
Si Si1 0.180501 0.800764 0.582085
Si Si2 0.319602 0.029972 0.575814
Si Si3 0.680163 0.172251 0.923419
Si Si4 0.181698 0.438888 0.415579
Si Si5 0.318828 0.295961 0.828531
Si Si6 0.181724 0.414980 0.573629
Si Si7 0.818464 0.076302 0.327468
Si Si8 0.681599 0.680686 0.825969
O O1 0.229619 0.797935 0.499724
O O2 0.245198 0.866123 0.620614
O O3 0.246506 0.735774 0.620054
O O4 0.000000 0.801391 0.589403
O O5 0.500000 0.021746 0.582487
O O6 0.274688 0.105740 0.587276
O O7 0.261144 0.000000 0.500000
O O8 0.238877 0.992567 0.640794
O O9 0.500000 0.156119 0.921216
O O10 0.727096 0.225793 0.863608
O O11 0.243016 0.411532 0.491978
O O12 0.236498 0.513245 0.396801
O O13 0.240861 0.390478 0.353431
O O14 0.000000 0.438478 0.420786
O O15 0.250000 0.300855 0.750000
O O16 0.500000 0.302057 0.823055
O O17 0.251164 0.355893 0.877350
O O18 0.000000 0.408851 0.574372
O O19 0.750000 0.088651 0.250000
O O20 0.000000 0.075668 0.322114
O O21 0.750000 0.696724 0.750000
O O22 0.500000 0.682628 0.821466
#
# Coordination Sequence:
#
# PCOD8218577 Si02
#       8
#     8   8   8   8   8   8   8   8
#     4   9  18  33  55  78 102 136 180 221 262 314
#     4  11  23  39  59  85 113 141 177 224 273 327
#     4  10  20  37  60  81 102 139 185 226 267 318
#     4   8  14  26  49  76 103 133 178 227 265 306
#     4  10  21  35  54  79 110 143 181 226 274 326
#     4   8  14  28  50  77 102 134 178 227 268 307
#     4  11  22  37  58  83 112 145 180 222 271 327
#     4  10  19  31  47  73 106 139 171 212 260 313
#
# _framework density 19.355240999999999
#
# number of rings (size 3 to 8) (size 9 to 14) (size 15 to 20)
#    0.000    2.375    1.250    2.625    0.000    5.000 
#    0.000    2.500    0.000    2.250    0.000    1.750 
#    0.000    0.000    0.000    0.000    0.000    0.000 
#
# Total GULP energy -793436.013550 kJ/mol
# GULP energy per Si atom -12397.437712 kJ/mol
# Density = 1.931119 g / cm^3
# Si number density = 19.355241 Si / 1000 Ang^3
#
#
#
# Elastic Constant Matrix: (Units=GPa)
#
#
# Indices 1 2 3 4 5 6 
#
# 1 32.3754 22.2939 19.5506 0.0000 0.0000 0.0000
# 2 22.2939 131.5819 48.7043 0.0000 0.0000 0.0000
# 3 19.5506 48.7043 102.5553 0.0000 0.0000 0.0000
# 4 0.0000 0.0000 0.0000 29.4851 0.0000 0.0000
# 5 0.0000 0.0000 0.0000 0.0000 28.3389 0.0000
# 6 0.0000 0.0000 0.0000 0.0000 0.0000 10.7785
#
#
#
# Elastic Compliance Matrix: (Units=1/GPa)
#
#
# Indices 1 2 3 4 5 6 
#
# 1 0.036917 -0.004428 -0.004935 0.000000 0.000000 0.000000
# 2 -0.004428 0.009752 -0.003787 0.000000 0.000000 0.000000
# 3 -0.004935 -0.003787 0.012490 0.000000 0.000000 0.000000
# 4 0.000000 0.000000 0.000000 0.033915 0.000000 0.000000
# 5 0.000000 0.000000 0.000000 0.000000 0.035287 0.000000
# 6 0.000000 0.000000 0.000000 0.000000 0.000000 0.092777
#
#
# Mechanical properties :
#
#
# Convention : Reuss Voigt Hill
#
# Bulk Modulus (GPa) = 30.43320 49.73444 40.08382
# Shear Modulus (GPa) = 19.35048 25.45142 22.40095
#
# Velocity S-wave (km/s) = 3.16532 3.63018 3.40569
# Velocity P-wave (km/s) = 5.39598 6.58197 6.01826
#
# Compressibility (1/GPa) = 0.03285885
#
# Stress axis : x y z
#
# Youngs Moduli (GPa) = 27.08794 102.54446 80.06382
#
# Poissons Ratio (x) = 0.45410 0.39508
# Poissons Ratio (y) = 0.11995 0.30321
# Poissons Ratio (z) = 0.13367 0.38834
#
# Static dielectric constant tensor:
#      x y z
#    x 3.071760 0.000000 0.000000 
#    y 0.000000 3.879320 0.000000 
#    z 0.000000 0.000000 3.658370 
# 
# 
# High freq. dielectric constant tensor:
#      x y z
#    x 1.707090 0.000000 0.000000 
#    y 0.000000 1.770610 0.000000 
#    z 0.000000 0.000000 1.756770 
# 
# From -- ./inp_files/26808.got.cif
#   From: 2010.03.12/outbox.cif.g09.slc.cpg/sg53_14_cif.got.tgz:26808.got - 2010.04.16 14:36:59.
