data_PCOD8218136
_publ_section_title
;
Structure prediction by ZEFSAII (Michael W. Deem and Ramdas Pophale) SiO2 
 PCOD8218136
Probable space group: P M N A
;
_chemical_formula_sum "Si O2"
_cell_formula_units_Z 64
_cell_length_a 9.125091
_cell_length_b 15.243163
_cell_length_c 23.155863
_cell_angle_alpha 90.000000
_cell_angle_beta 90.000000
_cell_angle_gamma 90.000000
_cell_volume 3220.870541
_symmetry_space_group_name_H-M "P M N A"
_symmetry_group_IT_number 53
_symmetry_cell_setting 'orthorhombic'
loop_
_space_group_symop_operation_xyz
x,y,z
1/2-x,-y,1/2+z
x,-y,-z
1/2-x,y,1/2-z
-x,-y,-z
1/2+x,y,1/2-z
-x,y,z
1/2+x,-y,1/2+z
loop_
_atom_site_type_symbol
_atom_site_label
_atom_site_fract_x
_atom_site_fract_y
_atom_site_fract_z
Si Si1 0.667396 0.859091 0.010813
Si Si2 0.672990 0.234467 0.809503
Si Si3 0.670962 0.606296 0.108582
Si Si4 0.329196 0.104769 0.396783
Si Si5 0.831907 0.696239 0.876810
Si Si6 0.671961 0.446674 0.190752
Si Si7 0.828167 0.317760 0.991125
Si Si8 0.165880 0.943605 0.367630
O O1 0.500000 0.838241 0.993353
O O2 0.746494 0.769822 0.029196
O O3 0.672889 0.924392 0.064437
O O4 0.748938 0.904617 0.957868
O O5 0.750000 0.257691 0.750000
O O6 0.500000 0.235715 0.800259
O O7 0.718787 0.308648 0.855012
O O8 0.726493 0.139387 0.831795
O O9 0.500000 0.608645 0.093154
O O10 0.713142 0.519708 0.143776
O O11 0.763465 0.604475 0.048833
O O12 0.500000 0.089511 0.407145
O O13 0.299494 0.200352 0.369736
O O14 0.265550 0.029173 0.354575
O O15 0.728077 0.646971 0.831893
O O16 0.000000 0.675291 0.861542
O O17 0.795341 0.663873 0.941657
O O18 0.750000 0.472615 0.250000
O O19 0.500000 0.441477 0.202163
O O20 0.000000 0.305990 0.980641
O O21 0.000000 0.964743 0.348785
#
# Coordination Sequence:
#
# PCOD8218136 Si02
#       8
#     8   8   8   8   8   8   8   8
#     4  10  18  32  53  79 116 156 189 228 281 340
#     4  10  21  38  56  79 113 152 192 235 285 341
#     4  10  21  39  60  86 120 152 187 233 288 354
#     4  10  21  35  54  83 115 147 189 239 285 335
#     4   9  21  41  59  82 120 155 190 240 294 345
#     4  11  24  41  65  90 113 148 195 243 292 345
#     4  10  20  34  57  89 121 156 193 233 288 343
#     4  10  20  34  53  78 111 153 192 230 282 338
#
# _framework density 19.870404000000001
#
# number of rings (size 3 to 8) (size 9 to 14) (size 15 to 20)
#    0.000    2.000    1.250    3.000    0.000    8.000 
#    0.000    3.125    0.000    1.500    0.000    0.000 
#    0.000    0.000    0.000    0.000    0.000    0.000 
#
# Total GULP energy -793735.684607 kJ/mol
# GULP energy per Si atom -12402.120072 kJ/mol
# Density = 1.982518 g / cm^3
# Si number density = 19.870404 Si / 1000 Ang^3
#
#
#
# Elastic Constant Matrix: (Units=GPa)
#
#
# Indices 1 2 3 4 5 6 
#
# 1 84.9208 36.0793 20.9629 0.0000 0.0000 0.0000
# 2 36.0793 77.2701 17.5588 0.0000 0.0000 0.0000
# 3 20.9629 17.5588 32.5793 0.0000 0.0000 0.0000
# 4 0.0000 0.0000 0.0000 13.8438 0.0000 0.0000
# 5 0.0000 0.0000 0.0000 0.0000 34.4579 0.0000
# 6 0.0000 0.0000 0.0000 0.0000 0.0000 25.6714
#
#
#
# Elastic Compliance Matrix: (Units=1/GPa)
#
#
# Indices 1 2 3 4 5 6 
#
# 1 0.016032 -0.005859 -0.007158 0.000000 0.000000 0.000000
# 2 -0.005859 0.016889 -0.005332 0.000000 0.000000 0.000000
# 3 -0.007158 -0.005332 0.038174 0.000000 0.000000 0.000000
# 4 0.000000 0.000000 0.000000 0.072235 0.000000 0.000000
# 5 0.000000 0.000000 0.000000 0.000000 0.029021 0.000000
# 6 0.000000 0.000000 0.000000 0.000000 0.000000 0.038954
#
#
# Mechanical properties :
#
#
# Convention : Reuss Voigt Hill
#
# Bulk Modulus (GPa) = 29.07302 38.21913 33.64607
# Shear Modulus (GPa) = 19.27016 22.80591 21.03804
#
# Velocity S-wave (km/s) = 3.11753 3.39150 3.25739
# Velocity P-wave (km/s) = 5.25564 5.88322 5.57826
#
# Compressibility (1/GPa) = 0.03439615
#
# Stress axis : x y z
#
# Youngs Moduli (GPa) = 62.37556 59.20967 26.19593
#
# Poissons Ratio (x) = 0.34692 0.18750
# Poissons Ratio (y) = 0.36547 0.13969
# Poissons Ratio (z) = 0.44647 0.31573
#
# Static dielectric constant tensor:
#      x y z
#    x 3.581930 0.000000 0.000000 
#    y 0.000000 3.641740 0.000000 
#    z 0.000000 0.000000 3.434570 
# 
# 
# High freq. dielectric constant tensor:
#      x y z
#    x 1.776330 0.000000 0.000000 
#    y 0.000000 1.778660 0.000000 
#    z 0.000000 0.000000 1.757810 
# 
# From -- ./inp_files/34296.got.cif
#   From: 2010.03.12/outbox.cif.g09.slc.cpg/sg53_18_cif.got.tgz:34296.got - 2010.04.16 14:36:59.
