data_PCOD8218560
_publ_section_title
;
Structure prediction by ZEFSAII (Michael W. Deem and Ramdas Pophale) SiO2 
 PCOD8218560
Probable space group: P M N A
;
_chemical_formula_sum "Si O2"
_cell_formula_units_Z 48
_cell_length_a 8.848907
_cell_length_b 16.183476
_cell_length_c 18.582120
_cell_angle_alpha 90.000000
_cell_angle_beta 90.000000
_cell_angle_gamma 90.000000
_cell_volume 2661.072453
_symmetry_space_group_name_H-M "P M N A"
_symmetry_group_IT_number 53
_symmetry_cell_setting 'orthorhombic'
loop_
_space_group_symop_operation_xyz
x,y,z
1/2-x,-y,1/2+z
x,-y,-z
1/2-x,y,1/2-z
-x,-y,-z
1/2+x,y,1/2-z
-x,y,z
1/2+x,-y,1/2+z
loop_
_atom_site_type_symbol
_atom_site_label
_atom_site_fract_x
_atom_site_fract_y
_atom_site_fract_z
Si Si1 0.679393 0.161281 0.327081
Si Si2 0.822392 0.082655 0.460874
Si Si3 0.173862 0.749856 0.465867
Si Si4 0.819959 0.489089 0.173275
Si Si5 0.676954 0.340925 0.825197
Si Si6 0.322238 0.674119 0.595553
O O1 0.750000 0.140326 0.250000
O O2 0.500000 0.156402 0.321258
O O3 0.736211 0.093996 0.385238
O O4 0.737088 0.251967 0.352692
O O5 0.780360 0.156466 0.515843
O O6 0.000000 0.078664 0.444349
O O7 0.765005 0.000000 0.500000
O O8 0.209196 0.731750 0.382325
O O9 0.265267 0.685705 0.514686
O O10 0.000000 0.733963 0.483463
O O11 0.750000 0.468738 0.250000
O O12 0.752587 0.575233 0.144575
O O13 0.765344 0.414960 0.121997
O O14 0.000000 0.495353 0.178394
O O15 0.750000 0.313188 0.750000
O O16 0.500000 0.356696 0.813297
O O17 0.500000 0.677445 0.595081
#
# Coordination Sequence:
#
# PCOD8218560 Si02
#       6
#     8   8   8   8   8   8
#     4  10  19  32  51  76 105 134 165 200 242 292
#     4   9  18  35  57  77 100 130 162 201 249 298
#     4   9  19  34  52  73  96 125 161 199 243 295
#     4  10  19  31  47  69  97 130 167 203 241 282
#     4  10  20  34  50  69  94 126 165 204 242 284
#     4   9  19  32  48  72 100 130 163 200 241 288
#
# _framework density 18.037839000000002
#
# number of rings (size 3 to 8) (size 9 to 14) (size 15 to 20)
#    0.000    2.500    0.000    3.000    0.000    4.333 
#    0.000    4.167    0.000    2.000    0.000    0.000 
#    0.000    0.000    0.000    0.000    0.000    0.000 
#
# Total GULP energy -595175.241000 kJ/mol
# GULP energy per Si atom -12399.484187 kJ/mol
# Density = 1.799678 g / cm^3
# Si number density = 18.037839 Si / 1000 Ang^3
#
#
#
# Elastic Constant Matrix: (Units=GPa)
#
#
# Indices 1 2 3 4 5 6 
#
# 1 56.0298 31.7311 35.7719 0.0000 0.0000 0.0000
# 2 31.7311 98.0300 72.2620 0.0000 0.0000 0.0000
# 3 35.7719 72.2620 122.1719 0.0000 0.0000 0.0000
# 4 0.0000 0.0000 0.0000 28.3082 0.0000 0.0000
# 5 0.0000 0.0000 0.0000 0.0000 31.4741 0.0000
# 6 0.0000 0.0000 0.0000 0.0000 0.0000 17.4768
#
#
#
# Elastic Compliance Matrix: (Units=1/GPa)
#
#
# Indices 1 2 3 4 5 6 
#
# 1 0.022971 -0.004393 -0.004128 0.000000 0.000000 0.000000
# 2 -0.004393 0.018927 -0.009909 0.000000 0.000000 0.000000
# 3 -0.004128 -0.009909 0.015255 0.000000 0.000000 0.000000
# 4 0.000000 0.000000 0.000000 0.035325 0.000000 0.000000
# 5 0.000000 0.000000 0.000000 0.000000 0.031772 0.000000
# 6 0.000000 0.000000 0.000000 0.000000 0.000000 0.057219
#
#
# Mechanical properties :
#
#
# Convention : Reuss Voigt Hill
#
# Bulk Modulus (GPa) = 49.27542 61.75130 55.51336
# Shear Modulus (GPa) = 22.21325 24.54960 23.38143
#
# Velocity S-wave (km/s) = 3.51305 3.69318 3.60424
# Velocity P-wave (km/s) = 6.62061 7.24533 6.94000
#
# Compressibility (1/GPa) = 0.02029410
#
# Stress axis : x y z
#
# Youngs Moduli (GPa) = 43.53396 52.83483 65.55423
#
# Poissons Ratio (x) = 0.23208 0.27058
# Poissons Ratio (y) = 0.19123 0.64956
# Poissons Ratio (z) = 0.17969 0.52352
#
# Static dielectric constant tensor:
#      x y z
#    x 3.324540 0.000000 0.000000 
#    y 0.000000 3.444890 0.000000 
#    z 0.000000 0.000000 3.294620 
# 
# 
# High freq. dielectric constant tensor:
#      x y z
#    x 1.701920 0.000000 0.000000 
#    y 0.000000 1.687020 0.000000 
#    z 0.000000 0.000000 1.696650 
# 
# From -- ./inp_files/26400.got.cif
#   From: 2010.03.12/outbox.cif.g09.slc.cpg/sg53_14_cif.got.tgz:26400.got - 2010.04.16 14:36:59.
