data_PCOD8218627
_publ_section_title
;
Structure prediction by ZEFSAII (Michael W. Deem and Ramdas Pophale) SiO2 
 PCOD8218627
Probable space group: P M N A
;
_chemical_formula_sum "Si O2"
_cell_formula_units_Z 64
_cell_length_a 9.118191
_cell_length_b 22.285870
_cell_length_c 17.729965
_cell_angle_alpha 90.000000
_cell_angle_beta 90.000000
_cell_angle_gamma 90.000000
_cell_volume 3602.849793
_symmetry_space_group_name_H-M "P M N A"
_symmetry_group_IT_number 53
_symmetry_cell_setting 'orthorhombic'
loop_
_space_group_symop_operation_xyz
x,y,z
1/2-x,-y,1/2+z
x,-y,-z
1/2-x,y,1/2-z
-x,-y,-z
1/2+x,y,1/2-z
-x,y,z
1/2+x,-y,1/2+z
loop_
_atom_site_type_symbol
_atom_site_label
_atom_site_fract_x
_atom_site_fract_y
_atom_site_fract_z
Si Si1 0.166315 0.115988 0.528054
Si Si2 0.170326 0.370259 0.474325
Si Si3 0.162368 0.173942 0.176091
Si Si4 0.674276 0.448590 0.170325
Si Si5 0.663856 0.049895 0.409920
Si Si6 0.165856 0.541436 0.072681
Si Si7 0.667699 0.052210 0.824611
Si Si8 0.670206 0.764748 0.946819
O O1 0.263710 0.062465 0.491645
O O2 0.179673 0.107973 0.617781
O O3 0.215766 0.183622 0.507121
O O4 0.000000 0.105256 0.500210
O O5 0.212183 0.397444 0.391996
O O6 0.259021 0.397270 0.544931
O O7 0.210313 0.300235 0.478620
O O8 0.000000 0.383010 0.489235
O O9 0.250000 0.158574 0.250000
O O10 0.158633 0.114236 0.127982
O O11 0.240845 0.226783 0.130169
O O12 0.000000 0.196133 0.196863
O O13 0.750000 0.431270 0.250000
O O14 0.500000 0.455207 0.182110
O O15 0.741072 0.511535 0.140336
O O16 0.500000 0.023478 0.420035
O O17 0.760814 0.007273 0.358413
O O18 0.000000 0.553489 0.101142
O O19 0.165901 0.500000 0.000000
O O20 0.750000 0.073271 0.750000
O O21 0.500000 0.036651 0.805135
O O22 0.500000 0.768710 0.926341
#
# Coordination Sequence:
#
# PCOD8218627 Si02
#       8
#     8   8   8   8   8   8   8   8
#     4   9  19  35  53  72  97 129 164 203 246 294
#     4   9  18  32  51  74  98 129 167 204 242 286
#     4  10  20  32  46  67  96 129 163 199 242 290
#     4  10  19  31  48  73 105 134 161 196 240 288
#     4  10  20  33  51  74  98 126 160 199 245 300
#     4   9  17  30  49  72  98 129 163 198 236 278
#     4  11  22  34  50  73  98 125 158 200 251 301
#     4   9  18  34  53  71  94 128 168 204 241 286
#
# _framework density 17.763715999999999
#
# number of rings (size 3 to 8) (size 9 to 14) (size 15 to 20)
#    0.000    2.375    0.000    2.625    0.000    8.000 
#    0.000    1.250    0.000    0.750    0.000    1.750 
#    0.000    0.000    0.000    0.000    0.000    0.000 
#
# Total GULP energy -793510.331123 kJ/mol
# GULP energy per Si atom -12398.598924 kJ/mol
# Density = 1.772329 g / cm^3
# Si number density = 17.763716 Si / 1000 Ang^3
#
#
#
# Elastic Constant Matrix: (Units=GPa)
#
#
# Indices 1 2 3 4 5 6 
#
# 1 101.4911 28.5372 42.7476 0.0000 0.0000 0.0000
# 2 28.5372 58.4295 27.3684 0.0000 0.0000 0.0000
# 3 42.7476 27.3684 80.5565 0.0000 0.0000 0.0000
# 4 0.0000 0.0000 0.0000 14.4732 0.0000 0.0000
# 5 0.0000 0.0000 0.0000 0.0000 32.6991 0.0000
# 6 0.0000 0.0000 0.0000 0.0000 0.0000 20.6923
#
#
#
# Elastic Compliance Matrix: (Units=1/GPa)
#
#
# Indices 1 2 3 4 5 6 
#
# 1 0.013367 -0.003813 -0.005798 0.000000 0.000000 0.000000
# 2 -0.003813 0.021441 -0.005261 0.000000 0.000000 0.000000
# 3 -0.005798 -0.005261 0.017278 0.000000 0.000000 0.000000
# 4 0.000000 0.000000 0.000000 0.069093 0.000000 0.000000
# 5 0.000000 0.000000 0.000000 0.000000 0.030582 0.000000
# 6 0.000000 0.000000 0.000000 0.000000 0.000000 0.048327
#
#
# Mechanical properties :
#
#
# Convention : Reuss Voigt Hill
#
# Bulk Modulus (GPa) = 44.75825 48.64259 46.70042
# Shear Modulus (GPa) = 21.07215 23.02785 22.05000
#
# Velocity S-wave (km/s) = 3.44793 3.60438 3.52702
# Velocity P-wave (km/s) = 6.41109 6.69064 6.55236
#
# Compressibility (1/GPa) = 0.02234225
#
# Stress axis : x y z
#
# Youngs Moduli (GPa) = 74.80959 46.63925 57.87769
#
# Poissons Ratio (x) = 0.17783 0.33558
# Poissons Ratio (y) = 0.28524 0.30450
# Poissons Ratio (z) = 0.43375 0.24538
#
# Static dielectric constant tensor:
#      x y z
#    x 3.602600 0.000000 0.000000 
#    y 0.000000 3.192320 0.000000 
#    z 0.000000 0.000000 3.262500 
# 
# 
# High freq. dielectric constant tensor:
#      x y z
#    x 1.700360 0.000000 0.000000 
#    y 0.000000 1.669150 0.000000 
#    z 0.000000 0.000000 1.674540 
# 
# From -- ./inp_files/26879.got.cif
#   From: 2010.03.12/outbox.cif.g09.slc.cpg/sg53_14_cif.got.tgz:26879.got - 2010.04.16 14:36:59.
