data_PCOD8218395
_publ_section_title
;
Structure prediction by ZEFSAII (Michael W. Deem and Ramdas Pophale) SiO2 
 PCOD8218395
Probable space group: P M N A
;
_chemical_formula_sum "Si O2"
_cell_formula_units_Z 64
_cell_length_a 8.823555
_cell_length_b 18.078057
_cell_length_c 26.505520
_cell_angle_alpha 90.000000
_cell_angle_beta 90.000000
_cell_angle_gamma 90.000000
_cell_volume 4227.967861
_symmetry_space_group_name_H-M "P M N A"
_symmetry_group_IT_number 53
_symmetry_cell_setting 'orthorhombic'
loop_
_space_group_symop_operation_xyz
x,y,z
1/2-x,-y,1/2+z
x,-y,-z
1/2-x,y,1/2-z
-x,-y,-z
1/2+x,y,1/2-z
-x,y,z
1/2+x,-y,1/2+z
loop_
_atom_site_type_symbol
_atom_site_label
_atom_site_fract_x
_atom_site_fract_y
_atom_site_fract_z
Si Si1 0.329587 0.454778 0.448746
Si Si2 0.179310 0.908796 0.397106
Si Si3 0.322633 0.170435 0.508685
Si Si4 0.177136 0.673314 0.497735
Si Si5 0.177845 0.164467 0.802348
Si Si6 0.177726 0.584680 0.396682
Si Si7 0.666849 0.050497 0.048879
Si Si8 0.678490 0.665518 0.302854
O O1 0.334117 0.500000 0.500000
O O2 0.500000 0.434289 0.431416
O O3 0.231535 0.381054 0.457698
O O4 0.249151 0.503946 0.406000
O O5 0.239219 0.855417 0.440888
O O6 0.254106 0.887695 0.344794
O O7 0.000000 0.897930 0.394700
O O8 0.222660 0.995150 0.406831
O O9 0.500000 0.167865 0.518683
O O10 0.271585 0.252448 0.495380
O O11 0.282144 0.117777 0.460952
O O12 0.214111 0.639208 0.443045
O O13 0.000000 0.689223 0.504186
O O14 0.250000 0.138745 0.750000
O O15 0.220276 0.249349 0.814088
O O16 0.000000 0.152715 0.799390
O O17 0.251331 0.616576 0.346618
O O18 0.000000 0.575147 0.388900
O O19 0.500000 0.083258 0.061279
O O20 0.654551 0.000000 0.000000
O O21 0.750000 0.640027 0.250000
O O22 0.500000 0.652948 0.300579
#
# Coordination Sequence:
#
# PCOD8218395 Si02
#       8
#     8   8   8   8   8   8   8   8
#     4   9  17  29  44  62  85 111 141 178 215 252
#     4  10  19  31  46  62  84 115 148 180 217 259
#     4  11  20  28  42  64  88 114 146 181 216 256
#     4  10  19  30  44  62  87 117 147 178 213 256
#     4  10  20  32  46  64  87 114 146 183 220 256
#     4  10  19  30  45  63  84 114 148 178 213 257
#     4   8  16  30  44  59  82 112 143 176 215 257
#     4  10  20  32  45  62  85 113 145 182 219 253
#
# _framework density 15.137295999999999
#
# number of rings (size 3 to 8) (size 9 to 14) (size 15 to 20)
#    0.000    2.250    0.000    4.875    0.000    9.250 
#    0.000    0.000    0.000    0.000    0.000    0.000 
#    0.000    1.000    0.000    7.000    0.000    5.500 
#
# Total GULP energy -793594.366297 kJ/mol
# GULP energy per Si atom -12399.911973 kJ/mol
# Density = 1.510284 g / cm^3
# Si number density = 15.137296 Si / 1000 Ang^3
#
#
#
# Elastic Constant Matrix: (Units=GPa)
#
#
# Indices 1 2 3 4 5 6 
#
# 1 74.0923 30.2128 41.3294 0.0000 0.0000 0.0000
# 2 30.2128 71.2946 50.1321 0.0000 0.0000 0.0000
# 3 41.3294 50.1321 93.3273 0.0000 0.0000 0.0000
# 4 0.0000 0.0000 0.0000 28.4478 0.0000 0.0000
# 5 0.0000 0.0000 0.0000 0.0000 25.7023 0.0000
# 6 0.0000 0.0000 0.0000 0.0000 0.0000 25.5664
#
#
#
# Elastic Compliance Matrix: (Units=1/GPa)
#
#
# Indices 1 2 3 4 5 6 
#
# 1 0.018402 -0.003323 -0.006364 0.000000 0.000000 0.000000
# 2 -0.003323 0.023140 -0.010958 0.000000 0.000000 0.000000
# 3 -0.006364 -0.010958 0.019420 0.000000 0.000000 0.000000
# 4 0.000000 0.000000 0.000000 0.035152 0.000000 0.000000
# 5 0.000000 0.000000 0.000000 0.000000 0.038907 0.000000
# 6 0.000000 0.000000 0.000000 0.000000 0.000000 0.039114
#
#
# Mechanical properties :
#
#
# Convention : Reuss Voigt Hill
#
# Bulk Modulus (GPa) = 50.83789 53.56255 52.20022
# Shear Modulus (GPa) = 22.52429 23.74596 23.13512
#
# Velocity S-wave (km/s) = 3.86164 3.96499 3.91366
# Velocity P-wave (km/s) = 7.31714 7.51151 7.41496
#
# Compressibility (1/GPa) = 0.01967037
#
# Stress axis : x y z
#
# Youngs Moduli (GPa) = 54.34289 43.21477 51.49408
#
# Poissons Ratio (x) = 0.14361 0.32771
# Poissons Ratio (y) = 0.18059 0.56430
# Poissons Ratio (z) = 0.34584 0.47357
#
# Static dielectric constant tensor:
#      x y z
#    x 3.072760 0.000000 0.000000 
#    y 0.000000 2.986450 0.000000 
#    z 0.000000 0.000000 2.802470 
# 
# 
# High freq. dielectric constant tensor:
#      x y z
#    x 1.599490 0.000000 0.000000 
#    y 0.000000 1.567490 0.000000 
#    z 0.000000 0.000000 1.548000 
# 
# From -- ./inp_files/34480.got.cif
#   From: 2010.03.12/outbox.cif.g09.slc.cpg/sg53_18_cif.got.tgz:34480.got - 2010.04.16 14:36:59.
