data_PCOD8218967
_publ_section_title
;
Structure prediction by ZEFSAII (Michael W. Deem and Ramdas Pophale) SiO2 
 PCOD8218967
Probable space group: P M N A
;
_chemical_formula_sum "Si O2"
_cell_formula_units_Z 60
_cell_length_a 18.808404
_cell_length_b 12.998994
_cell_length_c 12.212735
_cell_angle_alpha 90.000000
_cell_angle_beta 90.000000
_cell_angle_gamma 90.000000
_cell_volume 2985.895619
_symmetry_space_group_name_H-M "P M N A"
_symmetry_group_IT_number 53
_symmetry_cell_setting 'orthorhombic'
loop_
_space_group_symop_operation_xyz
x,y,z
1/2-x,-y,1/2+z
x,-y,-z
1/2-x,y,1/2-z
-x,-y,-z
1/2+x,y,1/2-z
-x,y,z
1/2+x,-y,1/2+z
loop_
_atom_site_type_symbol
_atom_site_label
_atom_site_fract_x
_atom_site_fract_y
_atom_site_fract_z
Si Si1 0.082892 0.233863 0.648392
Si Si2 0.674148 0.882117 0.973886
Si Si3 0.750000 0.570892 0.750000
Si Si4 0.579654 0.221817 0.456371
Si Si5 0.723677 0.305754 0.466058
Si Si6 0.167125 0.568590 0.400408
Si Si7 0.417851 0.894458 0.760465
Si Si8 0.418901 0.097057 0.657179
O O1 0.122899 0.154906 0.569913
O O2 0.107298 0.350748 0.633213
O O3 0.101281 0.198367 0.772023
O O4 0.000000 0.227574 0.621325
O O5 0.743791 0.809864 0.966019
O O6 0.630526 0.866306 0.862755
O O7 0.696485 0.000000 0.000000
O O8 0.773533 0.643669 0.847609
O O9 0.814371 0.499443 0.705840
O O10 0.500000 0.264370 0.482390
O O11 0.639638 0.302787 0.492901
O O12 0.586976 0.196555 0.328425
O O13 0.594162 0.119094 0.529173
O O14 0.761266 0.374813 0.557830
O O15 0.136226 0.500000 0.500000
O O16 0.500000 0.907955 0.798729
O O17 0.381232 0.995017 0.704100
O O18 0.500000 0.068316 0.676844
#
# Coordination Sequence:
#
# PCOD8218967 Si02
#       8
#     8   8   4   8   8   8   8   8
#     4  10  20  35  57  88 121 153 195 243 290 348
#     4  11  21  35  56  87 125 158 193 236 286 349
#     4  10  20  42  66  78 114 152 190 246 300 354
#     4  10  21  37  56  79 113 150 191 240 287 339
#     4  10  22  39  59  88 114 150 196 238 293 356
#     4   9  21  38  60  85 109 149 194 241 304 352
#     4  10  19  32  53  80 112 161 201 225 275 338
#     4   9  18  32  52  78 113 153 191 231 276 331
#
# _framework density 20.094472
#
# number of rings (size 3 to 8) (size 9 to 14) (size 15 to 20)
#    0.000    2.133    1.333    1.600    1.867    3.467 
#    0.000    0.667    0.000    3.600    0.000    0.000 
#    0.000    0.000    0.000    0.000    0.000    0.000 
#
# Total GULP energy -743641.331780 kJ/mol
# GULP energy per Si atom -12394.022196 kJ/mol
# Density = 2.004874 g / cm^3
# Si number density = 20.094472 Si / 1000 Ang^3
#
#
#
# Elastic Constant Matrix: (Units=GPa)
#
#
# Indices 1 2 3 4 5 6 
#
# 1 90.3716 31.2711 18.5534 0.0000 0.0000 0.0000
# 2 31.2711 87.1382 5.1357 0.0000 0.0000 0.0000
# 3 18.5534 5.1357 73.0394 0.0000 0.0000 0.0000
# 4 0.0000 0.0000 0.0000 24.3228 0.0000 0.0000
# 5 0.0000 0.0000 0.0000 0.0000 15.9787 0.0000
# 6 0.0000 0.0000 0.0000 0.0000 0.0000 27.0638
#
#
#
# Elastic Compliance Matrix: (Units=1/GPa)
#
#
# Indices 1 2 3 4 5 6 
#
# 1 0.013278 -0.004585 -0.003051 0.000000 0.000000 0.000000
# 2 -0.004585 0.013107 0.000243 0.000000 0.000000 0.000000
# 3 -0.003051 0.000243 0.014449 0.000000 0.000000 0.000000
# 4 0.000000 0.000000 0.000000 0.041114 0.000000 0.000000
# 5 0.000000 0.000000 0.000000 0.000000 0.062583 0.000000
# 6 0.000000 0.000000 0.000000 0.000000 0.000000 0.036950
#
#
# Mechanical properties :
#
#
# Convention : Reuss Voigt Hill
#
# Bulk Modulus (GPa) = 38.38906 40.05219 39.22063
# Shear Modulus (GPa) = 24.39621 26.51233 25.45427
#
# Velocity S-wave (km/s) = 3.48814 3.63627 3.56298
# Velocity P-wave (km/s) = 5.94715 6.13231 6.04044
#
# Compressibility (1/GPa) = 0.02604909
#
# Stress axis : x y z
#
# Youngs Moduli (GPa) = 75.31037 76.29369 69.20879
#
# Poissons Ratio (x) = 0.34984 0.21112
# Poissons Ratio (y) = 0.34533 -0.01683
# Poissons Ratio (z) = 0.22974 -0.01855
#
# Static dielectric constant tensor:
#      x y z
#    x 3.505630 0.000000 0.000000 
#    y 0.000000 3.647540 0.000000 
#    z 0.000000 0.000000 3.728260 
# 
# 
# High freq. dielectric constant tensor:
#      x y z
#    x 1.764980 0.000000 0.000000 
#    y 0.000000 1.776010 0.000000 
#    z 0.000000 0.000000 1.796450 
# 
# From -- ./inp_files/17926.got.cif
#   From: 2010.03.12/outbox.cif.g09.slc.cpg/sg53_9_cif.got.tgz:17926.got - 2010.04.16 14:36:59.
