data_PCOD8218583
_publ_section_title
;
Structure prediction by ZEFSAII (Michael W. Deem and Ramdas Pophale) SiO2 
 PCOD8218583
Probable space group: P M N A
;
_chemical_formula_sum "Si O2"
_cell_formula_units_Z 64
_cell_length_a 9.004559
_cell_length_b 23.056201
_cell_length_c 17.520099
_cell_angle_alpha 90.000000
_cell_angle_beta 90.000000
_cell_angle_gamma 90.000000
_cell_volume 3637.363911
_symmetry_space_group_name_H-M "P M N A"
_symmetry_group_IT_number 53
_symmetry_cell_setting 'orthorhombic'
loop_
_space_group_symop_operation_xyz
x,y,z
1/2-x,-y,1/2+z
x,-y,-z
1/2-x,y,1/2-z
-x,-y,-z
1/2+x,y,1/2-z
-x,y,z
1/2+x,-y,1/2+z
loop_
_atom_site_type_symbol
_atom_site_label
_atom_site_fract_x
_atom_site_fract_y
_atom_site_fract_z
Si Si1 0.333543 0.831196 0.446294
Si Si2 0.174744 0.563127 0.470041
Si Si3 0.825787 0.934701 0.515932
Si Si4 0.666198 0.728531 0.112307
Si Si5 0.325883 0.120247 0.174819
Si Si6 0.834823 0.774301 0.888446
Si Si7 0.822801 0.381387 0.827566
Si Si8 0.163340 0.674125 0.553575
O O1 0.500000 0.840250 0.415039
O O2 0.256441 0.893656 0.455318
O O3 0.242143 0.792072 0.385964
O O4 0.336822 0.799037 0.526748
O O5 0.216942 0.500000 0.500000
O O6 0.269393 0.576134 0.394771
O O7 0.218735 0.608565 0.537155
O O8 0.000000 0.569492 0.450386
O O9 0.780470 0.919032 0.602564
O O10 0.000000 0.925830 0.503346
O O11 0.774615 0.000000 0.500000
O O12 0.500000 0.732252 0.147611
O O13 0.766369 0.684317 0.160482
O O14 0.655048 0.707244 0.026188
O O15 0.250000 0.092918 0.250000
O O16 0.500000 0.121738 0.187329
O O17 0.268987 0.185968 0.164049
O O18 0.773132 0.708314 0.889587
O O19 0.000000 0.773335 0.853556
O O20 0.750000 0.405616 0.750000
O O21 0.000000 0.382001 0.822711
O O22 0.000000 0.673292 0.591388
#
# Coordination Sequence:
#
# PCOD8218583 Si02
#       8
#     8   8   8   8   8   8   8   8
#     4   9  16  26  43  69  96 120 150 192 238 282
#     4   9  18  33  52  74 101 134 172 211 250 295
#     4   9  18  32  49  69  94 128 169 207 243 289
#     4   9  16  28  46  68  94 123 154 190 237 289
#     4  10  19  31  48  69  94 122 154 196 245 295
#     4   9  16  26  42  65  92 119 148 184 229 280
#     4  11  21  33  50  73 101 131 166 208 256 307
#     4   8  14  25  43  67  93 120 150 187 232 278
#
# _framework density 17.595161000000001
#
# number of rings (size 3 to 8) (size 9 to 14) (size 15 to 20)
#    0.000    2.750    0.000    3.375    0.000    7.000 
#    0.000    0.000    0.000    1.500    0.000    7.000 
#    0.000    0.000    0.000    0.000    0.000    0.000 
#
# Total GULP energy -793422.906041 kJ/mol
# GULP energy per Si atom -12397.232907 kJ/mol
# Density = 1.755511 g / cm^3
# Si number density = 17.595161 Si / 1000 Ang^3
#
#
#
# Elastic Constant Matrix: (Units=GPa)
#
#
# Indices 1 2 3 4 5 6 
#
# 1 115.3374 56.1600 38.5301 0.0000 0.0000 0.0000
# 2 56.1600 140.5361 37.4242 0.0000 0.0000 0.0000
# 3 38.5301 37.4242 54.5085 0.0000 0.0000 0.0000
# 4 0.0000 0.0000 0.0000 12.3840 0.0000 0.0000
# 5 0.0000 0.0000 0.0000 0.0000 22.8123 0.0000
# 6 0.0000 0.0000 0.0000 0.0000 0.0000 24.5721
#
#
#
# Elastic Compliance Matrix: (Units=1/GPa)
#
#
# Indices 1 2 3 4 5 6 
#
# 1 0.012435 -0.003217 -0.006581 0.000000 0.000000 0.000000
# 2 -0.003217 0.009540 -0.004276 0.000000 0.000000 0.000000
# 3 -0.006581 -0.004276 0.025934 0.000000 0.000000 0.000000
# 4 0.000000 0.000000 0.000000 0.080749 0.000000 0.000000
# 5 0.000000 0.000000 0.000000 0.000000 0.043836 0.000000
# 6 0.000000 0.000000 0.000000 0.000000 0.000000 0.040697
#
#
# Mechanical properties :
#
#
# Convention : Reuss Voigt Hill
#
# Bulk Modulus (GPa) = 50.60636 63.84563 57.22599
# Shear Modulus (GPa) = 20.16737 23.83819 22.00278
#
# Velocity S-wave (km/s) = 3.38921 3.68477 3.54008
# Velocity P-wave (km/s) = 6.64377 7.38025 7.02167
#
# Compressibility (1/GPa) = 0.01976036
#
# Stress axis : x y z
#
# Youngs Moduli (GPa) = 80.41779 104.82531 38.55977
#
# Poissons Ratio (x) = 0.33718 0.25378
# Poissons Ratio (y) = 0.25867 0.16488
# Poissons Ratio (z) = 0.52927 0.44824
#
# Static dielectric constant tensor:
#      x y z
#    x 3.428770 0.000000 0.000000 
#    y 0.000000 3.297640 0.000000 
#    z 0.000000 0.000000 2.973910 
# 
# 
# High freq. dielectric constant tensor:
#      x y z
#    x 1.690700 0.000000 0.000000 
#    y 0.000000 1.667470 0.000000 
#    z 0.000000 0.000000 1.639330 
# 
# From -- ./inp_files/27080.got.cif
#   From: 2010.03.12/outbox.cif.g09.slc.cpg/sg53_14_cif.got.tgz:27080.got - 2010.04.16 14:36:59.
