data_PCOD8218146
_publ_section_title
;
Structure prediction by ZEFSAII (Michael W. Deem and Ramdas Pophale) SiO2 
 PCOD8218146
Probable space group: P M N A
;
_chemical_formula_sum "Si O2"
_cell_formula_units_Z 64
_cell_length_a 18.019862
_cell_length_b 13.247932
_cell_length_c 14.478242
_cell_angle_alpha 90.000000
_cell_angle_beta 90.000000
_cell_angle_gamma 90.000000
_cell_volume 3456.331445
_symmetry_space_group_name_H-M "P M N A"
_symmetry_group_IT_number 53
_symmetry_cell_setting 'orthorhombic'
loop_
_space_group_symop_operation_xyz
x,y,z
1/2-x,-y,1/2+z
x,-y,-z
1/2-x,y,1/2-z
-x,-y,-z
1/2+x,y,1/2-z
-x,y,z
1/2+x,-y,1/2+z
loop_
_atom_site_type_symbol
_atom_site_label
_atom_site_fract_x
_atom_site_fract_y
_atom_site_fract_z
Si Si1 0.418816 0.822231 0.679881
Si Si2 0.914422 0.485133 0.214524
Si Si3 0.778156 0.940353 0.852450
Si Si4 0.086185 0.315395 0.352118
Si Si5 0.721578 0.171852 0.647683
Si Si6 0.865672 0.348919 0.062490
Si Si7 0.085319 0.688517 0.134680
Si Si8 0.217124 0.761364 0.534611
O O1 0.500000 0.871609 0.687539
O O2 0.363986 0.909509 0.647935
O O3 0.396491 0.770645 0.776811
O O4 0.420338 0.736114 0.602485
O O5 0.892261 0.425836 0.309011
O O6 0.868088 0.447348 0.126264
O O7 0.901698 0.606586 0.217961
O O8 0.000000 0.459791 0.194488
O O9 0.750000 0.926074 0.750000
O O10 0.728153 0.872133 0.920121
O O11 0.776422 0.055947 0.884317
O O12 0.137935 0.288942 0.439863
O O13 0.000000 0.313918 0.383704
O O14 0.750000 0.188831 0.750000
O O15 0.637575 0.213887 0.644512
O O16 0.775855 0.229902 0.576532
O O17 0.780990 0.312194 0.070760
O O18 0.893785 0.370717 0.959346
O O19 0.000000 0.725364 0.134997
#
# Coordination Sequence:
#
# PCOD8218146 Si02
#       8
#     8   8   8   8   8   8   8   8
#     4   9  16  26  46  79 113 137 169 218 268 323
#     4   9  17  29  50  80 111 138 169 214 268 320
#     4  10  18  32  54  78 104 140 174 214 273 323
#     4   9  17  31  52  82 111 136 172 222 275 323
#     4  10  23  39  52  72 104 144 186 226 263 319
#     4   9  17  27  48  79 112 139 172 208 269 325
#     4  10  19  34  53  73 104 147 183 216 259 318
#     4  10  19  34  55  79 107 139 177 222 275 326
#
# _framework density 18.516743000000002
#
# number of rings (size 3 to 8) (size 9 to 14) (size 15 to 20)
#    0.000    2.500    1.250    2.625    0.000    1.500 
#    2.250    0.625    0.000    6.750    0.000    2.625 
#    0.000    0.000    0.000    0.000    0.000    0.000 
#
# Total GULP energy -793206.812896 kJ/mol
# GULP energy per Si atom -12393.856451 kJ/mol
# Density = 1.847460 g / cm^3
# Si number density = 18.516743 Si / 1000 Ang^3
#
#
#
# Elastic Constant Matrix: (Units=GPa)
#
#
# Indices 1 2 3 4 5 6 
#
# 1 90.2537 38.9276 36.3368 0.0000 0.0000 0.0000
# 2 38.9276 65.3885 40.2149 0.0000 0.0000 0.0000
# 3 36.3368 40.2149 65.6303 0.0000 0.0000 0.0000
# 4 0.0000 0.0000 0.0000 17.4804 0.0000 0.0000
# 5 0.0000 0.0000 0.0000 0.0000 22.5361 0.0000
# 6 0.0000 0.0000 0.0000 0.0000 0.0000 0.0367
#
#
#
# Elastic Compliance Matrix: (Units=1/GPa)
#
#
# Indices 1 2 3 4 5 6 
#
# 1 0.015792 -0.006458 -0.004787 0.000000 0.000000 0.000000
# 2 -0.006458 0.027182 -0.013081 0.000000 0.000000 0.000000
# 3 -0.004787 -0.013081 0.025902 0.000000 0.000000 0.000000
# 4 0.000000 0.000000 0.000000 0.057207 0.000000 0.000000
# 5 0.000000 0.000000 0.000000 0.000000 0.044373 0.000000
# 6 0.000000 0.000000 0.000000 0.000000 0.000000 27.221262
#
#
# Mechanical properties :
#
#
# Convention : Reuss Voigt Hill
#
# Bulk Modulus (GPa) = 49.43891 50.24789 49.84340
# Shear Modulus (GPa) = 0.18217 15.06354 7.62285
#
# Velocity S-wave (km/s) = 0.31400 2.85530 2.03118
# Velocity P-wave (km/s) = 5.18546 6.16974 5.69889
#
# Compressibility (1/GPa) = 0.02022698
#
# Stress axis : x y z
#
# Youngs Moduli (GPa) = 63.32200 36.78841 38.60697
#
# Poissons Ratio (x) = 0.23757 0.18479
# Poissons Ratio (y) = 0.40892 0.50500
# Poissons Ratio (z) = 0.30309 0.48121
#
# Static dielectric constant tensor:
#      x y z
#    x 4.534810 0.000000 0.000000 
#    y 0.000000 3.322860 0.000000 
#    z 0.000000 0.000000 3.282240 
# 
# 
# High freq. dielectric constant tensor:
#      x y z
#    x 1.708720 0.000000 0.000000 
#    y 0.000000 1.707490 0.000000 
#    z 0.000000 0.000000 1.700860 
# 
# From -- ./inp_files/23938.got.cif
#   From: 2010.03.12/outbox.cif.g09.slc.cpg/sg53_12_cif.got.tgz:23938.got - 2010.04.16 14:36:59.
