data_PCOD8218844
_publ_section_title
;
Structure prediction by ZEFSAII (Michael W. Deem and Ramdas Pophale) SiO2 
 PCOD8218844
Probable space group: P M N A
;
_chemical_formula_sum "Si O2"
_cell_formula_units_Z 64
_cell_length_a 9.450025
_cell_length_b 17.388569
_cell_length_c 19.699930
_cell_angle_alpha 90.000000
_cell_angle_beta 90.000000
_cell_angle_gamma 90.000000
_cell_volume 3237.140009
_symmetry_space_group_name_H-M "P M N A"
_symmetry_group_IT_number 53
_symmetry_cell_setting 'orthorhombic'
loop_
_space_group_symop_operation_xyz
x,y,z
1/2-x,-y,1/2+z
x,-y,-z
1/2-x,y,1/2-z
-x,-y,-z
1/2+x,y,1/2-z
-x,y,z
1/2+x,-y,1/2+z
loop_
_atom_site_type_symbol
_atom_site_label
_atom_site_fract_x
_atom_site_fract_y
_atom_site_fract_z
Si Si1 0.667922 0.078668 0.465420
Si Si2 0.152298 0.650689 0.991922
Si Si3 0.159336 0.573887 0.411176
Si Si4 0.664836 0.722879 0.180743
Si Si5 0.657268 0.199665 0.575216
Si Si6 0.166425 0.554093 0.689684
Si Si7 0.335955 0.301736 0.345733
Si Si8 0.834160 0.125906 0.183730
O O1 0.500000 0.083505 0.461420
O O2 0.721891 0.146015 0.515588
O O3 0.722717 0.087909 0.387270
O O4 0.721401 0.000000 0.500000
O O5 0.255084 0.584472 0.019181
O O6 0.139494 0.714567 0.049148
O O7 0.000000 0.611795 0.979054
O O8 0.205177 0.693216 0.924683
O O9 0.181519 0.641506 0.356814
O O10 0.202947 0.492093 0.378700
O O11 0.000000 0.571684 0.436107
O O12 0.750000 0.716435 0.250000
O O13 0.500000 0.741796 0.194201
O O14 0.732768 0.794076 0.137780
O O15 0.500000 0.169523 0.598179
O O16 0.250000 0.510272 0.750000
O O17 0.228462 0.640175 0.689977
O O18 0.000000 0.555598 0.704606
O O19 0.500000 0.324290 0.332381
O O20 0.304697 0.216565 0.320172
O O21 0.750000 0.093488 0.250000
O O22 0.000000 0.108063 0.193817
#
# Coordination Sequence:
#
# PCOD8218844 Si02
#       8
#     8   8   8   8   8   8   8   8
#     4   9  17  33  60  88 112 144 183 219 263 322
#     4   9  17  31  53  77 101 135 176 220 266 317
#     4   9  20  35  50  71 102 137 177 228 279 327
#     4  10  19  32  51  76 104 139 182 228 276 326
#     4   9  16  31  54  79 106 138 178 222 265 315
#     4  11  23  37  51  70  99 137 180 227 280 332
#     4  10  20  35  54  77 107 139 178 226 270 321
#     4  10  20  36  58  85 115 146 184 226 268 321
#
# _framework density 19.770538999999999
#
# number of rings (size 3 to 8) (size 9 to 14) (size 15 to 20)
#    0.000    2.375    1.250    1.500    0.000    4.000 
#    0.000    3.750    0.000    3.000    0.000    0.000 
#    0.000    0.000    0.000    0.000    0.000    0.000 
#
# Total GULP energy -793085.595861 kJ/mol
# GULP energy per Si atom -12391.962435 kJ/mol
# Density = 1.972554 g / cm^3
# Si number density = 19.770539 Si / 1000 Ang^3
#
#
#
# Elastic Constant Matrix: (Units=GPa)
#
#
# Indices 1 2 3 4 5 6 
#
# 1 78.0829 18.5538 38.7259 0.0000 0.0000 0.0000
# 2 18.5538 57.2199 13.1170 0.0000 0.0000 0.0000
# 3 38.7259 13.1170 81.7185 0.0000 0.0000 0.0000
# 4 0.0000 0.0000 0.0000 13.9939 0.0000 0.0000
# 5 0.0000 0.0000 0.0000 0.0000 31.0496 0.0000
# 6 0.0000 0.0000 0.0000 0.0000 0.0000 -207.7129
#
#
#
# Elastic Compliance Matrix: (Units=1/GPa)
#
#
# Indices 1 2 3 4 5 6 
#
# 1 0.017553 -0.003929 -0.007688 0.000000 0.000000 0.000000
# 2 -0.003929 0.019024 -0.001191 0.000000 0.000000 0.000000
# 3 -0.007688 -0.001191 0.016072 0.000000 0.000000 0.000000
# 4 0.000000 0.000000 0.000000 0.071460 0.000000 0.000000
# 5 0.000000 0.000000 0.000000 0.000000 0.032207 0.000000
# 6 0.000000 0.000000 0.000000 0.000000 0.000000 -0.004814
#
#
# Mechanical properties :
#
#
# Convention : Reuss Voigt Hill
#
# Bulk Modulus (GPa) = 36.99397 39.75718 38.37558
# Shear Modulus (GPa) = 26.86321 -22.75890 2.05216
#
# Velocity S-wave (km/s) = 3.69012 -3.39654 1.01992
# Velocity P-wave (km/s) = 6.07522 2.18425 4.56504
#
# Compressibility (1/GPa) = 0.02703143
#
# Stress axis : x y z
#
# Youngs Moduli (GPa) = 56.96907 52.56604 62.22186
#
# Poissons Ratio (x) = 0.20656 0.47834
# Poissons Ratio (y) = 0.22386 0.07413
# Poissons Ratio (z) = 0.43796 0.06263
#
# Static dielectric constant tensor:
#      x y z
#    x 3.629020 0.000000 0.000000 
#    y 0.000000 3.414070 0.000000 
#    z 0.000000 0.000000 3.847410 
# 
# 
# High freq. dielectric constant tensor:
#      x y z
#    x 1.751380 0.000000 0.000000 
#    y 0.000000 1.743390 0.000000 
#    z 0.000000 0.000000 1.784900 
# 
# From -- ./inp_files/31220.got.cif
#   From: 2010.03.12/outbox.cif.g09.slc.cpg/sg53_16_cif.got.tgz:31220.got - 2010.04.16 14:36:59.
