data_PCOD8218632
_publ_section_title
;
Structure prediction by ZEFSAII (Michael W. Deem and Ramdas Pophale) SiO2 
 PCOD8218632
Probable space group: P M N A
;
_chemical_formula_sum "Si O2"
_cell_formula_units_Z 64
_cell_length_a 8.747066
_cell_length_b 18.354383
_cell_length_c 23.324780
_cell_angle_alpha 90.000000
_cell_angle_beta 90.000000
_cell_angle_gamma 90.000000
_cell_volume 3744.723443
_symmetry_space_group_name_H-M "P M N A"
_symmetry_group_IT_number 53
_symmetry_cell_setting 'orthorhombic'
loop_
_space_group_symop_operation_xyz
x,y,z
1/2-x,-y,1/2+z
x,-y,-z
1/2-x,y,1/2-z
-x,-y,-z
1/2+x,y,1/2-z
-x,y,z
1/2+x,-y,1/2+z
loop_
_atom_site_type_symbol
_atom_site_label
_atom_site_fract_x
_atom_site_fract_y
_atom_site_fract_z
Si Si1 0.820870 0.997575 0.688849
Si Si2 0.678383 0.573333 0.311687
Si Si3 0.318650 0.261164 0.313275
Si Si4 0.181257 0.864862 0.611838
Si Si5 0.180715 0.137323 0.619267
Si Si6 0.178926 0.580223 0.811738
Si Si7 0.318526 0.731893 0.313472
Si Si8 0.680871 0.083536 0.502572
O O1 0.750000 0.982933 0.750000
O O2 0.771416 0.076143 0.665328
O O3 0.000000 0.991465 0.695747
O O4 0.760099 0.936044 0.645656
O O5 0.750000 0.572410 0.250000
O O6 0.500000 0.572998 0.301756
O O7 0.725406 0.496625 0.344627
O O8 0.721487 0.651200 0.340094
O O9 0.250000 0.248632 0.250000
O O10 0.500000 0.249608 0.309543
O O11 0.246946 0.206233 0.358125
O O12 0.273032 0.341863 0.338820
O O13 0.244801 0.869473 0.547878
O O14 0.000000 0.860081 0.610169
O O15 0.237236 0.214046 0.642912
O O16 0.266391 0.121052 0.560679
O O17 0.000000 0.137881 0.608448
O O18 0.250000 0.575679 0.750000
O O19 0.000000 0.582500 0.803252
O O20 0.250000 0.741896 0.250000
O O21 0.500000 0.746609 0.310908
O O22 0.500000 0.087237 0.497096
O O23 0.739433 0.000000 0.500000
#
# Coordination Sequence:
#
# PCOD8218632 Si02
#       8
#     8   8   8   8   8   8   8   8
#     4  10  22  35  50  71  97 130 164 198 239 292
#     4   8  14  25  42  65  96 133 168 202 242 291
#     4  10  19  31  48  74 106 137 171 209 251 300
#     4  11  22  37  54  73  99 133 169 207 252 298
#     4  11  22  37  54  73  99 133 169 207 252 298
#     4   8  14  25  42  65  96 133 168 202 242 291
#     4  10  19  31  48  74 106 137 171 209 251 300
#     4  11  23  39  59  79  96 123 164 213 257 298
#
# _framework density 17.090714999999999
#
# number of rings (size 3 to 8) (size 9 to 14) (size 15 to 20)
#    0.000    2.125    1.250    2.625    0.000    5.500 
#    0.000    0.000    0.000    0.000    0.000    0.875 
#    0.000    7.000    0.000    0.000    0.000    0.000 
#
# Total GULP energy -792870.566171 kJ/mol
# GULP energy per Si atom -12388.602596 kJ/mol
# Density = 1.705182 g / cm^3
# Si number density = 17.090715 Si / 1000 Ang^3
#
#
#
# Elastic Constant Matrix: (Units=GPa)
#
#
# Indices 1 2 3 4 5 6 
#
# 1 39.8656 36.1056 19.3379 0.0000 0.0000 0.0000
# 2 36.1056 148.5263 33.5774 0.0000 0.0000 0.0000
# 3 19.3379 33.5774 65.1675 0.0000 0.0000 0.0000
# 4 0.0000 0.0000 0.0000 72.3099 0.0000 0.0000
# 5 0.0000 0.0000 0.0000 0.0000 27.0877 0.0000
# 6 0.0000 0.0000 0.0000 0.0000 0.0000 25.4791
#
#
#
# Elastic Compliance Matrix: (Units=1/GPa)
#
#
# Indices 1 2 3 4 5 6 
#
# 1 0.034579 -0.006889 -0.006712 0.000000 0.000000 0.000000
# 2 -0.006889 0.008993 -0.002589 0.000000 0.000000 0.000000
# 3 -0.006712 -0.002589 0.018671 0.000000 0.000000 0.000000
# 4 0.000000 0.000000 0.000000 0.013829 0.000000 0.000000
# 5 0.000000 0.000000 0.000000 0.000000 0.036917 0.000000
# 6 0.000000 0.000000 0.000000 0.000000 0.000000 0.039248
#
#
# Mechanical properties :
#
#
# Convention : Reuss Voigt Hill
#
# Bulk Modulus (GPa) = 33.48595 47.95568 40.72081
# Shear Modulus (GPa) = 25.69764 35.94456 30.82110
#
# Velocity S-wave (km/s) = 3.88184 4.59100 4.25123
# Velocity P-wave (km/s) = 6.30295 7.49823 6.92642
#
# Compressibility (1/GPa) = 0.02986327
#
# Stress axis : x y z
#
# Youngs Moduli (GPa) = 28.91948 111.20075 53.55933
#
# Poissons Ratio (x) = 0.76601 0.35947
# Poissons Ratio (y) = 0.19921 0.13869
# Poissons Ratio (z) = 0.19410 0.28794
#
# Static dielectric constant tensor:
#      x y z
#    x 3.122760 0.000000 0.000000 
#    y 0.000000 4.049990 0.000000 
#    z 0.000000 0.000000 2.812120 
# 
# 
# High freq. dielectric constant tensor:
#      x y z
#    x 1.670350 0.000000 0.000000 
#    y 0.000000 1.684680 0.000000 
#    z 0.000000 0.000000 1.613710 
# 
# From -- ./inp_files/31117.got.cif
#   From: 2010.03.12/outbox.cif.g09.slc.cpg/sg53_16_cif.got.tgz:31117.got - 2010.04.16 14:36:59.
