data_PCOD8218803
_publ_section_title
;
Structure prediction by ZEFSAII (Michael W. Deem and Ramdas Pophale) SiO2 
 PCOD8218803
Probable space group: P M N A
;
_chemical_formula_sum "Si O2"
_cell_formula_units_Z 64
_cell_length_a 17.446028
_cell_length_b 9.817784
_cell_length_c 20.491571
_cell_angle_alpha 90.000000
_cell_angle_beta 90.000000
_cell_angle_gamma 90.000000
_cell_volume 3509.823628
_symmetry_space_group_name_H-M "P M N A"
_symmetry_group_IT_number 53
_symmetry_cell_setting 'orthorhombic'
loop_
_space_group_symop_operation_xyz
x,y,z
1/2-x,-y,1/2+z
x,-y,-z
1/2-x,y,1/2-z
-x,-y,-z
1/2+x,y,1/2-z
-x,y,z
1/2+x,-y,1/2+z
loop_
_atom_site_type_symbol
_atom_site_label
_atom_site_fract_x
_atom_site_fract_y
_atom_site_fract_z
Si Si1 0.207449 0.547145 0.318889
Si Si2 0.285834 0.150644 0.820954
Si Si3 0.084599 0.951632 0.862672
Si Si4 0.413318 0.636243 0.771914
Si Si5 0.910238 0.049611 0.281633
Si Si6 0.640894 0.781267 0.401350
Si Si7 0.589768 0.725710 0.540148
Si Si8 0.362065 0.511741 0.636488
O O1 0.250000 0.535174 0.250000
O O2 0.177054 0.700005 0.329255
O O3 0.134331 0.450980 0.323520
O O4 0.269534 0.494527 0.371759
O O5 0.250000 0.132679 0.750000
O O6 0.354300 0.038559 0.829301
O O7 0.219861 0.145107 0.876922
O O8 0.122980 0.971351 0.791856
O O9 0.078380 0.099111 0.896675
O O10 0.000000 0.893011 0.848492
O O11 0.123453 0.840149 0.910012
O O12 0.500000 0.591386 0.779622
O O13 0.388529 0.602319 0.697832
O O14 0.400401 0.790728 0.794244
O O15 0.000000 0.004752 0.290010
O O16 0.643245 0.733902 0.476400
O O17 0.615274 0.649702 0.357786
O O18 0.500000 0.748558 0.523154
O O19 0.600774 0.577008 0.572144
#
# Coordination Sequence:
#
# PCOD8218803 Si02
#       8
#     8   8   8   8   8   8   8   8
#     4   8  18  32  47  70 100 133 172 222 266 303
#     4  10  19  35  50  72 100 133 177 218 257 312
#     4  10  20  34  48  70 105 140 176 216 255 300
#     4  10  19  32  50  75 103 133 172 222 269 316
#     4  10  20  33  51  74 100 134 173 216 265 312
#     4  11  22  34  51  73 103 144 181 219 256 300
#     4  11  22  36  52  77 112 148 184 215 249 308
#     4  10  20  35  50  72 108 143 182 217 254 311
#
# _framework density 18.234535000000001
#
# number of rings (size 3 to 8) (size 9 to 14) (size 15 to 20)
#    0.000    2.000    2.500    2.250    0.000    6.500 
#    0.000    0.000    0.000    0.000    0.000    0.875 
#    0.000    8.000    0.000    0.000    0.000    0.000 
#
# Total GULP energy -792937.931655 kJ/mol
# GULP energy per Si atom -12389.655182 kJ/mol
# Density = 1.819303 g / cm^3
# Si number density = 18.234535 Si / 1000 Ang^3
#
#
#
# Elastic Constant Matrix: (Units=GPa)
#
#
# Indices 1 2 3 4 5 6 
#
# 1 92.8532 54.8909 32.3747 0.0000 0.0000 0.0000
# 2 54.8909 101.0701 15.7201 0.0000 0.0000 0.0000
# 3 32.3747 15.7201 46.5950 0.0000 0.0000 0.0000
# 4 0.0000 0.0000 0.0000 22.0399 0.0000 0.0000
# 5 0.0000 0.0000 0.0000 0.0000 24.2071 0.0000
# 6 0.0000 0.0000 0.0000 0.0000 0.0000 32.8270
#
#
#
# Elastic Compliance Matrix: (Units=1/GPa)
#
#
# Indices 1 2 3 4 5 6 
#
# 1 0.019931 -0.009151 -0.010761 0.000000 0.000000 0.000000
# 2 -0.009151 0.014643 0.001418 0.000000 0.000000 0.000000
# 3 -0.010761 0.001418 0.028460 0.000000 0.000000 0.000000
# 4 0.000000 0.000000 0.000000 0.045372 0.000000 0.000000
# 5 0.000000 0.000000 0.000000 0.000000 0.041310 0.000000
# 6 0.000000 0.000000 0.000000 0.000000 0.000000 0.030463
#
#
# Mechanical properties :
#
#
# Convention : Reuss Voigt Hill
#
# Bulk Modulus (GPa) = 38.39312 49.60999 44.00155
# Shear Modulus (GPa) = 22.13847 24.98363 23.56105
#
# Velocity S-wave (km/s) = 3.48817 3.70554 3.59849
# Velocity P-wave (km/s) = 6.10933 6.75083 6.43808
#
# Compressibility (1/GPa) = 0.02604633
#
# Stress axis : x y z
#
# Youngs Moduli (GPa) = 50.17211 68.28995 35.13674
#
# Poissons Ratio (x) = 0.62492 0.37811
# Poissons Ratio (y) = 0.45912 -0.04982
# Poissons Ratio (z) = 0.53991 -0.09682
#
# Static dielectric constant tensor:
#      x y z
#    x 3.367420 0.000000 0.000000 
#    y 0.000000 3.572010 0.000000 
#    z 0.000000 0.000000 3.127710 
# 
# 
# High freq. dielectric constant tensor:
#      x y z
#    x 1.686840 0.000000 0.000000 
#    y 0.000000 1.728450 0.000000 
#    z 0.000000 0.000000 1.659690 
# 
# From -- ./inp_files/32818.got.cif
#   From: 2010.03.12/outbox.cif.g09.slc.cpg/sg53_17_cif.got.tgz:32818.got - 2010.04.16 14:36:59.
