data_PCOD8218571
_publ_section_title
;
Structure prediction by ZEFSAII (Michael W. Deem and Ramdas Pophale) SiO2 
 PCOD8218571
Probable space group: P M N A
;
_chemical_formula_sum "Si O2"
_cell_formula_units_Z 64
_cell_length_a 8.872390
_cell_length_b 20.756966
_cell_length_c 19.172387
_cell_angle_alpha 90.000000
_cell_angle_beta 90.000000
_cell_angle_gamma 90.000000
_cell_volume 3530.861516
_symmetry_space_group_name_H-M "P M N A"
_symmetry_group_IT_number 53
_symmetry_cell_setting 'orthorhombic'
loop_
_space_group_symop_operation_xyz
x,y,z
1/2-x,-y,1/2+z
x,-y,-z
1/2-x,y,1/2-z
-x,-y,-z
1/2+x,y,1/2-z
-x,y,z
1/2+x,-y,1/2+z
loop_
_atom_site_type_symbol
_atom_site_label
_atom_site_fract_x
_atom_site_fract_y
_atom_site_fract_z
Si Si1 0.325898 0.956568 0.176459
Si Si2 0.178844 0.672334 0.934021
Si Si3 0.820412 0.528597 0.927737
Si Si4 0.321749 0.295505 0.588074
Si Si5 0.678185 0.093954 0.173839
Si Si6 0.177848 0.419916 0.824983
Si Si7 0.179254 0.779206 0.826124
Si Si8 0.822628 0.183580 0.673961
O O1 0.250000 0.957454 0.250000
O O2 0.500000 0.958202 0.193524
O O3 0.285515 0.887896 0.140882
O O4 0.286273 0.024216 0.135934
O O5 0.242165 0.600965 0.917105
O O6 0.235554 0.720538 0.874188
O O7 0.000000 0.669854 0.936231
O O8 0.237336 0.695928 0.009224
O O9 0.763548 0.483961 0.864333
O O10 0.000000 0.528409 0.930752
O O11 0.756667 0.500000 0.000000
O O12 0.500000 0.285902 0.591108
O O13 0.270735 0.357809 0.631455
O O14 0.243551 0.232916 0.619018
O O15 0.750000 0.090671 0.250000
O O16 0.500000 0.107234 0.178033
O O17 0.759029 0.154886 0.137057
O O18 0.250000 0.416598 0.750000
O O19 0.000000 0.421327 0.816696
O O20 0.250000 0.769146 0.750000
O O21 0.000000 0.782156 0.820430
O O22 0.750000 0.193208 0.750000
O O23 0.000000 0.194819 0.682302
#
# Coordination Sequence:
#
# PCOD8218571 Si02
#       8
#     8   8   8   8   8   8   8   8
#     4   8  15  26  42  65  93 124 161 201 241 286
#     4   9  18  32  52  74  97 128 168 206 242 289
#     4   9  15  30  54  75  93 123 168 206 236 281
#     4  10  19  33  51  72  97 130 168 206 244 288
#     4   9  15  26  45  68  94 125 160 200 244 291
#     4  10  20  32  52  78 102 127 161 204 246 289
#     4  10  19  31  48  73 102 128 158 202 250 297
#     4  10  19  31  47  71 101 132 165 204 247 291
#
# _framework density 18.125886999999999
#
# number of rings (size 3 to 8) (size 9 to 14) (size 15 to 20)
#    0.000    2.625    1.250    2.250    0.000    3.000 
#    0.000    1.250    0.000    2.625    0.000    5.250 
#    0.000    0.000    0.000    0.000    0.000    0.000 
#
# Total GULP energy -792883.526322 kJ/mol
# GULP energy per Si atom -12388.805099 kJ/mol
# Density = 1.808463 g / cm^3
# Si number density = 18.125887 Si / 1000 Ang^3
#
#
#
# Elastic Constant Matrix: (Units=GPa)
#
#
# Indices 1 2 3 4 5 6 
#
# 1 40.2412 46.1824 28.1653 0.0000 0.0000 0.0000
# 2 46.1824 213.4808 79.4749 0.0000 0.0000 0.0000
# 3 28.1653 79.4749 101.8121 0.0000 0.0000 0.0000
# 4 0.0000 0.0000 0.0000 36.1676 0.0000 0.0000
# 5 0.0000 0.0000 0.0000 0.0000 18.5680 0.0000
# 6 0.0000 0.0000 0.0000 0.0000 0.0000 22.2773
#
#
#
# Elastic Compliance Matrix: (Units=1/GPa)
#
#
# Indices 1 2 3 4 5 6 
#
# 1 0.034985 -0.005590 -0.005315 0.000000 0.000000 0.000000
# 2 -0.005590 0.007496 -0.004305 0.000000 0.000000 0.000000
# 3 -0.005315 -0.004305 0.014653 0.000000 0.000000 0.000000
# 4 0.000000 0.000000 0.000000 0.027649 0.000000 0.000000
# 5 0.000000 0.000000 0.000000 0.000000 0.053856 0.000000
# 6 0.000000 0.000000 0.000000 0.000000 0.000000 0.044889
#
#
# Mechanical properties :
#
#
# Convention : Reuss Voigt Hill
#
# Bulk Modulus (GPa) = 37.43272 73.68659 55.55966
# Shear Modulus (GPa) = 22.43631 28.85001 25.64316
#
# Velocity S-wave (km/s) = 3.52206 3.99387 3.76536
# Velocity P-wave (km/s) = 6.10215 7.87458 7.04433
#
# Compressibility (1/GPa) = 0.02671460
#
# Stress axis : x y z
#
# Youngs Moduli (GPa) = 28.58358 133.39999 68.24509
#
# Poissons Ratio (x) = 0.74566 0.36272
# Poissons Ratio (y) = 0.15977 0.29381
# Poissons Ratio (z) = 0.15192 0.57432
#
# Static dielectric constant tensor:
#      x y z
#    x 3.081050 0.000000 0.000000 
#    y 0.000000 4.299750 0.000000 
#    z 0.000000 0.000000 2.969270 
# 
# 
# High freq. dielectric constant tensor:
#      x y z
#    x 1.680420 0.000000 0.000000 
#    y 0.000000 1.733270 0.000000 
#    z 0.000000 0.000000 1.663750 
# 
# From -- ./inp_files/26833.got.cif
#   From: 2010.03.12/outbox.cif.g09.slc.cpg/sg53_14_cif.got.tgz:26833.got - 2010.04.16 14:36:59.
