data_PCOD8218185
_publ_section_title
;
Structure prediction by ZEFSAII (Michael W. Deem and Ramdas Pophale) SiO2 
 PCOD8218185
Probable space group: P M N A
;
_chemical_formula_sum "Si O2"
_cell_formula_units_Z 64
_cell_length_a 15.322737
_cell_length_b 23.984166
_cell_length_c 8.824207
_cell_angle_alpha 90.000000
_cell_angle_beta 90.000000
_cell_angle_gamma 90.000000
_cell_volume 3242.923143
_symmetry_space_group_name_H-M "P M N A"
_symmetry_group_IT_number 53
_symmetry_cell_setting 'orthorhombic'
loop_
_space_group_symop_operation_xyz
x,y,z
1/2-x,-y,1/2+z
x,-y,-z
1/2-x,y,1/2-z
-x,-y,-z
1/2+x,y,1/2-z
-x,y,z
1/2+x,-y,1/2+z
loop_
_atom_site_type_symbol
_atom_site_label
_atom_site_fract_x
_atom_site_fract_y
_atom_site_fract_z
Si Si1 0.852496 0.760785 0.923414
Si Si2 0.901509 0.870686 0.076206
Si Si3 0.147504 0.239215 0.423414
Si Si4 0.401509 0.870686 0.076207
Si Si5 0.250000 0.560564 0.569632
Si Si6 0.902631 0.360685 0.429740
Si Si7 0.250000 0.060392 0.071575
Si Si8 0.097369 0.639315 0.929740
O O1 0.884635 0.766327 0.750000
O O2 0.750000 0.770359 0.934286
O O3 0.877603 0.700457 0.991391
O O4 0.900451 0.806626 0.024055
O O5 0.871048 0.874344 0.250000
O O6 0.000000 0.893606 0.057022
O O7 0.837088 0.907262 0.975421
O O8 0.099549 0.193374 0.524055
O O9 0.122397 0.299543 0.491391
O O10 0.500000 0.893606 0.057022
O O11 0.337088 0.907262 0.975421
O O12 0.250000 0.500000 0.500000
O O13 0.250000 0.556185 0.750000
O O14 0.164713 0.593259 0.508390
O O15 0.335287 0.593259 0.508390
O O16 0.895145 0.358684 0.250000
O O17 0.000000 0.377052 0.483518
O O18 0.250000 0.054274 0.250000
O O19 0.250000 0.000000 0.000000
O O20 0.000000 0.622948 0.983518
#
# Coordination Sequence:
#
# PCOD8218185 Si02
#       8
#     8   8   8   8   8   8   8   8
#     4  10  18  32  58  89 116 148 189 235 287 344
#     4  11  24  41  62  91 127 163 196 236 291 353
#     4  10  18  32  58  89 116 148 189 235 287 344
#     4  11  24  41  62  91 127 163 196 236 291 353
#     4  10  20  35  52  73 101 138 186 232 281 334
#     4   9  17  31  53  79 108 142 181 227 279 339
#     4  12  26  45  68  91 119 158 204 252 297 342
#     4   9  17  31  53  79 108 142 181 227 279 339
#
# _framework density 19.735282000000002
#
# number of rings (size 3 to 8) (size 9 to 14) (size 15 to 20)
#    0.000    1.750    2.500    2.625    0.000    4.000 
#    0.000    1.250    0.000    1.500    0.000    0.000 
#    0.000    0.000    0.000    0.000    0.000    0.000 
#
# Total GULP energy -793721.060701 kJ/mol
# GULP energy per Si atom -12401.891573 kJ/mol
# Density = 1.969036 g / cm^3
# Si number density = 19.735282 Si / 1000 Ang^3
#
#
#
# Elastic Constant Matrix: (Units=GPa)
#
#
# Indices 1 2 3 4 5 6 
#
# 1 131.6368 63.0869 43.4984 0.0000 0.0000 0.0000
# 2 63.0869 153.9026 46.7567 0.0000 0.0000 0.0000
# 3 43.4984 46.7567 87.6412 0.0000 0.0000 0.0000
# 4 0.0000 0.0000 0.0000 33.8163 0.0000 0.0000
# 5 0.0000 0.0000 0.0000 0.0000 16.6660 0.0000
# 6 0.0000 0.0000 0.0000 0.0000 0.0000 12.1906
#
#
#
# Elastic Compliance Matrix: (Units=1/GPa)
#
#
# Indices 1 2 3 4 5 6 
#
# 1 0.010234 -0.003165 -0.003391 0.000000 0.000000 0.000000
# 2 -0.003165 0.008733 -0.003088 0.000000 0.000000 0.000000
# 3 -0.003391 -0.003088 0.014741 0.000000 0.000000 0.000000
# 4 0.000000 0.000000 0.000000 0.029572 0.000000 0.000000
# 5 0.000000 0.000000 0.000000 0.000000 0.060002 0.000000
# 6 0.000000 0.000000 0.000000 0.000000 0.000000 0.082030
#
#
# Mechanical properties :
#
#
# Convention : Reuss Voigt Hill
#
# Bulk Modulus (GPa) = 69.34969 75.54050 72.44510
# Shear Modulus (GPa) = 21.79533 27.19048 24.49291
#
# Velocity S-wave (km/s) = 3.32683 3.71585 3.52671
# Velocity P-wave (km/s) = 7.06918 7.53459 7.30559
#
# Compressibility (1/GPa) = 0.01441967
#
# Stress axis : x y z
#
# Youngs Moduli (GPa) = 97.71437 114.50539 67.83898
#
# Poissons Ratio (x) = 0.36239 0.23003
# Poissons Ratio (y) = 0.30925 0.20951
# Poissons Ratio (z) = 0.33134 0.35364
#
# Static dielectric constant tensor:
#      x y z
#    x 3.825640 0.000000 0.000000 
#    y 0.000000 3.665260 0.000000 
#    z 0.000000 0.000000 3.308750 
# 
# 
# High freq. dielectric constant tensor:
#      x y z
#    x 1.786980 0.000000 0.000000 
#    y 0.000000 1.769990 0.000000 
#    z 0.000000 0.000000 1.738100 
# 
# From -- ./inp_files/8965.got.cif
#   From: 2010.03.12/outbox.cif.g09.slc.cpg/sg53_5_cif.got.tgz:8965.got - 2010.04.16 14:36:59.
