data_PCOD8218361
_publ_section_title
;
Structure prediction by ZEFSAII (Michael W. Deem and Ramdas Pophale) SiO2 
 PCOD8218361
Probable space group: P M N A
;
_chemical_formula_sum "Si O2"
_cell_formula_units_Z 48
_cell_length_a 9.256887
_cell_length_b 23.630027
_cell_length_c 13.751786
_cell_angle_alpha 90.000000
_cell_angle_beta 90.000000
_cell_angle_gamma 90.000000
_cell_volume 3008.072405
_symmetry_space_group_name_H-M "P M N A"
_symmetry_group_IT_number 53
_symmetry_cell_setting 'orthorhombic'
loop_
_space_group_symop_operation_xyz
x,y,z
1/2-x,-y,1/2+z
x,-y,-z
1/2-x,y,1/2-z
-x,-y,-z
1/2+x,y,1/2-z
-x,y,z
1/2+x,-y,1/2+z
loop_
_atom_site_type_symbol
_atom_site_label
_atom_site_fract_x
_atom_site_fract_y
_atom_site_fract_z
Si Si1 0.671123 0.524227 0.348470
Si Si2 0.168066 0.690755 0.847893
Si Si3 0.168669 0.088174 0.459518
Si Si4 0.170521 0.584475 0.962086
Si Si5 0.667655 0.975958 0.152189
Si Si6 0.330530 0.819291 0.649985
O O1 0.750000 0.540951 0.250000
O O2 0.500000 0.526492 0.331886
O O3 0.724410 0.569734 0.429455
O O4 0.723648 0.462181 0.383995
O O5 0.250000 0.675634 0.750000
O O6 0.222867 0.647203 0.930868
O O7 0.200233 0.754701 0.881784
O O8 0.000000 0.682095 0.826168
O O9 0.203839 0.070414 0.569968
O O10 0.266182 0.142271 0.435457
O O11 0.000000 0.102925 0.447922
O O12 0.212874 0.037710 0.386568
O O13 0.000000 0.580446 0.964254
O O14 0.750000 0.959911 0.250000
O O15 0.500000 0.975404 0.176708
O O16 0.250000 0.834150 0.750000
O O17 0.500000 0.831247 0.663855
#
# Coordination Sequence:
#
# PCOD8218361 Si02
#       6
#     8   8   8   8   8   8
#     4   9  16  27  44  64  85 111 142 174 211 254
#     4   9  17  29  44  63  87 114 143 175 211 252
#     4   9  18  32  47  65  91 118 143 175 215 256
#     4   8  15  28  44  61  85 116 142 168 211 260
#     4   9  18  31  47  67  90 116 144 176 215 256
#     4  10  19  29  44  66  89 115 146 178 214 256
#
# _framework density 15.957062000000001
#
# number of rings (size 3 to 8) (size 9 to 14) (size 15 to 20)
#    0.000    3.000    0.000    3.500    0.000    3.333 
#    0.000    4.167    0.000    1.000    0.000    4.667 
#    0.000    0.000    0.000    0.000    0.000    0.000 
#
# Total GULP energy -595034.375396 kJ/mol
# GULP energy per Si atom -12396.549487 kJ/mol
# Density = 1.592074 g / cm^3
# Si number density = 15.957062 Si / 1000 Ang^3
#
#
#
# Elastic Constant Matrix: (Units=GPa)
#
#
# Indices 1 2 3 4 5 6 
#
# 1 51.5917 43.7508 49.1043 0.0000 0.0000 0.0000
# 2 43.7508 109.5469 68.3875 0.0000 0.0000 0.0000
# 3 49.1043 68.3875 127.7429 0.0000 0.0000 0.0000
# 4 0.0000 0.0000 0.0000 25.8199 0.0000 0.0000
# 5 0.0000 0.0000 0.0000 0.0000 30.6254 0.0000
# 6 0.0000 0.0000 0.0000 0.0000 0.0000 41.5761
#
#
#
# Elastic Compliance Matrix: (Units=1/GPa)
#
#
# Indices 1 2 3 4 5 6 
#
# 1 0.035045 -0.008391 -0.008979 0.000000 0.000000 0.000000
# 2 -0.008391 0.015720 -0.005190 0.000000 0.000000 0.000000
# 3 -0.008979 -0.005190 0.014058 0.000000 0.000000 0.000000
# 4 0.000000 0.000000 0.000000 0.038730 0.000000 0.000000
# 5 0.000000 0.000000 0.000000 0.000000 0.032653 0.000000
# 6 0.000000 0.000000 0.000000 0.000000 0.000000 0.024052
#
#
# Mechanical properties :
#
#
# Convention : Reuss Voigt Hill
#
# Bulk Modulus (GPa) = 50.75450 67.92962 59.34206
# Shear Modulus (GPa) = 23.59099 28.11354 25.85227
#
# Velocity S-wave (km/s) = 3.84917 4.20196 4.02943
# Velocity P-wave (km/s) = 7.18546 8.13662 7.67579
#
# Compressibility (1/GPa) = 0.01970269
#
# Stress axis : x y z
#
# Youngs Moduli (GPa) = 28.53495 63.61453 71.13170
#
# Poissons Ratio (x) = 0.53377 0.63871
# Poissons Ratio (y) = 0.23943 0.36919
# Poissons Ratio (z) = 0.25622 0.33017
#
# Static dielectric constant tensor:
#      x y z
#    x 2.849820 0.000000 0.000000 
#    y 0.000000 3.150570 0.000000 
#    z 0.000000 0.000000 3.031940 
# 
# 
# High freq. dielectric constant tensor:
#      x y z
#    x 1.600690 0.000000 0.000000 
#    y 0.000000 1.606680 0.000000 
#    z 0.000000 0.000000 1.604170 
# 
# From -- ./inp_files/14955.got.cif
#   From: 2010.03.12/outbox.cif.g09.slc.cpg/sg53_8_cif.got.tgz:14955.got - 2010.04.16 14:36:59.
