data_PCOD8218268
_publ_section_title
;
Structure prediction by ZEFSAII (Michael W. Deem and Ramdas Pophale) SiO2 
 PCOD8218268
Probable space group: P M N A
;
_chemical_formula_sum "Si O2"
_cell_formula_units_Z 48
_cell_length_a 18.003519
_cell_length_b 9.786604
_cell_length_c 13.824246
_cell_angle_alpha 90.000000
_cell_angle_beta 90.000000
_cell_angle_gamma 90.000000
_cell_volume 2435.739676
_symmetry_space_group_name_H-M "P M N A"
_symmetry_group_IT_number 53
_symmetry_cell_setting 'orthorhombic'
loop_
_space_group_symop_operation_xyz
x,y,z
1/2-x,-y,1/2+z
x,-y,-z
1/2-x,y,1/2-z
-x,-y,-z
1/2+x,y,1/2-z
-x,y,z
1/2+x,-y,1/2+z
loop_
_atom_site_type_symbol
_atom_site_label
_atom_site_fract_x
_atom_site_fract_y
_atom_site_fract_z
Si Si1 0.331325 0.733674 0.219419
Si Si2 0.863690 0.376763 0.104571
Si Si3 0.166029 0.796936 0.720823
Si Si4 0.912171 0.962914 0.389466
Si Si5 0.197301 0.463769 0.392713
Si Si6 0.082479 0.662161 0.097645
O O1 0.250000 0.787304 0.250000
O O2 0.368019 0.824723 0.135323
O O3 0.329404 0.578788 0.181536
O O4 0.381606 0.743872 0.314338
O O5 0.875276 0.260220 0.184144
O O6 0.785633 0.455024 0.114854
O O7 0.923018 0.498604 0.116628
O O8 0.870409 0.306449 0.999465
O O9 0.250000 0.839485 0.750000
O O10 0.163512 0.681269 0.638076
O O11 0.119016 0.923026 0.682879
O O12 0.000000 0.944273 0.373173
O O13 0.894100 0.000000 0.500000
O O14 0.169705 0.500000 0.500000
O O15 0.000000 0.719864 0.084028
#
# Coordination Sequence:
#
# PCOD8218268 Si02
#       6
#     8   8   8   8   8   8
#     4  12  21  40  64  90 117 156 203 250 297 347
#     4  10  18  34  58  90 124 153 183 234 295 359
#     4  10  21  39  62  92 117 153 202 246 297 351
#     4  11  26  45  60  81 119 165 205 247 302 352
#     4  11  18  34  63  94 120 147 199 250 294 344
#     4  11  21  34  56  92 128 157 185 232 302 366
#
# _framework density 19.70654
#
# number of rings (size 3 to 8) (size 9 to 14) (size 15 to 20)
#    0.000    1.167    5.000    3.500    0.000    2.667 
#    0.000    0.833    0.000    5.500    0.000    0.000 
#    0.000    0.000    0.000    0.000    0.000    0.000 
#
# Total GULP energy -595280.318233 kJ/mol
# GULP energy per Si atom -12401.673297 kJ/mol
# Density = 1.966169 g / cm^3
# Si number density = 19.706540 Si / 1000 Ang^3
#
#
#
# Elastic Constant Matrix: (Units=GPa)
#
#
# Indices 1 2 3 4 5 6 
#
# 1 80.9681 26.3985 27.2247 0.0000 0.0000 0.0000
# 2 26.3985 57.3758 18.3580 0.0000 0.0000 0.0000
# 3 27.2247 18.3580 112.4121 0.0000 0.0000 0.0000
# 4 0.0000 0.0000 0.0000 37.6217 0.0000 0.0000
# 5 0.0000 0.0000 0.0000 0.0000 25.8765 0.0000
# 6 0.0000 0.0000 0.0000 0.0000 0.0000 10.0377
#
#
#
# Elastic Compliance Matrix: (Units=1/GPa)
#
#
# Indices 1 2 3 4 5 6 
#
# 1 0.015264 -0.006162 -0.002690 0.000000 0.000000 0.000000
# 2 -0.006162 0.020878 -0.001917 0.000000 0.000000 0.000000
# 3 -0.002690 -0.001917 0.009861 0.000000 0.000000 0.000000
# 4 0.000000 0.000000 0.000000 0.026580 0.000000 0.000000
# 5 0.000000 0.000000 0.000000 0.000000 0.038645 0.000000
# 6 0.000000 0.000000 0.000000 0.000000 0.000000 0.099624
#
#
# Mechanical properties :
#
#
# Convention : Reuss Voigt Hill
#
# Bulk Modulus (GPa) = 40.87839 43.85762 42.36800
# Shear Modulus (GPa) = 20.78605 26.62550 23.70577
#
# Velocity S-wave (km/s) = 3.25126 3.67972 3.47210
# Velocity P-wave (km/s) = 5.90617 6.35275 6.13353
#
# Compressibility (1/GPa) = 0.02446280
#
# Stress axis : x y z
#
# Youngs Moduli (GPa) = 65.51245 47.89829 101.41460
#
# Poissons Ratio (x) = 0.29516 0.27285
# Poissons Ratio (y) = 0.40370 0.19442
# Poissons Ratio (z) = 0.17626 0.09183
#
# Static dielectric constant tensor:
#      x y z
#    x 3.489500 0.000000 0.000000 
#    y 0.000000 3.334170 0.000000 
#    z 0.000000 0.000000 3.906840 
# 
# 
# High freq. dielectric constant tensor:
#      x y z
#    x 1.757640 0.000000 0.000000 
#    y 0.000000 1.745150 0.000000 
#    z 0.000000 0.000000 1.787910 
# 
# From -- ./inp_files/23691.got.cif
#   From: 2010.03.12/outbox.cif.g09.slc.cpg/sg53_12_cif.got.tgz:23691.got - 2010.04.16 14:36:59.
