data_PCOD8218421
_publ_section_title
;
Structure prediction by ZEFSAII (Michael W. Deem and Ramdas Pophale) SiO2 
 PCOD8218421
Probable space group: P M N A
;
_chemical_formula_sum "Si O2"
_cell_formula_units_Z 64
_cell_length_a 8.840198
_cell_length_b 17.055430
_cell_length_c 24.031087
_cell_angle_alpha 90.000000
_cell_angle_beta 90.000000
_cell_angle_gamma 90.000000
_cell_volume 3623.248168
_symmetry_space_group_name_H-M "P M N A"
_symmetry_group_IT_number 53
_symmetry_cell_setting 'orthorhombic'
loop_
_space_group_symop_operation_xyz
x,y,z
1/2-x,-y,1/2+z
x,-y,-z
1/2-x,y,1/2-z
-x,-y,-z
1/2+x,y,1/2-z
-x,y,z
1/2+x,-y,1/2+z
loop_
_atom_site_type_symbol
_atom_site_label
_atom_site_fract_x
_atom_site_fract_y
_atom_site_fract_z
Si Si1 0.178874 0.359077 0.092974
Si Si2 0.821376 0.680815 0.028175
Si Si3 0.672198 0.636530 0.306413
Si Si4 0.321379 0.230038 0.877022
Si Si5 0.677367 0.909495 0.809932
Si Si6 0.323786 0.081682 0.809996
Si Si7 0.319903 0.245540 0.311130
Si Si8 0.671204 0.468603 0.591607
O O1 0.239399 0.313337 0.147193
O O2 0.252614 0.446333 0.089008
O O3 0.000000 0.367179 0.098704
O O4 0.220068 0.311276 0.036789
O O5 0.747670 0.752815 0.061968
O O6 0.755553 0.597339 0.051142
O O7 0.000000 0.683836 0.039831
O O8 0.750000 0.609878 0.250000
O O9 0.500000 0.663527 0.296526
O O10 0.763309 0.708234 0.332194
O O11 0.679350 0.560416 0.345169
O O12 0.500000 0.235707 0.881758
O O13 0.267485 0.144557 0.855611
O O14 0.750000 0.914317 0.750000
O O15 0.500000 0.890951 0.806310
O O16 0.761275 0.836193 0.839208
O O17 0.709122 0.995221 0.836660
O O18 0.250000 0.095593 0.750000
O O19 0.500000 0.092221 0.798677
O O20 0.250000 0.259856 0.250000
O O21 0.500000 0.243770 0.306487
O O22 0.500000 0.480301 0.571090
#
# Coordination Sequence:
#
# PCOD8218421 Si02
#       8
#     8   8   8   8   8   8   8   8
#     4   9  17  30  50  72  92 118 155 195 231 274
#     4   9  17  31  51  71  90 118 158 197 232 271
#     4  10  19  30  45  66  94 128 161 190 228 276
#     4  10  19  31  46  67  96 125 154 190 232 275
#     4   9  16  29  47  67  92 120 151 185 224 269
#     4   9  18  29  45  69  94 122 154 187 223 270
#     4  10  19  31  48  71  97 122 149 184 230 278
#     4   8  15  28  47  69  90 117 155 195 231 268
#
# _framework density 17.663709000000001
#
# number of rings (size 3 to 8) (size 9 to 14) (size 15 to 20)
#    0.000    2.750    0.000    3.750    0.000    4.500 
#    0.000    1.250    0.000   14.250    0.000    5.250 
#    0.000    0.000    0.000    0.000    0.000    0.000 
#
# Total GULP energy -793044.882302 kJ/mol
# GULP energy per Si atom -12391.326286 kJ/mol
# Density = 1.762351 g / cm^3
# Si number density = 17.663709 Si / 1000 Ang^3
#
#
#
# Elastic Constant Matrix: (Units=GPa)
#
#
# Indices 1 2 3 4 5 6 
#
# 1 49.9781 28.8202 27.7491 0.0000 0.0000 0.0000
# 2 28.8202 118.2682 53.2769 0.0000 0.0000 0.0000
# 3 27.7491 53.2769 101.4692 0.0000 0.0000 0.0000
# 4 0.0000 0.0000 0.0000 21.7326 0.0000 0.0000
# 5 0.0000 0.0000 0.0000 0.0000 22.1001 0.0000
# 6 0.0000 0.0000 0.0000 0.0000 0.0000 17.6928
#
#
#
# Elastic Compliance Matrix: (Units=1/GPa)
#
#
# Indices 1 2 3 4 5 6 
#
# 1 0.024912 -0.003932 -0.004749 0.000000 0.000000 0.000000
# 2 -0.003932 0.011695 -0.005065 0.000000 0.000000 0.000000
# 3 -0.004749 -0.005065 0.013813 0.000000 0.000000 0.000000
# 4 0.000000 0.000000 0.000000 0.046014 0.000000 0.000000
# 5 0.000000 0.000000 0.000000 0.000000 0.045249 0.000000
# 6 0.000000 0.000000 0.000000 0.000000 0.000000 0.056520
#
#
# Mechanical properties :
#
#
# Convention : Reuss Voigt Hill
#
# Bulk Modulus (GPa) = 43.61126 54.37864 48.99495
# Shear Modulus (GPa) = 21.42809 22.96307 22.19558
#
# Velocity S-wave (km/s) = 3.48676 3.60948 3.54865
# Velocity P-wave (km/s) = 6.39948 6.94431 6.67746
#
# Compressibility (1/GPa) = 0.02292986
#
# Stress axis : x y z
#
# Youngs Moduli (GPa) = 40.14050 85.50429 72.39324
#
# Poissons Ratio (x) = 0.33618 0.34376
# Poissons Ratio (y) = 0.15782 0.36671
# Poissons Ratio (z) = 0.19061 0.43312
#
# Static dielectric constant tensor:
#      x y z
#    x 3.134280 0.000000 0.000000 
#    y 0.000000 3.938350 0.000000 
#    z 0.000000 0.000000 3.174860 
# 
# 
# High freq. dielectric constant tensor:
#      x y z
#    x 1.664410 0.000000 0.000000 
#    y 0.000000 1.686430 0.000000 
#    z 0.000000 0.000000 1.662360 
# 
# From -- ./inp_files/34446.got.cif
#   From: 2010.03.12/outbox.cif.g09.slc.cpg/sg53_18_cif.got.tgz:34446.got - 2010.04.16 14:36:59.
