data_PCOD8218343
_publ_section_title
;
Structure prediction by ZEFSAII (Michael W. Deem and Ramdas Pophale) SiO2 
 PCOD8218343
Probable space group: P M N A
;
_chemical_formula_sum "Si O2"
_cell_formula_units_Z 48
_cell_length_a 9.305409
_cell_length_b 12.522475
_cell_length_c 26.785611
_cell_angle_alpha 90.000000
_cell_angle_beta 90.000000
_cell_angle_gamma 90.000000
_cell_volume 3121.240239
_symmetry_space_group_name_H-M "P M N A"
_symmetry_group_IT_number 53
_symmetry_cell_setting 'orthorhombic'
loop_
_space_group_symop_operation_xyz
x,y,z
1/2-x,-y,1/2+z
x,-y,-z
1/2-x,y,1/2-z
-x,-y,-z
1/2+x,y,1/2-z
-x,y,z
1/2+x,-y,1/2+z
loop_
_atom_site_type_symbol
_atom_site_label
_atom_site_fract_x
_atom_site_fract_y
_atom_site_fract_z
Si Si1 0.833124 0.778398 0.455654
Si Si2 0.837275 0.982496 0.058779
Si Si3 0.162083 0.601191 0.096799
Si Si4 0.337621 0.370050 0.379517
Si Si5 0.837989 0.528776 0.201152
Si Si6 0.666830 0.812857 0.928584
O O1 0.745365 0.872993 0.428635
O O2 0.778110 0.666025 0.434661
O O3 0.805915 0.778528 0.514610
O O4 0.000000 0.793176 0.442937
O O5 0.000000 0.976587 0.079407
O O6 0.753367 0.079753 0.084899
O O7 0.836369 0.000000 0.000000
O O8 0.178036 0.474369 0.084325
O O9 0.190120 0.615332 0.156703
O O10 0.000000 0.639332 0.083386
O O11 0.500000 0.324286 0.384771
O O12 0.308551 0.410409 0.322473
O O13 0.222245 0.280970 0.393042
O O14 0.750000 0.555381 0.250000
O O15 0.000000 0.535812 0.219333
O O16 0.500000 0.833702 0.917881
#
# Coordination Sequence:
#
# PCOD8218343 Si02
#       6
#     8   8   8   8   8   8
#     4  10  19  29  42  63  91 119 149 186 220 251
#     4   9  17  29  45  61  80 115 156 185 215 255
#     4   8  17  31  44  63  89 116 149 179 212 262
#     4   8  17  31  44  63  89 116 149 179 212 262
#     4   8  16  30  47  66  87 111 142 181 219 260
#     4  10  19  29  42  63  91 119 149 186 220 251
#
# _framework density 15.378501
#
# number of rings (size 3 to 8) (size 9 to 14) (size 15 to 20)
#    1.000    2.167    0.000    1.500    0.000    6.667 
#    0.000    3.333    0.000    0.000    0.000    1.167 
#    0.000    0.000    0.000    0.000    0.000    0.000 
#
# Total GULP energy -594686.554325 kJ/mol
# GULP energy per Si atom -12389.303215 kJ/mol
# Density = 1.534350 g / cm^3
# Si number density = 15.378501 Si / 1000 Ang^3
#
#
#
# Elastic Constant Matrix: (Units=GPa)
#
#
# Indices 1 2 3 4 5 6 
#
# 1 79.8404 12.4918 11.2422 0.0000 0.0000 0.0000
# 2 12.4918 33.2794 -6.2355 0.0000 0.0000 0.0000
# 3 11.2422 -6.2355 16.0238 0.0000 0.0000 0.0000
# 4 0.0000 0.0000 0.0000 4.2009 0.0000 0.0000
# 5 0.0000 0.0000 0.0000 0.0000 22.2929 0.0000
# 6 0.0000 0.0000 0.0000 0.0000 0.0000 30.4013
#
#
#
# Elastic Compliance Matrix: (Units=1/GPa)
#
#
# Indices 1 2 3 4 5 6 
#
# 1 0.015941 -0.008714 -0.014575 0.000000 0.000000 0.000000
# 2 -0.008714 0.037176 0.020581 0.000000 0.000000 0.000000
# 3 -0.014575 0.020581 0.080642 0.000000 0.000000 0.000000
# 4 0.000000 0.000000 0.000000 0.238047 0.000000 0.000000
# 5 0.000000 0.000000 0.000000 0.000000 0.044857 0.000000
# 6 0.000000 0.000000 0.000000 0.000000 0.000000 0.032893
#
#
# Mechanical properties :
#
#
# Convention : Reuss Voigt Hill
#
# Bulk Modulus (GPa) = 7.79179 18.23784 13.01482
# Shear Modulus (GPa) = 10.04513 18.82202 14.43358
#
# Velocity S-wave (km/s) = 2.55854 3.50225 3.06691
# Velocity P-wave (km/s) = 3.71562 5.31407 4.58504
#
# Compressibility (1/GPa) = 0.12834026
#
# Stress axis : x y z
#
# Youngs Moduli (GPa) = 62.73233 26.89923 12.40056
#
# Poissons Ratio (x) = 0.23441 0.18074
# Poissons Ratio (y) = 0.54668 -0.25521
# Poissons Ratio (z) = 0.91433 -0.55360
#
# Static dielectric constant tensor:
#      x y z
#    x 2.963040 0.000000 0.000000 
#    y 0.000000 2.822890 0.000000 
#    z 0.000000 0.000000 2.525110 
# 
# 
# High freq. dielectric constant tensor:
#      x y z
#    x 1.601820 0.000000 0.000000 
#    y 0.000000 1.578580 0.000000 
#    z 0.000000 0.000000 1.543190 
# 
# From -- ./inp_files/37914.got.cif
#   From: 2010.03.12/outbox.cif.g09.slc.cpg/sg53_19_cif.got.tgz:37914.got - 2010.04.16 14:36:59.
