data_PCOD8218961
_publ_section_title
;
Structure prediction by ZEFSAII (Michael W. Deem and Ramdas Pophale) SiO2 
 PCOD8218961
Probable space group: P M N A
;
_chemical_formula_sum "Si O2"
_cell_formula_units_Z 40
_cell_length_a 8.855285
_cell_length_b 25.884256
_cell_length_c 9.162801
_cell_angle_alpha 90.000000
_cell_angle_beta 90.000000
_cell_angle_gamma 90.000000
_cell_volume 2100.228193
_symmetry_space_group_name_H-M "P M N A"
_symmetry_group_IT_number 53
_symmetry_cell_setting 'orthorhombic'
loop_
_space_group_symop_operation_xyz
x,y,z
1/2-x,-y,1/2+z
x,-y,-z
1/2-x,y,1/2-z
-x,-y,-z
1/2+x,y,1/2-z
-x,y,z
1/2+x,-y,1/2+z
loop_
_atom_site_type_symbol
_atom_site_label
_atom_site_fract_x
_atom_site_fract_y
_atom_site_fract_z
Si Si1 0.674928 0.748083 0.406031
Si Si2 0.321248 0.352326 0.909711
Si Si3 0.824404 0.862466 0.091970
Si Si4 0.821766 0.548859 0.592275
Si Si5 0.176088 0.949983 0.595415
O O1 0.750000 0.752171 0.250000
O O2 0.500000 0.733692 0.391154
O O3 0.759633 0.700588 0.487299
O O4 0.696855 0.804772 0.476846
O O5 0.250000 0.359284 0.750000
O O6 0.500000 0.349912 0.894723
O O7 0.268203 0.399545 0.009965
O O8 0.750000 0.868845 0.250000
O O9 0.000000 0.875952 0.110393
O O10 0.748755 0.900075 0.977224
O O11 0.763373 0.500000 0.500000
O O12 0.750000 0.547000 0.750000
O O13 0.000000 0.547215 0.610557
O O14 0.250000 0.960574 0.750000
O O15 0.000000 0.939653 0.615193
O O16 0.210322 0.000000 0.500000
#
# Coordination Sequence:
#
# PCOD8218961 Si02
#       5
#     8   8   8   8   8
#     4   9  17  30  51  79 109 142 179 218 262 312
#     4  10  19  32  53  80 108 140 178 219 263 313
#     4  10  20  35  57  84 113 146 184 225 269 319
#     4  10  22  38  55  78 106 137 176 219 265 318
#     4  11  24  40  59  83 111 144 181 224 273 324
#
# _framework density 19.045549999999999
#
# number of rings (size 3 to 8) (size 9 to 14) (size 15 to 20)
#    0.000    2.000    0.000    4.800    0.000    7.600 
#    0.000    1.000    0.000    2.400    0.000    0.000 
#    0.000    0.000    0.000    0.000    0.000    0.000 
#
# Total GULP energy -495889.139721 kJ/mol
# GULP energy per Si atom -12397.228493 kJ/mol
# Density = 1.900220 g / cm^3
# Si number density = 19.045550 Si / 1000 Ang^3
#
#
#
# Elastic Constant Matrix: (Units=GPa)
#
#
# Indices 1 2 3 4 5 6 
#
# 1 107.9087 81.3997 59.8708 0.0000 0.0000 0.0000
# 2 81.3997 170.1247 70.4377 0.0000 0.0000 0.0000
# 3 59.8708 70.4377 110.7626 0.0000 0.0000 0.0000
# 4 0.0000 0.0000 0.0000 29.0104 0.0000 0.0000
# 5 0.0000 0.0000 0.0000 0.0000 30.7386 0.0000
# 6 0.0000 0.0000 0.0000 0.0000 0.0000 49.2626
#
#
#
# Elastic Compliance Matrix: (Units=1/GPa)
#
#
# Indices 1 2 3 4 5 6 
#
# 1 0.016510 -0.005707 -0.005295 0.000000 0.000000 0.000000
# 2 -0.005707 0.009952 -0.003244 0.000000 0.000000 0.000000
# 3 -0.005295 -0.003244 0.013953 0.000000 0.000000 0.000000
# 4 0.000000 0.000000 0.000000 0.034470 0.000000 0.000000
# 5 0.000000 0.000000 0.000000 0.000000 0.032532 0.000000
# 6 0.000000 0.000000 0.000000 0.000000 0.000000 0.020299
#
#
# Mechanical properties :
#
#
# Convention : Reuss Voigt Hill
#
# Bulk Modulus (GPa) = 83.86870 90.24581 87.05726
# Shear Modulus (GPa) = 31.21427 33.60818 32.41122
#
# Velocity S-wave (km/s) = 4.05276 4.20530 4.12973
# Velocity P-wave (km/s) = 8.12596 8.43009 8.27942
#
# Compressibility (1/GPa) = 0.01192340
#
# Stress axis : x y z
#
# Youngs Moduli (GPa) = 60.56927 100.48375 71.66888
#
# Poissons Ratio (x) = 0.57350 0.37946
# Poissons Ratio (y) = 0.34569 0.23247
# Poissons Ratio (z) = 0.32070 0.32594
#
# Static dielectric constant tensor:
#      x y z
#    x 3.614550 0.000000 0.000000 
#    y 0.000000 4.358520 0.000000 
#    z 0.000000 0.000000 3.056980 
# 
# 
# High freq. dielectric constant tensor:
#      x y z
#    x 1.754250 0.000000 0.000000 
#    y 0.000000 1.768140 0.000000 
#    z 0.000000 0.000000 1.709170 
# 
# From -- ./inp_files/6296.got.cif
#   From: 2010.03.12/outbox.cif.g09.slc.cpg/sg53_4_cif.got.tgz:6296.got - 2010.04.16 14:36:59.
