data_PCOD8218744
_publ_section_title
;
Structure prediction by ZEFSAII (Michael W. Deem and Ramdas Pophale) SiO2 
 PCOD8218744
Probable space group: P M N A
;
_chemical_formula_sum "Si O2"
_cell_formula_units_Z 44
_cell_length_a 32.934966
_cell_length_b 17.020340
_cell_length_c 5.045062
_cell_angle_alpha 90.000000
_cell_angle_beta 90.000000
_cell_angle_gamma 90.000000
_cell_volume 2828.081745
_symmetry_space_group_name_H-M "P M N A"
_symmetry_group_IT_number 53
_symmetry_cell_setting 'orthorhombic'
loop_
_space_group_symop_operation_xyz
x,y,z
1/2-x,-y,1/2+z
x,-y,-z
1/2-x,y,1/2-z
-x,-y,-z
1/2+x,y,1/2-z
-x,y,z
1/2+x,-y,1/2+z
loop_
_atom_site_type_symbol
_atom_site_label
_atom_site_fract_x
_atom_site_fract_y
_atom_site_fract_z
Si Si1 0.000000 0.555316 0.247264
Si Si2 0.420903 0.647137 0.386379
Si Si3 0.206522 0.445087 0.251456
Si Si4 0.121872 0.410785 0.399330
Si Si5 0.452489 0.183510 0.548530
Si Si6 0.452671 0.915253 0.937586
O O1 0.000000 0.500000 0.500000
O O2 0.960953 0.610906 0.245806
O O3 0.000000 0.500000 0.000000
O O4 0.408325 0.600039 0.650865
O O5 0.427695 0.736334 0.473940
O O6 0.387543 0.644626 0.151160
O O7 0.211337 0.500000 0.500000
O O8 0.250000 0.398062 0.250000
O O9 0.167398 0.389322 0.295978
O O10 0.198046 0.500000 0.000000
O O11 0.118192 0.500000 0.500000
O O12 0.500000 0.201050 0.500012
O O13 0.434953 0.123036 0.329944
O O14 0.444137 0.145956 0.831354
O O15 0.500000 0.930177 0.891976
O O16 0.432121 0.000000 0.000000
#
# Coordination Sequence:
#
# PCOD8218744 Si02
#       6
#     4   8   8   8   8   8
#     4  12  24  34  44  56  77 116 163 200 224 248
#     4  12  22  34  45  62  86 120 154 192 231 259
#     4   9  17  30  48  67  84 104 136 185 239 280
#     4  11  21  33  48  63  86 113 154 196 228 265
#     4  10  19  32  45  61  87 113 145 183 226 266
#     4   9  17  29  48  67  82 103 138 183 226 270
#
# _framework density 15.558249
#
# number of rings (size 3 to 8) (size 9 to 14) (size 15 to 20)
#    0.000    1.636    0.909    7.091    0.000    2.182 
#    0.000    0.000    0.000    0.000    0.000    0.000 
#    0.000    0.000    0.000    0.000    0.000   50.909 
#
# Total GULP energy -545393.931569 kJ/mol
# GULP energy per Si atom -12395.316627 kJ/mol
# Density = 1.552284 g / cm^3
# Si number density = 15.558249 Si / 1000 Ang^3
#
#
#
# Elastic Constant Matrix: (Units=GPa)
#
#
# Indices 1 2 3 4 5 6 
#
# 1 70.2543 30.3289 24.1560 0.0000 0.0000 0.0000
# 2 30.3289 70.0879 18.5911 0.0000 0.0000 0.0000
# 3 24.1560 18.5911 95.3253 0.0000 0.0000 0.0000
# 4 0.0000 0.0000 0.0000 12.5526 0.0000 0.0000
# 5 0.0000 0.0000 0.0000 0.0000 20.7541 0.0000
# 6 0.0000 0.0000 0.0000 0.0000 0.0000 4.8773
#
#
#
# Elastic Compliance Matrix: (Units=1/GPa)
#
#
# Indices 1 2 3 4 5 6 
#
# 1 0.018430 -0.007104 -0.003285 0.000000 0.000000 0.000000
# 2 -0.007104 0.017784 -0.001668 0.000000 0.000000 0.000000
# 3 -0.003285 -0.001668 0.011648 0.000000 0.000000 0.000000
# 4 0.000000 0.000000 0.000000 0.079665 0.000000 0.000000
# 5 0.000000 0.000000 0.000000 0.000000 0.048183 0.000000
# 6 0.000000 0.000000 0.000000 0.000000 0.000000 0.205031
#
#
# Mechanical properties :
#
#
# Convention : Reuss Voigt Hill
#
# Bulk Modulus (GPa) = 42.10771 42.42441 42.26606
# Shear Modulus (GPa) = 12.11320 18.47624 15.29472
#
# Velocity S-wave (km/s) = 2.79332 3.44983 3.13878
# Velocity P-wave (km/s) = 6.12591 6.57234 6.35305
#
# Compressibility (1/GPa) = 0.02374862
#
# Stress axis : x y z
#
# Youngs Moduli (GPa) = 54.25862 56.22915 85.85049
#
# Poissons Ratio (x) = 0.39945 0.28201
# Poissons Ratio (y) = 0.38545 0.14322
# Poissons Ratio (z) = 0.17823 0.09380
#
# Static dielectric constant tensor:
#      x y z
#    x 3.306390 0.000000 0.000000 
#    y 0.000000 2.840620 0.000000 
#    z 0.000000 0.000000 3.207310 
# 
# 
# High freq. dielectric constant tensor:
#      x y z
#    x 1.561470 0.000000 0.000000 
#    y 0.000000 1.565230 0.000000 
#    z 0.000000 0.000000 1.628680 
# 
# From -- ./inp_files/5252.got.cif
#   From: 2010.03.12/outbox.cif.g09.slc.cpg/sg53_3_cif.got.tgz:5252.got - 2010.04.16 14:36:59.
