data_PCOD8218000
_publ_section_title
;
Structure prediction by ZEFSAII (Michael W. Deem and Ramdas Pophale) SiO2 
 PCOD8218000
Probable space group: P M N A
;
_chemical_formula_sum "Si O2"
_cell_formula_units_Z 48
_cell_length_a 14.541142
_cell_length_b 9.618059
_cell_length_c 19.357503
_cell_angle_alpha 90.000000
_cell_angle_beta 90.000000
_cell_angle_gamma 90.000000
_cell_volume 2707.293170
_symmetry_space_group_name_H-M "P M N A"
_symmetry_group_IT_number 53
_symmetry_cell_setting 'orthorhombic'
loop_
_space_group_symop_operation_xyz
x,y,z
1/2-x,-y,1/2+z
x,-y,-z
1/2-x,y,1/2-z
-x,-y,-z
1/2+x,y,1/2-z
-x,y,z
1/2+x,-y,1/2+z
loop_
_atom_site_type_symbol
_atom_site_label
_atom_site_fract_x
_atom_site_fract_y
_atom_site_fract_z
Si Si1 0.295777 0.718315 0.385974
Si Si2 0.152298 0.500996 0.781150
Si Si3 0.899010 0.714598 0.330926
Si Si4 0.105708 0.079646 0.785959
Si Si5 0.103233 0.207591 0.164587
Si Si6 0.392223 0.837764 0.513736
O O1 0.340609 0.579372 0.353940
O O2 0.183987 0.700976 0.385727
O O3 0.325417 0.846706 0.338621
O O4 0.332370 0.741362 0.462727
O O5 0.250000 0.535632 0.750000
O O6 0.097358 0.409664 0.725440
O O7 0.105449 0.647952 0.795047
O O8 0.882107 0.859457 0.290647
O O9 0.000000 0.715705 0.367640
O O10 0.000000 0.101144 0.810972
O O11 0.137004 0.917683 0.785567
O O12 0.000000 0.170822 0.145026
O O13 0.150010 0.203950 0.088777
O O14 0.500000 0.802337 0.503343
O O15 0.373614 0.000000 0.500000
#
# Coordination Sequence:
#
# PCOD8218000 Si02
#       6
#     8   8   8   8   8   8
#     4  10  18  31  49  69  97 132 167 198 240 290
#     4   9  19  32  47  72 101 128 160 203 248 289
#     4   9  18  32  50  71  95 126 167 209 243 282
#     4   9  16  28  47  71  98 127 159 196 241 296
#     4  10  19  30  47  73 102 131 157 190 245 296
#     4  10  19  32  49  73 103 132 162 196 237 293
#
# _framework density 17.729886
#
# number of rings (size 3 to 8) (size 9 to 14) (size 15 to 20)
#    0.000    2.500    1.667    2.500    0.000    4.000 
#    0.000    1.667    0.000    0.500    0.000   10.500 
#    0.000    0.000    0.000    0.000    0.000    0.000 
#
# Total GULP energy -594768.664560 kJ/mol
# GULP energy per Si atom -12391.013845 kJ/mol
# Density = 1.768953 g / cm^3
# Si number density = 17.729886 Si / 1000 Ang^3
#
#
#
# Elastic Constant Matrix: (Units=GPa)
#
#
# Indices 1 2 3 4 5 6 
#
# 1 71.7178 12.4402 12.4749 0.0000 0.0000 0.0000
# 2 12.4402 108.5890 21.1167 0.0000 0.0000 0.0000
# 3 12.4749 21.1167 43.1161 0.0000 0.0000 0.0000
# 4 0.0000 0.0000 0.0000 15.1418 0.0000 0.0000
# 5 0.0000 0.0000 0.0000 0.0000 15.2761 0.0000
# 6 0.0000 0.0000 0.0000 0.0000 0.0000 17.8289
#
#
#
# Elastic Compliance Matrix: (Units=1/GPa)
#
#
# Indices 1 2 3 4 5 6 
#
# 1 0.014771 -0.000952 -0.003808 0.000000 0.000000 0.000000
# 2 -0.000952 0.010240 -0.004740 0.000000 0.000000 0.000000
# 3 -0.003808 -0.004740 0.026616 0.000000 0.000000 0.000000
# 4 0.000000 0.000000 0.000000 0.066042 0.000000 0.000000
# 5 0.000000 0.000000 0.000000 0.000000 0.065462 0.000000
# 6 0.000000 0.000000 0.000000 0.000000 0.000000 0.056089
#
#
# Mechanical properties :
#
#
# Convention : Reuss Voigt Hill
#
# Bulk Modulus (GPa) = 30.64776 35.05408 32.85092
# Shear Modulus (GPa) = 18.58086 21.47543 20.02814
#
# Velocity S-wave (km/s) = 3.24079 3.48409 3.36464
# Velocity P-wave (km/s) = 5.59706 5.99994 5.80200
#
# Compressibility (1/GPa) = 0.03262881
#
# Stress axis : x y z
#
# Youngs Moduli (GPa) = 67.70044 97.65843 37.57113
#
# Poissons Ratio (x) = 0.09295 0.14306
# Poissons Ratio (y) = 0.06443 0.17808
# Poissons Ratio (z) = 0.25778 0.46287
#
# Static dielectric constant tensor:
#      x y z
#    x 3.275360 0.000000 0.000000 
#    y 0.000000 3.316810 0.000000 
#    z 0.000000 0.000000 3.039020 
# 
# 
# High freq. dielectric constant tensor:
#      x y z
#    x 1.676010 0.000000 0.000000 
#    y 0.000000 1.687410 0.000000 
#    z 0.000000 0.000000 1.647340 
# 
# From -- ./inp_files/28270.got.cif
#   From: 2010.03.12/outbox.cif.g09.slc.cpg/sg53_15_cif.got.tgz:28270.got - 2010.04.16 14:36:59.
