data_PCOD8218495
_publ_section_title
;
Structure prediction by ZEFSAII (Michael W. Deem and Ramdas Pophale) SiO2 
 PCOD8218495
Probable space group: P M N A
;
_chemical_formula_sum "Si O2"
_cell_formula_units_Z 48
_cell_length_a 9.576926
_cell_length_b 8.929796
_cell_length_c 32.154929
_cell_angle_alpha 90.000000
_cell_angle_beta 90.000000
_cell_angle_gamma 90.000000
_cell_volume 2749.889383
_symmetry_space_group_name_H-M "P M N A"
_symmetry_group_IT_number 53
_symmetry_cell_setting 'orthorhombic'
loop_
_space_group_symop_operation_xyz
x,y,z
1/2-x,-y,1/2+z
x,-y,-z
1/2-x,y,1/2-z
-x,-y,-z
1/2+x,y,1/2-z
-x,y,z
1/2+x,-y,1/2+z
loop_
_atom_site_type_symbol
_atom_site_label
_atom_site_fract_x
_atom_site_fract_y
_atom_site_fract_z
Si Si1 0.837499 0.919288 0.789745
Si Si2 0.346251 0.815534 0.578832
Si Si3 0.159694 0.584765 0.540305
Si Si4 0.844946 0.630267 0.836953
Si Si5 0.838624 0.397211 0.623697
Si Si6 0.663168 0.899312 0.371822
O O1 0.750000 0.970662 0.750000
O O2 0.799785 0.030892 0.827150
O O3 0.000000 0.929982 0.778868
O O4 0.797854 0.748046 0.801622
O O5 0.500000 0.818950 0.558336
O O6 0.240772 0.741498 0.546014
O O7 0.351803 0.718059 0.620148
O O8 0.300086 0.982881 0.591540
O O9 0.220598 0.500000 0.500000
O O10 0.177961 0.477640 0.579639
O O11 0.000000 0.629394 0.532862
O O12 0.733668 0.495649 0.839883
O O13 0.000000 0.565616 0.827073
O O14 0.761342 0.240549 0.620160
O O15 0.000000 0.373728 0.635681
O O16 0.500000 0.854347 0.373782
#
# Coordination Sequence:
#
# PCOD8218495 Si02
#       6
#     8   8   8   8   8   8
#     4   9  18  32  51  73  95 122 155 190 232 279
#     4   8  15  29  49  69  88 118 160 193 221 271
#     4   9  18  32  48  68  96 125 153 193 243 284
#     4   8  15  30  49  67  90 120 151 186 229 271
#     4  10  19  30  48  73  94 119 159 196 228 275
#     4   9  18  33  50  69  97 129 156 189 238 285
#
# _framework density 17.455245999999999
#
# number of rings (size 3 to 8) (size 9 to 14) (size 15 to 20)
#    0.000    3.167    0.000    2.500    0.000    3.000 
#    0.000    5.000    0.000    5.000    0.000    0.000 
#    0.000    0.000    0.000    0.000    0.000    0.000 
#
# Total GULP energy -595007.238973 kJ/mol
# GULP energy per Si atom -12395.984145 kJ/mol
# Density = 1.741552 g / cm^3
# Si number density = 17.455246 Si / 1000 Ang^3
#
#
#
# Elastic Constant Matrix: (Units=GPa)
#
#
# Indices 1 2 3 4 5 6 
#
# 1 82.6187 49.7457 14.6459 0.0000 0.0000 0.0000
# 2 49.7457 85.3371 -2.4556 0.0000 0.0000 0.0000
# 3 14.6459 -2.4556 30.9761 0.0000 0.0000 0.0000
# 4 0.0000 0.0000 0.0000 13.1871 0.0000 0.0000
# 5 0.0000 0.0000 0.0000 0.0000 25.7069 0.0000
# 6 0.0000 0.0000 0.0000 0.0000 0.0000 27.4476
#
#
#
# Elastic Compliance Matrix: (Units=1/GPa)
#
#
# Indices 1 2 3 4 5 6 
#
# 1 0.022096 -0.013211 -0.011495 0.000000 0.000000 0.000000
# 2 -0.013211 0.019644 0.007804 0.000000 0.000000 0.000000
# 3 -0.011495 0.007804 0.038337 0.000000 0.000000 0.000000
# 4 0.000000 0.000000 0.000000 0.075832 0.000000 0.000000
# 5 0.000000 0.000000 0.000000 0.000000 0.038900 0.000000
# 6 0.000000 0.000000 0.000000 0.000000 0.000000 0.036433
#
#
# Mechanical properties :
#
#
# Convention : Reuss Voigt Hill
#
# Bulk Modulus (GPa) = 21.61120 35.86708 28.73914
# Shear Modulus (GPa) = 17.82720 22.40138 20.11429
#
# Velocity S-wave (km/s) = 3.19926 3.58629 3.39829
# Velocity P-wave (km/s) = 5.10439 6.14339 5.64783
#
# Compressibility (1/GPa) = 0.04627231
#
# Stress axis : x y z
#
# Youngs Moduli (GPa) = 45.25661 50.90579 26.08477
#
# Poissons Ratio (x) = 0.67254 0.29984
# Poissons Ratio (y) = 0.59790 -0.20356
# Poissons Ratio (z) = 0.52021 -0.39726
#
# Static dielectric constant tensor:
#      x y z
#    x 3.384310 0.000000 0.000000 
#    y 0.000000 3.237790 0.000000 
#    z 0.000000 0.000000 3.079440 
# 
# 
# High freq. dielectric constant tensor:
#      x y z
#    x 1.675640 0.000000 0.000000 
#    y 0.000000 1.668790 0.000000 
#    z 0.000000 0.000000 1.648780 
# 
# From -- ./inp_files/36677.got.cif
#   From: 2010.03.12/outbox.cif.g09.slc.cpg/sg53_19_cif.got.tgz:36677.got - 2010.04.16 14:36:59.
