data_PCOD8218476
_publ_section_title
;
Structure prediction by ZEFSAII (Michael W. Deem and Ramdas Pophale) SiO2 
 PCOD8218476
Probable space group: P M N A
;
_chemical_formula_sum "Si O2"
_cell_formula_units_Z 64
_cell_length_a 8.995512
_cell_length_b 21.096619
_cell_length_c 19.191768
_cell_angle_alpha 90.000000
_cell_angle_beta 90.000000
_cell_angle_gamma 90.000000
_cell_volume 3642.115649
_symmetry_space_group_name_H-M "P M N A"
_symmetry_group_IT_number 53
_symmetry_cell_setting 'orthorhombic'
loop_
_space_group_symop_operation_xyz
x,y,z
1/2-x,-y,1/2+z
x,-y,-z
1/2-x,y,1/2-z
-x,-y,-z
1/2+x,y,1/2-z
-x,y,z
1/2+x,-y,1/2+z
loop_
_atom_site_type_symbol
_atom_site_label
_atom_site_fract_x
_atom_site_fract_y
_atom_site_fract_z
Si Si1 0.163560 0.772595 0.140745
Si Si2 0.176320 0.690866 0.549963
Si Si3 0.325297 0.068043 0.970278
Si Si4 0.166040 0.187060 0.018173
Si Si5 0.675494 0.461563 0.821847
Si Si6 0.324228 0.641411 0.411357
Si Si7 0.672686 0.393180 0.179974
Si Si8 0.673353 0.108746 0.818149
O O1 0.207538 0.698368 0.144347
O O2 0.283141 0.816651 0.179319
O O3 0.000000 0.784789 0.173806
O O4 0.157997 0.788844 0.059961
O O5 0.237518 0.762202 0.561599
O O6 0.251739 0.656589 0.485133
O O7 0.224617 0.651000 0.617103
O O8 0.000000 0.693127 0.538619
O O9 0.500000 0.080977 0.975121
O O10 0.273477 0.073961 0.889256
O O11 0.244238 0.118579 0.019812
O O12 0.280159 0.000000 0.000000
O O13 0.000000 0.181411 0.049889
O O14 0.750000 0.439472 0.750000
O O15 0.500000 0.449364 0.818000
O O16 0.747275 0.421957 0.884179
O O17 0.715432 0.534452 0.837602
O O18 0.500000 0.631661 0.421177
O O19 0.750000 0.369071 0.250000
O O20 0.500000 0.386854 0.193604
O O21 0.750000 0.077281 0.750000
O O22 0.500000 0.101946 0.808019
#
# Coordination Sequence:
#
# PCOD8218476 Si02
#       8
#     8   8   8   8   8   8   8   8
#     4   8  16  30  45  63  92 124 156 193 231 277
#     4  10  19  33  53  76 101 130 163 205 255 302
#     4   9  18  33  53  76 101 133 171 205 241 288
#     4   9  17  30  49  75 102 126 156 196 240 287
#     4  10  20  35  51  68  94 129 167 209 255 306
#     4  10  20  33  49  73 101 131 167 206 249 298
#     4   9  20  36  54  74  96 126 166 210 259 312
#     4  10  19  30  47  70  97 128 162 201 241 282
#
# _framework density 17.572203999999999
#
# number of rings (size 3 to 8) (size 9 to 14) (size 15 to 20)
#    0.000    2.625    0.000    2.625    0.000    6.750 
#    0.000    2.500    0.000    0.750    0.000    1.750 
#    0.000    0.000    0.000    0.000    0.000    0.000 
#
# Total GULP energy -793467.078744 kJ/mol
# GULP energy per Si atom -12397.923105 kJ/mol
# Density = 1.753221 g / cm^3
# Si number density = 17.572204 Si / 1000 Ang^3
#
#
#
# Elastic Constant Matrix: (Units=GPa)
#
#
# Indices 1 2 3 4 5 6 
#
# 1 87.6055 53.9342 47.9142 0.0000 0.0000 0.0000
# 2 53.9342 116.1115 64.0250 0.0000 0.0000 0.0000
# 3 47.9142 64.0250 91.9699 0.0000 0.0000 0.0000
# 4 0.0000 0.0000 0.0000 20.1932 0.0000 0.0000
# 5 0.0000 0.0000 0.0000 0.0000 27.4815 0.0000
# 6 0.0000 0.0000 0.0000 0.0000 0.0000 25.3678
#
#
#
# Elastic Compliance Matrix: (Units=1/GPa)
#
#
# Indices 1 2 3 4 5 6 
#
# 1 0.017629 -0.005071 -0.005654 0.000000 0.000000 0.000000
# 2 -0.005071 0.015437 -0.008104 0.000000 0.000000 0.000000
# 3 -0.005654 -0.008104 0.019461 0.000000 0.000000 0.000000
# 4 0.000000 0.000000 0.000000 0.049522 0.000000 0.000000
# 5 0.000000 0.000000 0.000000 0.000000 0.036388 0.000000
# 6 0.000000 0.000000 0.000000 0.000000 0.000000 0.039420
#
#
# Mechanical properties :
#
#
# Convention : Reuss Voigt Hill
#
# Bulk Modulus (GPa) = 67.26132 69.71484 68.48808
# Shear Modulus (GPa) = 22.67862 23.26272 22.97067
#
# Velocity S-wave (km/s) = 3.59638 3.64240 3.61947
# Velocity P-wave (km/s) = 7.45691 7.57951 7.51846
#
# Compressibility (1/GPa) = 0.01486738
#
# Stress axis : x y z
#
# Youngs Moduli (GPa) = 56.72380 64.78020 51.38545
#
# Poissons Ratio (x) = 0.32851 0.29054
# Poissons Ratio (y) = 0.28765 0.41645
# Poissons Ratio (z) = 0.32073 0.52501
#
# Static dielectric constant tensor:
#      x y z
#    x 3.361660 0.000000 0.000000 
#    y 0.000000 3.357230 0.000000 
#    z 0.000000 0.000000 3.162710 
# 
# 
# High freq. dielectric constant tensor:
#      x y z
#    x 1.690000 0.000000 0.000000 
#    y 0.000000 1.669330 0.000000 
#    z 0.000000 0.000000 1.657560 
# 
# From -- ./inp_files/26777.got.cif
#   From: 2010.03.12/outbox.cif.g09.slc.cpg/sg53_14_cif.got.tgz:26777.got - 2010.04.16 14:36:59.
