data_PCOD8218117
_publ_section_title
;
Structure prediction by ZEFSAII (Michael W. Deem and Ramdas Pophale) SiO2 
 PCOD8218117
Probable space group: P M N A
;
_chemical_formula_sum "Si O2"
_cell_formula_units_Z 32
_cell_length_a 23.508416
_cell_length_b 15.711923
_cell_length_c 5.071154
_cell_angle_alpha 90.000000
_cell_angle_beta 90.000000
_cell_angle_gamma 90.000000
_cell_volume 1873.093724
_symmetry_space_group_name_H-M "P M N A"
_symmetry_group_IT_number 53
_symmetry_cell_setting 'orthorhombic'
loop_
_space_group_symop_operation_xyz
x,y,z
1/2-x,-y,1/2+z
x,-y,-z
1/2-x,y,1/2-z
-x,-y,-z
1/2+x,y,1/2-z
-x,y,z
1/2+x,-y,1/2+z
loop_
_atom_site_type_symbol
_atom_site_label
_atom_site_fract_x
_atom_site_fract_y
_atom_site_fract_z
Si Si1 0.212142 0.401942 0.003267
Si Si2 0.000000 0.440540 0.249630
Si Si3 0.000000 0.940497 0.256702
Si Si4 0.438366 0.780442 0.136121
Si Si5 0.598120 0.688793 0.654125
O O1 0.250000 0.381313 0.250000
O O2 0.157287 0.343789 0.036684
O O3 0.192568 0.500000 0.000000
O O4 0.250000 0.377659 0.750000
O O5 0.000000 0.500000 0.500000
O O6 0.058256 0.387012 0.255230
O O7 0.000000 0.500000 0.000000
O O8 0.056947 0.881057 0.285865
O O9 0.000000 0.000000 0.500000
O O10 0.000000 0.000000 0.000000
O O11 0.500000 0.750345 0.022576
O O12 0.430029 0.735045 0.411383
O O13 0.393744 0.754465 0.904211
#
# Coordination Sequence:
#
# PCOD8218117 Si02
#       5
#     8   4   4   8   8
#     4  10  22  38  54  72  98 142 196 240 277 307
#     4  12  22  30  46  74 102 138 178 214 272 332
#     4  10  18  32  52  78 116 148 168 196 248 336
#     4  10  20  33  52  77 109 144 166 208 267 324
#     4  12  20  37  51  73 110 140 177 228 275 317
#
# _framework density 17.084036000000001
#
# number of rings (size 3 to 8) (size 9 to 14) (size 15 to 20)
#    0.750    0.500    2.500    5.250    0.000    3.000 
#    0.000    0.000    0.000    0.000    0.000    0.000 
#    0.000   56.000    0.000    0.000    0.000    0.000 
#
# Total GULP energy -396434.613985 kJ/mol
# GULP energy per Si atom -12388.581687 kJ/mol
# Density = 1.704515 g / cm^3
# Si number density = 17.084036 Si / 1000 Ang^3
#
#
#
# Elastic Constant Matrix: (Units=GPa)
#
#
# Indices 1 2 3 4 5 6 
#
# 1 73.7333 52.4212 38.0189 0.0000 0.0000 0.0000
# 2 52.4212 103.6793 58.8083 0.0000 0.0000 0.0000
# 3 38.0189 58.8083 151.5932 0.0000 0.0000 0.0000
# 4 0.0000 0.0000 0.0000 40.9860 0.0000 0.0000
# 5 0.0000 0.0000 0.0000 0.0000 41.0368 0.0000
# 6 0.0000 0.0000 0.0000 0.0000 0.0000 15.2771
#
#
#
# Elastic Compliance Matrix: (Units=1/GPa)
#
#
# Indices 1 2 3 4 5 6 
#
# 1 0.021437 -0.009987 -0.001502 0.000000 0.000000 0.000000
# 2 -0.009987 0.017019 -0.004098 0.000000 0.000000 0.000000
# 3 -0.001502 -0.004098 0.008563 0.000000 0.000000 0.000000
# 4 0.000000 0.000000 0.000000 0.024399 0.000000 0.000000
# 5 0.000000 0.000000 0.000000 0.000000 0.024368 0.000000
# 6 0.000000 0.000000 0.000000 0.000000 0.000000 0.065457
#
#
# Mechanical properties :
#
#
# Convention : Reuss Voigt Hill
#
# Bulk Modulus (GPa) = 63.10781 69.72250 66.41516
# Shear Modulus (GPa) = 25.29112 31.44380 28.36746
#
# Velocity S-wave (km/s) = 3.85176 4.29480 4.07930
# Velocity P-wave (km/s) = 7.53666 8.09283 7.81969
#
# Compressibility (1/GPa) = 0.01584590
#
# Stress axis : x y z
#
# Youngs Moduli (GPa) = 46.64809 58.75890 116.78298
#
# Poissons Ratio (x) = 0.58681 0.17542
# Poissons Ratio (y) = 0.46586 0.47852
# Poissons Ratio (z) = 0.07007 0.24077
#
# Static dielectric constant tensor:
#      x y z
#    x 2.961950 0.000000 0.000000 
#    y 0.000000 3.245650 0.000000 
#    z 0.000000 0.000000 3.337860 
# 
# 
# High freq. dielectric constant tensor:
#      x y z
#    x 1.628220 0.000000 0.000000 
#    y 0.000000 1.646730 0.000000 
#    z 0.000000 0.000000 1.690390 
# 
# From -- ./inp_files/3423.got.cif
#   From: 2010.03.12/outbox.cif.g09.slc.cpg/sg53_2_cif.got.tgz:3423.got - 2010.04.16 14:36:59.
