data_PCOD8218171
_publ_section_title
;
Structure prediction by ZEFSAII (Michael W. Deem and Ramdas Pophale) SiO2 
 PCOD8218171
Probable space group: P M N A
;
_chemical_formula_sum "Si O2"
_cell_formula_units_Z 64
_cell_length_a 8.873677
_cell_length_b 12.616519
_cell_length_c 29.571592
_cell_angle_alpha 90.000000
_cell_angle_beta 90.000000
_cell_angle_gamma 90.000000
_cell_volume 3310.685053
_symmetry_space_group_name_H-M "P M N A"
_symmetry_group_IT_number 53
_symmetry_cell_setting 'orthorhombic'
loop_
_space_group_symop_operation_xyz
x,y,z
1/2-x,-y,1/2+z
x,-y,-z
1/2-x,y,1/2-z
-x,-y,-z
1/2+x,y,1/2-z
-x,y,z
1/2+x,-y,1/2+z
loop_
_atom_site_type_symbol
_atom_site_label
_atom_site_fract_x
_atom_site_fract_y
_atom_site_fract_z
Si Si1 0.677996 0.033040 0.891022
Si Si2 0.678018 0.888897 0.205124
Si Si3 0.669672 0.555951 0.706090
Si Si4 0.172601 0.679040 0.179996
Si Si5 0.320726 0.393890 0.392855
Si Si6 0.678410 0.187978 0.065634
Si Si7 0.174256 0.805724 0.464561
Si Si8 0.324639 0.605129 0.090036
O O1 0.500000 0.049342 0.889732
O O2 0.722279 0.915132 0.905718
O O3 0.740572 0.054386 0.840417
O O4 0.749424 0.117011 0.926869
O O5 0.750000 0.942917 0.250000
O O6 0.500000 0.897465 0.208981
O O7 0.726439 0.766146 0.204792
O O8 0.750000 0.605355 0.750000
O O9 0.500000 0.595390 0.709117
O O10 0.683416 0.429170 0.708078
O O11 0.738765 0.599076 0.659006
O O12 0.236494 0.661536 0.130196
O O13 0.000000 0.717920 0.176606
O O14 0.500000 0.407672 0.395115
O O15 0.269366 0.283820 0.412997
O O16 0.245310 0.490133 0.421060
O O17 0.500000 0.211597 0.066830
O O18 0.739178 0.172250 0.014506
O O19 0.197753 0.681645 0.453143
O O20 0.000000 0.836218 0.465822
O O21 0.500000 0.593711 0.102811
#
# Coordination Sequence:
#
# PCOD8218171 Si02
#       8
#     8   8   8   8   8   8   8   8
#     4   9  18  35  58  84 112 141 181 235 283 327
#     4  11  21  34  53  80 113 148 186 226 277 333
#     4   9  19  33  51  74 101 137 178 222 268 319
#     4  10  19  32  50  79 116 149 178 217 275 338
#     4  10  22  39  53  75 116 152 183 227 282 336
#     4  10  20  36  61  84 104 142 195 237 276 331
#     4   9  17  32  58  90 113 135 178 238 287 329
#     4  10  18  32  56  84 114 146 181 224 276 332
#
# _framework density 19.331344999999999
#
# number of rings (size 3 to 8) (size 9 to 14) (size 15 to 20)
#    0.000    2.250    1.250    3.000    0.000    6.000 
#    0.000    5.625    0.000    3.750    0.000    0.000 
#    0.000    0.000    0.000    0.000    0.000    0.000 
#
# Total GULP energy -793441.851731 kJ/mol
# GULP energy per Si atom -12397.528933 kJ/mol
# Density = 1.928735 g / cm^3
# Si number density = 19.331345 Si / 1000 Ang^3
#
#
#
# Elastic Constant Matrix: (Units=GPa)
#
#
# Indices 1 2 3 4 5 6 
#
# 1 48.7855 19.1685 29.7598 0.0000 0.0000 0.0000
# 2 19.1685 95.2096 62.2802 0.0000 0.0000 0.0000
# 3 29.7598 62.2802 146.7030 0.0000 0.0000 0.0000
# 4 0.0000 0.0000 0.0000 14.1703 0.0000 0.0000
# 5 0.0000 0.0000 0.0000 0.0000 24.2997 0.0000
# 6 0.0000 0.0000 0.0000 0.0000 0.0000 9.8092
#
#
#
# Elastic Compliance Matrix: (Units=1/GPa)
#
#
# Indices 1 2 3 4 5 6 
#
# 1 0.023737 -0.002256 -0.003858 0.000000 0.000000 0.000000
# 2 -0.002256 0.014756 -0.005807 0.000000 0.000000 0.000000
# 3 -0.003858 -0.005807 0.010064 0.000000 0.000000 0.000000
# 4 0.000000 0.000000 0.000000 0.070570 0.000000 0.000000
# 5 0.000000 0.000000 0.000000 0.000000 0.041153 0.000000
# 6 0.000000 0.000000 0.000000 0.000000 0.000000 0.101945
#
#
# Mechanical properties :
#
#
# Convention : Reuss Voigt Hill
#
# Bulk Modulus (GPa) = 40.45760 57.01280 48.73520
# Shear Modulus (GPa) = 16.98922 21.62182 19.30552
#
# Velocity S-wave (km/s) = 2.96775 3.34800 3.16359
# Velocity P-wave (km/s) = 5.71990 6.67098 6.21366
#
# Compressibility (1/GPa) = 0.02471724
#
# Stress axis : x y z
#
# Youngs Moduli (GPa) = 42.12763 67.77071 99.36209
#
# Poissons Ratio (x) = 0.15286 0.38331
# Poissons Ratio (y) = 0.09502 0.57697
# Poissons Ratio (z) = 0.16252 0.39352
#
# Static dielectric constant tensor:
#      x y z
#    x 3.309600 0.000000 0.000000 
#    y 0.000000 3.423590 0.000000 
#    z 0.000000 0.000000 3.782520 
# 
# 
# High freq. dielectric constant tensor:
#      x y z
#    x 1.727840 0.000000 0.000000 
#    y 0.000000 1.734790 0.000000 
#    z 0.000000 0.000000 1.761660 
# 
# From -- ./inp_files/38309.got.cif
#   From: 2010.03.12/outbox.cif.g09.slc.cpg/sg53_20_cif.got.tgz:38309.got - 2010.04.16 14:36:59.
