data_PCOD8218518
_publ_section_title
;
Structure prediction by ZEFSAII (Michael W. Deem and Ramdas Pophale) SiO2 
 PCOD8218518
Probable space group: P M N A
;
_chemical_formula_sum "Si O2"
_cell_formula_units_Z 64
_cell_length_a 8.782157
_cell_length_b 11.418895
_cell_length_c 33.450224
_cell_angle_alpha 90.000000
_cell_angle_beta 90.000000
_cell_angle_gamma 90.000000
_cell_volume 3354.473047
_symmetry_space_group_name_H-M "P M N A"
_symmetry_group_IT_number 53
_symmetry_cell_setting 'orthorhombic'
loop_
_space_group_symop_operation_xyz
x,y,z
1/2-x,-y,1/2+z
x,-y,-z
1/2-x,y,1/2-z
-x,-y,-z
1/2+x,y,1/2-z
-x,y,z
1/2+x,-y,1/2+z
loop_
_atom_site_type_symbol
_atom_site_label
_atom_site_fract_x
_atom_site_fract_y
_atom_site_fract_z
Si Si1 0.173340 0.279355 0.868129
Si Si2 0.823765 0.080700 0.583525
Si Si3 0.327509 0.546702 0.436804
Si Si4 0.674985 0.250473 0.984056
Si Si5 0.677641 0.045316 0.208224
Si Si6 0.678017 0.128890 0.372677
Si Si7 0.174775 0.303418 0.428267
Si Si8 0.677859 0.227842 0.791055
O O1 0.287673 0.183198 0.885486
O O2 0.184423 0.398995 0.892647
O O3 0.233704 0.304824 0.823830
O O4 0.000000 0.231342 0.867987
O O5 0.782882 0.129851 0.539228
O O6 0.000000 0.045331 0.587478
O O7 0.725900 0.967834 0.594670
O O8 0.500000 0.508486 0.446478
O O9 0.278605 0.641866 0.469709
O O10 0.218039 0.436071 0.438305
O O11 0.500000 0.283595 0.974605
O O12 0.700509 0.228328 0.031086
O O13 0.750000 0.089379 0.250000
O O14 0.500000 0.070582 0.210694
O O15 0.743940 0.114864 0.170412
O O16 0.713348 0.908843 0.201604
O O17 0.500000 0.123977 0.365457
O O18 0.724243 0.253124 0.392090
O O19 0.000000 0.297968 0.414874
O O20 0.750000 0.270570 0.750000
O O21 0.500000 0.255437 0.791686
#
# Coordination Sequence:
#
# PCOD8218518 Si02
#       8
#     8   8   8   8   8   8   8   8
#     4  10  19  32  52  78 110 142 175 218 270 324
#     4  10  19  34  54  78 108 143 182 222 272 329
#     4  10  21  36  56  82 109 140 180 230 280 326
#     4   9  20  37  58  81 107 142 184 230 278 328
#     4  10  20  35  56  83 113 146 181 221 265 318
#     4  12  24  37  55  80 114 149 183 227 274 328
#     4  11  23  39  57  78 106 145 191 233 273 323
#     4  10  19  30  50  79 112 143 175 216 265 323
#
# _framework density 19.079004000000001
#
# number of rings (size 3 to 8) (size 9 to 14) (size 15 to 20)
#    0.000    1.750    1.250    3.750    0.000    6.000 
#    0.000    2.500    0.000    0.750    0.000    1.750 
#    0.000    0.000    0.000    0.000    0.000    0.000 
#
# Total GULP energy -793735.527349 kJ/mol
# GULP energy per Si atom -12402.117615 kJ/mol
# Density = 1.903558 g / cm^3
# Si number density = 19.079004 Si / 1000 Ang^3
#
#
#
# Elastic Constant Matrix: (Units=GPa)
#
#
# Indices 1 2 3 4 5 6 
#
# 1 94.8558 19.3392 49.1645 0.0000 0.0000 0.0000
# 2 19.3392 39.1715 19.6235 0.0000 0.0000 0.0000
# 3 49.1645 19.6235 119.3260 0.0000 0.0000 0.0000
# 4 0.0000 0.0000 0.0000 19.5688 0.0000 0.0000
# 5 0.0000 0.0000 0.0000 0.0000 30.7347 0.0000
# 6 0.0000 0.0000 0.0000 0.0000 0.0000 26.8873
#
#
#
# Elastic Compliance Matrix: (Units=1/GPa)
#
#
# Indices 1 2 3 4 5 6 
#
# 1 0.014070 -0.004405 -0.005072 0.000000 0.000000 0.000000
# 2 -0.004405 0.029200 -0.002987 0.000000 0.000000 0.000000
# 3 -0.005072 -0.002987 0.010962 0.000000 0.000000 0.000000
# 4 0.000000 0.000000 0.000000 0.051102 0.000000 0.000000
# 5 0.000000 0.000000 0.000000 0.000000 0.032536 0.000000
# 6 0.000000 0.000000 0.000000 0.000000 0.000000 0.037192
#
#
# Mechanical properties :
#
#
# Convention : Reuss Voigt Hill
#
# Bulk Modulus (GPa) = 34.12750 47.73419 40.93084
# Shear Modulus (GPa) = 23.83699 26.45325 25.14512
#
# Velocity S-wave (km/s) = 3.53850 3.72763 3.63429
# Velocity P-wave (km/s) = 5.88395 6.60307 6.25385
#
# Compressibility (1/GPa) = 0.02930188
#
# Stress axis : x y z
#
# Youngs Moduli (GPa) = 71.07561 34.24658 91.22776
#
# Poissons Ratio (x) = 0.15086 0.46275
# Poissons Ratio (y) = 0.31310 0.27250
# Poissons Ratio (z) = 0.36053 0.10230
#
# Static dielectric constant tensor:
#      x y z
#    x 3.564560 0.000000 0.000000 
#    y 0.000000 3.154660 0.000000 
#    z 0.000000 0.000000 3.661070 
# 
# 
# High freq. dielectric constant tensor:
#      x y z
#    x 1.754960 0.000000 0.000000 
#    y 0.000000 1.703790 0.000000 
#    z 0.000000 0.000000 1.750840 
# 
# From -- ./inp_files/38148.got.cif
#   From: 2010.03.12/outbox.cif.g09.slc.cpg/sg53_20_cif.got.tgz:38148.got - 2010.04.16 14:36:59.
