data_PCOD8218513
_publ_section_title
;
Structure prediction by ZEFSAII (Michael W. Deem and Ramdas Pophale) SiO2 
 PCOD8218513
Probable space group: P M N A
;
_chemical_formula_sum "Si O2"
_cell_formula_units_Z 52
_cell_length_a 18.981642
_cell_length_b 9.250156
_cell_length_c 13.539318
_cell_angle_alpha 90.000000
_cell_angle_beta 90.000000
_cell_angle_gamma 90.000000
_cell_volume 2377.276098
_symmetry_space_group_name_H-M "P M N A"
_symmetry_group_IT_number 53
_symmetry_cell_setting 'orthorhombic'
loop_
_space_group_symop_operation_xyz
x,y,z
1/2-x,-y,1/2+z
x,-y,-z
1/2-x,y,1/2-z
-x,-y,-z
1/2+x,y,1/2-z
-x,y,z
1/2+x,-y,1/2+z
loop_
_atom_site_type_symbol
_atom_site_label
_atom_site_fract_x
_atom_site_fract_y
_atom_site_fract_z
Si Si1 0.920985 0.541653 0.295828
Si Si2 0.922002 0.203271 0.844753
Si Si3 0.920472 0.715942 0.937061
Si Si4 0.578450 0.206219 0.227793
Si Si5 0.785118 0.323126 0.642496
Si Si6 0.679397 0.971378 0.206007
Si Si7 0.312769 0.500000 0.500000
O O1 0.916064 0.630403 0.192860
O O2 0.903538 0.374251 0.281137
O O3 0.861258 0.600795 0.369600
O O4 0.000000 0.560999 0.341107
O O5 0.863492 0.108650 0.792265
O O6 0.000000 0.141707 0.819903
O O7 0.908136 0.198207 0.961485
O O8 0.912516 0.827508 0.845291
O O9 0.862934 0.588924 0.925676
O O10 0.000000 0.649225 0.933085
O O11 0.500000 0.172215 0.189567
O O12 0.631673 0.103840 0.165220
O O13 0.750000 0.348081 0.750000
O O14 0.799066 0.150558 0.625226
O O15 0.734222 0.385382 0.559509
O O16 0.750000 0.042311 0.250000
#
# Coordination Sequence:
#
# PCOD8218513 Si02
#       7
#     8   8   8   8   8   8   4
#     4   9  18  34  55  77 102 140 189 237 284 333
#     4   9  17  32  54  78 109 146 180 222 279 339
#     4  10  19  30  49  82 119 147 176 220 277 350
#     4  10  20  32  51  79 107 143 189 229 277 338
#     4  10  21  37  57  83 113 146 187 235 288 346
#     4  10  20  34  49  70 105 148 186 223 267 324
#     4  12  21  34  59  88 118 152 188 234 289 340
#
# _framework density 21.873774000000001
#
# number of rings (size 3 to 8) (size 9 to 14) (size 15 to 20)
#    0.000    2.154    0.000    5.308    0.000    5.538 
#    0.000    2.692    0.000    4.615    0.000    2.154 
#    0.000    0.000    0.000    0.000    0.000    0.000 
#
# Total GULP energy -644359.655664 kJ/mol
# GULP energy per Si atom -12391.531840 kJ/mol
# Density = 2.182399 g / cm^3
# Si number density = 21.873774 Si / 1000 Ang^3
#
#
#
# Elastic Constant Matrix: (Units=GPa)
#
#
# Indices 1 2 3 4 5 6 
#
# 1 138.4927 44.6872 9.4861 0.0000 0.0000 0.0000
# 2 44.6872 84.4335 1.0482 0.0000 0.0000 0.0000
# 3 9.4861 1.0482 20.6651 0.0000 0.0000 0.0000
# 4 0.0000 0.0000 0.0000 19.5094 0.0000 0.0000
# 5 0.0000 0.0000 0.0000 0.0000 22.5333 0.0000
# 6 0.0000 0.0000 0.0000 0.0000 0.0000 42.3896
#
#
#
# Elastic Compliance Matrix: (Units=1/GPa)
#
#
# Indices 1 2 3 4 5 6 
#
# 1 0.009011 -0.004721 -0.003897 0.000000 0.000000 0.000000
# 2 -0.004721 0.014324 0.001440 0.000000 0.000000 0.000000
# 3 -0.003897 0.001440 0.050107 0.000000 0.000000 0.000000
# 4 0.000000 0.000000 0.000000 0.051257 0.000000 0.000000
# 5 0.000000 0.000000 0.000000 0.000000 0.044379 0.000000
# 6 0.000000 0.000000 0.000000 0.000000 0.000000 0.023591
#
#
# Mechanical properties :
#
#
# Convention : Reuss Voigt Hill
#
# Bulk Modulus (GPa) = 16.92411 39.33713 28.13062
# Shear Modulus (GPa) = 22.05382 29.44444 25.74913
#
# Velocity S-wave (km/s) = 3.17871 3.67291 3.43471
# Velocity P-wave (km/s) = 4.60719 6.00082 5.34958
#
# Compressibility (1/GPa) = 0.05908731
#
# Stress axis : x y z
#
# Youngs Moduli (GPa) = 110.97904 69.81194 19.95747
#
# Poissons Ratio (x) = 0.32956 0.07777
# Poissons Ratio (y) = 0.52389 -0.02875
# Poissons Ratio (z) = 0.43247 -0.10056
#
# Static dielectric constant tensor:
#      x y z
#    x 4.494990 0.000000 0.000000 
#    y 0.000000 3.998010 0.000000 
#    z 0.000000 0.000000 3.437560 
# 
# 
# High freq. dielectric constant tensor:
#      x y z
#    x 1.887960 0.000000 0.000000 
#    y 0.000000 1.856840 0.000000 
#    z 0.000000 0.000000 1.791550 
# 
# From -- ./inp_files/24247.got.cif
#   From: 2010.03.12/outbox.cif.g09.slc.cpg/sg53_13_cif.got.tgz:24247.got - 2010.04.16 14:36:59.
