data_PCOD8218787
_publ_section_title
;
Structure prediction by ZEFSAII (Michael W. Deem and Ramdas Pophale) SiO2 
 PCOD8218787
Probable space group: P M N A
;
_chemical_formula_sum "Si O2"
_cell_formula_units_Z 64
_cell_length_a 9.331925
_cell_length_b 18.494233
_cell_length_c 19.181977
_cell_angle_alpha 90.000000
_cell_angle_beta 90.000000
_cell_angle_gamma 90.000000
_cell_volume 3310.555938
_symmetry_space_group_name_H-M "P M N A"
_symmetry_group_IT_number 53
_symmetry_cell_setting 'orthorhombic'
loop_
_space_group_symop_operation_xyz
x,y,z
1/2-x,-y,1/2+z
x,-y,-z
1/2-x,y,1/2-z
-x,-y,-z
1/2+x,y,1/2-z
-x,y,z
1/2+x,-y,1/2+z
loop_
_atom_site_type_symbol
_atom_site_label
_atom_site_fract_x
_atom_site_fract_y
_atom_site_fract_z
Si Si1 0.833958 0.610044 0.585782
Si Si2 0.333005 0.652202 0.071455
Si Si3 0.167466 0.528484 0.323312
Si Si4 0.836049 0.073658 0.537240
Si Si5 0.340274 0.982594 0.187252
Si Si6 0.656500 0.740813 0.609625
Si Si7 0.843016 0.215588 0.958706
Si Si8 0.169094 0.146209 0.317903
O O1 0.798214 0.612622 0.502737
O O2 0.794534 0.533978 0.620898
O O3 0.739424 0.667560 0.629460
O O4 0.000000 0.629212 0.597369
O O5 0.500000 0.670530 0.073775
O O6 0.288041 0.601376 0.136039
O O7 0.252859 0.728806 0.086241
O O8 0.250000 0.520911 0.250000
O O9 0.000000 0.527595 0.305266
O O10 0.827893 0.067072 0.620296
O O11 0.735503 0.140926 0.520763
O O12 0.000000 0.088468 0.512244
O O13 0.780838 0.000000 0.500000
O O14 0.250000 0.948049 0.250000
O O15 0.500000 0.987051 0.216217
O O16 0.288538 0.063226 0.167963
O O17 0.500000 0.745529 0.647859
O O18 0.628404 0.739787 0.528108
O O19 0.761409 0.808603 0.620532
O O20 0.000000 0.199771 0.923920
O O21 0.250000 0.175787 0.250000
O O22 0.000000 0.158917 0.313073
#
# Coordination Sequence:
#
# PCOD8218787 Si02
#       8
#     8   8   8   8   8   8   8   8
#     4   9  18  34  56  79 104 138 179 219 260 310
#     4   9  18  36  60  80 102 138 182 221 258 310
#     4  10  21  36  56  83 111 139 174 219 269 318
#     4  10  20  35  56  81 108 139 177 220 266 318
#     4   9  19  34  52  74 100 133 173 216 262 315
#     4  10  20  33  49  74 107 138 171 212 259 313
#     4  10  21  35  53  80 109 136 172 220 269 314
#     4  10  19  32  50  71  98 135 176 215 259 312
#
# _framework density 19.332100000000001
#
# number of rings (size 3 to 8) (size 9 to 14) (size 15 to 20)
#    0.000    2.375    0.000    2.250    0.000    6.750 
#    0.000    1.875    0.000    3.750    0.000    0.000 
#    0.000    0.000    0.000    0.000    0.000    0.000 
#
# Total GULP energy -793114.777962 kJ/mol
# GULP energy per Si atom -12392.418406 kJ/mol
# Density = 1.928810 g / cm^3
# Si number density = 19.332100 Si / 1000 Ang^3
#
#
#
# Elastic Constant Matrix: (Units=GPa)
#
#
# Indices 1 2 3 4 5 6 
#
# 1 102.4268 57.1454 33.0103 0.0000 0.0000 0.0000
# 2 57.1454 109.8856 25.4940 0.0000 0.0000 0.0000
# 3 33.0103 25.4940 63.2015 0.0000 0.0000 0.0000
# 4 0.0000 0.0000 0.0000 20.5997 0.0000 0.0000
# 5 0.0000 0.0000 0.0000 0.0000 27.6208 0.0000
# 6 0.0000 0.0000 0.0000 0.0000 0.0000 25.8818
#
#
#
# Elastic Compliance Matrix: (Units=1/GPa)
#
#
# Indices 1 2 3 4 5 6 
#
# 1 0.015175 -0.006678 -0.005232 0.000000 0.000000 0.000000
# 2 -0.006678 0.012978 -0.001747 0.000000 0.000000 0.000000
# 3 -0.005232 -0.001747 0.019260 0.000000 0.000000 0.000000
# 4 0.000000 0.000000 0.000000 0.048544 0.000000 0.000000
# 5 0.000000 0.000000 0.000000 0.000000 0.036205 0.000000
# 6 0.000000 0.000000 0.000000 0.000000 0.000000 0.038637
#
#
# Mechanical properties :
#
#
# Convention : Reuss Voigt Hill
#
# Bulk Modulus (GPa) = 49.75447 56.31258 53.03352
# Shear Modulus (GPa) = 24.41238 25.47808 24.94523
#
# Velocity S-wave (km/s) = 3.55743 3.63425 3.59604
# Velocity P-wave (km/s) = 6.53195 6.84125 6.68838
#
# Compressibility (1/GPa) = 0.02009870
#
# Stress axis : x y z
#
# Youngs Moduli (GPa) = 65.89820 77.05053 51.92078
#
# Poissons Ratio (x) = 0.51452 0.27166
# Poissons Ratio (y) = 0.44005 0.09073
# Poissons Ratio (z) = 0.34480 0.13464
#
# Static dielectric constant tensor:
#      x y z
#    x 3.770770 0.000000 0.000000 
#    y 0.000000 3.421130 0.000000 
#    z 0.000000 0.000000 3.401800 
# 
# 
# High freq. dielectric constant tensor:
#      x y z
#    x 1.754910 0.000000 0.000000 
#    y 0.000000 1.746070 0.000000 
#    z 0.000000 0.000000 1.733220 
# 
# From -- ./inp_files/31216.got.cif
#   From: 2010.03.12/outbox.cif.g09.slc.cpg/sg53_16_cif.got.tgz:31216.got - 2010.04.16 14:36:59.
