data_PCOD8218348
_publ_section_title
;
Structure prediction by ZEFSAII (Michael W. Deem and Ramdas Pophale) SiO2 
 PCOD8218348
Probable space group: P M N A
;
_chemical_formula_sum "Si O2"
_cell_formula_units_Z 48
_cell_length_a 15.264296
_cell_length_b 12.095786
_cell_length_c 17.109372
_cell_angle_alpha 90.000000
_cell_angle_beta 90.000000
_cell_angle_gamma 90.000000
_cell_volume 3158.965936
_symmetry_space_group_name_H-M "P M N A"
_symmetry_group_IT_number 53
_symmetry_cell_setting 'orthorhombic'
loop_
_space_group_symop_operation_xyz
x,y,z
1/2-x,-y,1/2+z
x,-y,-z
1/2-x,y,1/2-z
-x,-y,-z
1/2+x,y,1/2-z
-x,y,z
1/2+x,-y,1/2+z
loop_
_atom_site_type_symbol
_atom_site_label
_atom_site_fract_x
_atom_site_fract_y
_atom_site_fract_z
Si Si1 0.603148 0.125008 0.420153
Si Si2 0.399910 0.646383 0.644174
Si Si3 0.896772 0.116650 0.905961
Si Si4 0.097894 0.504992 0.710872
Si Si5 0.249420 0.493677 0.588338
Si Si6 0.677885 0.311780 0.689619
O O1 0.500000 0.113169 0.426658
O O2 0.629070 0.225524 0.363119
O O3 0.639213 0.149331 0.507840
O O4 0.639117 0.007645 0.386875
O O5 0.500000 0.628347 0.612622
O O6 0.394439 0.613115 0.734745
O O7 0.332204 0.575196 0.593653
O O8 0.868993 0.202095 0.839460
O O9 0.000000 0.118098 0.906141
O O10 0.168015 0.526300 0.643277
O O11 0.114910 0.397216 0.764571
O O12 0.000000 0.494574 0.675393
O O13 0.214995 0.500000 0.500000
O O14 0.280014 0.371767 0.614125
O O15 0.750000 0.269976 0.750000
#
# Coordination Sequence:
#
# PCOD8218348 Si02
#       6
#     8   8   8   8   8   8
#     4   8  15  25  40  63  85 107 133 160 194 244
#     4   9  16  28  44  62  87 112 135 166 205 248
#     4   9  15  25  41  60  84 110 133 159 197 241
#     4   9  18  31  45  60  81 111 142 174 209 243
#     4  10  19  29  43  63  85 109 139 174 209 247
#     4   9  17  28  41  60  83 105 136 172 205 244
#
# _framework density 15.194846999999999
#
# number of rings (size 3 to 8) (size 9 to 14) (size 15 to 20)
#    0.000    3.000    0.000    4.000    0.000    1.333 
#    0.000    1.667    0.000    0.000    0.000    0.000 
#    0.000    0.000    0.000   40.167    0.000    1.500 
#
# Total GULP energy -594730.376313 kJ/mol
# GULP energy per Si atom -12390.216173 kJ/mol
# Density = 1.516026 g / cm^3
# Si number density = 15.194847 Si / 1000 Ang^3
#
#
#
# Elastic Constant Matrix: (Units=GPa)
#
#
# Indices 1 2 3 4 5 6 
#
# 1 61.3831 34.7312 34.2460 0.0000 0.0000 0.0000
# 2 34.7312 114.5596 54.4933 0.0000 0.0000 0.0000
# 3 34.2460 54.4933 87.5127 0.0000 0.0000 0.0000
# 4 0.0000 0.0000 0.0000 15.2551 0.0000 0.0000
# 5 0.0000 0.0000 0.0000 0.0000 19.7478 0.0000
# 6 0.0000 0.0000 0.0000 0.0000 0.0000 15.8569
#
#
#
# Elastic Compliance Matrix: (Units=1/GPa)
#
#
# Indices 1 2 3 4 5 6 
#
# 1 0.021857 -0.003634 -0.006290 0.000000 0.000000 0.000000
# 2 -0.003634 0.013007 -0.006677 0.000000 0.000000 0.000000
# 3 -0.006290 -0.006677 0.018046 0.000000 0.000000 0.000000
# 4 0.000000 0.000000 0.000000 0.065552 0.000000 0.000000
# 5 0.000000 0.000000 0.000000 0.000000 0.050639 0.000000
# 6 0.000000 0.000000 0.000000 0.000000 0.000000 0.063064
#
#
# Mechanical properties :
#
#
# Convention : Reuss Voigt Hill
#
# Bulk Modulus (GPa) = 50.74363 56.71070 53.72716
# Shear Modulus (GPa) = 18.38665 19.50429 18.94547
#
# Velocity S-wave (km/s) = 3.48236 3.58664 3.53489
# Velocity P-wave (km/s) = 7.04535 7.38616 7.21776
#
# Compressibility (1/GPa) = 0.01970691
#
# Stress axis : x y z
#
# Youngs Moduli (GPa) = 45.75253 76.88122 55.41334
#
# Poissons Ratio (x) = 0.27941 0.34855
# Poissons Ratio (y) = 0.16628 0.37001
# Poissons Ratio (z) = 0.28779 0.51335
#
# Static dielectric constant tensor:
#      x y z
#    x 2.788760 0.000000 0.000000 
#    y 0.000000 3.093830 0.000000 
#    z 0.000000 0.000000 2.815390 
# 
# 
# High freq. dielectric constant tensor:
#      x y z
#    x 1.561240 0.000000 0.000000 
#    y 0.000000 1.582300 0.000000 
#    z 0.000000 0.000000 1.566780 
# 
# From -- ./inp_files/22686.got.cif
#   From: 2010.03.12/outbox.cif.g09.slc.cpg/sg53_12_cif.got.tgz:22686.got - 2010.04.16 14:36:59.
