data_PCOD8218541
_publ_section_title
;
Structure prediction by ZEFSAII (Michael W. Deem and Ramdas Pophale) SiO2 
 PCOD8218541
Probable space group: P M N A
;
_chemical_formula_sum "Si O2"
_cell_formula_units_Z 64
_cell_length_a 8.275588
_cell_length_b 12.869860
_cell_length_c 29.165809
_cell_angle_alpha 90.000000
_cell_angle_beta 90.000000
_cell_angle_gamma 90.000000
_cell_volume 3106.323707
_symmetry_space_group_name_H-M "P M N A"
_symmetry_group_IT_number 53
_symmetry_cell_setting 'orthorhombic'
loop_
_space_group_symop_operation_xyz
x,y,z
1/2-x,-y,1/2+z
x,-y,-z
1/2-x,y,1/2-z
-x,-y,-z
1/2+x,y,1/2-z
-x,y,z
1/2+x,-y,1/2+z
loop_
_atom_site_type_symbol
_atom_site_label
_atom_site_fract_x
_atom_site_fract_y
_atom_site_fract_z
Si Si1 0.192567 0.022785 0.549429
Si Si2 0.692120 0.108514 0.132759
Si Si3 0.191724 0.070263 0.699091
Si Si4 0.691510 0.501919 0.799859
Si Si5 0.808282 0.251896 0.560709
Si Si6 0.692579 0.608439 0.979325
Si Si7 0.807149 0.659592 0.622759
Si Si8 0.192036 0.711764 0.339506
O O1 0.256194 0.134828 0.565159
O O2 0.000000 0.022568 0.547758
O O3 0.267552 0.000000 0.500000
O O4 0.254073 0.934755 0.584039
O O5 0.500000 0.109284 0.134648
O O6 0.757596 0.226090 0.137553
O O7 0.759369 0.029785 0.171445
O O8 0.250000 0.054263 0.750000
O O9 0.262997 0.179229 0.679570
O O10 0.000000 0.073553 0.695705
O O11 0.750000 0.538989 0.750000
O O12 0.500000 0.503458 0.801258
O O13 0.759104 0.579632 0.838983
O O14 0.758097 0.385543 0.809975
O O15 0.738438 0.305561 0.514855
O O16 0.753628 0.308143 0.607765
O O17 0.000000 0.254162 0.556796
O O18 0.500000 0.610620 0.977522
O O19 0.759770 0.628712 0.927874
O O20 0.754831 0.500000 0.000000
O O21 0.000000 0.658460 0.621402
O O22 0.000000 0.716237 0.336734
#
# Coordination Sequence:
#
# PCOD8218541 Si02
#       8
#     8   8   8   8   8   8   8   8
#     4   9  14  20  33  55  83 117 149 175 213 268
#     4   9  16  27  40  58  86 118 150 184 224 270
#     4  10  19  31  47  66  90 121 155 192 232 271
#     4  10  20  33  49  67  89 119 155 193 234 275
#     4   9  14  21  35  56  85 119 150 179 218 272
#     4   9  15  22  34  56  86 121 154 180 218 276
#     4   9  17  28  41  60  89 122 152 185 227 274
#     4   9  16  28  44  64  90 119 151 189 232 275
#
# _framework density 20.603133
#
# number of rings (size 3 to 8) (size 9 to 14) (size 15 to 20)
#    0.000    2.750    1.250    1.875    0.000    6.500 
#    0.000    0.000    0.000    0.000    0.000    0.000 
#    0.000    6.000    0.000    0.500    0.000    0.000 
#
# Total GULP energy -793153.800633 kJ/mol
# GULP energy per Si atom -12393.028135 kJ/mol
# Density = 2.055624 g / cm^3
# Si number density = 20.603133 Si / 1000 Ang^3
#
#
#
# Elastic Constant Matrix: (Units=GPa)
#
#
# Indices 1 2 3 4 5 6 
#
# 1 2.5117 5.5384 1.8649 0.0000 0.0000 0.0000
# 2 5.5384 175.0380 90.6346 0.0000 0.0000 0.0000
# 3 1.8649 90.6346 191.4563 0.0000 0.0000 0.0000
# 4 0.0000 0.0000 0.0000 43.4632 0.0000 0.0000
# 5 0.0000 0.0000 0.0000 0.0000 16.4110 0.0000
# 6 0.0000 0.0000 0.0000 0.0000 0.0000 3.6180
#
#
#
# Elastic Compliance Matrix: (Units=1/GPa)
#
#
# Indices 1 2 3 4 5 6 
#
# 1 0.429271 -0.015125 0.002979 0.000000 0.000000 0.000000
# 2 -0.015125 0.008101 -0.003688 0.000000 0.000000 0.000000
# 3 0.002979 -0.003688 0.006940 0.000000 0.000000 0.000000
# 4 0.000000 0.000000 0.000000 0.023008 0.000000 0.000000
# 5 0.000000 0.000000 0.000000 0.000000 0.060935 0.000000
# 6 0.000000 0.000000 0.000000 0.000000 0.000000 0.276395
#
#
# Mechanical properties :
#
#
# Convention : Reuss Voigt Hill
#
# Bulk Modulus (GPa) = 2.42339 62.78686 32.60513
# Shear Modulus (GPa) = 5.13418 30.76300 17.94859
#
# Velocity S-wave (km/s) = 1.58030 3.86829 2.95474
# Velocity P-wave (km/s) = 2.12334 7.10578 5.24408
#
# Compressibility (1/GPa) = 0.41264457
#
# Stress axis : x y z
#
# Youngs Moduli (GPa) = 2.32953 123.43990 144.09530
#
# Poissons Ratio (x) = 1.86703 -0.42923
# Poissons Ratio (y) = 0.03523 0.53138
# Poissons Ratio (z) = -0.00694 0.45521
#
# Static dielectric constant tensor:
#      x y z
#    x 2.822370 0.000000 0.000000 
#    y 0.000000 4.100160 0.000000 
#    z 0.000000 0.000000 3.893380 
# 
# 
# High freq. dielectric constant tensor:
#      x y z
#    x 1.714500 0.000000 0.000000 
#    y 0.000000 1.818450 0.000000 
#    z 0.000000 0.000000 1.821360 
# 
# From -- ./inp_files/36882.got.cif
#   From: 2010.03.12/outbox.cif.g09.slc.cpg/sg53_19_cif.got.tgz:36882.got - 2010.04.16 14:36:59.
