data_PCOD8218921
_publ_section_title
;
Structure prediction by ZEFSAII (Michael W. Deem and Ramdas Pophale) SiO2 
 PCOD8218921
Probable space group: P M N A
;
_chemical_formula_sum "Si O2"
_cell_formula_units_Z 64
_cell_length_a 8.816641
_cell_length_b 15.062809
_cell_length_c 22.146485
_cell_angle_alpha 90.000000
_cell_angle_beta 90.000000
_cell_angle_gamma 90.000000
_cell_volume 2941.128050
_symmetry_space_group_name_H-M "P M N A"
_symmetry_group_IT_number 53
_symmetry_cell_setting 'orthorhombic'
loop_
_space_group_symop_operation_xyz
x,y,z
1/2-x,-y,1/2+z
x,-y,-z
1/2-x,y,1/2-z
-x,-y,-z
1/2+x,y,1/2-z
-x,y,z
1/2+x,-y,1/2+z
loop_
_atom_site_type_symbol
_atom_site_label
_atom_site_fract_x
_atom_site_fract_y
_atom_site_fract_z
Si Si1 0.827437 0.259460 0.933943
Si Si2 0.821055 0.562686 0.443199
Si Si3 0.819926 0.312963 0.310485
Si Si4 0.677737 0.001333 0.310754
Si Si5 0.181334 0.502877 0.184392
Si Si6 0.171400 0.804097 0.192320
Si Si7 0.666107 0.145465 0.118340
Si Si8 0.168845 0.902345 0.486638
O O1 0.723381 0.336481 0.962749
O O2 0.814446 0.266486 0.861400
O O3 0.776299 0.157917 0.945559
O O4 0.000000 0.271816 0.956191
O O5 0.769456 0.500000 0.500000
O O6 0.740919 0.547318 0.378109
O O7 0.000000 0.553459 0.433702
O O8 0.750000 0.271255 0.250000
O O9 0.728662 0.401569 0.325053
O O10 0.776274 0.241621 0.361084
O O11 0.000000 0.332644 0.305917
O O12 0.750000 0.041175 0.250000
O O13 0.500000 0.003831 0.305177
O O14 0.725014 0.063996 0.365793
O O15 0.741527 0.901673 0.322554
O O16 0.250000 0.536660 0.250000
O O17 0.000000 0.514359 0.187519
O O18 0.250000 0.759352 0.250000
O O19 0.000000 0.820879 0.210779
O O20 0.500000 0.126912 0.146883
O O21 0.656511 0.154008 0.047192
O O22 0.000000 0.913868 0.457635
O O23 0.238878 0.000000 0.500000
#
# Coordination Sequence:
#
# PCOD8218921 Si02
#       8
#     8   8   8   8   8   8   8   8
#     4  11  24  42  64  94 128 161 206 262 317 378
#     4  11  26  47  71  97 131 174 219 271 332 395
#     4  10  20  35  55  83 120 159 203 256 316 378
#     4  10  19  32  52  79 114 155 199 248 305 363
#     4  11  23  42  69  99 132 169 216 267 327 395
#     4   9  20  37  58  86 119 155 195 244 300 361
#     4  10  21  34  52  79 113 156 205 258 309 368
#     4  10  22  40  61  87 122 168 218 263 313 377
#
# _framework density 21.760358
#
# number of rings (size 3 to 8) (size 9 to 14) (size 15 to 20)
#    0.000    1.750    0.000    4.500    1.750    5.750 
#    0.000    1.250    0.000    0.000    0.000    0.000 
#    0.000    0.000    0.000    0.000    0.000    0.000 
#
# Total GULP energy -793118.100340 kJ/mol
# GULP energy per Si atom -12392.470318 kJ/mol
# Density = 2.171083 g / cm^3
# Si number density = 21.760358 Si / 1000 Ang^3
#
#
#
# Elastic Constant Matrix: (Units=GPa)
#
#
# Indices 1 2 3 4 5 6 
#
# 1 98.9989 34.4497 37.0034 0.0000 0.0000 0.0000
# 2 34.4497 93.4559 33.2894 0.0000 0.0000 0.0000
# 3 37.0034 33.2894 88.2529 0.0000 0.0000 0.0000
# 4 0.0000 0.0000 0.0000 32.4460 0.0000 0.0000
# 5 0.0000 0.0000 0.0000 0.0000 29.6164 0.0000
# 6 0.0000 0.0000 0.0000 0.0000 0.0000 27.3785
#
#
#
# Elastic Compliance Matrix: (Units=1/GPa)
#
#
# Indices 1 2 3 4 5 6 
#
# 1 0.012773 -0.003235 -0.004135 0.000000 0.000000 0.000000
# 2 -0.003235 0.013181 -0.003615 0.000000 0.000000 0.000000
# 3 -0.004135 -0.003615 0.014429 0.000000 0.000000 0.000000
# 4 0.000000 0.000000 0.000000 0.030820 0.000000 0.000000
# 5 0.000000 0.000000 0.000000 0.000000 0.033765 0.000000
# 6 0.000000 0.000000 0.000000 0.000000 0.000000 0.036525
#
#
# Mechanical properties :
#
#
# Convention : Reuss Voigt Hill
#
# Bulk Modulus (GPa) = 54.31676 54.46585 54.39131
# Shear Modulus (GPa) = 29.48113 29.61921 29.55017
#
# Velocity S-wave (km/s) = 3.68477 3.69339 3.68908
# Velocity P-wave (km/s) = 6.56650 6.57817 6.57233
#
# Compressibility (1/GPa) = 0.01841052
#
# Stress axis : x y z
#
# Youngs Moduli (GPa) = 78.29317 75.86914 69.30722
#
# Poissons Ratio (x) = 0.24546 0.28659
# Poissons Ratio (y) = 0.25330 0.25056
# Poissons Ratio (z) = 0.32374 0.27429
#
# Static dielectric constant tensor:
#      x y z
#    x 3.886310 0.000000 0.000000 
#    y 0.000000 3.877480 0.000000 
#    z 0.000000 0.000000 4.061580 
# 
# 
# High freq. dielectric constant tensor:
#      x y z
#    x 1.849320 0.000000 0.000000 
#    y 0.000000 1.858470 0.000000 
#    z 0.000000 0.000000 1.856360 
# 
# From -- ./inp_files/34330.got.cif
#   From: 2010.03.12/outbox.cif.g09.slc.cpg/sg53_18_cif.got.tgz:34330.got - 2010.04.16 14:36:59.
