data_PCOD8218597
_publ_section_title
;
Structure prediction by ZEFSAII (Michael W. Deem and Ramdas Pophale) SiO2 
 PCOD8218597
Probable space group: P M N A
;
_chemical_formula_sum "Si O2"
_cell_formula_units_Z 64
_cell_length_a 9.061692
_cell_length_b 15.320535
_cell_length_c 28.200077
_cell_angle_alpha 90.000000
_cell_angle_beta 90.000000
_cell_angle_gamma 90.000000
_cell_volume 3915.015828
_symmetry_space_group_name_H-M "P M N A"
_symmetry_group_IT_number 53
_symmetry_cell_setting 'orthorhombic'
loop_
_space_group_symop_operation_xyz
x,y,z
1/2-x,-y,1/2+z
x,-y,-z
1/2-x,y,1/2-z
-x,-y,-z
1/2+x,y,1/2-z
-x,y,z
1/2+x,-y,1/2+z
loop_
_atom_site_type_symbol
_atom_site_label
_atom_site_fract_x
_atom_site_fract_y
_atom_site_fract_z
Si Si1 0.325649 0.170977 0.105453
Si Si2 0.326491 0.666897 0.561843
Si Si3 0.829832 0.982362 0.945277
Si Si4 0.174071 0.113857 0.702213
Si Si5 0.828344 0.677272 0.047711
Si Si6 0.327308 0.843382 0.390560
Si Si7 0.328026 0.913167 0.796654
Si Si8 0.666116 0.506248 0.056221
O O1 0.500000 0.180963 0.100070
O O2 0.248192 0.262278 0.095458
O O3 0.278636 0.143325 0.158369
O O4 0.271459 0.098453 0.068686
O O5 0.500000 0.666030 0.570813
O O6 0.287589 0.689669 0.507439
O O7 0.261080 0.573359 0.577174
O O8 0.781080 0.067098 0.915933
O O9 0.000000 0.958029 0.935556
O O10 0.802219 0.000000 0.000000
O O11 0.250000 0.149732 0.750000
O O12 0.236709 0.168151 0.657899
O O13 0.000000 0.127486 0.705962
O O14 0.219550 0.013100 0.694428
O O15 0.782924 0.765122 0.074548
O O16 0.739015 0.597742 0.071427
O O17 0.000000 0.655289 0.053163
O O18 0.500000 0.841863 0.378791
O O19 0.250000 0.874850 0.750000
O O20 0.500000 0.906918 0.787491
O O21 0.500000 0.501692 0.076351
O O22 0.667433 0.500000 0.000000
#
# Coordination Sequence:
#
# PCOD8218597 Si02
#       8
#     8   8   8   8   8   8   8   8
#     4  11  21  33  47  70  99 127 161 202 245 287
#     4  10  19  32  50  71  97 132 168 200 237 284
#     4  10  20  33  47  65  94 133 171 199 228 277
#     4  10  19  33  50  69  93 122 160 203 248 291
#     4   9  18  32  49  70  98 130 166 202 237 284
#     4  10  19  31  48  70  96 128 164 201 240 283
#     4   9  19  33  49  68  92 121 158 202 246 289
#     4   9  17  30  48  71  97 125 160 203 248 285
#
# _framework density 16.347314999999998
#
# number of rings (size 3 to 8) (size 9 to 14) (size 15 to 20)
#    0.000    2.250    1.250    2.250    0.000    6.250 
#    0.000    1.250    0.000    0.000    0.000    0.875 
#    0.000    2.000    0.000    0.000    0.000    0.000 
#
# Total GULP energy -793778.904479 kJ/mol
# GULP energy per Si atom -12402.795382 kJ/mol
# Density = 1.631011 g / cm^3
# Si number density = 16.347315 Si / 1000 Ang^3
#
#
#
# Elastic Constant Matrix: (Units=GPa)
#
#
# Indices 1 2 3 4 5 6 
#
# 1 63.6493 26.5276 28.8325 0.0000 0.0000 0.0000
# 2 26.5276 63.4334 15.0565 0.0000 0.0000 0.0000
# 3 28.8325 15.0565 69.5399 0.0000 0.0000 0.0000
# 4 0.0000 0.0000 0.0000 13.6269 0.0000 0.0000
# 5 0.0000 0.0000 0.0000 0.0000 25.9785 0.0000
# 6 0.0000 0.0000 0.0000 0.0000 0.0000 29.2597
#
#
#
# Elastic Compliance Matrix: (Units=1/GPa)
#
#
# Indices 1 2 3 4 5 6 
#
# 1 0.022293 -0.007515 -0.007616 0.000000 0.000000 0.000000
# 2 -0.007515 0.019152 -0.001031 0.000000 0.000000 0.000000
# 3 -0.007616 -0.001031 0.017761 0.000000 0.000000 0.000000
# 4 0.000000 0.000000 0.000000 0.073384 0.000000 0.000000
# 5 0.000000 0.000000 0.000000 0.000000 0.038493 0.000000
# 6 0.000000 0.000000 0.000000 0.000000 0.000000 0.034177
#
#
# Mechanical properties :
#
#
# Convention : Reuss Voigt Hill
#
# Bulk Modulus (GPa) = 37.19904 37.49511 37.34708
# Shear Modulus (GPa) = 20.28020 22.18674 21.23347
#
# Velocity S-wave (km/s) = 3.52601 3.68803 3.60793
# Velocity P-wave (km/s) = 6.27550 6.41263 6.34443
#
# Compressibility (1/GPa) = 0.02688241
#
# Stress axis : x y z
#
# Youngs Moduli (GPa) = 44.85659 52.21368 56.30259
#
# Poissons Ratio (x) = 0.39240 0.42880
# Poissons Ratio (y) = 0.33711 0.05804
# Poissons Ratio (z) = 0.34163 0.05382
#
# Static dielectric constant tensor:
#      x y z
#    x 3.140390 0.000000 0.000000 
#    y 0.000000 3.048610 0.000000 
#    z 0.000000 0.000000 2.981990 
# 
# 
# High freq. dielectric constant tensor:
#      x y z
#    x 1.637560 0.000000 0.000000 
#    y 0.000000 1.616820 0.000000 
#    z 0.000000 0.000000 1.608450 
# 
# From -- ./inp_files/38417.got.cif
#   From: 2010.03.12/outbox.cif.g09.slc.cpg/sg53_20_cif.got.tgz:38417.got - 2010.04.16 14:36:59.
