data_PCOD8218091
_publ_section_title
;
Structure prediction by ZEFSAII (Michael W. Deem and Ramdas Pophale) SiO2 
 PCOD8218091
Probable space group: P M N A
;
_chemical_formula_sum "Si O2"
_cell_formula_units_Z 64
_cell_length_a 9.166319
_cell_length_b 14.381641
_cell_length_c 30.051948
_cell_angle_alpha 90.000000
_cell_angle_beta 90.000000
_cell_angle_gamma 90.000000
_cell_volume 3961.649408
_symmetry_space_group_name_H-M "P M N A"
_symmetry_group_IT_number 53
_symmetry_cell_setting 'orthorhombic'
loop_
_space_group_symop_operation_xyz
x,y,z
1/2-x,-y,1/2+z
x,-y,-z
1/2-x,y,1/2-z
-x,-y,-z
1/2+x,y,1/2-z
-x,y,z
1/2+x,-y,1/2+z
loop_
_atom_site_type_symbol
_atom_site_label
_atom_site_fract_x
_atom_site_fract_y
_atom_site_fract_z
Si Si1 0.336356 0.919180 0.624547
Si Si2 0.673637 0.769246 0.021512
Si Si3 0.334936 0.743087 0.566346
Si Si4 0.829373 0.856433 0.705627
Si Si5 0.168978 0.435612 0.539213
Si Si6 0.331357 0.420377 0.110999
Si Si7 0.331319 0.641841 0.793737
Si Si8 0.171980 0.052488 0.955104
O O1 0.500000 0.944534 0.640256
O O2 0.333874 0.814942 0.606428
O O3 0.227256 0.922393 0.666118
O O4 0.282966 0.990603 0.587061
O O5 0.500000 0.777632 0.022602
O O6 0.732661 0.668942 0.038919
O O7 0.743075 0.850544 0.051386
O O8 0.732854 0.784325 0.971920
O O9 0.500000 0.728254 0.548672
O O10 0.271090 0.646801 0.583257
O O11 0.750000 0.890388 0.750000
O O12 0.789652 0.748676 0.696000
O O13 0.000000 0.871395 0.711320
O O14 0.239924 0.500000 0.500000
O O15 0.192571 0.478635 0.588554
O O16 0.000000 0.426338 0.527340
O O17 0.500000 0.387856 0.106096
O O18 0.287644 0.420377 0.163190
O O19 0.250000 0.603715 0.750000
O O20 0.500000 0.632137 0.782738
O O21 0.000000 0.071787 0.956999
O O22 0.222201 0.000000 0.000000
#
# Coordination Sequence:
#
# PCOD8218091 Si02
#       8
#     8   8   8   8   8   8   8   8
#     4  10  20  33  49  68  96 133 166 196 242 291
#     4  11  21  33  49  70  95 128 168 207 241 282
#     4  11  20  30  46  69  98 131 162 199 241 284
#     4  10  19  31  48  72 100 127 161 198 239 288
#     4   9  17  30  49  69  95 127 159 200 243 282
#     4  10  18  32  49  69  94 129 168 196 233 282
#     4   9  18  29  45  68  95 125 156 192 232 280
#     4  10  20  36  51  68  97 132 164 199 249 294
#
# _framework density 16.154888
#
# number of rings (size 3 to 8) (size 9 to 14) (size 15 to 20)
#    0.000    2.000    3.750    1.125    0.000    2.250 
#    0.000    1.875    0.000    0.000    0.000    0.875 
#    0.000    4.000    0.000    0.000    0.000    0.000 
#
# Total GULP energy -793475.174209 kJ/mol
# GULP energy per Si atom -12398.049597 kJ/mol
# Density = 1.611812 g / cm^3
# Si number density = 16.154888 Si / 1000 Ang^3
#
#
#
# Elastic Constant Matrix: (Units=GPa)
#
#
# Indices 1 2 3 4 5 6 
#
# 1 58.7981 35.0383 43.5550 0.0000 0.0000 0.0000
# 2 35.0383 86.7535 42.2094 0.0000 0.0000 0.0000
# 3 43.5550 42.2094 117.4392 0.0000 0.0000 0.0000
# 4 0.0000 0.0000 0.0000 24.6187 0.0000 0.0000
# 5 0.0000 0.0000 0.0000 0.0000 27.0231 0.0000
# 6 0.0000 0.0000 0.0000 0.0000 0.0000 18.5311
#
#
#
# Elastic Compliance Matrix: (Units=1/GPa)
#
#
# Indices 1 2 3 4 5 6 
#
# 1 0.026741 -0.007241 -0.007315 0.000000 0.000000 0.000000
# 2 -0.007241 0.015931 -0.003040 0.000000 0.000000 0.000000
# 3 -0.007315 -0.003040 0.012321 0.000000 0.000000 0.000000
# 4 0.000000 0.000000 0.000000 0.040619 0.000000 0.000000
# 5 0.000000 0.000000 0.000000 0.000000 0.037005 0.000000
# 6 0.000000 0.000000 0.000000 0.000000 0.000000 0.053963
#
#
# Mechanical properties :
#
#
# Convention : Reuss Voigt Hill
#
# Bulk Modulus (GPa) = 50.50568 56.06625 53.28596
# Shear Modulus (GPa) = 21.89399 23.51378 22.70388
#
# Velocity S-wave (km/s) = 3.68537 3.81927 3.75292
# Velocity P-wave (km/s) = 7.03140 7.36409 7.19967
#
# Compressibility (1/GPa) = 0.01979975
#
# Stress axis : x y z
#
# Youngs Moduli (GPa) = 37.39569 62.77182 81.16478
#
# Poissons Ratio (x) = 0.45455 0.59371
# Poissons Ratio (y) = 0.27079 0.24675
# Poissons Ratio (z) = 0.27355 0.19084
#
# Static dielectric constant tensor:
#      x y z
#    x 3.019340 0.000000 0.000000 
#    y 0.000000 2.968240 0.000000 
#    z 0.000000 0.000000 3.095950 
# 
# 
# High freq. dielectric constant tensor:
#      x y z
#    x 1.617440 0.000000 0.000000 
#    y 0.000000 1.593680 0.000000 
#    z 0.000000 0.000000 1.612410 
# 
# From -- ./inp_files/38495.got.cif
#   From: 2010.03.12/outbox.cif.g09.slc.cpg/sg53_20_cif.got.tgz:38495.got - 2010.04.16 14:36:59.
