data_PCOD8218006
_publ_section_title
;
Structure prediction by ZEFSAII (Michael W. Deem and Ramdas Pophale) SiO2 
 PCOD8218006
Probable space group: P M N A
;
_chemical_formula_sum "Si O2"
_cell_formula_units_Z 48
_cell_length_a 8.588364
_cell_length_b 16.260156
_cell_length_c 18.444232
_cell_angle_alpha 90.000000
_cell_angle_beta 90.000000
_cell_angle_gamma 90.000000
_cell_volume 2575.702663
_symmetry_space_group_name_H-M "P M N A"
_symmetry_group_IT_number 53
_symmetry_cell_setting 'orthorhombic'
loop_
_space_group_symop_operation_xyz
x,y,z
1/2-x,-y,1/2+z
x,-y,-z
1/2-x,y,1/2-z
-x,-y,-z
1/2+x,y,1/2-z
-x,y,z
1/2+x,-y,1/2+z
loop_
_atom_site_type_symbol
_atom_site_label
_atom_site_fract_x
_atom_site_fract_y
_atom_site_fract_z
Si Si1 0.682979 0.242288 0.953323
Si Si2 0.182504 0.658510 0.171306
Si Si3 0.816109 0.676074 0.598802
Si Si4 0.314942 0.512057 0.829608
Si Si5 0.818695 0.090054 0.030142
Si Si6 0.185077 0.841327 0.671775
O O1 0.500000 0.247339 0.938487
O O2 0.774709 0.266320 0.880929
O O3 0.736350 0.304770 0.016922
O O4 0.727453 0.150495 0.976155
O O5 0.250000 0.678391 0.250000
O O6 0.253987 0.574192 0.138506
O O7 0.000000 0.647871 0.178597
O O8 0.748894 0.587496 0.622204
O O9 0.757239 0.748826 0.652058
O O10 0.000000 0.674130 0.603470
O O11 0.250000 0.525453 0.750000
O O12 0.500000 0.510410 0.828174
O O13 0.753017 0.096232 0.111867
O O14 0.000000 0.112810 0.030083
O O15 0.786824 0.000000 0.000000
O O16 0.250000 0.866650 0.750000
O O17 0.000000 0.848363 0.671114
#
# Coordination Sequence:
#
# PCOD8218006 Si02
#       6
#     8   8   8   8   8   8
#     4  10  20  37  58  80 105 136 174 215 264 318
#     4  11  22  37  54  75 103 138 180 223 267 311
#     4   8  17  31  50  76 106 140 175 213 259 311
#     4  10  18  31  49  72 103 140 180 219 260 304
#     4  10  21  38  59  83 111 141 174 215 264 319
#     4  10  19  33  54  81 112 145 180 218 264 315
#
# _framework density 18.635691999999999
#
# number of rings (size 3 to 8) (size 9 to 14) (size 15 to 20)
#    0.000    2.167    0.000    6.000    0.000    2.000 
#    0.000   13.333    0.000    4.000    0.000    0.000 
#    0.000    0.000    0.000    0.000    0.000    0.000 
#
# Total GULP energy -595215.682423 kJ/mol
# GULP energy per Si atom -12400.326717 kJ/mol
# Density = 1.859328 g / cm^3
# Si number density = 18.635692 Si / 1000 Ang^3
#
#
#
# Elastic Constant Matrix: (Units=GPa)
#
#
# Indices 1 2 3 4 5 6 
#
# 1 82.3152 27.9607 34.9859 0.0000 0.0000 0.0000
# 2 27.9607 88.5577 62.3281 0.0000 0.0000 0.0000
# 3 34.9859 62.3281 113.5651 0.0000 0.0000 0.0000
# 4 0.0000 0.0000 0.0000 22.2627 0.0000 0.0000
# 5 0.0000 0.0000 0.0000 0.0000 29.8089 0.0000
# 6 0.0000 0.0000 0.0000 0.0000 0.0000 28.1284
#
#
#
# Elastic Compliance Matrix: (Units=1/GPa)
#
#
# Indices 1 2 3 4 5 6 
#
# 1 0.014260 -0.002298 -0.003132 0.000000 0.000000 0.000000
# 2 -0.002298 0.018770 -0.009593 0.000000 0.000000 0.000000
# 3 -0.003132 -0.009593 0.015035 0.000000 0.000000 0.000000
# 4 0.000000 0.000000 0.000000 0.044918 0.000000 0.000000
# 5 0.000000 0.000000 0.000000 0.000000 0.033547 0.000000
# 6 0.000000 0.000000 0.000000 0.000000 0.000000 0.035551
#
#
# Mechanical properties :
#
#
# Convention : Reuss Voigt Hill
#
# Bulk Modulus (GPa) = 55.49840 59.44305 57.47073
# Shear Modulus (GPa) = 25.23537 26.65089 25.94313
#
# Velocity S-wave (km/s) = 3.68386 3.78577 3.73516
# Velocity P-wave (km/s) = 6.92386 7.14675 7.03619
#
# Compressibility (1/GPa) = 0.01801854
#
# Stress axis : x y z
#
# Youngs Moduli (GPa) = 70.12541 53.27752 66.50944
#
# Poissons Ratio (x) = 0.12244 0.20829
# Poissons Ratio (y) = 0.16116 0.63805
# Poissons Ratio (z) = 0.21962 0.51111
#
# Static dielectric constant tensor:
#      x y z
#    x 3.395610 0.000000 0.000000 
#    y 0.000000 3.528630 0.000000 
#    z 0.000000 0.000000 3.433070 
# 
# 
# High freq. dielectric constant tensor:
#      x y z
#    x 1.726220 0.000000 0.000000 
#    y 0.000000 1.714010 0.000000 
#    z 0.000000 0.000000 1.721820 
# 
# From -- ./inp_files/26196.got.cif
#   From: 2010.03.12/outbox.cif.g09.slc.cpg/sg53_14_cif.got.tgz:26196.got - 2010.04.16 14:36:59.
