data_PCOD8218439
_publ_section_title
;
Structure prediction by ZEFSAII (Michael W. Deem and Ramdas Pophale) SiO2 
 PCOD8218439
Probable space group: P M N A
;
_chemical_formula_sum "Si O2"
_cell_formula_units_Z 64
_cell_length_a 9.307024
_cell_length_b 13.690868
_cell_length_c 28.055309
_cell_angle_alpha 90.000000
_cell_angle_beta 90.000000
_cell_angle_gamma 90.000000
_cell_volume 3574.842179
_symmetry_space_group_name_H-M "P M N A"
_symmetry_group_IT_number 53
_symmetry_cell_setting 'orthorhombic'
loop_
_space_group_symop_operation_xyz
x,y,z
1/2-x,-y,1/2+z
x,-y,-z
1/2-x,y,1/2-z
-x,-y,-z
1/2+x,y,1/2-z
-x,y,z
1/2+x,-y,1/2+z
loop_
_atom_site_type_symbol
_atom_site_label
_atom_site_fract_x
_atom_site_fract_y
_atom_site_fract_z
Si Si1 0.834650 0.714151 0.070721
Si Si2 0.336316 0.588603 0.143380
Si Si3 0.666216 0.763089 0.796985
Si Si4 0.841684 0.710543 0.208083
Si Si5 0.341965 0.881277 0.366668
Si Si6 0.163123 0.367863 0.383313
Si Si7 0.165232 0.397637 0.021844
Si Si8 0.666941 0.991296 0.797693
O O1 0.731365 0.638101 0.096920
O O2 0.796460 0.828981 0.082992
O O3 0.000000 0.693478 0.086107
O O4 0.815170 0.692330 0.014843
O O5 0.500000 0.625222 0.148375
O O6 0.245999 0.616095 0.190316
O O7 0.327465 0.473442 0.139796
O O8 0.750000 0.727713 0.750000
O O9 0.500000 0.738164 0.788448
O O10 0.724497 0.707681 0.843902
O O11 0.691062 0.877374 0.805846
O O12 0.750000 0.760160 0.250000
O O13 0.852787 0.787744 0.166616
O O14 0.000000 0.679022 0.225674
O O15 0.500000 0.931765 0.370439
O O16 0.227535 0.957251 0.345583
O O17 0.253448 0.362845 0.431318
O O18 0.000000 0.340154 0.396542
O O19 0.000000 0.414566 0.035777
O O20 0.225965 0.500000 0.000000
O O21 0.750000 0.026520 0.750000
O O22 0.500000 0.018974 0.791377
#
# Coordination Sequence:
#
# PCOD8218439 Si02
#       8
#     8   8   8   8   8   8   8   8
#     4   9  18  33  49  71 103 135 165 204 251 298
#     4  10  19  30  46  68  95 129 167 205 245 296
#     4   9  20  38  55  75 103 134 169 213 258 305
#     4  10  20  32  45  64  95 132 165 202 247 299
#     4   9  18  31  49  71  98 129 162 202 251 301
#     4  10  21  35  52  76 105 134 170 212 256 301
#     4  10  19  32  54  79 104 135 175 215 252 298
#     4  10  19  32  53  76  99 128 167 212 259 307
#
# _framework density 17.902888000000001
#
# number of rings (size 3 to 8) (size 9 to 14) (size 15 to 20)
#    0.000    2.375    1.250    2.250    0.000    6.250 
#    0.000    1.250    0.000    0.750    0.000    5.250 
#    0.000    0.000    0.000    0.000    0.000    0.000 
#
# Total GULP energy -793317.962327 kJ/mol
# GULP energy per Si atom -12395.593161 kJ/mol
# Density = 1.786214 g / cm^3
# Si number density = 17.902888 Si / 1000 Ang^3
#
#
#
# Elastic Constant Matrix: (Units=GPa)
#
#
# Indices 1 2 3 4 5 6 
#
# 1 104.3141 38.5918 51.7766 0.0000 0.0000 0.0000
# 2 38.5918 60.8205 44.9220 0.0000 0.0000 0.0000
# 3 51.7766 44.9220 104.7756 0.0000 0.0000 0.0000
# 4 0.0000 0.0000 0.0000 29.3634 0.0000 0.0000
# 5 0.0000 0.0000 0.0000 0.0000 31.4623 0.0000
# 6 0.0000 0.0000 0.0000 0.0000 0.0000 20.2103
#
#
#
# Elastic Compliance Matrix: (Units=1/GPa)
#
#
# Indices 1 2 3 4 5 6 
#
# 1 0.013839 -0.005458 -0.004498 0.000000 0.000000 0.000000
# 2 -0.005458 0.026214 -0.008542 0.000000 0.000000 0.000000
# 3 -0.004498 -0.008542 0.015429 0.000000 0.000000 0.000000
# 4 0.000000 0.000000 0.000000 0.034056 0.000000 0.000000
# 5 0.000000 0.000000 0.000000 0.000000 0.031784 0.000000
# 6 0.000000 0.000000 0.000000 0.000000 0.000000 0.049480
#
#
# Mechanical properties :
#
#
# Convention : Reuss Voigt Hill
#
# Bulk Modulus (GPa) = 54.09759 60.05457 57.07608
# Shear Modulus (GPa) = 23.36872 25.18183 24.27528
#
# Velocity S-wave (km/s) = 3.61682 3.75451 3.68631
# Velocity P-wave (km/s) = 6.90831 7.23965 7.07592
#
# Compressibility (1/GPa) = 0.01848511
#
# Stress axis : x y z
#
# Youngs Moduli (GPa) = 72.26189 38.14701 64.81129
#
# Poissons Ratio (x) = 0.20822 0.29154
# Poissons Ratio (y) = 0.39443 0.55361
# Poissons Ratio (z) = 0.32505 0.32585
#
# Static dielectric constant tensor:
#      x y z
#    x 3.489080 0.000000 0.000000 
#    y 0.000000 3.211260 0.000000 
#    z 0.000000 0.000000 3.413170 
# 
# 
# High freq. dielectric constant tensor:
#      x y z
#    x 1.698200 0.000000 0.000000 
#    y 0.000000 1.672910 0.000000 
#    z 0.000000 0.000000 1.682320 
# 
# From -- ./inp_files/38236.got.cif
#   From: 2010.03.12/outbox.cif.g09.slc.cpg/sg53_20_cif.got.tgz:38236.got - 2010.04.16 14:36:59.
