data_PCOD8218714
_publ_section_title
;
Structure prediction by ZEFSAII (Michael W. Deem and Ramdas Pophale) SiO2 
 PCOD8218714
Probable space group: P M N A
;
_chemical_formula_sum "Si O2"
_cell_formula_units_Z 64
_cell_length_a 9.354638
_cell_length_b 24.366912
_cell_length_c 14.525918
_cell_angle_alpha 90.000000
_cell_angle_beta 90.000000
_cell_angle_gamma 90.000000
_cell_volume 3311.090637
_symmetry_space_group_name_H-M "P M N A"
_symmetry_group_IT_number 53
_symmetry_cell_setting 'orthorhombic'
loop_
_space_group_symop_operation_xyz
x,y,z
1/2-x,-y,1/2+z
x,-y,-z
1/2-x,y,1/2-z
-x,-y,-z
1/2+x,y,1/2-z
-x,y,z
1/2+x,-y,1/2+z
loop_
_atom_site_type_symbol
_atom_site_label
_atom_site_fract_x
_atom_site_fract_y
_atom_site_fract_z
Si Si1 0.841089 0.906150 0.830089
Si Si2 0.667056 0.979790 0.404718
Si Si3 0.167838 0.136946 0.839682
Si Si4 0.328445 0.729616 0.848009
Si Si5 0.667006 0.401103 0.840101
Si Si6 0.836787 0.184920 0.031332
Si Si7 0.831294 0.624862 0.537132
Si Si8 0.666096 0.472180 0.161335
O O1 0.750000 0.877482 0.750000
O O2 0.818459 0.876484 0.927862
O O3 0.000000 0.897334 0.795294
O O4 0.804700 0.970584 0.834494
O O5 0.500000 0.968977 0.422859
O O6 0.732133 0.923273 0.365247
O O7 0.739293 0.000000 0.500000
O O8 0.250000 0.159294 0.750000
O O9 0.000000 0.133661 0.817737
O O10 0.197842 0.179595 0.922920
O O11 0.250000 0.735116 0.750000
O O12 0.500000 0.733297 0.834894
O O13 0.275984 0.776402 0.917866
O O14 0.277761 0.673084 0.896033
O O15 0.750000 0.379588 0.750000
O O16 0.500000 0.391439 0.821851
O O17 0.700832 0.464807 0.860318
O O18 0.723952 0.369113 0.931320
O O19 0.000000 0.205932 0.046427
O O20 0.782403 0.565898 0.576859
O O21 0.000000 0.626606 0.530960
O O22 0.750000 0.451245 0.250000
O O23 0.500000 0.463205 0.181688
#
# Coordination Sequence:
#
# PCOD8218714 Si02
#       8
#     8   8   8   8   8   8   8   8
#     4  10  19  31  51  76 102 133 168 205 250 306
#     4   9  15  29  52  76 103 138 172 203 250 311
#     4  10  20  35  57  81 107 140 177 218 264 314
#     4  11  23  39  59  81 106 136 172 218 267 314
#     4   9  17  31  51  76 106 139 175 213 255 305
#     4  10  21  38  57  77 103 138 178 217 261 312
#     4   9  18  33  53  76 103 139 178 213 257 313
#     4   9  16  28  49  76 106 139 173 211 256 310
#
# _framework density 19.328979
#
# number of rings (size 3 to 8) (size 9 to 14) (size 15 to 20)
#    0.000    2.375    1.250    1.875    0.000    3.500 
#    0.000    3.125    0.000    6.750    0.000    0.000 
#    0.000    0.000    0.000    0.000    0.000    0.000 
#
# Total GULP energy -793232.247757 kJ/mol
# GULP energy per Si atom -12394.253871 kJ/mol
# Density = 1.928498 g / cm^3
# Si number density = 19.328979 Si / 1000 Ang^3
#
#
#
# Elastic Constant Matrix: (Units=GPa)
#
#
# Indices 1 2 3 4 5 6 
#
# 1 57.1858 28.2953 54.9513 0.0000 0.0000 0.0000
# 2 28.2953 58.0938 36.8864 0.0000 0.0000 0.0000
# 3 54.9513 36.8864 157.5527 0.0000 0.0000 0.0000
# 4 0.0000 0.0000 0.0000 21.4641 0.0000 0.0000
# 5 0.0000 0.0000 0.0000 0.0000 32.4624 0.0000
# 6 0.0000 0.0000 0.0000 0.0000 0.0000 40.8786
#
#
#
# Elastic Compliance Matrix: (Units=1/GPa)
#
#
# Indices 1 2 3 4 5 6 
#
# 1 0.030115 -0.009395 -0.008304 0.000000 0.000000 0.000000
# 2 -0.009395 0.023150 -0.002143 0.000000 0.000000 0.000000
# 3 -0.008304 -0.002143 0.009745 0.000000 0.000000 0.000000
# 4 0.000000 0.000000 0.000000 0.046589 0.000000 0.000000
# 5 0.000000 0.000000 0.000000 0.000000 0.030805 0.000000
# 6 0.000000 0.000000 0.000000 0.000000 0.000000 0.024463
#
#
# Mechanical properties :
#
#
# Convention : Reuss Voigt Hill
#
# Bulk Modulus (GPa) = 42.87093 57.01093 49.94093
# Shear Modulus (GPa) = 23.54852 29.14097 26.34475
#
# Velocity S-wave (km/s) = 3.49420 3.88704 3.69584
# Velocity P-wave (km/s) = 6.20540 7.05014 6.64122
#
# Compressibility (1/GPa) = 0.02332583
#
# Stress axis : x y z
#
# Youngs Moduli (GPa) = 33.20596 43.19570 102.61611
#
# Poissons Ratio (x) = 0.40584 0.85211
# Poissons Ratio (y) = 0.31198 0.21991
# Poissons Ratio (z) = 0.27574 0.09257
#
# Static dielectric constant tensor:
#      x y z
#    x 3.244020 0.000000 0.000000 
#    y 0.000000 3.502660 0.000000 
#    z 0.000000 0.000000 3.735450 
# 
# 
# High freq. dielectric constant tensor:
#      x y z
#    x 1.718280 0.000000 0.000000 
#    y 0.000000 1.737160 0.000000 
#    z 0.000000 0.000000 1.765410 
# 
# From -- ./inp_files/20980.got.cif
#   From: 2010.03.12/outbox.cif.g09.slc.cpg/sg53_11_cif.got.tgz:20980.got - 2010.04.16 14:36:59.
