data_PCOD8218505
_publ_section_title
;
Structure prediction by ZEFSAII (Michael W. Deem and Ramdas Pophale) SiO2 
 PCOD8218505
Probable space group: P M N A
;
_chemical_formula_sum "Si O2"
_cell_formula_units_Z 64
_cell_length_a 8.968411
_cell_length_b 14.856868
_cell_length_c 29.585756
_cell_angle_alpha 90.000000
_cell_angle_beta 90.000000
_cell_angle_gamma 90.000000
_cell_volume 3942.080046
_symmetry_space_group_name_H-M "P M N A"
_symmetry_group_IT_number 53
_symmetry_cell_setting 'orthorhombic'
loop_
_space_group_symop_operation_xyz
x,y,z
1/2-x,-y,1/2+z
x,-y,-z
1/2-x,y,1/2-z
-x,-y,-z
1/2+x,y,1/2-z
-x,y,z
1/2+x,-y,1/2+z
loop_
_atom_site_type_symbol
_atom_site_label
_atom_site_fract_x
_atom_site_fract_y
_atom_site_fract_z
Si Si1 0.672694 0.324788 0.044077
Si Si2 0.823944 0.537372 0.893981
Si Si3 0.174830 0.369015 0.557477
Si Si4 0.174173 0.286639 0.794063
Si Si5 0.327112 0.044536 0.559020
Si Si6 0.827481 0.216016 0.888579
Si Si7 0.174422 0.507227 0.205133
Si Si8 0.175302 0.119518 0.470730
O O1 0.500000 0.340536 0.055398
O O2 0.770896 0.371214 0.082608
O O3 0.713090 0.219531 0.045583
O O4 0.711708 0.368812 0.995779
O O5 0.753945 0.452058 0.918820
O O6 0.775569 0.542146 0.841159
O O7 0.000000 0.526713 0.897834
O O8 0.230064 0.274758 0.577324
O O9 0.000000 0.377394 0.565879
O O10 0.250000 0.243483 0.750000
O O11 0.228163 0.231516 0.837646
O O12 0.225622 0.389544 0.800474
O O13 0.000000 0.279240 0.787080
O O14 0.500000 0.020091 0.551992
O O15 0.304965 0.110320 0.601632
O O16 0.267666 0.098215 0.515596
O O17 0.232008 0.952878 0.566738
O O18 0.000000 0.245417 0.894218
O O19 0.250000 0.464338 0.250000
O O20 0.000000 0.498757 0.212613
O O21 0.000000 0.108164 0.480241
#
# Coordination Sequence:
#
# PCOD8218505 Si02
#       8
#     8   8   8   8   8   8   8   8
#     4  10  22  36  48  68  97 132 169 205 241 282
#     4  11  22  35  50  71  97 129 165 202 243 288
#     4  11  21  33  48  68  98 133 170 201 231 282
#     4   9  17  31  47  67  96 125 157 196 238 287
#     4  10  19  30  49  73  95 123 161 198 239 285
#     4  10  19  32  49  70 100 130 160 200 241 284
#     4   9  18  32  49  69  94 122 157 197 240 287
#     4  10  19  33  49  67  97 128 158 200 241 277
#
# _framework density 16.235084000000001
#
# number of rings (size 3 to 8) (size 9 to 14) (size 15 to 20)
#    0.000    2.000    2.500    2.625    0.000    5.500 
#    0.000    0.000    0.000    0.000    0.000    0.875 
#    0.000    2.000    0.000    0.000    0.000    0.000 
#
# Total GULP energy -793532.627877 kJ/mol
# GULP energy per Si atom -12398.947311 kJ/mol
# Density = 1.619813 g / cm^3
# Si number density = 16.235084 Si / 1000 Ang^3
#
#
#
# Elastic Constant Matrix: (Units=GPa)
#
#
# Indices 1 2 3 4 5 6 
#
# 1 61.3213 36.3581 46.7413 0.0000 0.0000 0.0000
# 2 36.3581 85.5227 50.4973 0.0000 0.0000 0.0000
# 3 46.7413 50.4973 120.7244 0.0000 0.0000 0.0000
# 4 0.0000 0.0000 0.0000 21.3598 0.0000 0.0000
# 5 0.0000 0.0000 0.0000 0.0000 26.4704 0.0000
# 6 0.0000 0.0000 0.0000 0.0000 0.0000 25.8404
#
#
#
# Elastic Compliance Matrix: (Units=1/GPa)
#
#
# Indices 1 2 3 4 5 6 
#
# 1 0.025748 -0.006720 -0.007158 0.000000 0.000000 0.000000
# 2 -0.006720 0.017281 -0.004627 0.000000 0.000000 0.000000
# 3 -0.007158 -0.004627 0.012990 0.000000 0.000000 0.000000
# 4 0.000000 0.000000 0.000000 0.046817 0.000000 0.000000
# 5 0.000000 0.000000 0.000000 0.000000 0.037778 0.000000
# 6 0.000000 0.000000 0.000000 0.000000 0.000000 0.038699
#
#
# Mechanical properties :
#
#
# Convention : Reuss Voigt Hill
#
# Bulk Modulus (GPa) = 52.60356 59.41797 56.01077
# Shear Modulus (GPa) = 22.45577 23.66556 23.06067
#
# Velocity S-wave (km/s) = 3.72313 3.82210 3.77294
# Velocity P-wave (km/s) = 7.13819 7.49372 7.31811
#
# Compressibility (1/GPa) = 0.01901012
#
# Stress axis : x y z
#
# Youngs Moduli (GPa) = 38.83814 57.86541 76.98112
#
# Poissons Ratio (x) = 0.38883 0.55105
# Poissons Ratio (y) = 0.26097 0.35619
# Poissons Ratio (z) = 0.27801 0.26774
#
# Static dielectric constant tensor:
#      x y z
#    x 3.134480 0.000000 0.000000 
#    y 0.000000 3.122460 0.000000 
#    z 0.000000 0.000000 3.162780 
# 
# 
# High freq. dielectric constant tensor:
#      x y z
#    x 1.633160 0.000000 0.000000 
#    y 0.000000 1.606720 0.000000 
#    z 0.000000 0.000000 1.611580 
# 
# From -- ./inp_files/38488.got.cif
#   From: 2010.03.12/outbox.cif.g09.slc.cpg/sg53_20_cif.got.tgz:38488.got - 2010.04.16 14:36:59.
