data_PCOD8218736
_publ_section_title
;
Structure prediction by ZEFSAII (Michael W. Deem and Ramdas Pophale) SiO2 
 PCOD8218736
Probable space group: P M N A
;
_chemical_formula_sum "Si O2"
_cell_formula_units_Z 64
_cell_length_a 26.024421
_cell_length_b 15.118151
_cell_length_c 8.687611
_cell_angle_alpha 90.000000
_cell_angle_beta 90.000000
_cell_angle_gamma 90.000000
_cell_volume 3418.063457
_symmetry_space_group_name_H-M "P M N A"
_symmetry_group_IT_number 53
_symmetry_cell_setting 'orthorhombic'
loop_
_space_group_symop_operation_xyz
x,y,z
1/2-x,-y,1/2+z
x,-y,-z
1/2-x,y,1/2-z
-x,-y,-z
1/2+x,y,1/2-z
-x,y,z
1/2+x,-y,1/2+z
loop_
_atom_site_type_symbol
_atom_site_label
_atom_site_fract_x
_atom_site_fract_y
_atom_site_fract_z
Si Si1 0.644206 0.910434 0.582274
Si Si2 0.900993 0.301025 0.806950
Si Si3 0.058066 0.818942 0.722360
Si Si4 0.939015 0.523100 0.329428
Si Si5 0.057929 0.639526 0.869950
Si Si6 0.155348 0.970466 0.338384
Si Si7 0.805073 0.804704 0.189480
Si Si8 0.559263 0.865674 0.126132
O O1 0.595019 0.856968 0.644499
O O2 0.682768 0.850219 0.478800
O O3 0.623706 0.000000 0.500000
O O4 0.674512 0.950221 0.728205
O O5 0.913736 0.383001 0.700617
O O6 0.840501 0.281295 0.794603
O O7 0.931714 0.214345 0.747171
O O8 0.911471 0.325866 0.983165
O O9 0.059478 0.712767 0.735900
O O10 0.075959 0.840213 0.548338
O O11 0.000000 0.853557 0.751896
O O12 0.920693 0.500000 0.500000
O O13 0.919294 0.450505 0.204898
O O14 0.000000 0.530830 0.319543
O O15 0.000000 0.621521 0.926515
O O16 0.182678 0.878105 0.314443
O O17 0.093402 0.951450 0.327642
O O18 0.175619 0.000000 0.500000
O O19 0.750000 0.771724 0.250000
O O20 0.500000 0.893927 0.134066
#
# Coordination Sequence:
#
# PCOD8218736 Si02
#       8
#     8   8   8   8   8   8   8   8
#     4  10  20  37  54  79 111 144 189 243 286 341
#     4  11  20  35  57  79 109 146 188 239 286 337
#     4  10  19  32  51  79 121 162 189 222 271 339
#     4  10  20  34  55  86 120 152 184 217 266 338
#     4  10  19  31  52  85 119 153 191 227 269 327
#     4  10  20  34  57  81 111 144 189 237 282 339
#     4  10  23  41  59  78 103 140 188 247 306 344
#     4  10  20  32  50  79 119 162 192 219 273 343
#
# _framework density 18.724053000000001
#
# number of rings (size 3 to 8) (size 9 to 14) (size 15 to 20)
#    0.000    1.875    2.500    2.250    0.000    5.500 
#    0.000    0.000    0.000    1.500    0.000    0.000 
#    0.000    0.000    0.000    0.000    0.000    0.000 
#
# Total GULP energy -792905.851227 kJ/mol
# GULP energy per Si atom -12389.153925 kJ/mol
# Density = 1.868144 g / cm^3
# Si number density = 18.724053 Si / 1000 Ang^3
#
#
#
# Elastic Constant Matrix: (Units=GPa)
#
#
# Indices 1 2 3 4 5 6 
#
# 1 58.9085 -4.9772 20.9217 0.0000 0.0000 0.0000
# 2 -4.9772 46.9600 24.9659 0.0000 0.0000 0.0000
# 3 20.9217 24.9659 120.3672 0.0000 0.0000 0.0000
# 4 0.0000 0.0000 0.0000 30.9969 0.0000 0.0000
# 5 0.0000 0.0000 0.0000 0.0000 20.1877 0.0000
# 6 0.0000 0.0000 0.0000 0.0000 0.0000 8.9150
#
#
#
# Elastic Compliance Matrix: (Units=1/GPa)
#
#
# Indices 1 2 3 4 5 6 
#
# 1 0.018799 0.004192 -0.004137 0.000000 0.000000 0.000000
# 2 0.004192 0.024869 -0.005887 0.000000 0.000000 0.000000
# 3 -0.004137 -0.005887 0.010248 0.000000 0.000000 0.000000
# 4 0.000000 0.000000 0.000000 0.032261 0.000000 0.000000
# 5 0.000000 0.000000 0.000000 0.000000 0.049535 0.000000
# 6 0.000000 0.000000 0.000000 0.000000 0.000000 0.112170
#
#
# Mechanical properties :
#
#
# Convention : Reuss Voigt Hill
#
# Bulk Modulus (GPa) = 23.66763 34.22850 28.94806
# Shear Modulus (GPa) = 18.27287 24.37494 21.32391
#
# Velocity S-wave (km/s) = 3.12733 3.61196 3.37835
# Velocity P-wave (km/s) = 5.07030 5.97622 5.54180
#
# Compressibility (1/GPa) = 0.04225181
#
# Stress axis : x y z
#
# Youngs Moduli (GPa) = 53.19448 40.21132 97.58018
#
# Poissons Ratio (x) = -0.16856 0.40369
# Poissons Ratio (y) = -0.22298 0.57443
# Poissons Ratio (z) = 0.22007 0.23671
#
# Static dielectric constant tensor:
#      x y z
#    x 3.186350 0.000000 0.000000 
#    y 0.000000 3.551070 0.000000 
#    z 0.000000 0.000000 4.075580 
# 
# 
# High freq. dielectric constant tensor:
#      x y z
#    x 1.682190 0.000000 0.000000 
#    y 0.000000 1.728140 0.000000 
#    z 0.000000 0.000000 1.746260 
# 
# From -- ./inp_files/11919.got.cif
#   From: 2010.03.12/outbox.cif.g09.slc.cpg/sg53_6_cif.got.tgz:11919.got - 2010.04.16 14:36:59.
