data_PCOD8218311
_publ_section_title
;
Structure prediction by ZEFSAII (Michael W. Deem and Ramdas Pophale) SiO2 
 PCOD8218311
Probable space group: P M N A
;
_chemical_formula_sum "Si O2"
_cell_formula_units_Z 64
_cell_length_a 8.910809
_cell_length_b 18.623181
_cell_length_c 24.510680
_cell_angle_alpha 90.000000
_cell_angle_beta 90.000000
_cell_angle_gamma 90.000000
_cell_volume 4067.488738
_symmetry_space_group_name_H-M "P M N A"
_symmetry_group_IT_number 53
_symmetry_cell_setting 'orthorhombic'
loop_
_space_group_symop_operation_xyz
x,y,z
1/2-x,-y,1/2+z
x,-y,-z
1/2-x,y,1/2-z
-x,-y,-z
1/2+x,y,1/2-z
-x,y,z
1/2+x,-y,1/2+z
loop_
_atom_site_type_symbol
_atom_site_label
_atom_site_fract_x
_atom_site_fract_y
_atom_site_fract_z
Si Si1 0.669408 0.547557 0.420438
Si Si2 0.674626 0.114031 0.491386
Si Si3 0.820987 0.065207 0.693325
Si Si4 0.167996 0.602251 0.956729
Si Si5 0.324079 0.013528 0.588225
Si Si6 0.830733 0.264242 0.489261
Si Si7 0.177896 0.781694 0.194476
Si Si8 0.829586 0.319011 0.611665
O O1 0.500000 0.551793 0.396977
O O2 0.669599 0.576691 0.481411
O O3 0.727285 0.464635 0.419737
O O4 0.780614 0.597373 0.385172
O O5 0.500000 0.128157 0.496860
O O6 0.709478 0.061992 0.440749
O O7 0.750773 0.189233 0.479660
O O8 0.730200 0.077614 0.547908
O O9 0.750000 0.036510 0.750000
O O10 0.755586 0.143339 0.679512
O O11 0.000000 0.068062 0.698552
O O12 0.771793 0.013897 0.643766
O O13 0.000000 0.621863 0.938646
O O14 0.266189 0.673871 0.949434
O O15 0.500000 0.021885 0.601553
O O16 0.814035 0.288156 0.551366
O O17 0.000000 0.252931 0.471603
O O18 0.250000 0.751545 0.250000
O O19 0.213229 0.725202 0.147668
O O20 0.000000 0.792508 0.200482
O O21 0.000000 0.312182 0.633177
#
# Coordination Sequence:
#
# PCOD8218311 Si02
#       8
#     8   8   8   8   8   8   8   8
#     4   8  14  25  40  58  78 107 143 175 206 243
#     4   9  18  31  47  64  87 119 151 182 221 267
#     4  11  21  33  49  68  89 115 146 183 224 265
#     4   8  14  25  40  56  79 109 142 175 207 244
#     4   9  18  33  49  66  87 115 150 185 221 266
#     4  10  19  27  39  61  88 115 146 180 215 255
#     4  11  21  33  47  62  83 111 143 181 218 255
#     4  10  19  29  41  61  87 115 145 178 215 257
#
# _framework density 15.734524
#
# number of rings (size 3 to 8) (size 9 to 14) (size 15 to 20)
#    0.000    2.500    0.000    6.000    0.000    5.000 
#    0.000    3.750    0.000    0.000    0.000    0.000 
#    0.000    1.000    0.000    8.250    0.000    5.250 
#
# Total GULP energy -793323.470053 kJ/mol
# GULP energy per Si atom -12395.679220 kJ/mol
# Density = 1.569871 g / cm^3
# Si number density = 15.734524 Si / 1000 Ang^3
#
#
#
# Elastic Constant Matrix: (Units=GPa)
#
#
# Indices 1 2 3 4 5 6 
#
# 1 95.2113 50.0164 39.7024 0.0000 0.0000 0.0000
# 2 50.0164 107.9397 29.7318 0.0000 0.0000 0.0000
# 3 39.7024 29.7318 57.7093 0.0000 0.0000 0.0000
# 4 0.0000 0.0000 0.0000 17.8400 0.0000 0.0000
# 5 0.0000 0.0000 0.0000 0.0000 21.6386 0.0000
# 6 0.0000 0.0000 0.0000 0.0000 0.0000 24.4835
#
#
#
# Elastic Compliance Matrix: (Units=1/GPa)
#
#
# Indices 1 2 3 4 5 6 
#
# 1 0.017105 -0.005459 -0.008955 0.000000 0.000000 0.000000
# 2 -0.005459 0.012539 -0.002704 0.000000 0.000000 0.000000
# 3 -0.008955 -0.002704 0.024882 0.000000 0.000000 0.000000
# 4 0.000000 0.000000 0.000000 0.056054 0.000000 0.000000
# 5 0.000000 0.000000 0.000000 0.000000 0.046214 0.000000
# 6 0.000000 0.000000 0.000000 0.000000 0.000000 0.040844
#
#
# Mechanical properties :
#
#
# Convention : Reuss Voigt Hill
#
# Bulk Modulus (GPa) = 49.28782 55.52906 52.40844
# Shear Modulus (GPa) = 20.95220 22.21973 21.58597
#
# Velocity S-wave (km/s) = 3.65308 3.76195 3.70792
# Velocity P-wave (km/s) = 7.01327 7.36462 7.19109
#
# Compressibility (1/GPa) = 0.02028899
#
# Stress axis : x y z
#
# Youngs Moduli (GPa) = 58.46196 79.75100 40.18908
#
# Poissons Ratio (x) = 0.43539 0.35990
# Poissons Ratio (y) = 0.31917 0.10868
# Poissons Ratio (z) = 0.52354 0.21566
#
# Static dielectric constant tensor:
#      x y z
#    x 3.077680 0.000000 0.000000 
#    y 0.000000 3.124930 0.000000 
#    z 0.000000 0.000000 2.777430 
# 
# 
# High freq. dielectric constant tensor:
#      x y z
#    x 1.611830 0.000000 0.000000 
#    y 0.000000 1.599890 0.000000 
#    z 0.000000 0.000000 1.561100 
# 
# From -- ./inp_files/34520.got.cif
#   From: 2010.03.12/outbox.cif.g09.slc.cpg/sg53_18_cif.got.tgz:34520.got - 2010.04.16 14:36:59.
