data_PCOD8218014
_publ_section_title
;
Structure prediction by ZEFSAII (Michael W. Deem and Ramdas Pophale) SiO2 
 PCOD8218014
Probable space group: P M N A
;
_chemical_formula_sum "Si O2"
_cell_formula_units_Z 64
_cell_length_a 9.213725
_cell_length_b 15.004160
_cell_length_c 24.719261
_cell_angle_alpha 90.000000
_cell_angle_beta 90.000000
_cell_angle_gamma 90.000000
_cell_volume 3417.294563
_symmetry_space_group_name_H-M "P M N A"
_symmetry_group_IT_number 53
_symmetry_cell_setting 'orthorhombic'
loop_
_space_group_symop_operation_xyz
x,y,z
1/2-x,-y,1/2+z
x,-y,-z
1/2-x,y,1/2-z
-x,-y,-z
1/2+x,y,1/2-z
-x,y,z
1/2+x,-y,1/2+z
loop_
_atom_site_type_symbol
_atom_site_label
_atom_site_fract_x
_atom_site_fract_y
_atom_site_fract_z
Si Si1 0.328315 0.276185 0.616759
Si Si2 0.169153 0.079181 0.196401
Si Si3 0.831737 0.284836 0.004361
Si Si4 0.829805 0.368830 0.303830
Si Si5 0.830507 0.877721 0.196101
Si Si6 0.329786 0.235591 0.381152
Si Si7 0.154886 0.559270 0.548590
Si Si8 0.167919 0.552308 0.352186
O O1 0.500000 0.290405 0.616404
O O2 0.262698 0.266312 0.555197
O O3 0.284303 0.184895 0.646413
O O4 0.261625 0.357558 0.651969
O O5 0.250000 0.111910 0.250000
O O6 0.215294 0.143981 0.147799
O O7 0.000000 0.085245 0.208771
O O8 0.214926 0.978610 0.180579
O O9 0.000000 0.289681 0.993199
O O10 0.795883 0.217738 0.054545
O O11 0.780384 0.376895 0.029026
O O12 0.750000 0.333095 0.250000
O O13 0.762523 0.318614 0.356571
O O14 0.805266 0.476383 0.306551
O O15 0.000000 0.345930 0.300065
O O16 0.750000 0.845440 0.250000
O O17 0.000000 0.870497 0.208162
O O18 0.500000 0.257868 0.373026
O O19 0.104814 0.500000 0.500000
O O20 0.221428 0.495457 0.593606
O O21 0.000000 0.604269 0.569068
O O22 0.000000 0.580962 0.353875
#
# Coordination Sequence:
#
# PCOD8218014 Si02
#       8
#     8   8   8   8   8   8   8   8
#     4  10  21  35  53  78 107 138 173 215 261 307
#     4   9  18  34  56  79 102 131 170 215 260 308
#     4  10  20  32  49  76 108 138 171 210 255 307
#     4  11  23  37  52  73 104 140 176 216 263 312
#     4   9  19  37  58  79 103 132 170 216 263 311
#     4  10  20  34  53  78 107 138 172 211 257 311
#     4  10  18  31  50  71  97 131 175 217 251 293
#     4  10  21  35  51  72 100 136 176 214 254 303
#
# _framework density 18.728266000000001
#
# number of rings (size 3 to 8) (size 9 to 14) (size 15 to 20)
#    0.000    2.125    2.500    0.750    0.000    4.250 
#    0.000    3.125    0.000    3.750    0.000    0.000 
#    0.000    7.000    0.000    0.000    0.000    0.000 
#
# Total GULP energy -792905.648803 kJ/mol
# GULP energy per Si atom -12389.150763 kJ/mol
# Density = 1.868564 g / cm^3
# Si number density = 18.728266 Si / 1000 Ang^3
#
#
#
# Elastic Constant Matrix: (Units=GPa)
#
#
# Indices 1 2 3 4 5 6 
#
# 1 35.5418 31.3134 34.5674 0.0000 0.0000 0.0000
# 2 31.3134 93.8753 38.9685 0.0000 0.0000 0.0000
# 3 34.5674 38.9685 79.3200 0.0000 0.0000 0.0000
# 4 0.0000 0.0000 0.0000 28.9812 0.0000 0.0000
# 5 0.0000 0.0000 0.0000 0.0000 22.7868 0.0000
# 6 0.0000 0.0000 0.0000 0.0000 0.0000 22.3866
#
#
#
# Elastic Compliance Matrix: (Units=1/GPa)
#
#
# Indices 1 2 3 4 5 6 
#
# 1 0.056404 -0.010817 -0.019267 0.000000 0.000000 0.000000
# 2 -0.010817 0.015456 -0.002879 0.000000 0.000000 0.000000
# 3 -0.019267 -0.002879 0.022418 0.000000 0.000000 0.000000
# 4 0.000000 0.000000 0.000000 0.034505 0.000000 0.000000
# 5 0.000000 0.000000 0.000000 0.000000 0.043885 0.000000
# 6 0.000000 0.000000 0.000000 0.000000 0.000000 0.044670
#
#
# Mechanical properties :
#
#
# Convention : Reuss Voigt Hill
#
# Bulk Modulus (GPa) = 35.27000 46.49286 40.88143
# Shear Modulus (GPa) = 17.08153 21.75676 19.41915
#
# Velocity S-wave (km/s) = 3.02333 3.41208 3.22357
# Velocity P-wave (km/s) = 5.57322 6.35625 5.97757
#
# Compressibility (1/GPa) = 0.02835271
#
# Stress axis : x y z
#
# Youngs Moduli (GPa) = 17.72919 64.70124 44.60687
#
# Poissons Ratio (x) = 0.69985 0.85943
# Poissons Ratio (y) = 0.19177 0.12843
# Poissons Ratio (z) = 0.34158 0.18629
#
# Static dielectric constant tensor:
#      x y z
#    x 3.323920 0.000000 0.000000 
#    y 0.000000 3.414300 0.000000 
#    z 0.000000 0.000000 3.714170 
# 
# 
# High freq. dielectric constant tensor:
#      x y z
#    x 1.721640 0.000000 0.000000 
#    y 0.000000 1.708720 0.000000 
#    z 0.000000 0.000000 1.734400 
# 
# From -- ./inp_files/34290.got.cif
#   From: 2010.03.12/outbox.cif.g09.slc.cpg/sg53_18_cif.got.tgz:34290.got - 2010.04.16 14:36:59.
