data_PCOD8218332
_publ_section_title
;
Structure prediction by ZEFSAII (Michael W. Deem and Ramdas Pophale) SiO2 
 PCOD8218332
Probable space group: P M N A
;
_chemical_formula_sum "Si O2"
_cell_formula_units_Z 64
_cell_length_a 8.929281
_cell_length_b 26.352693
_cell_length_c 18.147812
_cell_angle_alpha 90.000000
_cell_angle_beta 90.000000
_cell_angle_gamma 90.000000
_cell_volume 4270.372547
_symmetry_space_group_name_H-M "P M N A"
_symmetry_group_IT_number 53
_symmetry_cell_setting 'orthorhombic'
loop_
_space_group_symop_operation_xyz
x,y,z
1/2-x,-y,1/2+z
x,-y,-z
1/2-x,y,1/2-z
-x,-y,-z
1/2+x,y,1/2-z
-x,y,z
1/2+x,-y,1/2+z
loop_
_atom_site_type_symbol
_atom_site_label
_atom_site_fract_x
_atom_site_fract_y
_atom_site_fract_z
Si Si1 0.324052 0.898889 0.912612
Si Si2 0.674429 0.505572 0.671265
Si Si3 0.834648 0.951868 0.447251
Si Si4 0.174349 0.394483 0.077064
Si Si5 0.330927 0.550595 0.047642
Si Si6 0.677180 0.311859 0.173049
Si Si7 0.823537 0.009861 0.171808
Si Si8 0.174141 0.802890 0.675384
O O1 0.500000 0.910551 0.901193
O O2 0.233552 0.937122 0.860773
O O3 0.282489 0.841337 0.890330
O O4 0.281107 0.905706 0.999264
O O5 0.750000 0.508003 0.750000
O O6 0.500000 0.493946 0.679681
O O7 0.703735 0.559066 0.632080
O O8 0.748010 0.459951 0.624703
O O9 0.000000 0.940787 0.414148
O O10 0.842885 0.000000 0.500000
O O11 0.719761 0.962392 0.381053
O O12 0.258780 0.345411 0.107326
O O13 0.000000 0.382590 0.068510
O O14 0.241530 0.406126 0.996526
O O15 0.500000 0.569057 0.063119
O O16 0.330693 0.500000 0.000000
O O17 0.750000 0.329275 0.250000
O O18 0.500000 0.319323 0.178971
O O19 0.724559 0.254016 0.154449
O O20 0.750000 0.999468 0.250000
O O21 0.000000 0.012221 0.180506
O O22 0.250000 0.822128 0.750000
O O23 0.000000 0.803816 0.691687
#
# Coordination Sequence:
#
# PCOD8218332 Si02
#       8
#     8   8   8   8   8   8   8   8
#     4   9  17  30  45  60  81 109 139 170 207 247
#     4  10  19  29  42  61  85 112 142 174 207 246
#     4   8  15  28  43  58  79 106 134 166 204 244
#     4  10  19  30  44  61  83 112 144 175 209 247
#     4   9  17  29  44  61  82 108 138 172 209 248
#     4  10  19  30  43  60  83 110 142 177 210 243
#     4  11  20  28  40  59  83 109 139 171 203 242
#     4   9  18  30  43  60  82 109 140 174 208 242
#
# _framework density 14.986981999999999
#
# number of rings (size 3 to 8) (size 9 to 14) (size 15 to 20)
#    0.000    2.500    0.000    4.125    0.000    8.250 
#    0.000    0.000    0.000    0.000    0.000    0.000 
#    0.000    1.000    0.000    5.000    0.000    3.750 
#
# Total GULP energy -793475.452029 kJ/mol
# GULP energy per Si atom -12398.053938 kJ/mol
# Density = 1.495287 g / cm^3
# Si number density = 14.986982 Si / 1000 Ang^3
#
#
#
# Elastic Constant Matrix: (Units=GPa)
#
#
# Indices 1 2 3 4 5 6 
#
# 1 94.9673 35.2790 52.0910 0.0000 0.0000 0.0000
# 2 35.2790 65.4281 36.9652 0.0000 0.0000 0.0000
# 3 52.0910 36.9652 79.0553 0.0000 0.0000 0.0000
# 4 0.0000 0.0000 0.0000 21.0861 0.0000 0.0000
# 5 0.0000 0.0000 0.0000 0.0000 28.0187 0.0000
# 6 0.0000 0.0000 0.0000 0.0000 0.0000 -7.3215
#
#
#
# Elastic Compliance Matrix: (Units=1/GPa)
#
#
# Indices 1 2 3 4 5 6 
#
# 1 0.017192 -0.003900 -0.009505 0.000000 0.000000 0.000000
# 2 -0.003900 0.021656 -0.007556 0.000000 0.000000 0.000000
# 3 -0.009505 -0.007556 0.022445 0.000000 0.000000 0.000000
# 4 0.000000 0.000000 0.000000 0.047425 0.000000 0.000000
# 5 0.000000 0.000000 0.000000 0.000000 0.035690 0.000000
# 6 0.000000 0.000000 0.000000 0.000000 0.000000 -0.136583
#
#
# Mechanical properties :
#
#
# Convention : Reuss Voigt Hill
#
# Bulk Modulus (GPa) = 51.62193 54.23568 52.92881
# Shear Modulus (GPa) = 88.96106 16.03102 52.49604
#
# Velocity S-wave (km/s) = 7.71283 3.27412 5.92485
# Velocity P-wave (km/s) = 10.66941 7.11057 9.06633
#
# Compressibility (1/GPa) = 0.01937161
#
# Stress axis : x y z
#
# Youngs Moduli (GPa) = 58.16575 46.17660 44.55289
#
# Poissons Ratio (x) = 0.18010 0.42346
# Poissons Ratio (y) = 0.22686 0.33665
# Poissons Ratio (z) = 0.55284 0.34891
#
# Static dielectric constant tensor:
#      x y z
#    x 2.999960 0.000000 0.000000 
#    y 0.000000 2.890720 0.000000 
#    z 0.000000 0.000000 3.004640 
# 
# 
# High freq. dielectric constant tensor:
#      x y z
#    x 1.586750 0.000000 0.000000 
#    y 0.000000 1.540930 0.000000 
#    z 0.000000 0.000000 1.561610 
# 
# From -- ./inp_files/27091.got.cif
#   From: 2010.03.12/outbox.cif.g09.slc.cpg/sg53_14_cif.got.tgz:27091.got - 2010.04.16 14:36:59.
