data_PCOD8218656
_publ_section_title
;
Structure prediction by ZEFSAII (Michael W. Deem and Ramdas Pophale) SiO2 
 PCOD8218656
Probable space group: P M N A
;
_chemical_formula_sum "Si O2"
_cell_formula_units_Z 64
_cell_length_a 8.660641
_cell_length_b 12.563570
_cell_length_c 33.660126
_cell_angle_alpha 90.000000
_cell_angle_beta 90.000000
_cell_angle_gamma 90.000000
_cell_volume 3662.510158
_symmetry_space_group_name_H-M "P M N A"
_symmetry_group_IT_number 53
_symmetry_cell_setting 'orthorhombic'
loop_
_space_group_symop_operation_xyz
x,y,z
1/2-x,-y,1/2+z
x,-y,-z
1/2-x,y,1/2-z
-x,-y,-z
1/2+x,y,1/2-z
-x,y,z
1/2+x,-y,1/2+z
loop_
_atom_site_type_symbol
_atom_site_label
_atom_site_fract_x
_atom_site_fract_y
_atom_site_fract_z
Si Si1 0.177363 0.393579 0.414969
Si Si2 0.681296 0.680579 0.665192
Si Si3 0.678726 0.301671 0.655628
Si Si4 0.681566 0.481797 0.791999
Si Si5 0.322334 0.355694 0.923419
Si Si6 0.825758 0.626087 0.995678
Si Si7 0.180430 0.100448 0.791603
Si Si8 0.817314 0.875506 0.707218
O O1 0.281854 0.347915 0.380050
O O2 0.200598 0.519534 0.416231
O O3 0.232961 0.340781 0.456165
O O4 0.000000 0.363258 0.407313
O O5 0.500000 0.686966 0.671415
O O6 0.747926 0.594117 0.695525
O O7 0.756728 0.794000 0.674377
O O8 0.500000 0.333627 0.659949
O O9 0.781332 0.392840 0.675517
O O10 0.725825 0.291997 0.609643
O O11 0.713840 0.188680 0.675413
O O12 0.750000 0.444758 0.750000
O O13 0.500000 0.495202 0.788504
O O14 0.500000 0.322128 0.920938
O O15 0.257452 0.321587 0.966374
O O16 0.000000 0.669374 0.992798
O O17 0.823997 0.500000 0.000000
O O18 0.250000 0.141223 0.750000
O O19 0.000000 0.078258 0.785684
O O20 0.262370 0.992607 0.805708
O O21 0.750000 0.843866 0.750000
O O22 0.000000 0.871912 0.709334
#
# Coordination Sequence:
#
# PCOD8218656 Si02
#       8
#     8   8   8   8   8   8   8   8
#     4  10  19  32  49  74 105 138 175 214 256 308
#     4  12  23  36  54  76 105 138 174 215 261 311
#     4  11  22  35  53  77 106 139 175 216 260 311
#     4  12  24  37  51  72 103 139 176 212 256 313
#     4  10  19  31  49  73 105 140 175 216 256 307
#     4   9  17  29  47  70 100 138 176 212 254 306
#     4  10  21  37  56  78 102 133 175 221 266 309
#     4  11  22  38  58  78 102 133 174 221 267 311
#
# _framework density 17.474354000000002
#
# number of rings (size 3 to 8) (size 9 to 14) (size 15 to 20)
#    0.000    1.375    1.250    6.750    0.000    5.500 
#    0.000    0.000    0.000    0.000    0.000    0.875 
#    0.000    7.000    0.000    0.000    0.000    0.000 
#
# Total GULP energy -793937.404741 kJ/mol
# GULP energy per Si atom -12405.271949 kJ/mol
# Density = 1.743458 g / cm^3
# Si number density = 17.474354 Si / 1000 Ang^3
#
#
#
# Elastic Constant Matrix: (Units=GPa)
#
#
# Indices 1 2 3 4 5 6 
#
# 1 133.5894 39.8740 30.7983 0.0000 0.0000 0.0000
# 2 39.8740 52.5473 21.6341 0.0000 0.0000 0.0000
# 3 30.7983 21.6341 81.7844 0.0000 0.0000 0.0000
# 4 0.0000 0.0000 0.0000 16.5930 0.0000 0.0000
# 5 0.0000 0.0000 0.0000 0.0000 35.6715 0.0000
# 6 0.0000 0.0000 0.0000 0.0000 0.0000 16.9927
#
#
#
# Elastic Compliance Matrix: (Units=1/GPa)
#
#
# Indices 1 2 3 4 5 6 
#
# 1 0.009951 -0.006742 -0.001964 0.000000 0.000000 0.000000
# 2 -0.006742 0.025925 -0.004319 0.000000 0.000000 0.000000
# 3 -0.001964 -0.004319 0.014109 0.000000 0.000000 0.000000
# 4 0.000000 0.000000 0.000000 0.060266 0.000000 0.000000
# 5 0.000000 0.000000 0.000000 0.000000 0.028034 0.000000
# 6 0.000000 0.000000 0.000000 0.000000 0.000000 0.058849
#
#
# Mechanical properties :
#
#
# Convention : Reuss Voigt Hill
#
# Bulk Modulus (GPa) = 41.77968 50.28153 46.03060
# Shear Modulus (GPa) = 21.62987 25.55908 23.59448
#
# Velocity S-wave (km/s) = 3.52206 3.82863 3.67854
# Velocity P-wave (km/s) = 6.36404 6.95568 6.66642
#
# Compressibility (1/GPa) = 0.02393508
#
# Stress axis : x y z
#
# Youngs Moduli (GPa) = 100.49408 38.57310 70.87582
#
# Poissons Ratio (x) = 0.26008 0.13918
# Poissons Ratio (y) = 0.67757 0.30609
# Poissons Ratio (z) = 0.19734 0.16659
#
# Static dielectric constant tensor:
#      x y z
#    x 3.438140 0.000000 0.000000 
#    y 0.000000 2.996420 0.000000 
#    z 0.000000 0.000000 3.345310 
# 
# 
# High freq. dielectric constant tensor:
#      x y z
#    x 1.699170 0.000000 0.000000 
#    y 0.000000 1.635290 0.000000 
#    z 0.000000 0.000000 1.680860 
# 
# From -- ./inp_files/38193.got.cif
#   From: 2010.03.12/outbox.cif.g09.slc.cpg/sg53_20_cif.got.tgz:38193.got - 2010.04.16 14:36:59.
