data_PCOD8218759
_publ_section_title
;
Structure prediction by ZEFSAII (Michael W. Deem and Ramdas Pophale) SiO2 
 PCOD8218759
Probable space group: P M N A
;
_chemical_formula_sum "Si O2"
_cell_formula_units_Z 48
_cell_length_a 9.320302
_cell_length_b 20.619707
_cell_length_c 14.064797
_cell_angle_alpha 90.000000
_cell_angle_beta 90.000000
_cell_angle_gamma 90.000000
_cell_volume 2702.999360
_symmetry_space_group_name_H-M "P M N A"
_symmetry_group_IT_number 53
_symmetry_cell_setting 'orthorhombic'
loop_
_space_group_symop_operation_xyz
x,y,z
1/2-x,-y,1/2+z
x,-y,-z
1/2-x,y,1/2-z
-x,-y,-z
1/2+x,y,1/2-z
-x,y,z
1/2+x,-y,1/2+z
loop_
_atom_site_type_symbol
_atom_site_label
_atom_site_fract_x
_atom_site_fract_y
_atom_site_fract_z
Si Si1 0.832492 0.534317 0.342259
Si Si2 0.832346 0.613348 0.657534
Si Si3 0.169313 0.654779 0.459601
Si Si4 0.831066 0.906493 0.458697
Si Si5 0.170459 0.032171 0.348245
Si Si6 0.171288 0.779497 0.349327
O O1 0.750000 0.557779 0.250000
O O2 0.791737 0.460803 0.369311
O O3 0.781790 0.584041 0.423380
O O4 0.000000 0.540731 0.321859
O O5 0.750000 0.638173 0.750000
O O6 0.782653 0.658680 0.569869
O O7 0.000000 0.619420 0.678377
O O8 0.232095 0.713611 0.397439
O O9 0.000000 0.660242 0.454690
O O10 0.781218 0.917275 0.568272
O O11 0.780591 0.836888 0.420287
O O12 0.000000 0.912674 0.459220
O O13 0.776119 0.961851 0.385880
O O14 0.250000 0.049728 0.250000
O O15 0.000000 0.034540 0.329836
O O16 0.250000 0.789381 0.250000
O O17 0.000000 0.778632 0.333257
#
# Coordination Sequence:
#
# PCOD8218759 Si02
#       6
#     8   8   8   8   8   8
#     4   9  16  27  44  65  87 111 141 178 218 259
#     4   9  17  30  46  63  84 112 146 181 217 258
#     4   9  17  29  46  65  86 115 147 176 213 264
#     4   8  16  30  47  66  92 124 150 175 217 269
#     4   9  16  29  48  69  92 119 151 184 218 256
#     4  10  19  32  49  68  90 117 147 178 216 262
#
# _framework density 17.758050000000001
#
# number of rings (size 3 to 8) (size 9 to 14) (size 15 to 20)
#    0.000    3.000    0.000    2.500    0.000    2.000 
#    0.000    5.000    0.000    4.000    0.000    0.000 
#    0.000    0.000    0.000    0.000    0.000    0.000 
#
# Total GULP energy -594826.298294 kJ/mol
# GULP energy per Si atom -12392.214548 kJ/mol
# Density = 1.771763 g / cm^3
# Si number density = 17.758050 Si / 1000 Ang^3
#
#
#
# Elastic Constant Matrix: (Units=GPa)
#
#
# Indices 1 2 3 4 5 6 
#
# 1 25.4670 18.2381 37.1711 0.0000 0.0000 0.0000
# 2 18.2381 63.3055 53.8725 0.0000 0.0000 0.0000
# 3 37.1711 53.8725 158.2221 0.0000 0.0000 0.0000
# 4 0.0000 0.0000 0.0000 25.0948 0.0000 0.0000
# 5 0.0000 0.0000 0.0000 0.0000 31.7997 0.0000
# 6 0.0000 0.0000 0.0000 0.0000 0.0000 13.2055
#
#
#
# Elastic Compliance Matrix: (Units=1/GPa)
#
#
# Indices 1 2 3 4 5 6 
#
# 1 0.062338 -0.007739 -0.012010 0.000000 0.000000 0.000000
# 2 -0.007739 0.023201 -0.006082 0.000000 0.000000 0.000000
# 3 -0.012010 -0.006082 0.011212 0.000000 0.000000 0.000000
# 4 0.000000 0.000000 0.000000 0.039849 0.000000 0.000000
# 5 0.000000 0.000000 0.000000 0.000000 0.031447 0.000000
# 6 0.000000 0.000000 0.000000 0.000000 0.000000 0.075726
#
#
# Mechanical properties :
#
#
# Convention : Reuss Voigt Hill
#
# Bulk Modulus (GPa) = 22.17747 51.72868 36.95307
# Shear Modulus (GPa) = 16.10484 23.20087 19.65285
#
# Velocity S-wave (km/s) = 3.01475 3.61847 3.33032
# Velocity P-wave (km/s) = 4.96327 6.83014 5.97013
#
# Compressibility (1/GPa) = 0.04509080
#
# Stress axis : x y z
#
# Youngs Moduli (GPa) = 16.04150 43.10082 89.18618
#
# Poissons Ratio (x) = 0.33355 1.07114
# Poissons Ratio (y) = 0.12414 0.54240
# Poissons Ratio (z) = 0.19266 0.26213
#
# Static dielectric constant tensor:
#      x y z
#    x 2.921560 0.000000 0.000000 
#    y 0.000000 3.522690 0.000000 
#    z 0.000000 0.000000 3.161090 
# 
# 
# High freq. dielectric constant tensor:
#      x y z
#    x 1.644740 0.000000 0.000000 
#    y 0.000000 1.676320 0.000000 
#    z 0.000000 0.000000 1.698660 
# 
# From -- ./inp_files/14954.got.cif
#   From: 2010.03.12/outbox.cif.g09.slc.cpg/sg53_8_cif.got.tgz:14954.got - 2010.04.16 14:36:59.
