data_PCOD8218085
_publ_section_title
;
Structure prediction by ZEFSAII (Michael W. Deem and Ramdas Pophale) SiO2 
 PCOD8218085
Probable space group: P M N A
;
_chemical_formula_sum "Si O2"
_cell_formula_units_Z 64
_cell_length_a 15.463886
_cell_length_b 23.876981
_cell_length_c 9.413935
_cell_angle_alpha 90.000000
_cell_angle_beta 90.000000
_cell_angle_gamma 90.000000
_cell_volume 3475.915808
_symmetry_space_group_name_H-M "P M N A"
_symmetry_group_IT_number 53
_symmetry_cell_setting 'orthorhombic'
loop_
_space_group_symop_operation_xyz
x,y,z
1/2-x,-y,1/2+z
x,-y,-z
1/2-x,y,1/2-z
-x,-y,-z
1/2+x,y,1/2-z
-x,y,z
1/2+x,-y,1/2+z
loop_
_atom_site_type_symbol
_atom_site_label
_atom_site_fract_x
_atom_site_fract_y
_atom_site_fract_z
Si Si1 0.851115 0.758465 0.914424
Si Si2 0.903567 0.862762 0.088123
Si Si3 0.148886 0.241536 0.414426
Si Si4 0.403567 0.862761 0.088125
Si Si5 0.250000 0.558024 0.580580
Si Si6 0.903529 0.362885 0.418195
Si Si7 0.250000 0.057531 0.917452
Si Si8 0.096471 0.637115 0.918194
O O1 0.876825 0.763351 0.749999
O O2 0.750001 0.765961 0.938224
O O3 0.880561 0.698596 0.977770
O O4 0.900908 0.806502 0.997341
O O5 0.881341 0.846732 0.249999
O O6 0.834929 0.908378 0.033447
O O7 0.000000 0.888454 0.074706
O O8 0.099092 0.193499 0.497345
O O9 0.119440 0.301405 0.477772
O O10 0.500000 0.888454 0.074708
O O11 0.334929 0.908377 0.033449
O O12 0.250001 0.500000 0.500000
O O13 0.250000 0.548740 0.750000
O O14 0.165268 0.591609 0.527388
O O15 0.334731 0.591610 0.527389
O O16 0.896471 0.359822 0.250001
O O17 0.000000 0.380438 0.467924
O O18 0.250000 0.045377 0.750000
O O19 0.250001 0.000000 0.000000
O O20 0.000000 0.619562 0.967923
#
# Coordination Sequence:
#
# PCOD8218085 Si02
#       8
#     8   8   8   8   8   8   8   8
#     4  10  18  31  55  84 109 135 171 213 258 311
#     4  10  21  37  56  79 109 143 173 207 261 318
#     4  10  18  31  55  84 109 135 171 213 258 311
#     4  10  21  37  56  79 109 143 173 207 261 318
#     4  10  20  35  52  72  98 133 175 214 255 302
#     4   9  17  31  52  76 103 134 167 208 257 305
#     4  10  22  39  56  76 104 139 179 220 257 302
#     4   9  17  31  52  76 103 134 167 208 257 305
#
# _framework density 18.412413999999998
#
# number of rings (size 3 to 8) (size 9 to 14) (size 15 to 20)
#    0.000    2.250    2.500    0.750    0.000    3.500 
#    0.000    1.250    0.000    1.500    0.000    0.000 
#    0.000    0.000    0.000    0.000    0.000    0.000 
#
# Total GULP energy -793601.525116 kJ/mol
# GULP energy per Si atom -12400.023830 kJ/mol
# Density = 1.837051 g / cm^3
# Si number density = 18.412414 Si / 1000 Ang^3
#
#
#
# Elastic Constant Matrix: (Units=GPa)
#
#
# Indices 1 2 3 4 5 6 
#
# 1 145.2838 78.3375 32.8138 0.0000 0.0000 0.0000
# 2 78.3375 155.8616 43.0088 0.0000 0.0000 0.0000
# 3 32.8138 43.0088 35.3987 0.0000 0.0000 0.0000
# 4 0.0000 0.0000 0.0000 32.7352 0.0000 0.0000
# 5 0.0000 0.0000 0.0000 0.0000 15.0479 0.0000
# 6 0.0000 0.0000 0.0000 0.0000 0.0000 16.9777
#
#
#
# Elastic Compliance Matrix: (Units=1/GPa)
#
#
# Indices 1 2 3 4 5 6 
#
# 1 0.009942 -0.003692 -0.004731 0.000000 0.000000 0.000000
# 2 -0.003692 0.011023 -0.009970 0.000000 0.000000 0.000000
# 3 -0.004731 -0.009970 0.044749 0.000000 0.000000 0.000000
# 4 0.000000 0.000000 0.000000 0.030548 0.000000 0.000000
# 5 0.000000 0.000000 0.000000 0.000000 0.066455 0.000000
# 6 0.000000 0.000000 0.000000 0.000000 0.000000 0.058901
#
#
# Mechanical properties :
#
#
# Convention : Reuss Voigt Hill
#
# Bulk Modulus (GPa) = 34.56866 71.65160 53.11013
# Shear Modulus (GPa) = 18.65360 25.11111 21.88235
#
# Velocity S-wave (km/s) = 3.18637 3.69699 3.45114
# Velocity P-wave (km/s) = 5.68794 7.56459 6.69237
#
# Compressibility (1/GPa) = 0.02892794
#
# Stress axis : x y z
#
# Youngs Moduli (GPa) = 100.58254 90.72314 22.34699
#
# Poissons Ratio (x) = 0.33491 0.10572
# Poissons Ratio (y) = 0.37130 0.22281
# Poissons Ratio (z) = 0.47585 0.90453
#
# Static dielectric constant tensor:
#      x y z
#    x 3.728640 0.000000 0.000000 
#    y 0.000000 3.301140 0.000000 
#    z 0.000000 0.000000 3.052720 
# 
# 
# High freq. dielectric constant tensor:
#      x y z
#    x 1.736410 0.000000 0.000000 
#    y 0.000000 1.708720 0.000000 
#    z 0.000000 0.000000 1.677030 
# 
# From -- ./inp_files/8964.got.cif
#   From: 2010.03.12/outbox.cif.g09.slc.cpg/sg53_5_cif.got.tgz:8964.got - 2010.04.16 14:36:59.
