data_PCOD8218906
_publ_section_title
;
Structure prediction by ZEFSAII (Michael W. Deem and Ramdas Pophale) SiO2 
 PCOD8218906
Probable space group: P M N A
;
_chemical_formula_sum "Si O2"
_cell_formula_units_Z 64
_cell_length_a 9.237793
_cell_length_b 20.701391
_cell_length_c 18.505401
_cell_angle_alpha 90.000000
_cell_angle_beta 90.000000
_cell_angle_gamma 90.000000
_cell_volume 3538.883411
_symmetry_space_group_name_H-M "P M N A"
_symmetry_group_IT_number 53
_symmetry_cell_setting 'orthorhombic'
loop_
_space_group_symop_operation_xyz
x,y,z
1/2-x,-y,1/2+z
x,-y,-z
1/2-x,y,1/2-z
-x,-y,-z
1/2+x,y,1/2-z
-x,y,z
1/2+x,-y,1/2+z
loop_
_atom_site_type_symbol
_atom_site_label
_atom_site_fract_x
_atom_site_fract_y
_atom_site_fract_z
Si Si1 0.834417 0.505525 0.915964
Si Si2 0.167867 0.936574 0.456756
Si Si3 0.168618 0.600632 0.678876
Si Si4 0.168918 0.618571 0.176571
Si Si5 0.667751 0.249491 0.179371
Si Si6 0.667905 0.802121 0.972245
Si Si7 0.668761 0.749735 0.396501
Si Si8 0.329639 0.115571 0.675693
O O1 0.729513 0.561742 0.888844
O O2 0.794746 0.437342 0.880131
O O3 0.000000 0.524770 0.899155
O O4 0.805366 0.500000 0.000000
O O5 0.198332 0.876556 0.509588
O O6 0.265745 0.931807 0.385349
O O7 0.000000 0.939162 0.433250
O O8 0.214995 0.000000 0.500000
O O9 0.250000 0.575174 0.750000
O O10 0.201755 0.675563 0.665473
O O11 0.000000 0.586482 0.688623
O O12 0.250000 0.602296 0.250000
O O13 0.226139 0.686095 0.143890
O O14 0.000000 0.623477 0.193864
O O15 0.750000 0.223383 0.250000
O O16 0.500000 0.237193 0.193742
O O17 0.722929 0.210450 0.109232
O O18 0.500000 0.783969 0.978762
O O19 0.751238 0.755409 0.027102
O O20 0.500000 0.744736 0.413972
O O21 0.704558 0.810615 0.345613
O O22 0.250000 0.099289 0.750000
O O23 0.500000 0.102877 0.683887
#
# Coordination Sequence:
#
# PCOD8218906 Si02
#       8
#     8   8   8   8   8   8   8   8
#     4  10  22  37  52  73 101 134 170 210 256 305
#     4   9  18  34  55  77 105 142 176 208 254 305
#     4  10  20  35  54  74  97 128 168 211 257 308
#     4  10  21  36  52  73 101 132 167 206 253 305
#     4   9  19  34  52  76 102 130 167 212 259 305
#     4   9  18  33  53  77 105 134 168 210 252 300
#     4   9  19  33  51  77 104 132 168 209 254 305
#     4  10  19  32  52  78 107 137 174 215 254 301
#
# _framework density 18.084800999999999
#
# number of rings (size 3 to 8) (size 9 to 14) (size 15 to 20)
#    0.000    2.500    0.000    1.500    1.750    4.000 
#    0.000    0.625    0.000    1.500    0.000    0.000 
#    0.000    0.000    0.000    0.000    0.000    0.000 
#
# Total GULP energy -793844.920214 kJ/mol
# GULP energy per Si atom -12403.826878 kJ/mol
# Density = 1.804364 g / cm^3
# Si number density = 18.084801 Si / 1000 Ang^3
#
#
#
# Elastic Constant Matrix: (Units=GPa)
#
#
# Indices 1 2 3 4 5 6 
#
# 1 72.3799 40.3937 69.1417 0.0000 0.0000 0.0000
# 2 40.3937 78.7291 68.0685 0.0000 0.0000 0.0000
# 3 69.1417 68.0685 162.0777 0.0000 0.0000 0.0000
# 4 0.0000 0.0000 0.0000 27.5044 0.0000 0.0000
# 5 0.0000 0.0000 0.0000 0.0000 36.4998 0.0000
# 6 0.0000 0.0000 0.0000 0.0000 0.0000 22.4116
#
#
#
# Elastic Compliance Matrix: (Units=1/GPa)
#
#
# Indices 1 2 3 4 5 6 
#
# 1 0.024806 -0.005618 -0.008223 0.000000 0.000000 0.000000
# 2 -0.005618 0.021216 -0.006513 0.000000 0.000000 0.000000
# 3 -0.008223 -0.006513 0.012413 0.000000 0.000000 0.000000
# 4 0.000000 0.000000 0.000000 0.036358 0.000000 0.000000
# 5 0.000000 0.000000 0.000000 0.000000 0.027397 0.000000
# 6 0.000000 0.000000 0.000000 0.000000 0.000000 0.044620
#
#
# Mechanical properties :
#
#
# Convention : Reuss Voigt Hill
#
# Bulk Modulus (GPa) = 56.41250 74.26606 65.33928
# Shear Modulus (GPa) = 23.42719 26.32204 24.87461
#
# Velocity S-wave (km/s) = 3.60308 3.81921 3.71272
# Velocity P-wave (km/s) = 6.96926 7.78480 7.38829
#
# Compressibility (1/GPa) = 0.01772657
#
# Stress axis : x y z
#
# Youngs Moduli (GPa) = 40.31247 47.13498 80.55960
#
# Poissons Ratio (x) = 0.26481 0.66243
# Poissons Ratio (y) = 0.22648 0.52472
# Poissons Ratio (z) = 0.33148 0.30701
#
# Static dielectric constant tensor:
#      x y z
#    x 3.313620 0.000000 0.000000 
#    y 0.000000 3.292930 0.000000 
#    z 0.000000 0.000000 3.283790 
# 
# 
# High freq. dielectric constant tensor:
#      x y z
#    x 1.698550 0.000000 0.000000 
#    y 0.000000 1.691460 0.000000 
#    z 0.000000 0.000000 1.706630 
# 
# From -- ./inp_files/26798.got.cif
#   From: 2010.03.12/outbox.cif.g09.slc.cpg/sg53_14_cif.got.tgz:26798.got - 2010.04.16 14:36:59.
