data_PCOD8218624
_publ_section_title
;
Structure prediction by ZEFSAII (Michael W. Deem and Ramdas Pophale) SiO2 
 PCOD8218624
Probable space group: P M N A
;
_chemical_formula_sum "Si O2"
_cell_formula_units_Z 48
_cell_length_a 9.125784
_cell_length_b 13.728543
_cell_length_c 20.960073
_cell_angle_alpha 90.000000
_cell_angle_beta 90.000000
_cell_angle_gamma 90.000000
_cell_volume 2625.955876
_symmetry_space_group_name_H-M "P M N A"
_symmetry_group_IT_number 53
_symmetry_cell_setting 'orthorhombic'
loop_
_space_group_symop_operation_xyz
x,y,z
1/2-x,-y,1/2+z
x,-y,-z
1/2-x,y,1/2-z
-x,-y,-z
1/2+x,y,1/2-z
-x,y,z
1/2+x,-y,1/2+z
loop_
_atom_site_type_symbol
_atom_site_label
_atom_site_fract_x
_atom_site_fract_y
_atom_site_fract_z
Si Si1 0.828705 0.284324 0.812628
Si Si2 0.673218 0.414747 0.450856
Si Si3 0.837689 0.857137 0.398292
Si Si4 0.834730 0.036611 0.072464
Si Si5 0.663019 0.215374 0.038994
Si Si6 0.669982 0.510028 0.687014
O O1 0.750000 0.242630 0.750000
O O2 0.762273 0.229528 0.872574
O O3 0.791639 0.397176 0.821748
O O4 0.000000 0.264132 0.808079
O O5 0.719912 0.500000 0.500000
O O6 0.500000 0.396989 0.455767
O O7 0.757078 0.317855 0.470906
O O8 0.721365 0.438829 0.378289
O O9 0.854515 0.839120 0.472619
O O10 0.000000 0.858912 0.366705
O O11 0.757879 0.960036 0.385373
O O12 0.760399 0.142738 0.082202
O O13 0.000000 0.043262 0.099201
O O14 0.838005 0.000000 0.000000
O O15 0.500000 0.230909 0.068519
O O16 0.750000 0.552881 0.750000
O O17 0.500000 0.527005 0.698844
#
# Coordination Sequence:
#
# PCOD8218624 Si02
#       6
#     8   8   8   8   8   8
#     4  10  19  32  50  72  98 129 166 205 248 297
#     4  10  20  34  52  75 103 134 171 214 257 302
#     4  10  19  31  48  72 102 131 161 200 247 298
#     4   9  17  30  49  71  95 127 163 196 238 296
#     4  10  20  32  48  73 103 132 163 204 252 298
#     4   9  19  34  52  73  99 134 172 210 251 300
#
# _framework density 18.279057999999999
#
# number of rings (size 3 to 8) (size 9 to 14) (size 15 to 20)
#    0.000    2.333    0.000    3.000    0.000    7.000 
#    0.000    0.000    0.000    1.000    0.000    4.667 
#    0.000    0.000    0.000    0.000    0.000    0.000 
#
# Total GULP energy -595113.112131 kJ/mol
# GULP energy per Si atom -12398.189836 kJ/mol
# Density = 1.823745 g / cm^3
# Si number density = 18.279058 Si / 1000 Ang^3
#
#
#
# Elastic Constant Matrix: (Units=GPa)
#
#
# Indices 1 2 3 4 5 6 
#
# 1 112.1038 58.9827 18.4547 0.0000 0.0000 0.0000
# 2 58.9827 99.8199 16.8070 0.0000 0.0000 0.0000
# 3 18.4547 16.8070 48.2628 0.0000 0.0000 0.0000
# 4 0.0000 0.0000 0.0000 15.8498 0.0000 0.0000
# 5 0.0000 0.0000 0.0000 0.0000 27.4100 0.0000
# 6 0.0000 0.0000 0.0000 0.0000 0.0000 29.4856
#
#
#
# Elastic Compliance Matrix: (Units=1/GPa)
#
#
# Indices 1 2 3 4 5 6 
#
# 1 0.013218 -0.007393 -0.002480 0.000000 0.000000 0.000000
# 2 -0.007393 0.014777 -0.002319 0.000000 0.000000 0.000000
# 3 -0.002480 -0.002319 0.022476 0.000000 0.000000 0.000000
# 4 0.000000 0.000000 0.000000 0.063092 0.000000 0.000000
# 5 0.000000 0.000000 0.000000 0.000000 0.036483 0.000000
# 6 0.000000 0.000000 0.000000 0.000000 0.000000 0.033915
#
#
# Mechanical properties :
#
#
# Convention : Reuss Voigt Hill
#
# Bulk Modulus (GPa) = 38.33294 49.85282 44.09288
# Shear Modulus (GPa) = 23.03713 25.61188 24.32451
#
# Velocity S-wave (km/s) = 3.55392 3.74727 3.65188
# Velocity P-wave (km/s) = 6.15280 6.78639 6.47735
#
# Compressibility (1/GPa) = 0.02608723
#
# Stress axis : x y z
#
# Youngs Moduli (GPa) = 75.65239 67.67281 44.49250
#
# Poissons Ratio (x) = 0.50031 0.11034
# Poissons Ratio (y) = 0.55930 0.10318
# Poissons Ratio (z) = 0.18761 0.15693
#
# Static dielectric constant tensor:
#      x y z
#    x 3.618720 0.000000 0.000000 
#    y 0.000000 3.278530 0.000000 
#    z 0.000000 0.000000 3.206820 
# 
# 
# High freq. dielectric constant tensor:
#      x y z
#    x 1.723310 0.000000 0.000000 
#    y 0.000000 1.702840 0.000000 
#    z 0.000000 0.000000 1.671900 
# 
# From -- ./inp_files/33854.got.cif
#   From: 2010.03.12/outbox.cif.g09.slc.cpg/sg53_17_cif.got.tgz:33854.got - 2010.04.16 14:36:59.
