data_PCOD8218899
_publ_section_title
;
Structure prediction by ZEFSAII (Michael W. Deem and Ramdas Pophale) SiO2 
 PCOD8218899
Probable space group: P M N A
;
_chemical_formula_sum "Si O2"
_cell_formula_units_Z 64
_cell_length_a 9.057022
_cell_length_b 14.754798
_cell_length_c 23.655147
_cell_angle_alpha 90.000000
_cell_angle_beta 90.000000
_cell_angle_gamma 90.000000
_cell_volume 3161.144454
_symmetry_space_group_name_H-M "P M N A"
_symmetry_group_IT_number 53
_symmetry_cell_setting 'orthorhombic'
loop_
_space_group_symop_operation_xyz
x,y,z
1/2-x,-y,1/2+z
x,-y,-z
1/2-x,y,1/2-z
-x,-y,-z
1/2+x,y,1/2-z
-x,y,z
1/2+x,-y,1/2+z
loop_
_atom_site_type_symbol
_atom_site_label
_atom_site_fract_x
_atom_site_fract_y
_atom_site_fract_z
Si Si1 0.170462 0.815075 0.384768
Si Si2 0.672890 0.857497 0.896356
Si Si3 0.329977 0.538189 0.847789
Si Si4 0.324292 0.221178 0.501255
Si Si5 0.673281 0.015204 0.810579
Si Si6 0.334413 0.725397 0.802391
Si Si7 0.827153 0.593463 0.532200
Si Si8 0.329241 0.350094 0.805769
O O1 0.273435 0.822178 0.439475
O O2 0.217531 0.888752 0.337917
O O3 0.195332 0.717052 0.357569
O O4 0.000000 0.829544 0.402772
O O5 0.500000 0.865004 0.911917
O O6 0.766233 0.849256 0.953734
O O7 0.712966 0.765521 0.862613
O O8 0.723967 0.940322 0.856566
O O9 0.500000 0.515661 0.861284
O O10 0.312159 0.617271 0.801735
O O11 0.259308 0.574175 0.905884
O O12 0.256409 0.446518 0.824022
O O13 0.500000 0.226448 0.498799
O O14 0.258012 0.322312 0.495623
O O15 0.750000 0.001927 0.750000
O O16 0.500000 0.007698 0.799342
O O17 0.250000 0.769736 0.750000
O O18 0.500000 0.755444 0.791236
O O19 0.800335 0.500000 0.500000
O O20 0.000000 0.620683 0.533640
O O21 0.250000 0.312726 0.750000
O O22 0.500000 0.360992 0.790291
#
# Coordination Sequence:
#
# PCOD8218899 Si02
#       8
#     8   8   8   8   8   8   8   8
#     4  10  22  41  62  85 117 160 204 245 299 370
#     4  10  21  40  62  84 117 159 198 240 294 364
#     4   9  17  31  51  79 110 148 193 231 280 345
#     4  12  25  39  59  90 124 157 199 255 310 353
#     4  10  22  40  66  95 121 155 200 251 307 365
#     4  10  19  32  52  77 110 146 185 232 282 342
#     4  10  19  36  62  84 113 162 209 246 290 357
#     4  10  20  35  57  84 116 153 196 242 291 351
#
# _framework density 20.245832
#
# number of rings (size 3 to 8) (size 9 to 14) (size 15 to 20)
#    0.000    1.875    1.250    3.000    0.000    4.750 
#    0.000    3.125    0.000    0.000    0.000    0.000 
#    0.000    0.000    0.000    0.000    0.000    0.000 
#
# Total GULP energy -793476.578856 kJ/mol
# GULP energy per Si atom -12398.071545 kJ/mol
# Density = 2.019975 g / cm^3
# Si number density = 20.245832 Si / 1000 Ang^3
#
#
#
# Elastic Constant Matrix: (Units=GPa)
#
#
# Indices 1 2 3 4 5 6 
#
# 1 75.4329 33.4699 57.5595 0.0000 0.0000 0.0000
# 2 33.4699 98.5343 31.0781 0.0000 0.0000 0.0000
# 3 57.5595 31.0781 127.4544 0.0000 0.0000 0.0000
# 4 0.0000 0.0000 0.0000 12.1266 0.0000 0.0000
# 5 0.0000 0.0000 0.0000 0.0000 35.4198 0.0000
# 6 0.0000 0.0000 0.0000 0.0000 0.0000 19.4009
#
#
#
# Elastic Compliance Matrix: (Units=1/GPa)
#
#
# Indices 1 2 3 4 5 6 
#
# 1 0.022082 -0.004718 -0.008822 0.000000 0.000000 0.000000
# 2 -0.004718 0.012002 -0.000796 0.000000 0.000000 0.000000
# 3 -0.008822 -0.000796 0.012024 0.000000 0.000000 0.000000
# 4 0.000000 0.000000 0.000000 0.082464 0.000000 0.000000
# 5 0.000000 0.000000 0.000000 0.000000 0.028233 0.000000
# 6 0.000000 0.000000 0.000000 0.000000 0.000000 0.051544
#
#
# Mechanical properties :
#
#
# Convention : Reuss Voigt Hill
#
# Bulk Modulus (GPa) = 57.35123 60.62628 58.98876
# Shear Modulus (GPa) = 20.59029 25.34373 22.96701
#
# Velocity S-wave (km/s) = 3.19253 3.54192 3.37175
# Velocity P-wave (km/s) = 6.47909 6.83644 6.66016
#
# Compressibility (1/GPa) = 0.01743642
#
# Stress axis : x y z
#
# Youngs Moduli (GPa) = 45.28597 83.31638 83.16675
#
# Poissons Ratio (x) = 0.39311 0.73369
# Poissons Ratio (y) = 0.21367 0.06619
# Poissons Ratio (z) = 0.39951 0.06631
#
# Static dielectric constant tensor:
#      x y z
#    x 3.356560 0.000000 0.000000 
#    y 0.000000 3.793080 0.000000 
#    z 0.000000 0.000000 3.772740 
# 
# 
# High freq. dielectric constant tensor:
#      x y z
#    x 1.754400 0.000000 0.000000 
#    y 0.000000 1.800370 0.000000 
#    z 0.000000 0.000000 1.802070 
# 
# From -- ./inp_files/34282.got.cif
#   From: 2010.03.12/outbox.cif.g09.slc.cpg/sg53_18_cif.got.tgz:34282.got - 2010.04.16 14:36:59.
