data_PCOD8218083
_publ_section_title
;
Structure prediction by ZEFSAII (Michael W. Deem and Ramdas Pophale) SiO2 
 PCOD8218083
Probable space group: P M N A
;
_chemical_formula_sum "Si O2"
_cell_formula_units_Z 48
_cell_length_a 19.369477
_cell_length_b 9.389458
_cell_length_c 14.662218
_cell_angle_alpha 90.000000
_cell_angle_beta 90.000000
_cell_angle_gamma 90.000000
_cell_volume 2666.601324
_symmetry_space_group_name_H-M "P M N A"
_symmetry_group_IT_number 53
_symmetry_cell_setting 'orthorhombic'
loop_
_space_group_symop_operation_xyz
x,y,z
1/2-x,-y,1/2+z
x,-y,-z
1/2-x,y,1/2-z
-x,-y,-z
1/2+x,y,1/2-z
-x,y,z
1/2+x,-y,1/2+z
loop_
_atom_site_type_symbol
_atom_site_label
_atom_site_fract_x
_atom_site_fract_y
_atom_site_fract_z
Si Si1 0.723335 0.840476 0.148323
Si Si2 0.074975 0.937128 0.788051
Si Si3 0.422577 0.137142 0.557820
Si Si4 0.717293 0.147304 0.345786
Si Si5 0.801205 0.333003 0.989846
Si Si6 0.577842 0.936002 0.099918
O O1 0.750000 0.816396 0.250000
O O2 0.640391 0.832759 0.130991
O O3 0.754818 0.994110 0.117830
O O4 0.751466 0.707645 0.092625
O O5 0.135043 0.841948 0.829713
O O6 0.000000 0.873323 0.816343
O O7 0.082630 0.095062 0.834476
O O8 0.079777 0.942648 0.678188
O O9 0.500000 0.179051 0.530382
O O10 0.376441 0.271597 0.532682
O O11 0.397048 0.000000 0.500000
O O12 0.750000 0.189469 0.250000
O O13 0.734032 0.266340 0.420100
O O14 0.806934 0.500000 0.000000
O O15 0.500000 0.865721 0.100438
O O16 0.593103 0.000000 0.000000
#
# Coordination Sequence:
#
# PCOD8218083 Si02
#       6
#     8   8   8   8   8   8
#     4  11  20  37  60  81 108 147 189 241 288 335
#     4  10  18  31  54  85 111 136 175 227 287 331
#     4  10  18  33  57  81 109 145 186 231 273 330
#     4  11  20  35  56  82 105 144 186 236 278 325
#     4  12  24  35  52  80 118 153 186 227 280 354
#     4  10  19  31  53  87 115 134 174 241 294 330
#
# _framework density 18.000440000000001
#
# number of rings (size 3 to 8) (size 9 to 14) (size 15 to 20)
#    0.000    1.333    6.667    1.500    0.000    1.000 
#    0.000    0.000    0.000    0.500    0.000    2.333 
#    0.000    0.000    0.000    0.000    0.000    0.000 
#
# Total GULP energy -594640.976337 kJ/mol
# GULP energy per Si atom -12388.353674 kJ/mol
# Density = 1.795947 g / cm^3
# Si number density = 18.000440 Si / 1000 Ang^3
#
#
#
# Elastic Constant Matrix: (Units=GPa)
#
#
# Indices 1 2 3 4 5 6 
#
# 1 145.8350 40.2480 38.8854 0.0000 0.0000 0.0000
# 2 40.2480 94.2880 45.1868 0.0000 0.0000 0.0000
# 3 38.8854 45.1868 117.9896 0.0000 0.0000 0.0000
# 4 0.0000 0.0000 0.0000 13.4549 0.0000 0.0000
# 5 0.0000 0.0000 0.0000 0.0000 26.4126 0.0000
# 6 0.0000 0.0000 0.0000 0.0000 0.0000 15.3511
#
#
#
# Elastic Compliance Matrix: (Units=1/GPa)
#
#
# Indices 1 2 3 4 5 6 
#
# 1 0.008021 -0.002642 -0.001632 0.000000 0.000000 0.000000
# 2 -0.002642 0.013860 -0.004437 0.000000 0.000000 0.000000
# 3 -0.001632 -0.004437 0.010712 0.000000 0.000000 0.000000
# 4 0.000000 0.000000 0.000000 0.074322 0.000000 0.000000
# 5 0.000000 0.000000 0.000000 0.000000 0.037861 0.000000
# 6 0.000000 0.000000 0.000000 0.000000 0.000000 0.065142
#
#
# Mechanical properties :
#
#
# Convention : Reuss Voigt Hill
#
# Bulk Modulus (GPa) = 65.91195 67.41699 66.66447
# Shear Modulus (GPa) = 21.51478 26.62988 24.07233
#
# Velocity S-wave (km/s) = 3.46097 3.85047 3.66090
# Velocity P-wave (km/s) = 7.25723 7.56984 7.41518
#
# Compressibility (1/GPa) = 0.01517176
#
# Stress axis : x y z
#
# Youngs Moduli (GPa) = 124.66816 72.14937 93.34916
#
# Poissons Ratio (x) = 0.19062 0.15232
# Poissons Ratio (y) = 0.32937 0.41422
# Poissons Ratio (z) = 0.20343 0.32015
#
# Static dielectric constant tensor:
#      x y z
#    x 3.774340 0.000000 0.000000 
#    y 0.000000 2.720690 0.000000 
#    z 0.000000 0.000000 3.748130 
# 
# 
# High freq. dielectric constant tensor:
#      x y z
#    x 1.723520 0.000000 0.000000 
#    y 0.000000 1.607910 0.000000 
#    z 0.000000 0.000000 1.725960 
# 
# From -- ./inp_files/29265.got.cif
#   From: 2010.03.12/outbox.cif.g09.slc.cpg/sg53_15_cif.got.tgz:29265.got - 2010.04.16 14:36:59.
