data_PCOD8218192
_publ_section_title
;
Structure prediction by ZEFSAII (Michael W. Deem and Ramdas Pophale) SiO2 
 PCOD8218192
Probable space group: P M N A
;
_chemical_formula_sum "Si O2"
_cell_formula_units_Z 48
_cell_length_a 13.779221
_cell_length_b 9.630576
_cell_length_c 17.321690
_cell_angle_alpha 90.000000
_cell_angle_beta 90.000000
_cell_angle_gamma 90.000000
_cell_volume 2298.620049
_symmetry_space_group_name_H-M "P M N A"
_symmetry_group_IT_number 53
_symmetry_cell_setting 'orthorhombic'
loop_
_space_group_symop_operation_xyz
x,y,z
1/2-x,-y,1/2+z
x,-y,-z
1/2-x,y,1/2-z
-x,-y,-z
1/2+x,y,1/2-z
-x,y,z
1/2+x,-y,1/2+z
loop_
_atom_site_type_symbol
_atom_site_label
_atom_site_fract_x
_atom_site_fract_y
_atom_site_fract_z
Si Si1 0.109276 0.621641 0.602598
Si Si2 0.387475 0.770823 0.419213
Si Si3 0.604155 0.707900 0.722623
Si Si4 0.273775 0.533978 0.335797
Si Si5 0.817642 0.988232 0.817348
Si Si6 0.725624 0.139101 0.038102
O O1 0.112386 0.683574 0.687224
O O2 0.178877 0.484708 0.608673
O O3 0.148400 0.734876 0.540649
O O4 0.000000 0.577792 0.577938
O O5 0.500000 0.753303 0.444287
O O6 0.349680 0.629952 0.380192
O O7 0.323259 0.812215 0.493212
O O8 0.380079 0.890361 0.355216
O O9 0.500000 0.657915 0.691577
O O10 0.682855 0.621226 0.674218
O O11 0.610463 0.872960 0.715435
O O12 0.250000 0.595190 0.250000
O O13 0.750000 0.052188 0.750000
O O14 0.750446 0.904719 0.876040
O O15 0.679565 0.000000 0.000000
#
# Coordination Sequence:
#
# PCOD8218192 Si02
#       6
#     8   8   8   8   8   8
#     4  10  20  38  63  89 113 156 214 259 306 362
#     4  11  25  40  59  91 133 169 201 245 321 393
#     4  10  18  32  64  93 115 151 206 257 302 359
#     4  10  20  40  61  90 126 162 203 262 311 360
#     4  11  19  38  63  89 123 160 205 252 303 351
#     4  10  22  39  60  88 129 163 196 256 315 369
#
# _framework density 20.882093000000001
#
# number of rings (size 3 to 8) (size 9 to 14) (size 15 to 20)
#    0.000    1.667    3.333    2.000    0.000    5.333 
#    0.000    2.500    0.000    1.000    0.000    0.000 
#    0.000    0.000    0.000    0.000    0.000    0.000 
#
# Total GULP energy -594881.381773 kJ/mol
# GULP energy per Si atom -12393.362120 kJ/mol
# Density = 2.083456 g / cm^3
# Si number density = 20.882093 Si / 1000 Ang^3
#
#
#
# Elastic Constant Matrix: (Units=GPa)
#
#
# Indices 1 2 3 4 5 6 
#
# 1 142.0056 38.6536 30.8933 0.0000 0.0000 0.0000
# 2 38.6536 82.9888 16.1285 0.0000 0.0000 0.0000
# 3 30.8933 16.1285 55.9941 0.0000 0.0000 0.0000
# 4 0.0000 0.0000 0.0000 123.4215 0.0000 0.0000
# 5 0.0000 0.0000 0.0000 0.0000 22.3462 0.0000
# 6 0.0000 0.0000 0.0000 0.0000 0.0000 28.7790
#
#
#
# Elastic Compliance Matrix: (Units=1/GPa)
#
#
# Indices 1 2 3 4 5 6 
#
# 1 0.008798 -0.003342 -0.003892 0.000000 0.000000 0.000000
# 2 -0.003342 0.014034 -0.002199 0.000000 0.000000 0.000000
# 3 -0.003892 -0.002199 0.020639 0.000000 0.000000 0.000000
# 4 0.000000 0.000000 0.000000 0.008102 0.000000 0.000000
# 5 0.000000 0.000000 0.000000 0.000000 0.044750 0.000000
# 6 0.000000 0.000000 0.000000 0.000000 0.000000 0.034748
#
#
# Mechanical properties :
#
#
# Convention : Reuss Voigt Hill
#
# Bulk Modulus (GPa) = 40.63802 50.25992 45.44897
# Shear Modulus (GPa) = 31.61807 47.93021 39.77414
#
# Velocity S-wave (km/s) = 3.89540 4.79610 4.36902
# Velocity P-wave (km/s) = 6.30358 7.40208 6.87481
#
# Compressibility (1/GPa) = 0.02460750
#
# Stress axis : x y z
#
# Youngs Moduli (GPa) = 113.65978 71.25803 48.45093
#
# Poissons Ratio (x) = 0.23812 0.18855
# Poissons Ratio (y) = 0.37981 0.10652
# Poissons Ratio (z) = 0.44233 0.15666
#
# Static dielectric constant tensor:
#      x y z
#    x 4.117650 0.000000 0.000000 
#    y 0.000000 3.998600 0.000000 
#    z 0.000000 0.000000 3.783190 
# 
# 
# High freq. dielectric constant tensor:
#      x y z
#    x 1.813070 0.000000 0.000000 
#    y 0.000000 1.813080 0.000000 
#    z 0.000000 0.000000 1.815290 
# 
# From -- ./inp_files/28300.got.cif
#   From: 2010.03.12/outbox.cif.g09.slc.cpg/sg53_15_cif.got.tgz:28300.got - 2010.04.16 14:36:59.
