data_PCOD8218098
_publ_section_title
;
Structure prediction by ZEFSAII (Michael W. Deem and Ramdas Pophale) SiO2 
 PCOD8218098
Probable space group: P M N A
;
_chemical_formula_sum "Si O2"
_cell_formula_units_Z 36
_cell_length_a 9.147432
_cell_length_b 9.192616
_cell_length_c 23.052901
_cell_angle_alpha 90.000000
_cell_angle_beta 90.000000
_cell_angle_gamma 90.000000
_cell_volume 1938.491468
_symmetry_space_group_name_H-M "P M N A"
_symmetry_group_IT_number 53
_symmetry_cell_setting 'orthorhombic'
loop_
_space_group_symop_operation_xyz
x,y,z
1/2-x,-y,1/2+z
x,-y,-z
1/2-x,y,1/2-z
-x,-y,-z
1/2+x,y,1/2-z
-x,y,z
1/2+x,-y,1/2+z
loop_
_atom_site_type_symbol
_atom_site_label
_atom_site_fract_x
_atom_site_fract_y
_atom_site_fract_z
Si Si1 0.839103 0.180757 0.837905
Si Si2 0.250000 0.950836 0.750000
Si Si3 0.324961 0.493750 0.691557
Si Si4 0.166954 0.245740 0.356014
Si Si5 0.326752 0.971908 0.566315
O O1 0.852100 0.061441 0.786363
O O2 0.759579 0.331856 0.821390
O O3 0.770387 0.109806 0.895742
O O4 0.000000 0.232746 0.854232
O O5 0.332354 0.849684 0.796594
O O6 0.250000 0.548270 0.750000
O O7 0.500000 0.501711 0.696891
O O8 0.265642 0.609041 0.645127
O O9 0.000000 0.286965 0.369308
O O10 0.235003 0.164247 0.411203
O O11 0.500000 0.945071 0.575916
O O12 0.287327 0.000000 0.500000
#
# Coordination Sequence:
#
# PCOD8218098 Si02
#       5
#     8   4   8   8   8
#     4   9  18  32  52  78 106 138 178 221 269 322
#     4  10  18  32  50  78 108 142 176 220 268 330
#     4  11  21  34  52  77 112 145 175 215 265 328
#     4  11  22  34  54  81 112 145 180 223 271 324
#     4   9  19  38  61  81 105 141 187 234 275 320
#
# _framework density 18.571142999999999
#
# number of rings (size 3 to 8) (size 9 to 14) (size 15 to 20)
#    0.000    2.000    2.222    2.000    0.000    2.222 
#    0.000    2.222    0.000    6.667    0.000    0.000 
#    0.000    0.000    0.000    0.000    0.000    0.000 
#
# Total GULP energy -446020.290195 kJ/mol
# GULP energy per Si atom -12389.452505 kJ/mol
# Density = 1.852887 g / cm^3
# Si number density = 18.571143 Si / 1000 Ang^3
#
#
#
# Elastic Constant Matrix: (Units=GPa)
#
#
# Indices 1 2 3 4 5 6 
#
# 1 85.3039 31.2319 20.4278 0.0000 0.0000 0.0000
# 2 31.2319 115.4833 29.1776 0.0000 0.0000 0.0000
# 3 20.4278 29.1776 99.2281 0.0000 0.0000 0.0000
# 4 0.0000 0.0000 0.0000 17.8255 0.0000 0.0000
# 5 0.0000 0.0000 0.0000 0.0000 21.9056 0.0000
# 6 0.0000 0.0000 0.0000 0.0000 0.0000 20.4690
#
#
#
# Elastic Compliance Matrix: (Units=1/GPa)
#
#
# Indices 1 2 3 4 5 6 
#
# 1 0.013307 -0.003140 -0.001816 0.000000 0.000000 0.000000
# 2 -0.003140 0.010095 -0.002322 0.000000 0.000000 0.000000
# 3 -0.001816 -0.002322 0.011134 0.000000 0.000000 0.000000
# 4 0.000000 0.000000 0.000000 0.056099 0.000000 0.000000
# 5 0.000000 0.000000 0.000000 0.000000 0.045650 0.000000
# 6 0.000000 0.000000 0.000000 0.000000 0.000000 0.048854
#
#
# Mechanical properties :
#
#
# Convention : Reuss Voigt Hill
#
# Bulk Modulus (GPa) = 50.04896 51.29887 50.67392
# Shear Modulus (GPa) = 24.22974 26.65188 25.44081
#
# Velocity S-wave (km/s) = 3.61598 3.79241 3.70525
# Velocity P-wave (km/s) = 6.66649 6.84539 6.75653
#
# Compressibility (1/GPa) = 0.01998044
#
# Stress axis : x y z
#
# Youngs Moduli (GPa) = 75.14637 99.05757 89.81114
#
# Poissons Ratio (x) = 0.31104 0.16312
# Poissons Ratio (y) = 0.23596 0.20854
# Poissons Ratio (z) = 0.13648 0.23001
#
# Static dielectric constant tensor:
#      x y z
#    x 3.149710 0.000000 0.000000 
#    y 0.000000 3.659400 0.000000 
#    z 0.000000 0.000000 3.281480 
# 
# 
# High freq. dielectric constant tensor:
#      x y z
#    x 1.702310 0.000000 0.000000 
#    y 0.000000 1.732470 0.000000 
#    z 0.000000 0.000000 1.699580 
# 
# From -- ./inp_files/30135.got.cif
#   From: 2010.03.12/outbox.cif.g09.slc.cpg/sg53_16_cif.got.tgz:30135.got - 2010.04.16 14:36:59.
