data_PCOD8218003
_publ_section_title
;
Structure prediction by ZEFSAII (Michael W. Deem and Ramdas Pophale) SiO2 
 PCOD8218003
Probable space group: P M N A
;
_chemical_formula_sum "Si O2"
_cell_formula_units_Z 64
_cell_length_a 17.098546
_cell_length_b 11.896948
_cell_length_c 18.518941
_cell_angle_alpha 90.000000
_cell_angle_beta 90.000000
_cell_angle_gamma 90.000000
_cell_volume 3767.132472
_symmetry_space_group_name_H-M "P M N A"
_symmetry_group_IT_number 53
_symmetry_cell_setting 'orthorhombic'
loop_
_space_group_symop_operation_xyz
x,y,z
1/2-x,-y,1/2+z
x,-y,-z
1/2-x,y,1/2-z
-x,-y,-z
1/2+x,y,1/2-z
-x,y,z
1/2+x,-y,1/2+z
loop_
_atom_site_type_symbol
_atom_site_label
_atom_site_fract_x
_atom_site_fract_y
_atom_site_fract_z
Si Si1 0.762655 0.628287 0.979535
Si Si2 0.589499 0.865472 0.631759
Si Si3 0.280449 0.258147 0.889283
Si Si4 0.646710 0.886699 0.353625
Si Si5 0.085579 0.249727 0.984348
Si Si6 0.179609 0.428224 0.804530
Si Si7 0.909554 0.252691 0.725725
Si Si8 0.300468 0.671365 0.677233
O O1 0.746968 0.662860 0.895703
O O2 0.740849 0.500000 0.000000
O O3 0.707517 0.714817 0.025783
O O4 0.852953 0.651188 0.001315
O O5 0.500000 0.870657 0.660074
O O6 0.592648 0.843051 0.546843
O O7 0.636062 0.770074 0.675805
O O8 0.633799 0.981551 0.643973
O O9 0.238067 0.139240 0.871971
O O10 0.215891 0.353869 0.868516
O O11 0.363174 0.260986 0.849674
O O12 0.593711 0.817857 0.409748
O O13 0.624630 0.849787 0.272349
O O14 0.000000 0.306658 0.984690
O O15 0.250000 0.441759 0.750000
O O16 0.104445 0.367712 0.769854
O O17 0.152342 0.552879 0.826128
O O18 0.000000 0.236037 0.707593
O O19 0.250000 0.686931 0.750000
#
# Coordination Sequence:
#
# PCOD8218003 Si02
#       8
#     8   8   8   8   8   8   8   8
#     4  10  18  31  51  72  94 134 168 203 245 294
#     4  10  20  32  47  70 104 137 164 199 245 300
#     4   9  18  32  50  71  98 126 167 208 247 291
#     4  10  18  31  49  72 100 133 167 200 245 300
#     4   9  18  30  45  71 104 133 160 196 246 301
#     4   8  15  29  46  68  94 125 157 198 244 293
#     4  10  19  30  49  75 101 129 162 209 261 295
#     4  10  20  33  50  72  98 131 171 205 244 293
#
# _framework density 16.989049999999999
#
# number of rings (size 3 to 8) (size 9 to 14) (size 15 to 20)
#    0.000    2.500    1.250    2.625    0.000    2.750 
#    0.000    0.000    0.000    1.125    0.000    0.000 
#    0.000   15.000    0.000    0.000    0.000    0.000 
#
# Total GULP energy -793023.791320 kJ/mol
# GULP energy per Si atom -12390.996739 kJ/mol
# Density = 1.695038 g / cm^3
# Si number density = 16.989050 Si / 1000 Ang^3
#
#
#
# Elastic Constant Matrix: (Units=GPa)
#
#
# Indices 1 2 3 4 5 6 
#
# 1 55.8079 23.2491 29.9428 0.0000 0.0000 0.0000
# 2 23.2491 93.4313 22.4317 0.0000 0.0000 0.0000
# 3 29.9428 22.4317 103.6747 0.0000 0.0000 0.0000
# 4 0.0000 0.0000 0.0000 18.1759 0.0000 0.0000
# 5 0.0000 0.0000 0.0000 0.0000 20.1415 0.0000
# 6 0.0000 0.0000 0.0000 0.0000 0.0000 16.3836
#
#
#
# Elastic Compliance Matrix: (Units=1/GPa)
#
#
# Indices 1 2 3 4 5 6 
#
# 1 0.022735 -0.004304 -0.005635 0.000000 0.000000 0.000000
# 2 -0.004304 0.012104 -0.001376 0.000000 0.000000 0.000000
# 3 -0.005635 -0.001376 0.011571 0.000000 0.000000 0.000000
# 4 0.000000 0.000000 0.000000 0.055018 0.000000 0.000000
# 5 0.000000 0.000000 0.000000 0.000000 0.049649 0.000000
# 6 0.000000 0.000000 0.000000 0.000000 0.000000 0.061037
#
#
# Mechanical properties :
#
#
# Convention : Reuss Voigt Hill
#
# Bulk Modulus (GPa) = 42.05225 44.90679 43.47952
# Shear Modulus (GPa) = 20.60405 22.75954 21.68179
#
# Velocity S-wave (km/s) = 3.48628 3.66411 3.57630
# Velocity P-wave (km/s) = 6.40405 6.66266 6.53464
#
# Compressibility (1/GPa) = 0.02377994
#
# Stress axis : x y z
#
# Youngs Moduli (GPa) = 43.98482 82.61411 86.42532
#
# Poissons Ratio (x) = 0.35561 0.48700
# Poissons Ratio (y) = 0.18933 0.11890
# Poissons Ratio (z) = 0.24785 0.11366
#
# Static dielectric constant tensor:
#      x y z
#    x 2.949220 0.000000 0.000000 
#    y 0.000000 3.318320 0.000000 
#    z 0.000000 0.000000 3.399610 
# 
# 
# High freq. dielectric constant tensor:
#      x y z
#    x 1.619520 0.000000 0.000000 
#    y 0.000000 1.650690 0.000000 
#    z 0.000000 0.000000 1.659220 
# 
# From -- ./inp_files/29134.got.cif
#   From: 2010.03.12/outbox.cif.g09.slc.cpg/sg53_15_cif.got.tgz:29134.got - 2010.04.16 14:36:59.
