data_PCOD8218156
_publ_section_title
;
Structure prediction by ZEFSAII (Michael W. Deem and Ramdas Pophale) SiO2 
 PCOD8218156
Probable space group: P M N A
;
_chemical_formula_sum "Si O2"
_cell_formula_units_Z 56
_cell_length_a 8.349577
_cell_length_b 15.263760
_cell_length_c 22.909024
_cell_angle_alpha 90.000000
_cell_angle_beta 90.000000
_cell_angle_gamma 90.000000
_cell_volume 2919.662085
_symmetry_space_group_name_H-M "P M N A"
_symmetry_group_IT_number 53
_symmetry_cell_setting 'orthorhombic'
loop_
_space_group_symop_operation_xyz
x,y,z
1/2-x,-y,1/2+z
x,-y,-z
1/2-x,y,1/2-z
-x,-y,-z
1/2+x,y,1/2-z
-x,y,z
1/2+x,-y,1/2+z
loop_
_atom_site_type_symbol
_atom_site_label
_atom_site_fract_x
_atom_site_fract_y
_atom_site_fract_z
Si Si1 0.313030 0.825530 0.684047
Si Si2 0.185475 0.815897 0.185915
Si Si3 0.313657 0.400109 0.498103
Si Si4 0.812930 0.006266 0.685179
Si Si5 0.313675 0.659691 0.876845
Si Si6 0.689825 0.498549 0.687002
Si Si7 0.184934 0.341245 0.614248
O O1 0.250000 0.820985 0.750000
O O2 0.500000 0.803937 0.682489
O O3 0.278406 0.922562 0.657729
O O4 0.217955 0.758172 0.643746
O O5 0.250000 0.791605 0.250000
O O6 0.210535 0.733933 0.143841
O O7 0.000000 0.837792 0.191723
O O8 0.271274 0.900494 0.155255
O O9 0.251376 0.500000 0.500000
O O10 0.500000 0.396259 0.514151
O O11 0.285847 0.358765 0.435000
O O12 0.216425 0.342539 0.545028
O O13 0.750000 0.021272 0.750000
O O14 0.000000 0.985954 0.683436
O O15 0.500000 0.645227 0.889254
O O16 0.253978 0.595883 0.825396
O O17 0.750000 0.467330 0.750000
O O18 0.500000 0.496185 0.684016
O O19 0.762158 0.435226 0.638419
O O20 0.000000 0.323137 0.627594
#
# Coordination Sequence:
#
# PCOD8218156 Si02
#       7
#     8   8   8   8   8   8   8
#     4  11  21  36  57  85 119 154 191 234 286 342
#     4  11  21  36  57  85 119 154 191 234 286 342
#     4  11  23  41  63  84 110 147 194 240 284 335
#     4  10  18  32  54  83 116 151 190 232 281 340
#     4  12  24  39  59  84 113 149 191 237 284 336
#     4  12  24  39  56  81 114 150 186 230 284 342
#     4  12  24  39  59  84 113 149 191 237 284 336
#
# _framework density 19.180301
#
# number of rings (size 3 to 8) (size 9 to 14) (size 15 to 20)
#    0.000    0.714    1.429   10.714    0.000    0.571 
#    0.000    0.000    0.000    0.857    0.000    6.000 
#    0.000    0.000    0.000    0.000    0.000    0.000 
#
# Total GULP energy -694697.585381 kJ/mol
# GULP energy per Si atom -12405.314025 kJ/mol
# Density = 1.913665 g / cm^3
# Si number density = 19.180301 Si / 1000 Ang^3
#
#
#
# Elastic Constant Matrix: (Units=GPa)
#
#
# Indices 1 2 3 4 5 6 
#
# 1 99.5377 6.5218 11.0282 0.0000 0.0000 0.0000
# 2 6.5218 98.7275 37.5777 0.0000 0.0000 0.0000
# 3 11.0282 37.5777 69.6555 0.0000 0.0000 0.0000
# 4 0.0000 0.0000 0.0000 11.0765 0.0000 0.0000
# 5 0.0000 0.0000 0.0000 0.0000 28.6524 0.0000
# 6 0.0000 0.0000 0.0000 0.0000 0.0000 33.3202
#
#
#
# Elastic Compliance Matrix: (Units=1/GPa)
#
#
# Indices 1 2 3 4 5 6 
#
# 1 0.010226 -0.000075 -0.001579 0.000000 0.000000 0.000000
# 2 -0.000075 0.012747 -0.006865 0.000000 0.000000 0.000000
# 3 -0.001579 -0.006865 0.018310 0.000000 0.000000 0.000000
# 4 0.000000 0.000000 0.000000 0.090281 0.000000 0.000000
# 5 0.000000 0.000000 0.000000 0.000000 0.034901 0.000000
# 6 0.000000 0.000000 0.000000 0.000000 0.000000 0.030012
#
#
# Mechanical properties :
#
#
# Convention : Reuss Voigt Hill
#
# Bulk Modulus (GPa) = 41.24339 42.01955 41.63147
# Shear Modulus (GPa) = 22.56369 28.79603 25.67986
#
# Velocity S-wave (km/s) = 3.43359 3.87891 3.66302
# Velocity P-wave (km/s) = 6.10484 6.48201 6.29625
#
# Compressibility (1/GPa) = 0.02424631
#
# Stress axis : x y z
#
# Youngs Moduli (GPa) = 97.78745 78.45178 54.61581
#
# Poissons Ratio (x) = 0.00585 0.08623
# Poissons Ratio (y) = 0.00729 0.37492
# Poissons Ratio (z) = 0.15439 0.53855
#
# Static dielectric constant tensor:
#      x y z
#    x 3.596710 0.000000 0.000000 
#    y 0.000000 3.819810 0.000000 
#    z 0.000000 0.000000 3.346730 
# 
# 
# High freq. dielectric constant tensor:
#      x y z
#    x 1.767740 0.000000 0.000000 
#    y 0.000000 1.756040 0.000000 
#    z 0.000000 0.000000 1.714570 
# 
# From -- ./inp_files/30861.got.cif
#   From: 2010.03.12/outbox.cif.g09.slc.cpg/sg53_16_cif.got.tgz:30861.got - 2010.04.16 14:36:59.
