data_PCOD8218704
_publ_section_title
;
Structure prediction by ZEFSAII (Michael W. Deem and Ramdas Pophale) SiO2 
 PCOD8218704
Probable space group: P M N A
;
_chemical_formula_sum "Si O2"
_cell_formula_units_Z 64
_cell_length_a 15.199334
_cell_length_b 11.812947
_cell_length_c 18.783700
_cell_angle_alpha 90.000000
_cell_angle_beta 90.000000
_cell_angle_gamma 90.000000
_cell_volume 3372.593180
_symmetry_space_group_name_H-M "P M N A"
_symmetry_group_IT_number 53
_symmetry_cell_setting 'orthorhombic'
loop_
_space_group_symop_operation_xyz
x,y,z
1/2-x,-y,1/2+z
x,-y,-z
1/2-x,y,1/2-z
-x,-y,-z
1/2+x,y,1/2-z
-x,y,z
1/2+x,-y,1/2+z
loop_
_atom_site_type_symbol
_atom_site_label
_atom_site_fract_x
_atom_site_fract_y
_atom_site_fract_z
Si Si1 0.771145 0.011681 0.084725
Si Si2 0.596189 0.976946 0.839745
Si Si3 0.399784 0.639977 0.319099
Si Si4 0.343636 0.404204 0.276341
Si Si5 0.214749 0.728248 0.903770
Si Si6 0.399415 0.369963 0.519219
Si Si7 0.404074 0.716835 0.852769
Si Si8 0.657180 0.115507 0.712955
O O1 0.670097 0.979013 0.104577
O O2 0.790646 0.138481 0.111014
O O3 0.835512 0.930811 0.131419
O O4 0.787151 0.000000 0.000000
O O5 0.500000 0.003840 0.873123
O O6 0.608132 0.844296 0.826158
O O7 0.599415 0.032830 0.761577
O O8 0.500000 0.601323 0.312618
O O9 0.345332 0.539959 0.281899
O O10 0.371341 0.648796 0.400186
O O11 0.385254 0.760603 0.282888
O O12 0.250000 0.361719 0.250000
O O13 0.352394 0.340610 0.352075
O O14 0.412266 0.361366 0.217489
O O15 0.317758 0.685617 0.900672
O O16 0.173929 0.705584 0.980730
O O17 0.388391 0.500000 0.500000
O O18 0.500000 0.329377 0.504329
O O19 0.500000 0.702271 0.892612
O O20 0.750000 0.123125 0.750000
#
# Coordination Sequence:
#
# PCOD8218704 Si02
#       8
#     8   8   8   8   8   8   8   8
#     4  10  20  34  54  79 106 139 177 219 266 318
#     4   9  18  34  55  78 105 139 176 218 266 316
#     4  11  21  33  51  74 102 134 172 215 260 314
#     4  10  19  31  50  77 100 131 170 210 259 308
#     4  10  19  34  54  76 104 136 171 214 261 312
#     4  10  20  34  51  74 102 135 174 215 263 315
#     4   9  18  32  53  80 106 131 168 217 264 308
#     4  10  20  35  53  75 107 143 177 213 264 326
#
# _framework density 18.976495
#
# number of rings (size 3 to 8) (size 9 to 14) (size 15 to 20)
#    0.000    2.125    1.250    2.625    0.000    3.750 
#    0.000    1.250    0.000    3.750    0.000    0.000 
#    0.000    0.000    0.000    0.000    0.000    0.000 
#
# Total GULP energy -793132.339038 kJ/mol
# GULP energy per Si atom -12392.692797 kJ/mol
# Density = 1.893330 g / cm^3
# Si number density = 18.976495 Si / 1000 Ang^3
#
#
#
# Elastic Constant Matrix: (Units=GPa)
#
#
# Indices 1 2 3 4 5 6 
#
# 1 51.2212 5.7516 12.6526 0.0000 0.0000 0.0000
# 2 5.7516 62.2380 24.3418 0.0000 0.0000 0.0000
# 3 12.6526 24.3418 59.3351 0.0000 0.0000 0.0000
# 4 0.0000 0.0000 0.0000 27.7552 0.0000 0.0000
# 5 0.0000 0.0000 0.0000 0.0000 87.1903 0.0000
# 6 0.0000 0.0000 0.0000 0.0000 0.0000 25.4775
#
#
#
# Elastic Compliance Matrix: (Units=1/GPa)
#
#
# Indices 1 2 3 4 5 6 
#
# 1 0.020611 -0.000221 -0.004304 0.000000 0.000000 0.000000
# 2 -0.000221 0.019140 -0.007805 0.000000 0.000000 0.000000
# 3 -0.004304 -0.007805 0.020973 0.000000 0.000000 0.000000
# 4 0.000000 0.000000 0.000000 0.036029 0.000000 0.000000
# 5 0.000000 0.000000 0.000000 0.000000 0.011469 0.000000
# 6 0.000000 0.000000 0.000000 0.000000 0.000000 0.039250
#
#
# Mechanical properties :
#
#
# Convention : Reuss Voigt Hill
#
# Bulk Modulus (GPa) = 27.72879 28.69847 28.21363
# Shear Modulus (GPa) = 27.15084 36.75449 31.95267
#
# Velocity S-wave (km/s) = 3.78664 4.40573 4.10787
# Velocity P-wave (km/s) = 5.81052 6.40598 6.11550
#
# Compressibility (1/GPa) = 0.03606360
#
# Stress axis : x y z
#
# Youngs Moduli (GPa) = 48.51713 52.24540 47.67973
#
# Poissons Ratio (x) = 0.01156 0.20523
# Poissons Ratio (y) = 0.01074 0.37214
# Poissons Ratio (z) = 0.20884 0.40778
#
# Static dielectric constant tensor:
#      x y z
#    x 3.589260 0.000000 0.000000 
#    y 0.000000 2.945090 0.000000 
#    z 0.000000 0.000000 3.332930 
# 
# 
# High freq. dielectric constant tensor:
#      x y z
#    x 1.739160 0.000000 0.000000 
#    y 0.000000 1.736000 0.000000 
#    z 0.000000 0.000000 1.718700 
# 
# From -- ./inp_files/28558.got.cif
#   From: 2010.03.12/outbox.cif.g09.slc.cpg/sg53_15_cif.got.tgz:28558.got - 2010.04.16 14:36:59.
