data_PCOD8218182
_publ_section_title
;
Structure prediction by ZEFSAII (Michael W. Deem and Ramdas Pophale) SiO2 
 PCOD8218182
Probable space group: P M N A
;
_chemical_formula_sum "Si O2"
_cell_formula_units_Z 56
_cell_length_a 9.344040
_cell_length_b 15.846645
_cell_length_c 19.754902
_cell_angle_alpha 90.000000
_cell_angle_beta 90.000000
_cell_angle_gamma 90.000000
_cell_volume 2925.141621
_symmetry_space_group_name_H-M "P M N A"
_symmetry_group_IT_number 53
_symmetry_cell_setting 'orthorhombic'
loop_
_space_group_symop_operation_xyz
x,y,z
1/2-x,-y,1/2+z
x,-y,-z
1/2-x,y,1/2-z
-x,-y,-z
1/2+x,y,1/2-z
-x,y,z
1/2+x,-y,1/2+z
loop_
_atom_site_type_symbol
_atom_site_label
_atom_site_fract_x
_atom_site_fract_y
_atom_site_fract_z
Si Si1 0.665137 0.202949 0.927485
Si Si2 0.158416 0.524965 0.189256
Si Si3 0.341187 0.722509 0.311290
Si Si4 0.670521 0.128177 0.178549
Si Si5 0.834857 0.988872 0.425664
Si Si6 0.168559 0.736015 0.571632
Si Si7 0.664066 0.545392 0.928738
O O1 0.500000 0.231438 0.920167
O O2 0.761819 0.262599 0.881758
O O3 0.685572 0.107240 0.902473
O O4 0.719413 0.213658 0.004667
O O5 0.250000 0.483279 0.250000
O O6 0.144089 0.623837 0.201027
O O7 0.238492 0.509528 0.119685
O O8 0.000000 0.483922 0.188374
O O9 0.250000 0.763701 0.250000
O O10 0.500000 0.763515 0.312313
O O11 0.750000 0.125936 0.250000
O O12 0.500000 0.123832 0.190702
O O13 0.716850 0.213687 0.138894
O O14 0.727854 0.049957 0.132544
O O15 0.000000 0.015091 0.433741
O O16 0.761975 0.000000 0.500000
O O17 0.227771 0.640495 0.570298
O O18 0.000000 0.731876 0.569505
O O19 0.500000 0.544910 0.903359
O O20 0.676807 0.500000 0.000000
#
# Coordination Sequence:
#
# PCOD8218182 Si02
#       7
#     8   8   8   8   8   8   8
#     4  10  18  32  58  84 106 139 182 223 268 320
#     4  10  21  37  56  76 103 142 183 225 275 331
#     4  10  21  36  53  77 109 142 178 222 273 327
#     4  10  20  36  56  80 111 145 185 226 268 322
#     4   9  16  31  57  83 105 139 184 224 264 319
#     4   9  18  33  55  80 107 144 184 221 266 326
#     4  10  20  34  54  82 113 142 180 229 276 325
#
# _framework density 19.144372000000001
#
# number of rings (size 3 to 8) (size 9 to 14) (size 15 to 20)
#    0.000    2.286    1.429    1.714    0.000    4.286 
#    0.000    5.714    0.000    0.857    0.000    0.000 
#    0.000    0.000    0.000    0.000    0.000    0.000 
#
# Total GULP energy -694241.677171 kJ/mol
# GULP energy per Si atom -12397.172807 kJ/mol
# Density = 1.910080 g / cm^3
# Si number density = 19.144372 Si / 1000 Ang^3
#
#
#
# Elastic Constant Matrix: (Units=GPa)
#
#
# Indices 1 2 3 4 5 6 
#
# 1 93.3631 20.4051 58.1276 0.0000 0.0000 0.0000
# 2 20.4051 64.4653 32.4654 0.0000 0.0000 0.0000
# 3 58.1276 32.4654 141.1360 0.0000 0.0000 0.0000
# 4 0.0000 0.0000 0.0000 33.7083 0.0000 0.0000
# 5 0.0000 0.0000 0.0000 0.0000 29.2268 0.0000
# 6 0.0000 0.0000 0.0000 0.0000 0.0000 32.1735
#
#
#
# Elastic Compliance Matrix: (Units=1/GPa)
#
#
# Indices 1 2 3 4 5 6 
#
# 1 0.014587 -0.001800 -0.005594 0.000000 0.000000 0.000000
# 2 -0.001800 0.017767 -0.003345 0.000000 0.000000 0.000000
# 3 -0.005594 -0.003345 0.010159 0.000000 0.000000 0.000000
# 4 0.000000 0.000000 0.000000 0.029666 0.000000 0.000000
# 5 0.000000 0.000000 0.000000 0.000000 0.034215 0.000000
# 6 0.000000 0.000000 0.000000 0.000000 0.000000 0.031082
#
#
# Mechanical properties :
#
#
# Convention : Reuss Voigt Hill
#
# Bulk Modulus (GPa) = 47.54229 57.88450 52.71340
# Shear Modulus (GPa) = 30.12683 31.55281 30.83982
#
# Velocity S-wave (km/s) = 3.97125 4.06415 4.01797
# Velocity P-wave (km/s) = 6.77608 7.23357 7.00856
#
# Compressibility (1/GPa) = 0.02103390
#
# Stress axis : x y z
#
# Youngs Moduli (GPa) = 68.55488 56.28464 98.43811
#
# Poissons Ratio (x) = 0.10132 0.55062
# Poissons Ratio (y) = 0.12341 0.32932
# Poissons Ratio (z) = 0.38347 0.18830
#
# Static dielectric constant tensor:
#      x y z
#    x 3.341450 0.000000 0.000000 
#    y 0.000000 3.576460 0.000000 
#    z 0.000000 0.000000 3.518010 
# 
# 
# High freq. dielectric constant tensor:
#      x y z
#    x 1.710230 0.000000 0.000000 
#    y 0.000000 1.739340 0.000000 
#    z 0.000000 0.000000 1.752200 
# 
# From -- ./inp_files/30775.got.cif
#   From: 2010.03.12/outbox.cif.g09.slc.cpg/sg53_16_cif.got.tgz:30775.got - 2010.04.16 14:36:59.
