data_PCOD8218767
_publ_section_title
;
Structure prediction by ZEFSAII (Michael W. Deem and Ramdas Pophale) SiO2 
 PCOD8218767
Probable space group: P M N A
;
_chemical_formula_sum "Si O2"
_cell_formula_units_Z 56
_cell_length_a 9.025898
_cell_length_b 17.733954
_cell_length_c 19.939101
_cell_angle_alpha 90.000000
_cell_angle_beta 90.000000
_cell_angle_gamma 90.000000
_cell_volume 3191.549409
_symmetry_space_group_name_H-M "P M N A"
_symmetry_group_IT_number 53
_symmetry_cell_setting 'orthorhombic'
loop_
_space_group_symop_operation_xyz
x,y,z
1/2-x,-y,1/2+z
x,-y,-z
1/2-x,y,1/2-z
-x,-y,-z
1/2+x,y,1/2-z
-x,y,z
1/2+x,-y,1/2+z
loop_
_atom_site_type_symbol
_atom_site_label
_atom_site_fract_x
_atom_site_fract_y
_atom_site_fract_z
Si Si1 0.334123 0.352659 0.422266
Si Si2 0.675499 0.797708 0.932239
Si Si3 0.336421 0.642052 0.418457
Si Si4 0.334229 0.501660 0.919908
Si Si5 0.174957 0.914687 0.318775
Si Si6 0.328495 0.911825 0.816829
Si Si7 0.176466 0.808865 0.074208
O O1 0.500000 0.343008 0.393002
O O2 0.233276 0.281456 0.402227
O O3 0.340827 0.359639 0.501692
O O4 0.262544 0.428787 0.392078
O O5 0.500000 0.792526 0.944736
O O6 0.720412 0.862423 0.880051
O O7 0.757665 0.819320 0.000422
O O8 0.500000 0.625066 0.389973
O O9 0.227910 0.577365 0.390725
O O10 0.283814 0.725633 0.396619
O O11 0.500000 0.511422 0.892754
O O12 0.331170 0.500000 0.000000
O O13 0.250000 0.887021 0.250000
O O14 0.247063 0.869875 0.379383
O O15 0.000000 0.899561 0.315381
O O16 0.213539 0.001831 0.332145
O O17 0.250000 0.881889 0.750000
O O18 0.500000 0.902823 0.802494
O O19 0.000000 0.820273 0.071004
#
# Coordination Sequence:
#
# PCOD8218767 Si02
#       7
#     8   8   8   8   8   8   8
#     4   9  16  26  40  61  91 126 160 195 238 285
#     4  10  19  32  49  72 101 130 162 203 248 291
#     4   8  15  26  39  58  89 124 157 194 235 280
#     4   9  15  22  36  59  87 121 159 195 234 280
#     4  10  20  36  55  74  97 127 163 203 245 291
#     4   9  20  36  54  74  97 127 163 203 246 292
#     4  10  20  33  49  73 102 132 164 200 245 293
#
# _framework density 17.546337000000001
#
# number of rings (size 3 to 8) (size 9 to 14) (size 15 to 20)
#    0.000    2.714    0.000    3.000    0.000    8.000 
#    0.000    2.857    0.000    0.000    0.000    1.000 
#    0.000    2.286    0.000    0.000    0.000    0.000 
#
# Total GULP energy -694272.959941 kJ/mol
# GULP energy per Si atom -12397.731428 kJ/mol
# Density = 1.750640 g / cm^3
# Si number density = 17.546337 Si / 1000 Ang^3
#
#
#
# Elastic Constant Matrix: (Units=GPa)
#
#
# Indices 1 2 3 4 5 6 
#
# 1 112.7116 63.6573 44.1445 0.0000 0.0000 0.0000
# 2 63.6573 118.3272 55.0597 0.0000 0.0000 0.0000
# 3 44.1445 55.0597 61.5271 0.0000 0.0000 0.0000
# 4 0.0000 0.0000 0.0000 -0.5338 0.0000 0.0000
# 5 0.0000 0.0000 0.0000 0.0000 20.6868 0.0000
# 6 0.0000 0.0000 0.0000 0.0000 0.0000 32.9137
#
#
#
# Elastic Compliance Matrix: (Units=1/GPa)
#
#
# Indices 1 2 3 4 5 6 
#
# 1 0.013776 -0.004818 -0.005572 0.000000 0.000000 0.000000
# 2 -0.004818 0.016166 -0.011010 0.000000 0.000000 0.000000
# 3 -0.005572 -0.011010 0.030104 0.000000 0.000000 0.000000
# 4 0.000000 0.000000 0.000000 -1.873523 0.000000 0.000000
# 5 0.000000 0.000000 0.000000 0.000000 0.048340 0.000000
# 6 0.000000 0.000000 0.000000 0.000000 0.000000 0.030383
#
#
# Mechanical properties :
#
#
# Convention : Reuss Voigt Hill
#
# Bulk Modulus (GPa) = 57.98781 68.69874 63.34327
# Shear Modulus (GPa) = -2.96524 19.26031 8.14753
#
# Velocity S-wave (km/s) = -1.30139 3.31672 2.15720
# Velocity P-wave (km/s) = 5.55536 7.34202 6.51027
#
# Compressibility (1/GPa) = 0.01724500
#
# Stress axis : x y z
#
# Youngs Moduli (GPa) = 72.59091 61.85645 33.21860
#
# Poissons Ratio (x) = 0.29804 0.18510
# Poissons Ratio (y) = 0.34976 0.36574
# Poissons Ratio (z) = 0.40448 0.68105
#
# Static dielectric constant tensor:
#      x y z
#    x 3.445970 0.000000 0.000000 
#    y 0.000000 3.560550 0.000000 
#    z 0.000000 0.000000 2.812630 
# 
# 
# High freq. dielectric constant tensor:
#      x y z
#    x 1.693730 0.000000 0.000000 
#    y 0.000000 1.690810 0.000000 
#    z 0.000000 0.000000 1.620240 
# 
# From -- ./inp_files/30783.got.cif
#   From: 2010.03.12/outbox.cif.g09.slc.cpg/sg53_16_cif.got.tgz:30783.got - 2010.04.16 14:36:59.
