data_PCOD8218431
_publ_section_title
;
Structure prediction by ZEFSAII (Michael W. Deem and Ramdas Pophale) SiO2 
 PCOD8218431
Probable space group: P M N A
;
_chemical_formula_sum "Si O2"
_cell_formula_units_Z 48
_cell_length_a 8.867548
_cell_length_b 14.856262
_cell_length_c 20.778470
_cell_angle_alpha 90.000000
_cell_angle_beta 90.000000
_cell_angle_gamma 90.000000
_cell_volume 2737.326888
_symmetry_space_group_name_H-M "P M N A"
_symmetry_group_IT_number 53
_symmetry_cell_setting 'orthorhombic'
loop_
_space_group_symop_operation_xyz
x,y,z
1/2-x,-y,1/2+z
x,-y,-z
1/2-x,y,1/2-z
-x,-y,-z
1/2+x,y,1/2-z
-x,y,z
1/2+x,-y,1/2+z
loop_
_atom_site_type_symbol
_atom_site_label
_atom_site_fract_x
_atom_site_fract_y
_atom_site_fract_z
Si Si1 0.324212 0.427872 0.051308
Si Si2 0.674534 0.185610 0.345915
Si Si3 0.822723 0.992789 0.687517
Si Si4 0.172743 0.773643 0.527358
Si Si5 0.823130 0.610988 0.815736
Si Si6 0.675278 0.935509 0.054920
O O1 0.500000 0.444208 0.064331
O O2 0.293232 0.331562 0.017578
O O3 0.242746 0.437098 0.120408
O O4 0.260326 0.500000 0.000000
O O5 0.500000 0.161435 0.336244
O O6 0.777405 0.112324 0.310873
O O7 0.714221 0.184279 0.421129
O O8 0.715716 0.283293 0.317895
O O9 0.750000 0.040246 0.750000
O O10 0.000000 0.002683 0.692150
O O11 0.753259 0.041802 0.624383
O O12 0.200887 0.829948 0.461740
O O13 0.000000 0.787642 0.551028
O O14 0.750000 0.571497 0.750000
O O15 0.000000 0.592329 0.814317
O O16 0.500000 0.959799 0.060080
O O17 0.747145 0.000000 0.000000
#
# Coordination Sequence:
#
# PCOD8218431 Si02
#       6
#     8   8   8   8   8   8
#     4   9  18  32  52  77 101 126 161 203 246 293
#     4  10  19  30  45  70 100 128 159 193 239 289
#     4  11  21  32  46  65  94 127 164 202 240 286
#     4   9  16  30  51  71  94 127 163 199 237 281
#     4  10  20  32  48  71 100 132 162 196 241 296
#     4   9  16  29  49  70  90 123 167 198 230 280
#
# _framework density 17.535356
#
# number of rings (size 3 to 8) (size 9 to 14) (size 15 to 20)
#    0.000    2.333    1.667    2.000    0.000    3.667 
#    0.000    2.500    0.000    1.000    0.000    2.333 
#    0.000    0.000    0.000    0.000    0.000    0.000 
#
# Total GULP energy -595009.821437 kJ/mol
# GULP energy per Si atom -12396.037947 kJ/mol
# Density = 1.749544 g / cm^3
# Si number density = 17.535356 Si / 1000 Ang^3
#
#
#
# Elastic Constant Matrix: (Units=GPa)
#
#
# Indices 1 2 3 4 5 6 
#
# 1 52.6739 19.5630 44.6145 0.0000 0.0000 0.0000
# 2 19.5630 68.3482 60.1860 0.0000 0.0000 0.0000
# 3 44.6145 60.1860 167.2112 0.0000 0.0000 0.0000
# 4 0.0000 0.0000 0.0000 22.0544 0.0000 0.0000
# 5 0.0000 0.0000 0.0000 0.0000 28.7401 0.0000
# 6 0.0000 0.0000 0.0000 0.0000 0.0000 12.4515
#
#
#
# Elastic Compliance Matrix: (Units=1/GPa)
#
#
# Indices 1 2 3 4 5 6 
#
# 1 0.024687 -0.001853 -0.005920 0.000000 0.000000 0.000000
# 2 -0.001853 0.021559 -0.007266 0.000000 0.000000 0.000000
# 3 -0.005920 -0.007266 0.010175 0.000000 0.000000 0.000000
# 4 0.000000 0.000000 0.000000 0.045343 0.000000 0.000000
# 5 0.000000 0.000000 0.000000 0.000000 0.034795 0.000000
# 6 0.000000 0.000000 0.000000 0.000000 0.000000 0.080312
#
#
# Mechanical properties :
#
#
# Convention : Reuss Voigt Hill
#
# Bulk Modulus (GPa) = 37.95887 59.66224 48.81055
# Shear Modulus (GPa) = 19.55194 23.57384 21.56289
#
# Velocity S-wave (km/s) = 3.34279 3.67053 3.51048
# Velocity P-wave (km/s) = 6.04921 7.21537 6.65787
#
# Compressibility (1/GPa) = 0.02634431
#
# Stress axis : x y z
#
# Youngs Moduli (GPa) = 40.50701 46.38366 98.27856
#
# Poissons Ratio (x) = 0.08596 0.58180
# Poissons Ratio (y) = 0.07507 0.71405
# Poissons Ratio (z) = 0.23980 0.33701
#
# Static dielectric constant tensor:
#      x y z
#    x 3.103890 0.000000 0.000000 
#    y 0.000000 3.105900 0.000000 
#    z 0.000000 0.000000 3.469440 
# 
# 
# High freq. dielectric constant tensor:
#      x y z
#    x 1.663980 0.000000 0.000000 
#    y 0.000000 1.643070 0.000000 
#    z 0.000000 0.000000 1.681500 
# 
# From -- ./inp_files/26423.got.cif
#   From: 2010.03.12/outbox.cif.g09.slc.cpg/sg53_14_cif.got.tgz:26423.got - 2010.04.16 14:36:59.
