data_PCOD8218827
_publ_section_title
;
Structure prediction by ZEFSAII (Michael W. Deem and Ramdas Pophale) SiO2 
 PCOD8218827
Probable space group: P M N A
;
_chemical_formula_sum "Si O2"
_cell_formula_units_Z 48
_cell_length_a 15.719987
_cell_length_b 9.333534
_cell_length_c 15.285402
_cell_angle_alpha 90.000000
_cell_angle_beta 90.000000
_cell_angle_gamma 90.000000
_cell_volume 2242.720544
_symmetry_space_group_name_H-M "P M N A"
_symmetry_group_IT_number 53
_symmetry_cell_setting 'orthorhombic'
loop_
_space_group_symop_operation_xyz
x,y,z
1/2-x,-y,1/2+z
x,-y,-z
1/2-x,y,1/2-z
-x,-y,-z
1/2+x,y,1/2-z
-x,y,z
1/2+x,-y,1/2+z
loop_
_atom_site_type_symbol
_atom_site_label
_atom_site_fract_x
_atom_site_fract_y
_atom_site_fract_z
Si Si1 0.663177 0.653024 0.198588
Si Si2 0.100976 0.336329 0.326778
Si Si3 0.398626 0.153803 0.333724
Si Si4 0.596319 0.836660 0.342459
Si Si5 0.594882 0.667805 0.016314
Si Si6 0.398333 0.338915 0.496503
O O1 0.750000 0.686348 0.250000
O O2 0.642404 0.485885 0.202161
O O3 0.596193 0.750675 0.251239
O O4 0.658792 0.704439 0.096632
O O5 0.132611 0.219386 0.257771
O O6 0.129250 0.274611 0.422376
O O7 0.000000 0.361053 0.325929
O O8 0.500000 0.150301 0.336643
O O9 0.364064 0.254695 0.411614
O O10 0.359654 0.993534 0.338817
O O11 0.500000 0.864146 0.370912
O O12 0.639331 0.741551 0.418611
O O13 0.500000 0.727548 0.038359
O O14 0.587733 0.500000 0.000000
O O15 0.360527 0.500000 0.500000
O O16 0.500000 0.346218 0.496768
#
# Coordination Sequence:
#
# PCOD8218827 Si02
#       6
#     8   8   8   8   8   8
#     4  11  21  33  50  76 107 139 174 217 265 325
#     4   9  17  34  59  81 101 132 182 238 283 325
#     4   9  17  30  51  79 104 129 172 227 276 319
#     4  10  19  32  51  74 104 141 176 216 268 323
#     4   8  15  31  56  79 100 131 174 224 272 317
#     4   9  16  27  47  76 106 134 169 213 256 306
#
# _framework density 21.402577999999998
#
# number of rings (size 3 to 8) (size 9 to 14) (size 15 to 20)
#    0.000    2.667    0.000    4.000    0.000    4.667 
#    0.000    9.167    0.000    6.000    0.000    0.000 
#    0.000    0.000    0.000    0.000    0.000    0.000 
#
# Total GULP energy -594780.561555 kJ/mol
# GULP energy per Si atom -12391.261699 kJ/mol
# Density = 2.135386 g / cm^3
# Si number density = 21.402578 Si / 1000 Ang^3
#
#
#
# Elastic Constant Matrix: (Units=GPa)
#
#
# Indices 1 2 3 4 5 6 
#
# 1 26.9465 9.0563 19.6423 0.0000 0.0000 0.0000
# 2 9.0563 149.4592 98.1031 0.0000 0.0000 0.0000
# 3 19.6423 98.1031 223.0388 0.0000 0.0000 0.0000
# 4 0.0000 0.0000 0.0000 21.6189 0.0000 0.0000
# 5 0.0000 0.0000 0.0000 0.0000 17.3363 0.0000
# 6 0.0000 0.0000 0.0000 0.0000 0.0000 6.0219
#
#
#
# Elastic Compliance Matrix: (Units=1/GPa)
#
#
# Indices 1 2 3 4 5 6 
#
# 1 0.039659 -0.000155 -0.003424 0.000000 0.000000 0.000000
# 2 -0.000155 0.009407 -0.004124 0.000000 0.000000 0.000000
# 3 -0.003424 -0.004124 0.006599 0.000000 0.000000 0.000000
# 4 0.000000 0.000000 0.000000 0.046256 0.000000 0.000000
# 5 0.000000 0.000000 0.000000 0.000000 0.057682 0.000000
# 6 0.000000 0.000000 0.000000 0.000000 0.000000 0.166061
#
#
# Mechanical properties :
#
#
# Convention : Reuss Voigt Hill
#
# Bulk Modulus (GPa) = 24.84005 72.56087 48.70046
# Shear Modulus (GPa) = 14.10473 27.17161 20.63817
#
# Velocity S-wave (km/s) = 2.56992 3.56694 3.10866
# Velocity P-wave (km/s) = 4.52076 7.13726 5.97402
#
# Compressibility (1/GPa) = 0.04025758
#
# Stress axis : x y z
#
# Youngs Moduli (GPa) = 25.21507 106.30187 151.53735
#
# Poissons Ratio (x) = 0.01652 0.51890
# Poissons Ratio (y) = 0.00392 0.62495
# Poissons Ratio (z) = 0.08634 0.43839
#
# Static dielectric constant tensor:
#      x y z
#    x 3.250370 0.000000 0.000000 
#    y 0.000000 3.830620 0.000000 
#    z 0.000000 0.000000 4.647620 
# 
# 
# High freq. dielectric constant tensor:
#      x y z
#    x 1.787610 0.000000 0.000000 
#    y 0.000000 1.820580 0.000000 
#    z 0.000000 0.000000 1.860580 
# 
# From -- ./inp_files/23650.got.cif
#   From: 2010.03.12/outbox.cif.g09.slc.cpg/sg53_12_cif.got.tgz:23650.got - 2010.04.16 14:36:59.
