data_PCOD8218785
_publ_section_title
;
Structure prediction by ZEFSAII (Michael W. Deem and Ramdas Pophale) SiO2 
 PCOD8218785
Probable space group: P M N A
;
_chemical_formula_sum "Si O2"
_cell_formula_units_Z 48
_cell_length_a 9.112556
_cell_length_b 20.777683
_cell_length_c 13.775758
_cell_angle_alpha 90.000000
_cell_angle_beta 90.000000
_cell_angle_gamma 90.000000
_cell_volume 2608.271712
_symmetry_space_group_name_H-M "P M N A"
_symmetry_group_IT_number 53
_symmetry_cell_setting 'orthorhombic'
loop_
_space_group_symop_operation_xyz
x,y,z
1/2-x,-y,1/2+z
x,-y,-z
1/2-x,y,1/2-z
-x,-y,-z
1/2+x,y,1/2-z
-x,y,z
1/2+x,-y,1/2+z
loop_
_atom_site_type_symbol
_atom_site_label
_atom_site_fract_x
_atom_site_fract_y
_atom_site_fract_z
Si Si1 0.663278 0.521756 0.390361
Si Si2 0.828288 0.601673 0.659564
Si Si3 0.170916 0.642748 0.446392
Si Si4 0.826240 0.905334 0.453818
Si Si5 0.173775 0.033322 0.349922
Si Si6 0.172904 0.777210 0.352751
O O1 0.650248 0.500000 0.500000
O O2 0.500000 0.523967 0.343554
O O3 0.767768 0.471195 0.337277
O O4 0.736634 0.592156 0.382802
O O5 0.750000 0.638439 0.750000
O O6 0.787946 0.637849 0.560078
O O7 0.000000 0.600047 0.677966
O O8 0.214157 0.713642 0.412385
O O9 0.000000 0.627120 0.430839
O O10 0.774304 0.917735 0.564711
O O11 0.765359 0.837457 0.414743
O O12 0.000000 0.905799 0.454383
O O13 0.773001 0.962023 0.381808
O O14 0.250000 0.053913 0.250000
O O15 0.000000 0.035901 0.334799
O O16 0.250000 0.775404 0.250000
O O17 0.000000 0.783086 0.335814
#
# Coordination Sequence:
#
# PCOD8218785 Si02
#       6
#     8   8   8   8   8   8
#     4   9  17  30  49  71  94 121 155 197 241 284
#     4  10  19  32  50  71  95 125 161 200 243 290
#     4   9  19  34  50  69  97 130 161 196 241 292
#     4   8  16  31  50  71 100 135 165 195 239 292
#     4   9  16  29  50  75 101 131 165 201 241 283
#     4  10  20  35  53  72  95 127 164 199 239 289
#
# _framework density 18.402989999999999
#
# number of rings (size 3 to 8) (size 9 to 14) (size 15 to 20)
#    0.000    2.833    0.000    2.500    0.000    4.000 
#    0.000    5.000    0.000    0.000    0.000    0.000 
#    0.000    0.000    0.000    0.000    0.000    0.000 
#
# Total GULP energy -595012.464163 kJ/mol
# GULP energy per Si atom -12396.093003 kJ/mol
# Density = 1.836110 g / cm^3
# Si number density = 18.402990 Si / 1000 Ang^3
#
#
#
# Elastic Constant Matrix: (Units=GPa)
#
#
# Indices 1 2 3 4 5 6 
#
# 1 57.9479 38.6161 44.4944 0.0000 0.0000 0.0000
# 2 38.6161 133.8934 66.9464 0.0000 0.0000 0.0000
# 3 44.4944 66.9464 138.7012 0.0000 0.0000 0.0000
# 4 0.0000 0.0000 0.0000 21.5496 0.0000 0.0000
# 5 0.0000 0.0000 0.0000 0.0000 33.6808 0.0000
# 6 0.0000 0.0000 0.0000 0.0000 0.0000 15.9510
#
#
#
# Elastic Compliance Matrix: (Units=1/GPa)
#
#
# Indices 1 2 3 4 5 6 
#
# 1 0.024520 -0.004137 -0.005869 0.000000 0.000000 0.000000
# 2 -0.004137 0.010543 -0.003761 0.000000 0.000000 0.000000
# 3 -0.005869 -0.003761 0.010908 0.000000 0.000000 0.000000
# 4 0.000000 0.000000 0.000000 0.046405 0.000000 0.000000
# 5 0.000000 0.000000 0.000000 0.000000 0.029691 0.000000
# 6 0.000000 0.000000 0.000000 0.000000 0.000000 0.062692
#
#
# Mechanical properties :
#
#
# Convention : Reuss Voigt Hill
#
# Bulk Modulus (GPa) = 54.24316 70.07295 62.15806
# Shear Modulus (GPa) = 22.88973 26.26865 24.57919
#
# Velocity S-wave (km/s) = 3.53059 3.78221 3.65856
# Velocity P-wave (km/s) = 6.79406 7.56525 7.19000
#
# Compressibility (1/GPa) = 0.01843550
#
# Stress axis : x y z
#
# Youngs Moduli (GPa) = 40.78223 94.85391 91.67660
#
# Poissons Ratio (x) = 0.39245 0.53805
# Poissons Ratio (y) = 0.16873 0.34482
# Poissons Ratio (z) = 0.23935 0.35677
#
# Static dielectric constant tensor:
#      x y z
#    x 3.268960 0.000000 0.000000 
#    y 0.000000 3.510870 0.000000 
#    z 0.000000 0.000000 3.626160 
# 
# 
# High freq. dielectric constant tensor:
#      x y z
#    x 1.697250 0.000000 0.000000 
#    y 0.000000 1.695090 0.000000 
#    z 0.000000 0.000000 1.724140 
# 
# From -- ./inp_files/20321.got.cif
#   From: 2010.03.12/outbox.cif.g09.slc.cpg/sg53_11_cif.got.tgz:20321.got - 2010.04.16 14:36:59.
