data_PCOD8218640
_publ_section_title
;
Structure prediction by ZEFSAII (Michael W. Deem and Ramdas Pophale) SiO2 
 PCOD8218640
Probable space group: P M N A
;
_chemical_formula_sum "Si O2"
_cell_formula_units_Z 64
_cell_length_a 9.024784
_cell_length_b 14.233999
_cell_length_c 30.122631
_cell_angle_alpha 90.000000
_cell_angle_beta 90.000000
_cell_angle_gamma 90.000000
_cell_volume 3869.516020
_symmetry_space_group_name_H-M "P M N A"
_symmetry_group_IT_number 53
_symmetry_cell_setting 'orthorhombic'
loop_
_space_group_symop_operation_xyz
x,y,z
1/2-x,-y,1/2+z
x,-y,-z
1/2-x,y,1/2-z
-x,-y,-z
1/2+x,y,1/2-z
-x,y,z
1/2+x,-y,1/2+z
loop_
_atom_site_type_symbol
_atom_site_label
_atom_site_fract_x
_atom_site_fract_y
_atom_site_fract_z
Si Si1 0.173525 0.146355 0.705104
Si Si2 0.168251 0.428910 0.877880
Si Si3 0.173769 0.069150 0.611922
Si Si4 0.829096 0.268955 0.026438
Si Si5 0.174852 0.362972 0.704777
Si Si6 0.825240 0.453593 0.453463
Si Si7 0.835858 0.238467 0.926673
Si Si8 0.825277 0.056499 0.043600
O O1 0.250000 0.108809 0.750000
O O2 0.225644 0.083056 0.663143
O O3 0.217236 0.254280 0.695343
O O4 0.000000 0.136996 0.712494
O O5 0.259255 0.432519 0.832262
O O6 0.247825 0.492306 0.913814
O O7 0.170188 0.320675 0.891451
O O8 0.000000 0.464422 0.871090
O O9 0.212656 0.162098 0.584303
O O10 0.000000 0.052779 0.609404
O O11 0.254124 0.981207 0.589172
O O12 0.726773 0.345686 0.050248
O O13 0.777891 0.164901 0.040341
O O14 0.000000 0.286775 0.039270
O O15 0.802271 0.282470 0.974316
O O16 0.250000 0.396351 0.750000
O O17 0.000000 0.377039 0.707472
O O18 0.775289 0.500000 0.500000
O O19 0.000000 0.459554 0.447152
O O20 0.000000 0.190607 0.927100
O O21 0.000000 0.044920 0.046987
O O22 0.767365 0.000000 0.000000
#
# Coordination Sequence:
#
# PCOD8218640 Si02
#       8
#     8   8   8   8   8   8   8   8
#     4   9  19  32  47  70 100 133 166 205 249 299
#     4  11  21  33  52  75 100 137 178 210 253 304
#     4  11  21  32  48  74 104 134 169 209 255 301
#     4  10  20  36  53  70  98 135 176 217 249 293
#     4  10  19  33  50  73 105 135 169 210 255 304
#     4  11  23  35  50  74 104 135 170 213 259 305
#     4  10  19  31  49  71  99 136 174 210 247 295
#     4  10  20  35  52  72  99 134 175 211 247 296
#
# _framework density 16.539535999999998
#
# number of rings (size 3 to 8) (size 9 to 14) (size 15 to 20)
#    0.000    1.750    3.750    1.500    0.000    3.750 
#    0.000    0.000    0.000    0.000    0.000    0.875 
#    0.000    4.000    0.000    0.000    0.000    0.000 
#
# Total GULP energy -793630.919379 kJ/mol
# GULP energy per Si atom -12400.483115 kJ/mol
# Density = 1.650189 g / cm^3
# Si number density = 16.539536 Si / 1000 Ang^3
#
#
#
# Elastic Constant Matrix: (Units=GPa)
#
#
# Indices 1 2 3 4 5 6 
#
# 1 69.1260 40.1012 56.7884 0.0000 0.0000 0.0000
# 2 40.1012 77.2851 45.2115 0.0000 0.0000 0.0000
# 3 56.7884 45.2115 125.8059 0.0000 0.0000 0.0000
# 4 0.0000 0.0000 0.0000 25.6023 0.0000 0.0000
# 5 0.0000 0.0000 0.0000 0.0000 31.7613 0.0000
# 6 0.0000 0.0000 0.0000 0.0000 0.0000 24.6527
#
#
#
# Elastic Compliance Matrix: (Units=1/GPa)
#
#
# Indices 1 2 3 4 5 6 
#
# 1 0.026926 -0.008687 -0.009032 0.000000 0.000000 0.000000
# 2 -0.008687 0.019186 -0.002974 0.000000 0.000000 0.000000
# 3 -0.009032 -0.002974 0.013095 0.000000 0.000000 0.000000
# 4 0.000000 0.000000 0.000000 0.039059 0.000000 0.000000
# 5 0.000000 0.000000 0.000000 0.000000 0.031485 0.000000
# 6 0.000000 0.000000 0.000000 0.000000 0.000000 0.040564
#
#
# Mechanical properties :
#
#
# Convention : Reuss Voigt Hill
#
# Bulk Modulus (GPa) = 56.11561 61.82437 58.96999
# Shear Modulus (GPa) = 22.97351 25.07764 24.02557
#
# Velocity S-wave (km/s) = 3.73098 3.89810 3.81545
# Velocity P-wave (km/s) = 7.24997 7.59744 7.42574
#
# Compressibility (1/GPa) = 0.01782035
#
# Stress axis : x y z
#
# Youngs Moduli (GPa) = 37.13822 52.12041 76.36729
#
# Poissons Ratio (x) = 0.45279 0.68978
# Poissons Ratio (y) = 0.32264 0.22709
# Poissons Ratio (z) = 0.33545 0.15499
#
# Static dielectric constant tensor:
#      x y z
#    x 3.130510 0.000000 0.000000 
#    y 0.000000 2.925450 0.000000 
#    z 0.000000 0.000000 3.202730 
# 
# 
# High freq. dielectric constant tensor:
#      x y z
#    x 1.643130 0.000000 0.000000 
#    y 0.000000 1.607400 0.000000 
#    z 0.000000 0.000000 1.632440 
# 
# From -- ./inp_files/38487.got.cif
#   From: 2010.03.12/outbox.cif.g09.slc.cpg/sg53_20_cif.got.tgz:38487.got - 2010.04.16 14:36:59.
