data_PCOD8218890
_publ_section_title
;
Structure prediction by ZEFSAII (Michael W. Deem and Ramdas Pophale) SiO2 
 PCOD8218890
Probable space group: P M N A
;
_chemical_formula_sum "Si O2"
_cell_formula_units_Z 64
_cell_length_a 8.855259
_cell_length_b 14.688877
_cell_length_c 27.077913
_cell_angle_alpha 90.000000
_cell_angle_beta 90.000000
_cell_angle_gamma 90.000000
_cell_volume 3522.127318
_symmetry_space_group_name_H-M "P M N A"
_symmetry_group_IT_number 53
_symmetry_cell_setting 'orthorhombic'
loop_
_space_group_symop_operation_xyz
x,y,z
1/2-x,-y,1/2+z
x,-y,-z
1/2-x,y,1/2-z
-x,-y,-z
1/2+x,y,1/2-z
-x,y,z
1/2+x,-y,1/2+z
loop_
_atom_site_type_symbol
_atom_site_label
_atom_site_fract_x
_atom_site_fract_y
_atom_site_fract_z
Si Si1 0.321311 0.152441 0.197956
Si Si2 0.824629 0.838439 0.080203
Si Si3 0.176631 0.653934 0.416934
Si Si4 0.179222 0.342668 0.197758
Si Si5 0.174887 0.032716 0.118054
Si Si6 0.322559 0.475615 0.389972
Si Si7 0.673884 0.832112 0.532170
Si Si8 0.323517 0.648730 0.968813
O O1 0.250000 0.124110 0.250000
O O2 0.500000 0.163879 0.203211
O O3 0.248651 0.247112 0.179498
O O4 0.282622 0.073041 0.159752
O O5 0.731334 0.753034 0.101212
O O6 0.000000 0.814470 0.084545
O O7 0.783446 0.926754 0.112379
O O8 0.780879 0.859025 0.023430
O O9 0.256935 0.576995 0.384100
O O10 0.222526 0.639833 0.474003
O O11 0.000000 0.646357 0.408557
O O12 0.250000 0.371874 0.250000
O O13 0.225409 0.418665 0.158161
O O14 0.000000 0.331825 0.203020
O O15 0.208516 0.081342 0.066043
O O16 0.000000 0.045777 0.133042
O O17 0.500000 0.480764 0.395339
O O18 0.257190 0.431287 0.439431
O O19 0.500000 0.802255 0.535694
O O20 0.771547 0.746889 0.551446
O O21 0.500000 0.637559 0.960606
#
# Coordination Sequence:
#
# PCOD8218890 Si02
#       8
#     8   8   8   8   8   8   8   8
#     4  11  22  36  55  78 105 135 166 203 251 304
#     4   9  18  33  52  73 101 138 175 210 248 292
#     4  10  21  35  50  71 102 137 173 213 252 293
#     4  10  21  37  56  79 105 131 162 202 250 303
#     4  10  19  32  52  77 104 134 171 212 251 296
#     4  11  22  34  52  76 100 131 171 210 250 302
#     4   9  17  30  49  74 104 138 173 206 245 296
#     4  10  20  32  47  72 105 138 171 208 251 296
#
# _framework density 18.170835
#
# number of rings (size 3 to 8) (size 9 to 14) (size 15 to 20)
#    0.000    2.000    0.000    4.875    0.000   10.500 
#    0.000    0.000    0.000    4.500    0.000    3.500 
#    0.000    0.000    0.000    0.000    0.000    0.000 
#
# Total GULP energy -793837.610145 kJ/mol
# GULP energy per Si atom -12403.712659 kJ/mol
# Density = 1.812948 g / cm^3
# Si number density = 18.170835 Si / 1000 Ang^3
#
#
#
# Elastic Constant Matrix: (Units=GPa)
#
#
# Indices 1 2 3 4 5 6 
#
# 1 77.3555 49.3635 41.4810 0.0000 0.0000 0.0000
# 2 49.3635 131.3087 56.6888 0.0000 0.0000 0.0000
# 3 41.4810 56.6888 68.6325 0.0000 0.0000 0.0000
# 4 0.0000 0.0000 0.0000 28.7694 0.0000 0.0000
# 5 0.0000 0.0000 0.0000 0.0000 25.1795 0.0000
# 6 0.0000 0.0000 0.0000 0.0000 0.0000 24.6649
#
#
#
# Elastic Compliance Matrix: (Units=1/GPa)
#
#
# Indices 1 2 3 4 5 6 
#
# 1 0.020167 -0.003605 -0.009211 0.000000 0.000000 0.000000
# 2 -0.003605 0.012481 -0.008130 0.000000 0.000000 0.000000
# 3 -0.009211 -0.008130 0.026853 0.000000 0.000000 0.000000
# 4 0.000000 0.000000 0.000000 0.034759 0.000000 0.000000
# 5 0.000000 0.000000 0.000000 0.000000 0.039715 0.000000
# 6 0.000000 0.000000 0.000000 0.000000 0.000000 0.040543
#
#
# Mechanical properties :
#
#
# Convention : Reuss Voigt Hill
#
# Bulk Modulus (GPa) = 56.79154 63.59592 60.19373
# Shear Modulus (GPa) = 22.49410 24.37365 23.43388
#
# Velocity S-wave (km/s) = 3.52223 3.66643 3.59506
# Velocity P-wave (km/s) = 6.91835 7.28001 7.10148
#
# Compressibility (1/GPa) = 0.01760826
#
# Stress axis : x y z
#
# Youngs Moduli (GPa) = 49.58543 80.12342 37.23980
#
# Poissons Ratio (x) = 0.28883 0.34303
# Poissons Ratio (y) = 0.17874 0.30276
# Poissons Ratio (z) = 0.45676 0.65141
#
# Static dielectric constant tensor:
#      x y z
#    x 3.370660 0.000000 0.000000 
#    y 0.000000 3.433520 0.000000 
#    z 0.000000 0.000000 3.201430 
# 
# 
# High freq. dielectric constant tensor:
#      x y z
#    x 1.709570 0.000000 0.000000 
#    y 0.000000 1.706240 0.000000 
#    z 0.000000 0.000000 1.680100 
# 
# From -- ./inp_files/38477.got.cif
#   From: 2010.03.12/outbox.cif.g09.slc.cpg/sg53_20_cif.got.tgz:38477.got - 2010.04.16 14:36:59.
