data_PCOD8218755
_publ_section_title
;
Structure prediction by ZEFSAII (Michael W. Deem and Ramdas Pophale) SiO2 
 PCOD8218755
Probable space group: P M N A
;
_chemical_formula_sum "Si O2"
_cell_formula_units_Z 64
_cell_length_a 17.773352
_cell_length_b 12.463644
_cell_length_c 17.390863
_cell_angle_alpha 90.000000
_cell_angle_beta 90.000000
_cell_angle_gamma 90.000000
_cell_volume 3852.436702
_symmetry_space_group_name_H-M "P M N A"
_symmetry_group_IT_number 53
_symmetry_cell_setting 'orthorhombic'
loop_
_space_group_symop_operation_xyz
x,y,z
1/2-x,-y,1/2+z
x,-y,-z
1/2-x,y,1/2-z
-x,-y,-z
1/2+x,y,1/2-z
-x,y,z
1/2+x,-y,1/2+z
loop_
_atom_site_type_symbol
_atom_site_label
_atom_site_fract_x
_atom_site_fract_y
_atom_site_fract_z
Si Si1 0.298605 0.006281 0.088404
Si Si2 0.310501 0.878432 0.314317
Si Si3 0.583622 0.547892 0.667616
Si Si4 0.750571 0.238304 0.376744
Si Si5 0.368065 0.735467 0.758328
Si Si6 0.668511 0.383459 0.479217
Si Si7 0.589258 0.317924 0.632245
Si Si8 0.914317 0.969540 0.720158
O O1 0.254144 0.114829 0.102775
O O2 0.374761 0.002403 0.138922
O O3 0.238323 0.914034 0.111330
O O4 0.323202 0.000000 0.000000
O O5 0.250000 0.845360 0.250000
O O6 0.363502 0.778345 0.332203
O O7 0.364844 0.974667 0.286628
O O8 0.500000 0.531527 0.638948
O O9 0.587321 0.623843 0.743069
O O10 0.622166 0.608732 0.598412
O O11 0.612803 0.425475 0.680584
O O12 0.688950 0.249322 0.311108
O O13 0.828306 0.281199 0.340614
O O14 0.735867 0.302943 0.456230
O O15 0.419121 0.841891 0.763567
O O16 0.702284 0.500000 0.500000
O O17 0.614500 0.335279 0.544223
O O18 0.500000 0.291782 0.635710
O O19 0.000000 0.013626 0.719024
#
# Coordination Sequence:
#
# PCOD8218755 Si02
#       8
#     8   8   8   8   8   8   8   8
#     4  10  19  32  52  70  97 130 160 200 245 289
#     4  10  20  35  50  70  97 131 164 196 241 292
#     4   9  17  29  46  68  94 123 155 193 237 281
#     4   9  16  29  47  68  95 123 160 195 239 278
#     4   9  16  29  48  71  93 121 156 201 239 279
#     4   9  17  29  45  69  94 126 156 194 231 282
#     4  10  19  32  48  68  97 131 161 192 234 287
#     4  10  19  32  52  74  97 125 160 203 246 290
#
# _framework density 16.612862
#
# number of rings (size 3 to 8) (size 9 to 14) (size 15 to 20)
#    0.000    2.500    1.250    1.875    0.000    1.750 
#    6.750    0.000    0.000    1.500    0.000    0.000 
#    0.000    3.000    0.000    0.000    0.000    0.000 
#
# Total GULP energy -792932.026362 kJ/mol
# GULP energy per Si atom -12389.562912 kJ/mol
# Density = 1.657505 g / cm^3
# Si number density = 16.612862 Si / 1000 Ang^3
#
#
#
# Elastic Constant Matrix: (Units=GPa)
#
#
# Indices 1 2 3 4 5 6 
#
# 1 79.4739 42.8359 27.2251 0.0000 0.0000 0.0000
# 2 42.8359 94.6300 36.2968 0.0000 0.0000 0.0000
# 3 27.2251 36.2968 64.7929 0.0000 0.0000 0.0000
# 4 0.0000 0.0000 0.0000 20.4666 0.0000 0.0000
# 5 0.0000 0.0000 0.0000 0.0000 -73.9251 0.0000
# 6 0.0000 0.0000 0.0000 0.0000 0.0000 23.8749
#
#
#
# Elastic Compliance Matrix: (Units=1/GPa)
#
#
# Indices 1 2 3 4 5 6 
#
# 1 0.017303 -0.006424 -0.003672 0.000000 0.000000 0.000000
# 2 -0.006424 0.015845 -0.006177 0.000000 0.000000 0.000000
# 3 -0.003672 -0.006177 0.020437 0.000000 0.000000 0.000000
# 4 0.000000 0.000000 0.000000 0.048860 0.000000 0.000000
# 5 0.000000 0.000000 0.000000 0.000000 -0.013527 0.000000
# 6 0.000000 0.000000 0.000000 0.000000 0.000000 0.041885
#
#
# Mechanical properties :
#
#
# Convention : Reuss Voigt Hill
#
# Bulk Modulus (GPa) = 47.53029 50.17916 48.85472
# Shear Modulus (GPa) = 29.34938 2.91919 16.13428
#
# Velocity S-wave (km/s) = 4.20773 1.32703 3.11978
# Velocity P-wave (km/s) = 7.23044 5.71127 6.51529
#
# Compressibility (1/GPa) = 0.02103922
#
# Stress axis : x y z
#
# Youngs Moduli (GPa) = 57.79282 63.11246 48.93125
#
# Poissons Ratio (x) = 0.40545 0.17966
# Poissons Ratio (y) = 0.37128 0.30224
# Poissons Ratio (z) = 0.21220 0.38983
#
# Static dielectric constant tensor:
#      x y z
#    x 3.096950 0.000000 0.000000 
#    y 0.000000 3.581060 0.000000 
#    z 0.000000 0.000000 3.178220 
# 
# 
# High freq. dielectric constant tensor:
#      x y z
#    x 1.627730 0.000000 0.000000 
#    y 0.000000 1.646960 0.000000 
#    z 0.000000 0.000000 1.623150 
# 
# From -- ./inp_files/29118.got.cif
#   From: 2010.03.12/outbox.cif.g09.slc.cpg/sg53_15_cif.got.tgz:29118.got - 2010.04.16 14:36:59.
