data_PCOD8218303
_publ_section_title
;
Structure prediction by ZEFSAII (Michael W. Deem and Ramdas Pophale) SiO2 
 PCOD8218303
Probable space group: P M N A
;
_chemical_formula_sum "Si O2"
_cell_formula_units_Z 40
_cell_length_a 18.485539
_cell_length_b 9.132002
_cell_length_c 12.477191
_cell_angle_alpha 90.000000
_cell_angle_beta 90.000000
_cell_angle_gamma 90.000000
_cell_volume 2106.274352
_symmetry_space_group_name_H-M "P M N A"
_symmetry_group_IT_number 53
_symmetry_cell_setting 'orthorhombic'
loop_
_space_group_symop_operation_xyz
x,y,z
1/2-x,-y,1/2+z
x,-y,-z
1/2-x,y,1/2-z
-x,-y,-z
1/2+x,y,1/2-z
-x,y,z
1/2+x,-y,1/2+z
loop_
_atom_site_type_symbol
_atom_site_label
_atom_site_fract_x
_atom_site_fract_y
_atom_site_fract_z
Si Si1 0.829388 0.324601 0.701321
Si Si2 0.417258 0.134481 0.635694
Si Si3 0.640467 0.826167 0.582788
Si Si4 0.306142 0.832346 0.981545
Si Si5 0.166848 0.657112 0.719296
O O1 0.750000 0.310243 0.750000
O O2 0.886414 0.242572 0.775728
O O3 0.830810 0.258347 0.583915
O O4 0.855128 0.492182 0.691149
O O5 0.500000 0.098930 0.663455
O O6 0.412973 0.205711 0.516634
O O7 0.370044 0.986683 0.633871
O O8 0.721165 0.813944 0.536973
O O9 0.622686 0.709312 0.675743
O O10 0.349393 0.765257 0.880206
O O11 0.328720 0.000000 0.000000
O O12 0.250000 0.668680 0.750000
#
# Coordination Sequence:
#
# PCOD8218303 Si02
#       5
#     8   8   8   8   8
#     4  11  20  36  55  83 119 151 193 238 288 345
#     4  11  22  37  59  86 119 156 193 236 284 343
#     4  10  18  36  54  83 116 149 193 233 285 336
#     4  11  18  32  58  87 112 145 192 243 289 332
#     4   9  21  32  54  85 116 150 188 242 291 338
#
# _framework density 18.990877999999999
#
# number of rings (size 3 to 8) (size 9 to 14) (size 15 to 20)
#    0.000    1.600    4.000    3.000    0.000    2.400 
#    0.000    3.000    0.000    9.000    0.000    0.000 
#    0.000    0.000    0.000    0.000    0.000    0.000 
#
# Total GULP energy -495999.795571 kJ/mol
# GULP energy per Si atom -12399.994889 kJ/mol
# Density = 1.894765 g / cm^3
# Si number density = 18.990878 Si / 1000 Ang^3
#
#
#
# Elastic Constant Matrix: (Units=GPa)
#
#
# Indices 1 2 3 4 5 6 
#
# 1 40.2100 20.4438 25.6121 0.0000 0.0000 0.0000
# 2 20.4438 137.4586 94.8063 0.0000 0.0000 0.0000
# 3 25.6121 94.8063 146.7207 0.0000 0.0000 0.0000
# 4 0.0000 0.0000 0.0000 42.8454 0.0000 0.0000
# 5 0.0000 0.0000 0.0000 0.0000 18.3145 0.0000
# 6 0.0000 0.0000 0.0000 0.0000 0.0000 5.0872
#
#
#
# Elastic Compliance Matrix: (Units=1/GPa)
#
#
# Indices 1 2 3 4 5 6 
#
# 1 0.028137 -0.001438 -0.003983 0.000000 0.000000 0.000000
# 2 -0.001438 0.013197 -0.008277 0.000000 0.000000 0.000000
# 3 -0.003983 -0.008277 0.012859 0.000000 0.000000 0.000000
# 4 0.000000 0.000000 0.000000 0.023340 0.000000 0.000000
# 5 0.000000 0.000000 0.000000 0.000000 0.054602 0.000000
# 6 0.000000 0.000000 0.000000 0.000000 0.000000 0.196571
#
#
# Mechanical properties :
#
#
# Convention : Reuss Voigt Hill
#
# Bulk Modulus (GPa) = 37.31460 67.34596 52.33028
# Shear Modulus (GPa) = 13.69739 25.48457 19.59098
#
# Velocity S-wave (km/s) = 2.68855 3.66722 3.21534
# Velocity P-wave (km/s) = 5.41563 7.31236 6.43427
#
# Compressibility (1/GPa) = 0.02679916
#
# Stress axis : x y z
#
# Youngs Moduli (GPa) = 35.54008 75.77336 77.76656
#
# Poissons Ratio (x) = 0.10896 0.30971
# Poissons Ratio (y) = 0.05110 0.64365
# Poissons Ratio (z) = 0.14154 0.62715
#
# Static dielectric constant tensor:
#      x y z
#    x 3.061040 0.000000 0.000000 
#    y 0.000000 3.623660 0.000000 
#    z 0.000000 0.000000 3.809550 
# 
# 
# High freq. dielectric constant tensor:
#      x y z
#    x 1.689420 0.000000 0.000000 
#    y 0.000000 1.742710 0.000000 
#    z 0.000000 0.000000 1.756820 
# 
# From -- ./inp_files/16661.got.cif
#   From: 2010.03.12/outbox.cif.g09.slc.cpg/sg53_9_cif.got.tgz:16661.got - 2010.04.16 14:36:59.
