data_PCOD8218764
_publ_section_title
;
Structure prediction by ZEFSAII (Michael W. Deem and Ramdas Pophale) SiO2 
 PCOD8218764
Probable space group: P M N A
;
_chemical_formula_sum "Si O2"
_cell_formula_units_Z 48
_cell_length_a 9.045176
_cell_length_b 16.007051
_cell_length_c 18.561596
_cell_angle_alpha 90.000000
_cell_angle_beta 90.000000
_cell_angle_gamma 90.000000
_cell_volume 2687.470255
_symmetry_space_group_name_H-M "P M N A"
_symmetry_group_IT_number 53
_symmetry_cell_setting 'orthorhombic'
loop_
_space_group_symop_operation_xyz
x,y,z
1/2-x,-y,1/2+z
x,-y,-z
1/2-x,y,1/2-z
-x,-y,-z
1/2+x,y,1/2-z
-x,y,z
1/2+x,-y,1/2+z
loop_
_atom_site_type_symbol
_atom_site_label
_atom_site_fract_x
_atom_site_fract_y
_atom_site_fract_z
Si Si1 0.825296 0.523641 0.823778
Si Si2 0.827954 0.907656 0.526979
Si Si3 0.826354 0.753726 0.032734
Si Si4 0.674325 0.665573 0.904939
Si Si5 0.170946 0.832109 0.676319
Si Si6 0.829319 0.666234 0.178694
O O1 0.750000 0.553030 0.750000
O O2 0.758119 0.580470 0.886367
O O3 0.781366 0.428244 0.841336
O O4 0.000000 0.537544 0.818566
O O5 0.727945 0.848255 0.477593
O O6 0.785257 0.895496 0.611308
O O7 0.000000 0.883640 0.516514
O O8 0.793070 0.000000 0.500000
O O9 0.789487 0.728077 0.114159
O O10 0.000000 0.745847 0.015443
O O11 0.733870 0.692097 0.982475
O O12 0.500000 0.649965 0.909274
O O13 0.713460 0.738009 0.847247
O O14 0.250000 0.858269 0.750000
O O15 0.000000 0.839017 0.693459
O O16 0.750000 0.699578 0.250000
O O17 0.000000 0.666997 0.197248
#
# Coordination Sequence:
#
# PCOD8218764 Si02
#       6
#     8   8   8   8   8   8
#     4  10  19  32  49  71 101 137 175 215 256 296
#     4   9  19  37  57  76 102 135 167 202 251 311
#     4  10  20  35  54  77 102 129 166 212 259 304
#     4  10  20  33  49  73 103 137 174 208 252 309
#     4   9  18  31  49  73 100 130 163 199 243 296
#     4   9  20  36  53  73 100 135 174 215 257 300
#
# _framework density 17.860662999999999
#
# number of rings (size 3 to 8) (size 9 to 14) (size 15 to 20)
#    0.000    2.500    0.000    3.000    0.000    7.667 
#    0.000    4.167    0.000    4.000    0.000    0.000 
#    0.000    0.000    0.000    0.000    0.000    0.000 
#
# Total GULP energy -595237.360186 kJ/mol
# GULP energy per Si atom -12400.778337 kJ/mol
# Density = 1.782001 g / cm^3
# Si number density = 17.860663 Si / 1000 Ang^3
#
#
#
# Elastic Constant Matrix: (Units=GPa)
#
#
# Indices 1 2 3 4 5 6 
#
# 1 72.7747 40.5284 55.1023 0.0000 0.0000 0.0000
# 2 40.5284 81.2242 65.9689 0.0000 0.0000 0.0000
# 3 55.1023 65.9689 124.7773 0.0000 0.0000 0.0000
# 4 0.0000 0.0000 0.0000 24.3656 0.0000 0.0000
# 5 0.0000 0.0000 0.0000 0.0000 32.6630 0.0000
# 6 0.0000 0.0000 0.0000 0.0000 0.0000 9.6708
#
#
#
# Elastic Compliance Matrix: (Units=1/GPa)
#
#
# Indices 1 2 3 4 5 6 
#
# 1 0.021911 -0.005388 -0.006828 0.000000 0.000000 0.000000
# 2 -0.005388 0.022901 -0.009728 0.000000 0.000000 0.000000
# 3 -0.006828 -0.009728 0.016173 0.000000 0.000000 0.000000
# 4 0.000000 0.000000 0.000000 0.041041 0.000000 0.000000
# 5 0.000000 0.000000 0.000000 0.000000 0.030616 0.000000
# 6 0.000000 0.000000 0.000000 0.000000 0.000000 0.103404
#
#
# Mechanical properties :
#
#
# Convention : Reuss Voigt Hill
#
# Bulk Modulus (GPa) = 58.48811 66.88615 62.68713
# Shear Modulus (GPa) = 17.50496 21.15164 19.32830
#
# Velocity S-wave (km/s) = 3.13403 3.44504 3.29321
# Velocity P-wave (km/s) = 6.77600 7.30442 7.04516
#
# Compressibility (1/GPa) = 0.01709749
#
# Stress axis : x y z
#
# Youngs Moduli (GPa) = 45.63900 43.66588 61.83237
#
# Poissons Ratio (x) = 0.23526 0.42217
# Poissons Ratio (y) = 0.24589 0.60153
# Poissons Ratio (z) = 0.31161 0.42480
#
# Static dielectric constant tensor:
#      x y z
#    x 3.338860 0.000000 0.000000 
#    y 0.000000 3.237520 0.000000 
#    z 0.000000 0.000000 3.275630 
# 
# 
# High freq. dielectric constant tensor:
#      x y z
#    x 1.697970 0.000000 0.000000 
#    y 0.000000 1.677270 0.000000 
#    z 0.000000 0.000000 1.689190 
# 
# From -- ./inp_files/26162.got.cif
#   From: 2010.03.12/outbox.cif.g09.slc.cpg/sg53_14_cif.got.tgz:26162.got - 2010.04.16 14:36:59.
