data_PCOD8218969
_publ_section_title
;
Structure prediction by ZEFSAII (Michael W. Deem and Ramdas Pophale) SiO2 
 PCOD8218969
Probable space group: P M N A
;
_chemical_formula_sum "Si O2"
_cell_formula_units_Z 64
_cell_length_a 9.298672
_cell_length_b 11.837045
_cell_length_c 31.476136
_cell_angle_alpha 90.000000
_cell_angle_beta 90.000000
_cell_angle_gamma 90.000000
_cell_volume 3464.540484
_symmetry_space_group_name_H-M "P M N A"
_symmetry_group_IT_number 53
_symmetry_cell_setting 'orthorhombic'
loop_
_space_group_symop_operation_xyz
x,y,z
1/2-x,-y,1/2+z
x,-y,-z
1/2-x,y,1/2-z
-x,-y,-z
1/2+x,y,1/2-z
-x,y,z
1/2+x,-y,1/2+z
loop_
_atom_site_type_symbol
_atom_site_label
_atom_site_fract_x
_atom_site_fract_y
_atom_site_fract_z
Si Si1 0.337013 0.305507 0.710077
Si Si2 0.336070 0.851428 0.080342
Si Si3 0.331492 0.955318 0.291576
Si Si4 0.664967 0.335048 0.617807
Si Si5 0.338464 0.935198 0.864941
Si Si6 0.332898 0.748467 0.928361
Si Si7 0.159698 0.867465 0.998947
Si Si8 0.832335 0.474114 0.048999
O O1 0.250000 0.356307 0.750000
O O2 0.500000 0.310200 0.725341
O O3 0.292732 0.175675 0.700201
O O4 0.314223 0.378974 0.666695
O O5 0.500000 0.821729 0.068872
O O6 0.275930 0.768575 0.116358
O O7 0.235188 0.821991 0.040844
O O8 0.321514 0.980313 0.095099
O O9 0.250000 0.999235 0.250000
O O10 0.500000 0.974942 0.286118
O O11 0.278435 0.034248 0.329914
O O12 0.500000 0.293156 0.612591
O O13 0.703312 0.424263 0.581125
O O14 0.500000 0.948088 0.846174
O O15 0.314340 0.807135 0.882020
O O16 0.500000 0.734916 0.940035
O O17 0.257444 0.627989 0.931276
O O18 0.258014 0.834048 0.960156
O O19 0.000000 0.812243 0.995778
O O20 0.145419 0.000000 0.000000
O O21 0.000000 0.442997 0.050142
O O22 0.785684 0.500000 0.000000
#
# Coordination Sequence:
#
# PCOD8218969 Si02
#       8
#     8   8   8   8   8   8   8   8
#     4   9  18  31  50  79 112 146 180 223 277 331
#     4  11  21  33  52  79 112 145 180 223 275 329
#     4  10  19  32  53  80 114 151 185 223 272 336
#     4  10  20  36  56  80 113 147 186 232 279 334
#     4  10  21  35  52  79 114 147 179 225 278 330
#     4  11  23  39  58  80 111 145 186 235 279 330
#     4  11  22  34  51  75 106 143 182 222 267 325
#     4  10  22  40  60  81 109 147 192 241 288 338
#
# _framework density 18.472867000000001
#
# number of rings (size 3 to 8) (size 9 to 14) (size 15 to 20)
#    0.000    1.750    2.500    2.250    0.000    4.750 
#    0.000    0.000    0.000    0.750    0.000    3.500 
#    0.000    0.000    0.000    0.000    0.000    0.000 
#
# Total GULP energy -793341.043034 kJ/mol
# GULP energy per Si atom -12395.953797 kJ/mol
# Density = 1.843082 g / cm^3
# Si number density = 18.472867 Si / 1000 Ang^3
#
#
#
# Elastic Constant Matrix: (Units=GPa)
#
#
# Indices 1 2 3 4 5 6 
#
# 1 99.7660 40.8786 53.3120 0.0000 0.0000 0.0000
# 2 40.8786 65.1760 30.9359 0.0000 0.0000 0.0000
# 3 53.3120 30.9359 117.6405 0.0000 0.0000 0.0000
# 4 0.0000 0.0000 0.0000 25.6500 0.0000 0.0000
# 5 0.0000 0.0000 0.0000 0.0000 34.3533 0.0000
# 6 0.0000 0.0000 0.0000 0.0000 0.0000 14.9229
#
#
#
# Elastic Compliance Matrix: (Units=1/GPa)
#
#
# Indices 1 2 3 4 5 6 
#
# 1 0.015883 -0.007479 -0.005231 0.000000 0.000000 0.000000
# 2 -0.007479 0.021053 -0.002147 0.000000 0.000000 0.000000
# 3 -0.005231 -0.002147 0.011436 0.000000 0.000000 0.000000
# 4 0.000000 0.000000 0.000000 0.038986 0.000000 0.000000
# 5 0.000000 0.000000 0.000000 0.000000 0.029109 0.000000
# 6 0.000000 0.000000 0.000000 0.000000 0.000000 0.067011
#
#
# Mechanical properties :
#
#
# Convention : Reuss Voigt Hill
#
# Bulk Modulus (GPa) = 53.59743 59.20393 56.40068
# Shear Modulus (GPa) = 22.78810 25.48231 24.13520
#
# Velocity S-wave (km/s) = 3.51607 3.71812 3.61851
# Velocity P-wave (km/s) = 6.74987 7.10994 6.93225
#
# Compressibility (1/GPa) = 0.01865761
#
# Stress axis : x y z
#
# Youngs Moduli (GPa) = 62.95896 47.49913 87.44533
#
# Poissons Ratio (x) = 0.35525 0.45744
# Poissons Ratio (y) = 0.47088 0.18774
# Poissons Ratio (z) = 0.32935 0.10198
#
# Static dielectric constant tensor:
#      x y z
#    x 3.492330 0.000000 0.000000 
#    y 0.000000 3.148690 0.000000 
#    z 0.000000 0.000000 3.468840 
# 
# 
# High freq. dielectric constant tensor:
#      x y z
#    x 1.727010 0.000000 0.000000 
#    y 0.000000 1.682190 0.000000 
#    z 0.000000 0.000000 1.717510 
# 
# From -- ./inp_files/38211.got.cif
#   From: 2010.03.12/outbox.cif.g09.slc.cpg/sg53_20_cif.got.tgz:38211.got - 2010.04.16 14:36:59.
