data_PCOD8218954
_publ_section_title
;
Structure prediction by ZEFSAII (Michael W. Deem and Ramdas Pophale) SiO2 
 PCOD8218954
Probable space group: P M N A
;
_chemical_formula_sum "Si O2"
_cell_formula_units_Z 56
_cell_length_a 9.033717
_cell_length_b 22.662576
_cell_length_c 14.079326
_cell_angle_alpha 90.000000
_cell_angle_beta 90.000000
_cell_angle_gamma 90.000000
_cell_volume 2882.422371
_symmetry_space_group_name_H-M "P M N A"
_symmetry_group_IT_number 53
_symmetry_cell_setting 'orthorhombic'
loop_
_space_group_symop_operation_xyz
x,y,z
1/2-x,-y,1/2+z
x,-y,-z
1/2-x,y,1/2-z
-x,-y,-z
1/2+x,y,1/2-z
-x,y,z
1/2+x,-y,1/2+z
loop_
_atom_site_type_symbol
_atom_site_label
_atom_site_fract_x
_atom_site_fract_y
_atom_site_fract_z
Si Si1 0.673840 0.906243 0.659378
Si Si2 0.674168 0.368118 0.538172
Si Si3 0.673308 0.131472 0.548847
Si Si4 0.175318 0.398021 0.343192
Si Si5 0.664777 0.019954 0.892689
Si Si6 0.826921 0.748456 0.149122
Si Si7 0.661101 0.524256 0.104602
O O1 0.750000 0.873638 0.750000
O O2 0.500000 0.906481 0.674618
O O3 0.718613 0.872910 0.562270
O O4 0.732371 0.973431 0.661223
O O5 0.500000 0.371521 0.519677
O O6 0.756641 0.369028 0.437405
O O7 0.723600 0.308992 0.591358
O O8 0.721242 0.422541 0.606673
O O9 0.500000 0.118262 0.560373
O O10 0.760579 0.084300 0.613083
O O11 0.719046 0.195689 0.585467
O O12 0.250000 0.368424 0.250000
O O13 0.214960 0.467849 0.335413
O O14 0.000000 0.386977 0.343930
O O15 0.500000 0.022449 0.847286
O O16 0.652889 0.000000 0.000000
O O17 0.750000 0.751165 0.250000
O O18 0.000000 0.747276 0.168481
O O19 0.500000 0.547367 0.140468
O O20 0.640919 0.500000 0.000000
#
# Coordination Sequence:
#
# PCOD8218954 Si02
#       7
#     8   8   8   8   8   8   8
#     4  10  19  32  53  79 108 142 176 213 262 318
#     4  10  20  35  55  79 109 143 180 223 269 317
#     4   9  19  37  56  75 106 144 179 219 266 313
#     4  10  20  34  54  81 112 145 179 218 266 321
#     4   9  17  30  50  77 107 137 172 213 256 306
#     4  10  23  41  59  79 103 136 179 225 270 317
#     4   8  16  31  50  74 105 139 174 213 259 309
#
# _framework density 19.428104000000001
#
# number of rings (size 3 to 8) (size 9 to 14) (size 15 to 20)
#    0.000    2.571    0.000    2.571    0.000    8.286 
#    0.000    5.000    0.000    1.714    0.000    0.000 
#    0.000    0.000    0.000    0.000    0.000    0.000 
#
# Total GULP energy -694174.180173 kJ/mol
# GULP energy per Si atom -12395.967503 kJ/mol
# Density = 1.938388 g / cm^3
# Si number density = 19.428104 Si / 1000 Ang^3
#
#
#
# Elastic Constant Matrix: (Units=GPa)
#
#
# Indices 1 2 3 4 5 6 
#
# 1 89.0572 49.4677 55.6630 0.0000 0.0000 0.0000
# 2 49.4677 120.3140 52.4344 0.0000 0.0000 0.0000
# 3 55.6630 52.4344 118.1022 0.0000 0.0000 0.0000
# 4 0.0000 0.0000 0.0000 20.4205 0.0000 0.0000
# 5 0.0000 0.0000 0.0000 0.0000 30.4944 0.0000
# 6 0.0000 0.0000 0.0000 0.0000 0.0000 25.5862
#
#
#
# Elastic Compliance Matrix: (Units=1/GPa)
#
#
# Indices 1 2 3 4 5 6 
#
# 1 0.017697 -0.004515 -0.006336 0.000000 0.000000 0.000000
# 2 -0.004515 0.011457 -0.002959 0.000000 0.000000 0.000000
# 3 -0.006336 -0.002959 0.012767 0.000000 0.000000 0.000000
# 4 0.000000 0.000000 0.000000 0.048970 0.000000 0.000000
# 5 0.000000 0.000000 0.000000 0.000000 0.032793 0.000000
# 6 0.000000 0.000000 0.000000 0.000000 0.000000 0.039084
#
#
# Mechanical properties :
#
#
# Convention : Reuss Voigt Hill
#
# Bulk Modulus (GPa) = 69.92227 71.40040 70.66134
# Shear Modulus (GPa) = 25.62059 26.62744 26.12401
#
# Velocity S-wave (km/s) = 3.63538 3.70613 3.67093
# Velocity P-wave (km/s) = 7.32733 7.42595 7.37680
#
# Compressibility (1/GPa) = 0.01430160
#
# Stress axis : x y z
#
# Youngs Moduli (GPa) = 56.50730 87.28007 78.32487
#
# Poissons Ratio (x) = 0.39404 0.49629
# Poissons Ratio (y) = 0.25511 0.23176
# Poissons Ratio (z) = 0.35805 0.25826
#
# Static dielectric constant tensor:
#      x y z
#    x 3.613380 0.000000 0.000000 
#    y 0.000000 3.531610 0.000000 
#    z 0.000000 0.000000 3.762610 
# 
# 
# High freq. dielectric constant tensor:
#      x y z
#    x 1.761760 0.000000 0.000000 
#    y 0.000000 1.732100 0.000000 
#    z 0.000000 0.000000 1.760380 
# 
# From -- ./inp_files/20457.got.cif
#   From: 2010.03.12/outbox.cif.g09.slc.cpg/sg53_11_cif.got.tgz:20457.got - 2010.04.16 14:36:59.
