data_PCOD8218153
_publ_section_title
;
Structure prediction by ZEFSAII (Michael W. Deem and Ramdas Pophale) SiO2 
 PCOD8218153
Probable space group: P M N A
;
_chemical_formula_sum "Si O2"
_cell_formula_units_Z 64
_cell_length_a 17.574596
_cell_length_b 12.075432
_cell_length_c 15.307926
_cell_angle_alpha 90.000000
_cell_angle_beta 90.000000
_cell_angle_gamma 90.000000
_cell_volume 3248.660898
_symmetry_space_group_name_H-M "P M N A"
_symmetry_group_IT_number 53
_symmetry_cell_setting 'orthorhombic'
loop_
_space_group_symop_operation_xyz
x,y,z
1/2-x,-y,1/2+z
x,-y,-z
1/2-x,y,1/2-z
-x,-y,-z
1/2+x,y,1/2-z
-x,y,z
1/2+x,-y,1/2+z
loop_
_atom_site_type_symbol
_atom_site_label
_atom_site_fract_x
_atom_site_fract_y
_atom_site_fract_z
Si Si1 0.218615 0.365112 0.344190
Si Si2 0.641559 0.758660 0.372236
Si Si3 0.747245 0.129196 0.407236
Si Si4 0.915487 0.122084 0.037163
Si Si5 0.915030 0.744206 0.310032
Si Si6 0.912652 0.504832 0.718162
Si Si7 0.846856 0.510909 0.095805
Si Si8 0.715818 0.887227 0.109904
O O1 0.250000 0.396176 0.250000
O O2 0.216302 0.234032 0.359766
O O3 0.132378 0.409417 0.343766
O O4 0.272274 0.431689 0.411693
O O5 0.596066 0.792649 0.458483
O O6 0.582586 0.770416 0.293071
O O7 0.676552 0.637266 0.386977
O O8 0.712255 0.834198 0.341553
O O9 0.654655 0.134681 0.394608
O O10 0.768566 0.133388 0.508284
O O11 0.784047 0.018023 0.366285
O O12 0.000000 0.142823 0.079148
O O13 0.909986 0.000000 0.000000
O O14 0.887307 0.616904 0.315698
O O15 0.862271 0.828383 0.363667
O O16 0.000000 0.759353 0.347525
O O17 0.900142 0.524953 0.822673
O O18 0.000000 0.526127 0.698501
O O19 0.887629 0.500000 0.000000
#
# Coordination Sequence:
#
# PCOD8218153 Si02
#       8
#     8   8   8   8   8   8   8   8
#     4  10  21  37  56  79 112 152 189 232 277 340
#     4  10  18  32  54  82 110 141 181 220 272 340
#     4  10  20  38  55  79 108 147 192 224 265 336
#     4  10  18  33  55  82 118 148 172 220 281 335
#     4  10  20  34  54  81 110 137 180 240 287 322
#     4   9  20  38  56  80 113 147 184 232 287 335
#     4  10  19  33  57  85 110 143 184 230 279 335
#     4  10  19  35  56  78 105 143 184 230 275 325
#
# _framework density 19.700424999999999
#
# number of rings (size 3 to 8) (size 9 to 14) (size 15 to 20)
#    0.000    2.125    2.500    3.000    0.000    3.750 
#    0.000    7.500    0.000    1.875    0.000    0.000 
#    0.000    0.000    0.000    0.000    0.000    0.000 
#
# Total GULP energy -793183.591686 kJ/mol
# GULP energy per Si atom -12393.493620 kJ/mol
# Density = 1.965559 g / cm^3
# Si number density = 19.700425 Si / 1000 Ang^3
#
#
#
# Elastic Constant Matrix: (Units=GPa)
#
#
# Indices 1 2 3 4 5 6 
#
# 1 122.9174 64.5981 27.0068 0.0000 0.0000 0.0000
# 2 64.5981 131.1859 19.6516 0.0000 0.0000 0.0000
# 3 27.0068 19.6516 27.8363 0.0000 0.0000 0.0000
# 4 0.0000 0.0000 0.0000 31.7706 0.0000 0.0000
# 5 0.0000 0.0000 0.0000 0.0000 20.5710 0.0000
# 6 0.0000 0.0000 0.0000 0.0000 0.0000 32.6944
#
#
#
# Elastic Compliance Matrix: (Units=1/GPa)
#
#
# Indices 1 2 3 4 5 6 
#
# 1 0.012651 -0.004910 -0.008808 0.000000 0.000000 0.000000
# 2 -0.004910 0.010430 -0.002599 0.000000 0.000000 0.000000
# 3 -0.008808 -0.002599 0.046305 0.000000 0.000000 0.000000
# 4 0.000000 0.000000 0.000000 0.031476 0.000000 0.000000
# 5 0.000000 0.000000 0.000000 0.000000 0.048612 0.000000
# 6 0.000000 0.000000 0.000000 0.000000 0.000000 0.030586
#
#
# Mechanical properties :
#
#
# Convention : Reuss Voigt Hill
#
# Bulk Modulus (GPa) = 27.20997 56.05027 41.63012
# Shear Modulus (GPa) = 22.22762 28.38607 25.30684
#
# Velocity S-wave (km/s) = 3.36263 3.80002 3.58800
# Velocity P-wave (km/s) = 5.37757 6.91134 6.19213
#
# Compressibility (1/GPa) = 0.03675123
#
# Stress axis : x y z
#
# Youngs Moduli (GPa) = 79.04315 95.87667 21.59609
#
# Poissons Ratio (x) = 0.47078 0.19021
# Poissons Ratio (y) = 0.38813 0.05614
# Poissons Ratio (z) = 0.69619 0.24922
#
# Static dielectric constant tensor:
#      x y z
#    x 3.610540 0.000000 0.000000 
#    y 0.000000 3.848470 0.000000 
#    z 0.000000 0.000000 3.666030 
# 
# 
# High freq. dielectric constant tensor:
#      x y z
#    x 1.754560 0.000000 0.000000 
#    y 0.000000 1.777870 0.000000 
#    z 0.000000 0.000000 1.740880 
# 
# From -- ./inp_files/29132.got.cif
#   From: 2010.03.12/outbox.cif.g09.slc.cpg/sg53_15_cif.got.tgz:29132.got - 2010.04.16 14:36:59.
