data_PCOD8218222
_publ_section_title
;
Structure prediction by ZEFSAII (Michael W. Deem and Ramdas Pophale) SiO2 
 PCOD8218222
Probable space group: P M N A
;
_chemical_formula_sum "Si O2"
_cell_formula_units_Z 48
_cell_length_a 8.797874
_cell_length_b 14.551595
_cell_length_c 20.424905
_cell_angle_alpha 90.000000
_cell_angle_beta 90.000000
_cell_angle_gamma 90.000000
_cell_volume 2614.859641
_symmetry_space_group_name_H-M "P M N A"
_symmetry_group_IT_number 53
_symmetry_cell_setting 'orthorhombic'
loop_
_space_group_symop_operation_xyz
x,y,z
1/2-x,-y,1/2+z
x,-y,-z
1/2-x,y,1/2-z
-x,-y,-z
1/2+x,y,1/2-z
-x,y,z
1/2+x,-y,1/2+z
loop_
_atom_site_type_symbol
_atom_site_label
_atom_site_fract_x
_atom_site_fract_y
_atom_site_fract_z
Si Si1 0.319675 0.757439 0.371012
Si Si2 0.320484 0.559484 0.318746
Si Si3 0.320207 0.245887 0.480909
Si Si4 0.318834 0.441471 0.438942
Si Si5 0.322545 0.949357 0.567485
Si Si6 0.679243 0.938729 0.182590
O O1 0.500000 0.772298 0.368547
O O2 0.269374 0.661316 0.339423
O O3 0.257000 0.760899 0.445248
O O4 0.240470 0.836748 0.329857
O O5 0.250000 0.531118 0.250000
O O6 0.500000 0.554062 0.313644
O O7 0.258218 0.486691 0.372054
O O8 0.500000 0.252321 0.486753
O O9 0.256938 0.337068 0.444969
O O10 0.272546 0.156907 0.439193
O O11 0.255913 0.500000 0.500000
O O12 0.500000 0.443521 0.439985
O O13 0.500000 0.960336 0.584466
O O14 0.284354 0.000000 0.500000
O O15 0.224491 0.992292 0.624996
O O16 0.750000 0.976383 0.250000
O O17 0.500000 0.935633 0.189211
#
# Coordination Sequence:
#
# PCOD8218222 Si02
#       6
#     8   8   8   8   8   8
#     4  10  18  33  56  83 111 141 176 222 276 328
#     4  10  20  32  52  79 111 144 179 221 267 322
#     4   9  16  29  54  84 110 138 179 225 268 318
#     4   9  15  28  52  81 107 138 182 224 258 307
#     4  10  19  35  59  83 111 146 183 223 271 330
#     4  12  25  39  56  80 112 147 184 228 277 330
#
# _framework density 18.356625999999999
#
# number of rings (size 3 to 8) (size 9 to 14) (size 15 to 20)
#    0.000    2.000    3.333    2.000    0.000    2.333 
#    0.000    0.833    0.000    4.500    0.000    0.000 
#    0.000    0.000    0.000    0.000    0.000    0.000 
#
# Total GULP energy -595230.404315 kJ/mol
# GULP energy per Si atom -12400.633423 kJ/mol
# Density = 1.831485 g / cm^3
# Si number density = 18.356626 Si / 1000 Ang^3
#
#
#
# Elastic Constant Matrix: (Units=GPa)
#
#
# Indices 1 2 3 4 5 6 
#
# 1 45.5087 30.8059 36.5503 0.0000 0.0000 0.0000
# 2 30.8059 141.9681 65.9708 0.0000 0.0000 0.0000
# 3 36.5503 65.9708 138.2296 0.0000 0.0000 0.0000
# 4 0.0000 0.0000 0.0000 28.4541 0.0000 0.0000
# 5 0.0000 0.0000 0.0000 0.0000 27.9581 0.0000
# 6 0.0000 0.0000 0.0000 0.0000 0.0000 -16.0008
#
#
#
# Elastic Compliance Matrix: (Units=1/GPa)
#
#
# Indices 1 2 3 4 5 6 
#
# 1 0.029216 -0.003533 -0.006039 0.000000 0.000000 0.000000
# 2 -0.003533 0.009478 -0.003589 0.000000 0.000000 0.000000
# 3 -0.006039 -0.003589 0.010544 0.000000 0.000000 0.000000
# 4 0.000000 0.000000 0.000000 0.035144 0.000000 0.000000
# 5 0.000000 0.000000 0.000000 0.000000 0.035768 0.000000
# 6 0.000000 0.000000 0.000000 0.000000 0.000000 -0.062497
#
#
# Mechanical properties :
#
#
# Convention : Reuss Voigt Hill
#
# Bulk Modulus (GPa) = 43.63918 65.81785 54.72852
# Shear Modulus (GPa) = 54.57621 20.90759 37.74190
#
# Velocity S-wave (km/s) = 5.45854 3.37852 4.53927
# Velocity P-wave (km/s) = 7.97196 7.15207 7.57312
#
# Compressibility (1/GPa) = 0.02291519
#
# Stress axis : x y z
#
# Youngs Moduli (GPa) = 34.22816 105.50207 94.83931
#
# Poissons Ratio (x) = 0.37278 0.57272
# Poissons Ratio (y) = 0.12094 0.34041
# Poissons Ratio (z) = 0.20670 0.37869
#
# Static dielectric constant tensor:
#      x y z
#    x 2.939080 0.000000 0.000000 
#    y 0.000000 3.671060 0.000000 
#    z 0.000000 0.000000 3.492520 
# 
# 
# High freq. dielectric constant tensor:
#      x y z
#    x 1.669150 0.000000 0.000000 
#    y 0.000000 1.719120 0.000000 
#    z 0.000000 0.000000 1.715860 
# 
# From -- ./inp_files/26189.got.cif
#   From: 2010.03.12/outbox.cif.g09.slc.cpg/sg53_14_cif.got.tgz:26189.got - 2010.04.16 14:36:59.
