data_PCOD8218061
_publ_section_title
;
Structure prediction by ZEFSAII (Michael W. Deem and Ramdas Pophale) SiO2 
 PCOD8218061
Probable space group: P M N A
;
_chemical_formula_sum "Si O2"
_cell_formula_units_Z 48
_cell_length_a 8.607551
_cell_length_b 31.280411
_cell_length_c 9.095507
_cell_angle_alpha 90.000000
_cell_angle_beta 90.000000
_cell_angle_gamma 90.000000
_cell_volume 2448.944640
_symmetry_space_group_name_H-M "P M N A"
_symmetry_group_IT_number 53
_symmetry_cell_setting 'orthorhombic'
loop_
_space_group_symop_operation_xyz
x,y,z
1/2-x,-y,1/2+z
x,-y,-z
1/2-x,y,1/2-z
-x,-y,-z
1/2+x,y,1/2-z
-x,y,z
1/2+x,-y,1/2+z
loop_
_atom_site_type_symbol
_atom_site_label
_atom_site_fract_x
_atom_site_fract_y
_atom_site_fract_z
Si Si1 0.184124 0.458630 0.912163
Si Si2 0.683199 0.623291 0.588267
Si Si3 0.815698 0.706686 0.089020
Si Si4 0.316173 0.214935 0.087130
Si Si5 0.184179 0.872532 0.913397
Si Si6 0.683261 0.041644 0.088835
O O1 0.250000 0.459761 0.750000
O O2 0.000000 0.457971 0.902724
O O3 0.244407 0.500000 0.000000
O O4 0.248246 0.416758 0.995636
O O5 0.750000 0.622031 0.750000
O O6 0.500000 0.620629 0.599549
O O7 0.736601 0.666618 0.509215
O O8 0.750000 0.698745 0.250000
O O9 0.000000 0.712245 0.093862
O O10 0.738366 0.748416 0.021470
O O11 0.250000 0.222759 0.250000
O O12 0.500000 0.213916 0.098025
O O13 0.254562 0.170496 0.015400
O O14 0.250000 0.874882 0.750000
O O15 0.242805 0.916278 0.991107
O O16 0.000000 0.869821 0.915080
O O17 0.750000 0.035499 0.250000
O O18 0.500000 0.047665 0.095822
O O19 0.734051 0.000000 0.000000
#
# Coordination Sequence:
#
# PCOD8218061 Si02
#       6
#     8   8   8   8   8   8
#     4  10  21  37  57  84 116 150 190 233 279 332
#     4  10  22  38  58  84 113 146 187 233 278 330
#     4  11  23  39  57  81 112 146 184 225 277 334
#     4  11  21  36  58  83 110 141 181 227 274 326
#     4  10  18  31  53  79 107 140 180 224 272 325
#     4  10  20  34  53  78 108 142 181 224 272 325
#
# _framework density 19.600279
#
# number of rings (size 3 to 8) (size 9 to 14) (size 15 to 20)
#    0.000    1.667    0.000    7.500    0.000    5.000 
#    0.000    0.833    0.000    2.000    0.000    0.000 
#    0.000    0.000    0.000    0.000    0.000    0.000 
#
# Total GULP energy -595226.822422 kJ/mol
# GULP energy per Si atom -12400.558800 kJ/mol
# Density = 1.955567 g / cm^3
# Si number density = 19.600279 Si / 1000 Ang^3
#
#
#
# Elastic Constant Matrix: (Units=GPa)
#
#
# Indices 1 2 3 4 5 6 
#
# 1 103.6329 63.1739 38.0919 0.0000 0.0000 0.0000
# 2 63.1739 204.3607 82.7172 0.0000 0.0000 0.0000
# 3 38.0919 82.7172 125.5631 0.0000 0.0000 0.0000
# 4 0.0000 0.0000 0.0000 38.1741 0.0000 0.0000
# 5 0.0000 0.0000 0.0000 0.0000 31.8228 0.0000
# 6 0.0000 0.0000 0.0000 0.0000 0.0000 90.8171
#
#
#
# Elastic Compliance Matrix: (Units=1/GPa)
#
#
# Indices 1 2 3 4 5 6 
#
# 1 0.012136 -0.003084 -0.001650 0.000000 0.000000 0.000000
# 2 -0.003084 0.007456 -0.003976 0.000000 0.000000 0.000000
# 3 -0.001650 -0.003976 0.011084 0.000000 0.000000 0.000000
# 4 0.000000 0.000000 0.000000 0.026196 0.000000 0.000000
# 5 0.000000 0.000000 0.000000 0.000000 0.031424 0.000000
# 6 0.000000 0.000000 0.000000 0.000000 0.000000 0.011011
#
#
# Mechanical properties :
#
#
# Convention : Reuss Voigt Hill
#
# Bulk Modulus (GPa) = 75.43920 89.05807 82.24864
# Shear Modulus (GPa) = 41.27263 48.80105 45.03684
#
# Velocity S-wave (km/s) = 4.59379 4.99522 4.79870
# Velocity P-wave (km/s) = 8.16759 8.87724 8.52980
#
# Compressibility (1/GPa) = 0.01325571
#
# Stress axis : x y z
#
# Youngs Moduli (GPa) = 82.40130 134.12036 90.21817
#
# Poissons Ratio (x) = 0.41357 0.14888
# Poissons Ratio (y) = 0.25409 0.35874
# Poissons Ratio (z) = 0.13598 0.53331
#
# Static dielectric constant tensor:
#      x y z
#    x 3.606880 0.000000 0.000000 
#    y 0.000000 4.489180 0.000000 
#    z 0.000000 0.000000 3.383290 
# 
# 
# High freq. dielectric constant tensor:
#      x y z
#    x 1.771620 0.000000 0.000000 
#    y 0.000000 1.793640 0.000000 
#    z 0.000000 0.000000 1.742440 
# 
# From -- ./inp_files/6738.got.cif
#   From: 2010.03.12/outbox.cif.g09.slc.cpg/sg53_4_cif.got.tgz:6738.got - 2010.04.16 14:36:59.
