data_PCOD8218159
_publ_section_title
;
Structure prediction by ZEFSAII (Michael W. Deem and Ramdas Pophale) SiO2 
 PCOD8218159
Probable space group: P M N A
;
_chemical_formula_sum "Si O2"
_cell_formula_units_Z 64
_cell_length_a 18.072285
_cell_length_b 15.106023
_cell_length_c 13.574434
_cell_angle_alpha 90.000000
_cell_angle_beta 90.000000
_cell_angle_gamma 90.000000
_cell_volume 3705.825272
_symmetry_space_group_name_H-M "P M N A"
_symmetry_group_IT_number 53
_symmetry_cell_setting 'orthorhombic'
loop_
_space_group_symop_operation_xyz
x,y,z
1/2-x,-y,1/2+z
x,-y,-z
1/2-x,y,1/2-z
-x,-y,-z
1/2+x,y,1/2-z
-x,y,z
1/2+x,-y,1/2+z
loop_
_atom_site_type_symbol
_atom_site_label
_atom_site_fract_x
_atom_site_fract_y
_atom_site_fract_z
Si Si1 0.678323 0.199812 0.693477
Si Si2 0.085049 0.254648 0.101260
Si Si3 0.687643 0.352758 0.542476
Si Si4 0.165101 0.662303 0.735757
Si Si5 0.085977 0.095097 0.961334
Si Si6 0.833127 0.530784 0.212829
Si Si7 0.913465 0.673349 0.329705
Si Si8 0.347719 0.603389 0.981690
O O1 0.750000 0.159331 0.750000
O O2 0.707719 0.273027 0.617093
O O3 0.634401 0.123589 0.633705
O O4 0.624691 0.244930 0.773680
O O5 0.116122 0.260472 0.213152
O O6 0.000000 0.280576 0.100901
O O7 0.126895 0.326471 0.036042
O O8 0.098739 0.158346 0.055155
O O9 0.653745 0.433503 0.603647
O O10 0.760224 0.386930 0.489167
O O11 0.250000 0.692125 0.750000
O O12 0.151356 0.572266 0.795397
O O13 0.135239 0.641793 0.626463
O O14 0.000000 0.094946 0.928791
O O15 0.112346 0.000000 0.000000
O O16 0.750000 0.551148 0.250000
O O17 0.889538 0.578551 0.286484
O O18 0.891143 0.668646 0.444565
O O19 0.000000 0.687481 0.317950
O O20 0.369874 0.500000 0.000000
#
# Coordination Sequence:
#
# PCOD8218159 Si02
#       8
#     8   8   8   8   8   8   8   8
#     4  10  18  34  59  82 108 137 170 215 265 315
#     4  10  22  36  52  79 105 128 167 221 270 321
#     4  10  18  32  55  72  98 137 181 219 263 309
#     4  11  21  33  52  70  99 144 185 219 262 312
#     4   9  19  38  63  86 109 135 164 209 274 334
#     4  10  18  33  49  69  96 140 183 223 262 301
#     4  11  21  32  48  76 106 139 184 225 259 296
#     4  12  20  34  52  69  98 151 198 221 251 304
#
# _framework density 17.270108
#
# number of rings (size 3 to 8) (size 9 to 14) (size 15 to 20)
#    0.000    1.625    5.000    1.875    0.000    4.250 
#    0.000    1.250    0.000    0.000    0.000    0.000 
#    0.000    5.000    0.000    0.000    0.000    0.000 
#
# Total GULP energy -793383.748559 kJ/mol
# GULP energy per Si atom -12396.621071 kJ/mol
# Density = 1.723080 g / cm^3
# Si number density = 17.270108 Si / 1000 Ang^3
#
#
#
# Elastic Constant Matrix: (Units=GPa)
#
#
# Indices 1 2 3 4 5 6 
#
# 1 92.0040 35.1426 43.1761 0.0000 0.0000 0.0000
# 2 35.1426 68.1918 42.6426 0.0000 0.0000 0.0000
# 3 43.1761 42.6426 115.4279 0.0000 0.0000 0.0000
# 4 0.0000 0.0000 0.0000 20.6377 0.0000 0.0000
# 5 0.0000 0.0000 0.0000 0.0000 27.9675 0.0000
# 6 0.0000 0.0000 0.0000 0.0000 0.0000 20.9545
#
#
#
# Elastic Compliance Matrix: (Units=1/GPa)
#
#
# Indices 1 2 3 4 5 6 
#
# 1 0.014529 -0.005317 -0.003470 0.000000 0.000000 0.000000
# 2 -0.005317 0.021016 -0.005775 0.000000 0.000000 0.000000
# 3 -0.003470 -0.005775 0.012095 0.000000 0.000000 0.000000
# 4 0.000000 0.000000 0.000000 0.048455 0.000000 0.000000
# 5 0.000000 0.000000 0.000000 0.000000 0.035756 0.000000
# 6 0.000000 0.000000 0.000000 0.000000 0.000000 0.047722
#
#
# Mechanical properties :
#
#
# Convention : Reuss Voigt Hill
#
# Bulk Modulus (GPa) = 54.01115 57.50515 55.75815
# Shear Modulus (GPa) = 23.26996 24.22277 23.74636
#
# Velocity S-wave (km/s) = 3.67469 3.74917 3.71212
# Velocity P-wave (km/s) = 7.02472 7.21883 7.12244
#
# Compressibility (1/GPa) = 0.01851470
#
# Stress axis : x y z
#
# Youngs Moduli (GPa) = 68.82969 47.58248 82.67956
#
# Poissons Ratio (x) = 0.25301 0.28690
# Poissons Ratio (y) = 0.36599 0.47748
# Poissons Ratio (z) = 0.23884 0.27479
#
# Static dielectric constant tensor:
#      x y z
#    x 3.188550 0.000000 0.000000 
#    y 0.000000 2.980250 0.000000 
#    z 0.000000 0.000000 3.228230 
# 
# 
# High freq. dielectric constant tensor:
#      x y z
#    x 1.660150 0.000000 0.000000 
#    y 0.000000 1.628810 0.000000 
#    z 0.000000 0.000000 1.680020 
# 
# From -- ./inp_files/23955.got.cif
#   From: 2010.03.12/outbox.cif.g09.slc.cpg/sg53_12_cif.got.tgz:23955.got - 2010.04.16 14:36:59.
