data_PCOD8218049
_publ_section_title
;
Structure prediction by ZEFSAII (Michael W. Deem and Ramdas Pophale) SiO2 
 PCOD8218049
Probable space group: P M N A
;
_chemical_formula_sum "Si O2"
_cell_formula_units_Z 64
_cell_length_a 8.819023
_cell_length_b 20.708321
_cell_length_c 19.673066
_cell_angle_alpha 90.000000
_cell_angle_beta 90.000000
_cell_angle_gamma 90.000000
_cell_volume 3592.836156
_symmetry_space_group_name_H-M "P M N A"
_symmetry_group_IT_number 53
_symmetry_cell_setting 'orthorhombic'
loop_
_space_group_symop_operation_xyz
x,y,z
1/2-x,-y,1/2+z
x,-y,-z
1/2-x,y,1/2-z
-x,-y,-z
1/2+x,y,1/2-z
-x,y,z
1/2+x,-y,1/2+z
loop_
_atom_site_type_symbol
_atom_site_label
_atom_site_fract_x
_atom_site_fract_y
_atom_site_fract_z
Si Si1 0.179908 0.374793 0.319556
Si Si2 0.824272 0.678749 0.948607
Si Si3 0.821384 0.978679 0.319662
Si Si4 0.674102 0.176318 0.449897
Si Si5 0.321109 0.562257 0.461424
Si Si6 0.322379 0.126350 0.181132
Si Si7 0.820519 0.485605 0.818814
Si Si8 0.178506 0.939138 0.044777
O O1 0.250000 0.346504 0.250000
O O2 0.226510 0.327528 0.380310
O O3 0.249292 0.444950 0.334234
O O4 0.000000 0.379411 0.313069
O O5 0.803508 0.751015 0.977759
O O6 0.000000 0.664600 0.931418
O O7 0.761002 0.628564 0.005044
O O8 0.750000 0.951317 0.250000
O O9 0.760783 0.937588 0.382849
O O10 0.000000 0.971586 0.314873
O O11 0.769221 0.052639 0.330595
O O12 0.500000 0.161670 0.431536
O O13 0.770122 0.169186 0.381714
O O14 0.729585 0.126433 0.507219
O O15 0.250116 0.500000 0.500000
O O16 0.500000 0.559202 0.469310
O O17 0.276997 0.560894 0.381726
O O18 0.250000 0.154300 0.250000
O O19 0.500000 0.131571 0.189033
O O20 0.750000 0.455527 0.750000
O O21 0.000000 0.493642 0.810348
O O22 0.000000 0.942553 0.057510
O O23 0.233825 0.000000 0.000000
#
# Coordination Sequence:
#
# PCOD8218049 Si02
#       8
#     8   8   8   8   8   8   8   8
#     4  11  21  33  50  74 104 138 173 208 252 299
#     4  10  20  36  54  74 101 135 176 211 249 304
#     4  10  20  33  53  80 106 136 172 215 261 306
#     4  10  21  35  53  76 103 138 173 212 257 302
#     4   9  16  30  54  77  98 131 170 208 250 297
#     4  10  20  33  51  74 105 139 175 212 252 304
#     4  10  18  31  52  77 104 132 166 208 255 300
#     4  10  19  33  54  78 106 136 172 215 257 304
#
# _framework density 17.813226
#
# number of rings (size 3 to 8) (size 9 to 14) (size 15 to 20)
#    0.000    2.000    2.500    3.000    0.000    2.750 
#    0.000    1.875    0.000    0.750    0.000    1.750 
#    0.000    0.000    0.000    0.000    0.000    0.000 
#
# Total GULP energy -793669.372303 kJ/mol
# GULP energy per Si atom -12401.083942 kJ/mol
# Density = 1.777268 g / cm^3
# Si number density = 17.813226 Si / 1000 Ang^3
#
#
#
# Elastic Constant Matrix: (Units=GPa)
#
#
# Indices 1 2 3 4 5 6 
#
# 1 70.7195 28.9511 42.8119 0.0000 0.0000 0.0000
# 2 28.9511 100.9604 67.9310 0.0000 0.0000 0.0000
# 3 42.8119 67.9310 143.0257 0.0000 0.0000 0.0000
# 4 0.0000 0.0000 0.0000 24.1250 0.0000 0.0000
# 5 0.0000 0.0000 0.0000 0.0000 31.4553 0.0000
# 6 0.0000 0.0000 0.0000 0.0000 0.0000 8.4503
#
#
#
# Elastic Compliance Matrix: (Units=1/GPa)
#
#
# Indices 1 2 3 4 5 6 
#
# 1 0.017598 -0.002208 -0.004219 0.000000 0.000000 0.000000
# 2 -0.002208 0.014834 -0.006385 0.000000 0.000000 0.000000
# 3 -0.004219 -0.006385 0.011287 0.000000 0.000000 0.000000
# 4 0.000000 0.000000 0.000000 0.041451 0.000000 0.000000
# 5 0.000000 0.000000 0.000000 0.000000 0.031791 0.000000
# 6 0.000000 0.000000 0.000000 0.000000 0.000000 0.118339
#
#
# Mechanical properties :
#
#
# Convention : Reuss Voigt Hill
#
# Bulk Modulus (GPa) = 55.25952 66.01040 60.63496
# Shear Modulus (GPa) = 18.72978 24.47356 21.60167
#
# Velocity S-wave (km/s) = 3.24613 3.71063 3.48613
# Velocity P-wave (km/s) = 6.71854 7.44955 7.09347
#
# Compressibility (1/GPa) = 0.01809643
#
# Stress axis : x y z
#
# Youngs Moduli (GPa) = 56.82367 67.41366 88.59665
#
# Poissons Ratio (x) = 0.14882 0.37381
# Poissons Ratio (y) = 0.12544 0.56566
# Poissons Ratio (z) = 0.23975 0.43041
#
# Static dielectric constant tensor:
#      x y z
#    x 3.164220 0.000000 0.000000 
#    y 0.000000 3.194180 0.000000 
#    z 0.000000 0.000000 3.458700 
# 
# 
# High freq. dielectric constant tensor:
#      x y z
#    x 1.681740 0.000000 0.000000 
#    y 0.000000 1.662080 0.000000 
#    z 0.000000 0.000000 1.693520 
# 
# From -- ./inp_files/31156.got.cif
#   From: 2010.03.12/outbox.cif.g09.slc.cpg/sg53_16_cif.got.tgz:31156.got - 2010.04.16 14:36:59.
