data_PCOD8218209
_publ_section_title
;
Structure prediction by ZEFSAII (Michael W. Deem and Ramdas Pophale) SiO2 
 PCOD8218209
Probable space group: P M N A
;
_chemical_formula_sum "Si O2"
_cell_formula_units_Z 64
_cell_length_a 8.748431
_cell_length_b 20.725676
_cell_length_c 19.243236
_cell_angle_alpha 90.000000
_cell_angle_beta 90.000000
_cell_angle_gamma 90.000000
_cell_volume 3489.128639
_symmetry_space_group_name_H-M "P M N A"
_symmetry_group_IT_number 53
_symmetry_cell_setting 'orthorhombic'
loop_
_space_group_symop_operation_xyz
x,y,z
1/2-x,-y,1/2+z
x,-y,-z
1/2-x,y,1/2-z
-x,-y,-z
1/2+x,y,1/2-z
-x,y,z
1/2+x,-y,1/2+z
loop_
_atom_site_type_symbol
_atom_site_label
_atom_site_fract_x
_atom_site_fract_y
_atom_site_fract_z
Si Si1 0.318591 0.314618 0.540059
Si Si2 0.320360 0.489725 0.178345
Si Si3 0.180732 0.995247 0.321290
Si Si4 0.678919 0.939216 0.451946
Si Si5 0.680963 0.185856 0.466875
Si Si6 0.681449 0.135251 0.321703
Si Si7 0.319372 0.362959 0.822652
Si Si8 0.820011 0.439271 0.044757
O O1 0.500000 0.313500 0.548898
O O2 0.254791 0.251072 0.501332
O O3 0.244575 0.318204 0.616071
O O4 0.265204 0.375015 0.493929
O O5 0.250000 0.464481 0.250000
O O6 0.500000 0.485426 0.183853
O O7 0.266569 0.563241 0.163510
O O8 0.261355 0.442083 0.118915
O O9 0.250000 0.967326 0.250000
O O10 0.254422 0.064498 0.337387
O O11 0.000000 0.002567 0.314957
O O12 0.225643 0.945306 0.381299
O O13 0.500000 0.934516 0.434227
O O14 0.741718 0.875577 0.490346
O O15 0.714440 0.000000 0.500000
O O16 0.500000 0.185925 0.470174
O O17 0.731420 0.181023 0.385949
O O18 0.750000 0.163758 0.250000
O O19 0.500000 0.130160 0.314918
O O20 0.250000 0.338149 0.750000
O O21 0.500000 0.356669 0.819078
O O22 0.000000 0.440416 0.056924
O O23 0.764398 0.500000 0.000000
#
# Coordination Sequence:
#
# PCOD8218209 Si02
#       8
#     8   8   8   8   8   8   8   8
#     4  10  20  36  56  79 109 144 181 219 262 319
#     4  10  20  33  53  79 109 140 178 225 272 318
#     4  11  21  33  52  81 111 140 177 222 271 315
#     4  10  18  34  57  79 105 138 175 216 264 316
#     4   9  19  35  56  79 107 144 179 214 264 320
#     4  10  18  33  54  79 106 139 180 218 265 317
#     4  10  20  34  54  80 107 139 178 223 268 319
#     4  10  19  32  53  80 108 140 176 217 264 314
#
# _framework density 18.342689
#
# number of rings (size 3 to 8) (size 9 to 14) (size 15 to 20)
#    0.000    2.000    2.500    3.000    0.000    2.000 
#    0.000    3.125    0.000    1.500    0.000    0.000 
#    0.000    0.000    0.000    0.000    0.000    0.000 
#
# Total GULP energy -793723.571968 kJ/mol
# GULP energy per Si atom -12401.930812 kJ/mol
# Density = 1.830094 g / cm^3
# Si number density = 18.342689 Si / 1000 Ang^3
#
#
#
# Elastic Constant Matrix: (Units=GPa)
#
#
# Indices 1 2 3 4 5 6 
#
# 1 65.7589 29.1237 52.0842 0.0000 0.0000 0.0000
# 2 29.1237 111.9724 76.1500 0.0000 0.0000 0.0000
# 3 52.0842 76.1500 183.2557 0.0000 0.0000 0.0000
# 4 0.0000 0.0000 0.0000 33.2997 0.0000 0.0000
# 5 0.0000 0.0000 0.0000 0.0000 36.6384 0.0000
# 6 0.0000 0.0000 0.0000 0.0000 0.0000 11.3759
#
#
#
# Elastic Compliance Matrix: (Units=1/GPa)
#
#
# Indices 1 2 3 4 5 6 
#
# 1 0.019897 -0.001853 -0.004885 0.000000 0.000000 0.000000
# 2 -0.001853 0.012621 -0.004718 0.000000 0.000000 0.000000
# 3 -0.004885 -0.004718 0.008806 0.000000 0.000000 0.000000
# 4 0.000000 0.000000 0.000000 0.030030 0.000000 0.000000
# 5 0.000000 0.000000 0.000000 0.000000 0.027294 0.000000
# 6 0.000000 0.000000 0.000000 0.000000 0.000000 0.087905
#
#
# Mechanical properties :
#
#
# Convention : Reuss Voigt Hill
#
# Bulk Modulus (GPa) = 54.31229 75.07809 64.69519
# Shear Modulus (GPa) = 23.19076 29.83805 26.51440
#
# Velocity S-wave (km/s) = 3.55957 4.03761 3.80610
# Velocity P-wave (km/s) = 6.82408 7.92187 7.39338
#
# Compressibility (1/GPa) = 0.01841204
#
# Stress axis : x y z
#
# Youngs Moduli (GPa) = 50.25905 79.23082 113.56134
#
# Poissons Ratio (x) = 0.14681 0.55476
# Poissons Ratio (y) = 0.09312 0.53579
# Poissons Ratio (z) = 0.24552 0.37382
#
# Static dielectric constant tensor:
#      x y z
#    x 3.190650 0.000000 0.000000 
#    y 0.000000 3.324140 0.000000 
#    z 0.000000 0.000000 3.593690 
# 
# 
# High freq. dielectric constant tensor:
#      x y z
#    x 1.701540 0.000000 0.000000 
#    y 0.000000 1.680810 0.000000 
#    z 0.000000 0.000000 1.728920 
# 
# From -- ./inp_files/26938.got.cif
#   From: 2010.03.12/outbox.cif.g09.slc.cpg/sg53_14_cif.got.tgz:26938.got - 2010.04.16 14:36:59.
