data_PCOD8218848
_publ_section_title
;
Structure prediction by ZEFSAII (Michael W. Deem and Ramdas Pophale) SiO2 
 PCOD8218848
Probable space group: P M N A
;
_chemical_formula_sum "Si O2"
_cell_formula_units_Z 56
_cell_length_a 9.196417
_cell_length_b 15.784043
_cell_length_c 20.123606
_cell_angle_alpha 90.000000
_cell_angle_beta 90.000000
_cell_angle_gamma 90.000000
_cell_volume 2921.075059
_symmetry_space_group_name_H-M "P M N A"
_symmetry_group_IT_number 53
_symmetry_cell_setting 'orthorhombic'
loop_
_space_group_symop_operation_xyz
x,y,z
1/2-x,-y,1/2+z
x,-y,-z
1/2-x,y,1/2-z
-x,-y,-z
1/2+x,y,1/2-z
-x,y,z
1/2+x,-y,1/2+z
loop_
_atom_site_type_symbol
_atom_site_label
_atom_site_fract_x
_atom_site_fract_y
_atom_site_fract_z
Si Si1 0.167880 0.500893 0.315707
Si Si2 0.330010 0.564554 0.442458
Si Si3 0.832298 0.697817 0.684504
Si Si4 0.329299 0.183962 0.412085
Si Si5 0.169525 0.757421 0.051758
Si Si6 0.671694 0.156741 0.683267
Si Si7 0.168324 0.037241 0.184899
O O1 0.250000 0.532503 0.250000
O O2 0.237360 0.548311 0.377360
O O3 0.188879 0.401450 0.325856
O O4 0.000000 0.526252 0.309336
O O5 0.280744 0.500000 0.500000
O O6 0.500000 0.552669 0.426088
O O7 0.292286 0.660063 0.464677
O O8 0.750000 0.730067 0.750000
O O9 0.760899 0.741419 0.621438
O O10 0.000000 0.723581 0.691231
O O11 0.500000 0.205205 0.405104
O O12 0.281235 0.184222 0.489508
O O13 0.289947 0.093718 0.379219
O O14 0.238205 0.790449 0.121063
O O15 0.000000 0.769027 0.062175
O O16 0.750000 0.189318 0.750000
O O17 0.500000 0.169238 0.692865
O O18 0.712416 0.058963 0.669069
O O19 0.250000 0.071993 0.250000
O O20 0.000000 0.045361 0.201540
#
# Coordination Sequence:
#
# PCOD8218848 Si02
#       7
#     8   8   8   8   8   8   8
#     4  10  21  36  54  76 102 133 172 218 264 312
#     4  10  20  35  55  77 104 139 175 213 262 316
#     4  10  20  33  50  74 104 138 173 210 255 305
#     4  10  19  32  51  76 105 136 171 209 252 303
#     4   9  19  34  53  77 103 134 172 212 256 307
#     4   9  18  35  55  75 102 134 171 214 257 303
#     4   9  18  31  51  77 103 135 171 208 250 297
#
# _framework density 19.171023000000002
#
# number of rings (size 3 to 8) (size 9 to 14) (size 15 to 20)
#    0.000    2.429    0.000    2.143    0.000    6.000 
#    0.000    6.429    0.000    0.000    0.000    5.000 
#    0.000    0.000    0.000    0.000    0.000    0.000 
#
# Total GULP energy -694419.873109 kJ/mol
# GULP energy per Si atom -12400.354877 kJ/mol
# Density = 1.912739 g / cm^3
# Si number density = 19.171023 Si / 1000 Ang^3
#
#
#
# Elastic Constant Matrix: (Units=GPa)
#
#
# Indices 1 2 3 4 5 6 
#
# 1 53.5071 27.5753 41.1579 0.0000 0.0000 0.0000
# 2 27.5753 75.2213 68.4368 0.0000 0.0000 0.0000
# 3 41.1579 68.4368 169.1786 0.0000 0.0000 0.0000
# 4 0.0000 0.0000 0.0000 37.0627 0.0000 0.0000
# 5 0.0000 0.0000 0.0000 0.0000 32.5878 0.0000
# 6 0.0000 0.0000 0.0000 0.0000 0.0000 20.4896
#
#
#
# Elastic Compliance Matrix: (Units=1/GPa)
#
#
# Indices 1 2 3 4 5 6 
#
# 1 0.024400 -0.005608 -0.003667 0.000000 0.000000 0.000000
# 2 -0.005608 0.022325 -0.007667 0.000000 0.000000 0.000000
# 3 -0.003667 -0.007667 0.009905 0.000000 0.000000 0.000000
# 4 0.000000 0.000000 0.000000 0.026981 0.000000 0.000000
# 5 0.000000 0.000000 0.000000 0.000000 0.030686 0.000000
# 6 0.000000 0.000000 0.000000 0.000000 0.000000 0.048805
#
#
# Mechanical properties :
#
#
# Convention : Reuss Voigt Hill
#
# Bulk Modulus (GPa) = 43.96514 63.58302 53.77408
# Shear Modulus (GPa) = 24.44155 28.74382 26.59268
#
# Velocity S-wave (km/s) = 3.57448 3.87633 3.72846
# Velocity P-wave (km/s) = 6.32604 7.29882 6.82977
#
# Compressibility (1/GPa) = 0.02274529
#
# Stress axis : x y z
#
# Youngs Moduli (GPa) = 40.98292 44.79231 100.96404
#
# Poissons Ratio (x) = 0.25121 0.37028
# Poissons Ratio (y) = 0.22984 0.77406
# Poissons Ratio (z) = 0.15030 0.34341
#
# Static dielectric constant tensor:
#      x y z
#    x 3.352530 0.000000 0.000000 
#    y 0.000000 3.546400 0.000000 
#    z 0.000000 0.000000 3.696770 
# 
# 
# High freq. dielectric constant tensor:
#      x y z
#    x 1.725340 0.000000 0.000000 
#    y 0.000000 1.742630 0.000000 
#    z 0.000000 0.000000 1.753740 
# 
# From -- ./inp_files/30855.got.cif
#   From: 2010.03.12/outbox.cif.g09.slc.cpg/sg53_16_cif.got.tgz:30855.got - 2010.04.16 14:36:59.
