data_PCOD8218570
_publ_section_title
;
Structure prediction by ZEFSAII (Michael W. Deem and Ramdas Pophale) SiO2 
 PCOD8218570
Probable space group: P M N A
;
_chemical_formula_sum "Si O2"
_cell_formula_units_Z 48
_cell_length_a 8.748944
_cell_length_b 23.671138
_cell_length_c 13.781821
_cell_angle_alpha 90.000000
_cell_angle_beta 90.000000
_cell_angle_gamma 90.000000
_cell_volume 2854.180134
_symmetry_space_group_name_H-M "P M N A"
_symmetry_group_IT_number 53
_symmetry_cell_setting 'orthorhombic'
loop_
_space_group_symop_operation_xyz
x,y,z
1/2-x,-y,1/2+z
x,-y,-z
1/2-x,y,1/2-z
-x,-y,-z
1/2+x,y,1/2-z
-x,y,z
1/2+x,-y,1/2+z
loop_
_atom_site_type_symbol
_atom_site_label
_atom_site_fract_x
_atom_site_fract_y
_atom_site_fract_z
Si Si1 0.817370 0.520944 0.354271
Si Si2 0.319818 0.087867 0.039365
Si Si3 0.181167 0.580478 0.970248
Si Si4 0.321487 0.313542 0.350009
Si Si5 0.179695 0.022544 0.648056
Si Si6 0.819938 0.186785 0.148333
O O1 0.750000 0.536626 0.250000
O O2 0.765588 0.570425 0.427738
O O3 0.745623 0.462066 0.389377
O O4 0.000000 0.516580 0.351184
O O5 0.500000 0.096453 0.048349
O O6 0.273070 0.069825 0.930556
O O7 0.236507 0.146362 0.062621
O O8 0.262787 0.039060 0.113227
O O9 0.221894 0.643969 0.936815
O O10 0.000000 0.570909 0.981488
O O11 0.250000 0.335488 0.250000
O O12 0.500000 0.313192 0.332089
O O13 0.263659 0.250460 0.376259
O O14 0.250000 0.040007 0.750000
O O15 0.000000 0.020500 0.658432
O O16 0.750000 0.166148 0.250000
O O17 0.000000 0.183189 0.156786
#
# Coordination Sequence:
#
# PCOD8218570 Si02
#       6
#     8   8   8   8   8   8
#     4  11  21  33  49  72  99 127 158 194 235 281
#     4   9  18  32  47  67  94 124 153 189 231 274
#     4  10  19  33  51  72  97 126 158 195 235 278
#     4   9  19  32  48  70  97 125 155 190 230 273
#     4   9  18  31  47  67  94 122 153 190 231 274
#     4  10  19  31  47  70  96 124 155 190 229 274
#
# _framework density 16.817437999999999
#
# number of rings (size 3 to 8) (size 9 to 14) (size 15 to 20)
#    0.000    2.333    0.000    5.500    0.000    6.000 
#    0.000    1.667    0.000    1.000    0.000    2.333 
#    0.000    0.000    0.000    0.000    0.000    0.000 
#
# Total GULP energy -595174.112189 kJ/mol
# GULP energy per Si atom -12399.460671 kJ/mol
# Density = 1.677916 g / cm^3
# Si number density = 16.817438 Si / 1000 Ang^3
#
#
#
# Elastic Constant Matrix: (Units=GPa)
#
#
# Indices 1 2 3 4 5 6 
#
# 1 61.8273 32.8133 36.5422 0.0000 0.0000 0.0000
# 2 32.8133 103.1514 62.3067 0.0000 0.0000 0.0000
# 3 36.5422 62.3067 127.3347 0.0000 0.0000 0.0000
# 4 0.0000 0.0000 0.0000 21.0862 0.0000 0.0000
# 5 0.0000 0.0000 0.0000 0.0000 30.7040 0.0000
# 6 0.0000 0.0000 0.0000 0.0000 0.0000 178.5936
#
#
#
# Elastic Compliance Matrix: (Units=1/GPa)
#
#
# Indices 1 2 3 4 5 6 
#
# 1 0.020716 -0.004257 -0.003862 0.000000 0.000000 0.000000
# 2 -0.004257 0.014637 -0.005940 0.000000 0.000000 0.000000
# 3 -0.003862 -0.005940 0.011868 0.000000 0.000000 0.000000
# 4 0.000000 0.000000 0.000000 0.047424 0.000000 0.000000
# 5 0.000000 0.000000 0.000000 0.000000 0.032569 0.000000
# 6 0.000000 0.000000 0.000000 0.000000 0.000000 0.005599
#
#
# Mechanical properties :
#
#
# Convention : Reuss Voigt Hill
#
# Bulk Modulus (GPa) = 52.34970 61.73752 57.04361
# Shear Modulus (GPa) = 29.88641 56.78685 43.33663
#
# Velocity S-wave (km/s) = 4.22015 5.81721 5.08181
# Velocity P-wave (km/s) = 7.41229 9.05042 8.27200
#
# Compressibility (1/GPa) = 0.01910231
#
# Stress axis : x y z
#
# Youngs Moduli (GPa) = 48.27179 68.32062 84.25827
#
# Poissons Ratio (x) = 0.29086 0.32540
# Poissons Ratio (y) = 0.20550 0.50052
# Poissons Ratio (z) = 0.18642 0.40584
#
# Static dielectric constant tensor:
#      x y z
#    x 3.138140 0.000000 0.000000 
#    y 0.000000 3.299180 0.000000 
#    z 0.000000 0.000000 2.954560 
# 
# 
# High freq. dielectric constant tensor:
#      x y z
#    x 1.654690 0.000000 0.000000 
#    y 0.000000 1.639280 0.000000 
#    z 0.000000 0.000000 1.639550 
# 
# From -- ./inp_files/20334.got.cif
#   From: 2010.03.12/outbox.cif.g09.slc.cpg/sg53_11_cif.got.tgz:20334.got - 2010.04.16 14:36:59.
