data_PCOD8218289
_publ_section_title
;
Structure prediction by ZEFSAII (Michael W. Deem and Ramdas Pophale) SiO2 
 PCOD8218289
Probable space group: P M N A
;
_chemical_formula_sum "Si O2"
_cell_formula_units_Z 64
_cell_length_a 19.993662
_cell_length_b 13.981521
_cell_length_c 12.432523
_cell_angle_alpha 90.000000
_cell_angle_beta 90.000000
_cell_angle_gamma 90.000000
_cell_volume 3475.409922
_symmetry_space_group_name_H-M "P M N A"
_symmetry_group_IT_number 53
_symmetry_cell_setting 'orthorhombic'
loop_
_space_group_symop_operation_xyz
x,y,z
1/2-x,-y,1/2+z
x,-y,-z
1/2-x,y,1/2-z
-x,-y,-z
1/2+x,y,1/2-z
-x,y,z
1/2+x,-y,1/2+z
loop_
_atom_site_type_symbol
_atom_site_label
_atom_site_fract_x
_atom_site_fract_y
_atom_site_fract_z
Si Si1 0.209120 0.207067 0.481807
Si Si2 0.357828 0.200176 0.415031
Si Si3 0.653976 0.403466 0.304941
Si Si4 0.175505 0.875175 0.294386
Si Si5 0.711633 0.416587 0.079523
Si Si6 0.578177 0.228987 0.629020
Si Si7 0.826326 0.093558 0.283545
Si Si8 0.922232 0.556430 0.102020
O O1 0.285944 0.174411 0.467334
O O2 0.173889 0.172232 0.589588
O O3 0.212079 0.321059 0.490358
O O4 0.163655 0.163080 0.385934
O O5 0.365306 0.305763 0.364684
O O6 0.411745 0.184296 0.509819
O O7 0.372175 0.127457 0.316850
O O8 0.664111 0.388369 0.178758
O O9 0.717917 0.446630 0.367807
O O10 0.595846 0.483990 0.302329
O O11 0.250000 0.864929 0.250000
O O12 0.121376 0.825554 0.217743
O O13 0.154492 0.985212 0.310140
O O14 0.685726 0.500000 0.000000
O O15 0.500000 0.223602 0.660717
O O16 0.607059 0.337808 0.622445
O O17 0.750000 0.105048 0.250000
O O18 0.000000 0.570052 0.085613
O O19 0.890368 0.500000 0.000000
#
# Coordination Sequence:
#
# PCOD8218289 Si02
#       8
#     8   8   8   8   8   8   8   8
#     4  10  19  35  56  83 117 150 189 238 287 343
#     4  10  18  35  58  80 115 150 195 237 285 343
#     4  10  19  33  53  76 112 151 187 227 278 343
#     4  11  22  36  58  88 113 150 197 241 294 349
#     4  10  21  31  49  85 116 145 177 232 295 334
#     4  11  24  39  56  85 123 155 188 242 298 347
#     4   9  19  35  58  83 112 147 191 244 293 340
#     4  10  20  34  54  77 105 148 190 220 266 341
#
# _framework density 18.415095999999998
#
# number of rings (size 3 to 8) (size 9 to 14) (size 15 to 20)
#    0.000    1.875    3.750    0.750    3.500    0.500 
#    0.000    1.250    0.000    3.375    0.000    0.000 
#    0.000    0.000    0.000    0.000    0.000    0.000 
#
# Total GULP energy -793140.113133 kJ/mol
# GULP energy per Si atom -12392.814268 kJ/mol
# Density = 1.837318 g / cm^3
# Si number density = 18.415096 Si / 1000 Ang^3
#
#
#
# Elastic Constant Matrix: (Units=GPa)
#
#
# Indices 1 2 3 4 5 6 
#
# 1 38.6160 25.3433 25.7773 0.0000 0.0000 0.0000
# 2 25.3433 107.7280 53.3492 0.0000 0.0000 0.0000
# 3 25.7773 53.3492 120.8937 0.0000 0.0000 0.0000
# 4 0.0000 0.0000 0.0000 35.5623 0.0000 0.0000
# 5 0.0000 0.0000 0.0000 0.0000 21.9624 0.0000
# 6 0.0000 0.0000 0.0000 0.0000 0.0000 19.4451
#
#
#
# Elastic Compliance Matrix: (Units=1/GPa)
#
#
# Indices 1 2 3 4 5 6 
#
# 1 0.032465 -0.005387 -0.004545 0.000000 0.000000 0.000000
# 2 -0.005387 0.012772 -0.004488 0.000000 0.000000 0.000000
# 3 -0.004545 -0.004488 0.011221 0.000000 0.000000 0.000000
# 4 0.000000 0.000000 0.000000 0.028120 0.000000 0.000000
# 5 0.000000 0.000000 0.000000 0.000000 0.045532 0.000000
# 6 0.000000 0.000000 0.000000 0.000000 0.000000 0.051427
#
#
# Mechanical properties :
#
#
# Convention : Reuss Voigt Hill
#
# Bulk Modulus (GPa) = 36.20623 52.90859 44.55741
# Shear Modulus (GPa) = 22.77039 26.24515 24.50777
#
# Velocity S-wave (km/s) = 3.52021 3.77927 3.65204
# Velocity P-wave (km/s) = 6.01884 6.91646 6.48320
#
# Compressibility (1/GPa) = 0.02761956
#
# Stress axis : x y z
#
# Youngs Moduli (GPa) = 30.80215 78.29458 89.11638
#
# Poissons Ratio (x) = 0.42174 0.40506
# Poissons Ratio (y) = 0.16592 0.39993
# Poissons Ratio (z) = 0.14000 0.35136
#
# Static dielectric constant tensor:
#      x y z
#    x 2.985340 0.000000 0.000000 
#    y 0.000000 3.524630 0.000000 
#    z 0.000000 0.000000 3.470770 
# 
# 
# High freq. dielectric constant tensor:
#      x y z
#    x 1.664210 0.000000 0.000000 
#    y 0.000000 1.723720 0.000000 
#    z 0.000000 0.000000 1.719780 
# 
# From -- ./inp_files/18477.got.cif
#   From: 2010.03.12/outbox.cif.g09.slc.cpg/sg53_10_cif.got.tgz:18477.got - 2010.04.16 14:36:59.
