data_PCOD8218985
_publ_section_title
;
Structure prediction by ZEFSAII (Michael W. Deem and Ramdas Pophale) SiO2 
 PCOD8218985
Probable space group: P M N A
;
_chemical_formula_sum "Si O2"
_cell_formula_units_Z 48
_cell_length_a 9.148410
_cell_length_b 9.473743
_cell_length_c 30.426495
_cell_angle_alpha 90.000000
_cell_angle_beta 90.000000
_cell_angle_gamma 90.000000
_cell_volume 2637.054743
_symmetry_space_group_name_H-M "P M N A"
_symmetry_group_IT_number 53
_symmetry_cell_setting 'orthorhombic'
loop_
_space_group_symop_operation_xyz
x,y,z
1/2-x,-y,1/2+z
x,-y,-z
1/2-x,y,1/2-z
-x,-y,-z
1/2+x,y,1/2-z
-x,y,z
1/2+x,-y,1/2+z
loop_
_atom_site_type_symbol
_atom_site_label
_atom_site_fract_x
_atom_site_fract_y
_atom_site_fract_z
Si Si1 0.670791 0.208101 0.204628
Si Si2 0.168108 0.649602 0.481686
Si Si3 0.669009 0.292110 0.607352
Si Si4 0.829939 0.402995 0.140259
Si Si5 0.833721 0.974887 0.367642
Si Si6 0.833055 0.222941 0.428083
O O1 0.750000 0.176535 0.250000
O O2 0.500000 0.236378 0.212296
O O3 0.740513 0.346243 0.182059
O O4 0.698721 0.072623 0.174203
O O5 0.226008 0.500000 0.500000
O O6 0.257411 0.699004 0.440001
O O7 0.188723 0.767423 0.519614
O O8 0.000000 0.634695 0.467294
O O9 0.500000 0.267579 0.598619
O O10 0.697200 0.430024 0.636796
O O11 0.730700 0.160505 0.634704
O O12 0.773760 0.333526 0.095245
O O13 0.000000 0.366380 0.146312
O O14 0.000000 0.921579 0.367692
O O15 0.799656 0.064114 0.411993
O O16 0.000000 0.262805 0.414692
#
# Coordination Sequence:
#
# PCOD8218985 Si02
#       6
#     8   8   8   8   8   8
#     4  10  21  39  64  89 109 136 175 219 268 329
#     4  10  19  32  54  78 105 146 192 235 277 321
#     4  11  23  35  51  79 114 148 184 227 274 320
#     4  10  20  34  54  80 110 143 178 221 269 318
#     4   9  20  37  56  78 109 146 182 221 271 327
#     4   9  18  34  54  78 104 141 191 233 271 319
#
# _framework density 18.202126
#
# number of rings (size 3 to 8) (size 9 to 14) (size 15 to 20)
#    0.000    2.167    1.667    2.500    0.000    7.000 
#    0.000    4.167    0.000    2.000    0.000    0.000 
#    0.000    0.000    0.000    0.000    0.000    0.000 
#
# Total GULP energy -595301.882580 kJ/mol
# GULP energy per Si atom -12402.122554 kJ/mol
# Density = 1.816070 g / cm^3
# Si number density = 18.202126 Si / 1000 Ang^3
#
#
#
# Elastic Constant Matrix: (Units=GPa)
#
#
# Indices 1 2 3 4 5 6 
#
# 1 111.2016 66.7806 54.5716 0.0000 0.0000 0.0000
# 2 66.7806 108.3206 45.9105 0.0000 0.0000 0.0000
# 3 54.5716 45.9105 95.8676 0.0000 0.0000 0.0000
# 4 0.0000 0.0000 0.0000 16.5816 0.0000 0.0000
# 5 0.0000 0.0000 0.0000 0.0000 31.8755 0.0000
# 6 0.0000 0.0000 0.0000 0.0000 0.0000 29.8529
#
#
#
# Elastic Compliance Matrix: (Units=1/GPa)
#
#
# Indices 1 2 3 4 5 6 
#
# 1 0.016393 -0.007718 -0.005636 0.000000 0.000000 0.000000
# 2 -0.007718 0.015217 -0.002894 0.000000 0.000000 0.000000
# 3 -0.005636 -0.002894 0.015025 0.000000 0.000000 0.000000
# 4 0.000000 0.000000 0.000000 0.060308 0.000000 0.000000
# 5 0.000000 0.000000 0.000000 0.000000 0.031372 0.000000
# 6 0.000000 0.000000 0.000000 0.000000 0.000000 0.033498
#
#
# Mechanical properties :
#
#
# Convention : Reuss Voigt Hill
#
# Bulk Modulus (GPa) = 70.72132 72.21283 71.46708
# Shear Modulus (GPa) = 23.92115 25.53713 24.72914
#
# Velocity S-wave (km/s) = 3.62912 3.74969 3.68990
# Velocity P-wave (km/s) = 7.51654 7.64891 7.58301
#
# Compressibility (1/GPa) = 0.01414001
#
# Stress axis : x y z
#
# Youngs Moduli (GPa) = 61.00067 65.71788 66.55646
#
# Poissons Ratio (x) = 0.50721 0.37508
# Poissons Ratio (y) = 0.47080 0.19260
# Poissons Ratio (z) = 0.34377 0.19017
#
# Static dielectric constant tensor:
#      x y z
#    x 3.413750 0.000000 0.000000 
#    y 0.000000 3.334360 0.000000 
#    z 0.000000 0.000000 3.245470 
# 
# 
# High freq. dielectric constant tensor:
#      x y z
#    x 1.710660 0.000000 0.000000 
#    y 0.000000 1.700870 0.000000 
#    z 0.000000 0.000000 1.694270 
# 
# From -- ./inp_files/37745.got.cif
#   From: 2010.03.12/outbox.cif.g09.slc.cpg/sg53_19_cif.got.tgz:37745.got - 2010.04.16 14:36:59.
