data_PCOD8218657
_publ_section_title
;
Structure prediction by ZEFSAII (Michael W. Deem and Ramdas Pophale) SiO2 
 PCOD8218657
Probable space group: P M N A
;
_chemical_formula_sum "Si O2"
_cell_formula_units_Z 48
_cell_length_a 9.032399
_cell_length_b 18.114403
_cell_length_c 16.866094
_cell_angle_alpha 90.000000
_cell_angle_beta 90.000000
_cell_angle_gamma 90.000000
_cell_volume 2759.571531
_symmetry_space_group_name_H-M "P M N A"
_symmetry_group_IT_number 53
_symmetry_cell_setting 'orthorhombic'
loop_
_space_group_symop_operation_xyz
x,y,z
1/2-x,-y,1/2+z
x,-y,-z
1/2-x,y,1/2-z
-x,-y,-z
1/2+x,y,1/2-z
-x,y,z
1/2+x,-y,1/2+z
loop_
_atom_site_type_symbol
_atom_site_label
_atom_site_fract_x
_atom_site_fract_y
_atom_site_fract_z
Si Si1 0.833329 0.950141 0.422557
Si Si2 0.827413 0.664076 0.972144
Si Si3 0.163299 0.556193 0.427678
Si Si4 0.328681 0.164893 0.482574
Si Si5 0.675278 0.579144 0.832105
Si Si6 0.825782 0.929784 0.830758
O O1 0.762094 0.871634 0.445370
O O2 0.000000 0.937811 0.391491
O O3 0.830446 0.000000 0.500000
O O4 0.738586 0.989967 0.354231
O O5 0.789434 0.749415 0.982502
O O6 0.736605 0.635097 0.897462
O O7 0.000000 0.649937 0.957598
O O8 0.777817 0.621741 0.052736
O O9 0.154245 0.500000 0.500000
O O10 0.215390 0.506392 0.352940
O O11 0.000000 0.590311 0.412479
O O12 0.500000 0.149732 0.499856
O O13 0.285147 0.130504 0.397536
O O14 0.750000 0.600747 0.750000
O O15 0.500000 0.590128 0.827018
O O16 0.750000 0.902139 0.750000
O O17 0.000000 0.937094 0.817859
#
# Coordination Sequence:
#
# PCOD8218657 Si02
#       6
#     8   8   8   8   8   8
#     4   9  17  30  49  71  92 120 161 200 234 277
#     4  10  19  31  49  73  99 127 160 195 235 283
#     4   8  16  31  48  67  92 123 159 198 237 278
#     4   9  19  33  48  70  99 129 158 193 237 282
#     4  10  20  33  49  70  97 127 160 197 239 285
#     4  10  19  32  49  69  97 128 158 194 236 281
#
# _framework density 17.394006000000001
#
# number of rings (size 3 to 8) (size 9 to 14) (size 15 to 20)
#    0.000    2.667    0.000    3.000    0.000    8.333 
#    0.000    1.667    0.000    1.000    0.000    2.333 
#    0.000    0.000    0.000    0.000    0.000    0.000 
#
# Total GULP energy -595104.485651 kJ/mol
# GULP energy per Si atom -12398.010118 kJ/mol
# Density = 1.735442 g / cm^3
# Si number density = 17.394006 Si / 1000 Ang^3
#
#
#
# Elastic Constant Matrix: (Units=GPa)
#
#
# Indices 1 2 3 4 5 6 
#
# 1 89.9516 51.3556 13.1852 0.0000 0.0000 0.0000
# 2 51.3556 104.7424 19.1778 0.0000 0.0000 0.0000
# 3 13.1852 19.1778 9.1243 0.0000 0.0000 0.0000
# 4 0.0000 0.0000 0.0000 17.1339 0.0000 0.0000
# 5 0.0000 0.0000 0.0000 0.0000 27.4086 0.0000
# 6 0.0000 0.0000 0.0000 0.0000 0.0000 28.6276
#
#
#
# Elastic Compliance Matrix: (Units=1/GPa)
#
#
# Indices 1 2 3 4 5 6 
#
# 1 0.016071 -0.005897 -0.010830 0.000000 0.000000 0.000000
# 2 -0.005897 0.017684 -0.028647 0.000000 0.000000 0.000000
# 3 -0.010830 -0.028647 0.185458 0.000000 0.000000 0.000000
# 4 0.000000 0.000000 0.000000 0.058364 0.000000 0.000000
# 5 0.000000 0.000000 0.000000 0.000000 0.036485 0.000000
# 6 0.000000 0.000000 0.000000 0.000000 0.000000 0.034931
#
#
# Mechanical properties :
#
#
# Convention : Reuss Voigt Hill
#
# Bulk Modulus (GPa) = 7.78411 41.25059 24.51735
# Shear Modulus (GPa) = 10.36137 22.64067 16.50102
#
# Velocity S-wave (km/s) = 2.44332 3.61173 3.08338
# Velocity P-wave (km/s) = 3.52769 6.41558 5.17708
#
# Compressibility (1/GPa) = 0.12846687
#
# Stress axis : x y z
#
# Youngs Moduli (GPa) = 62.22312 56.54962 5.39204
#
# Poissons Ratio (x) = 0.33347 0.05839
# Poissons Ratio (y) = 0.36693 0.15446
# Poissons Ratio (z) = 0.67385 1.61996
#
# Static dielectric constant tensor:
#      x y z
#    x 3.362520 0.000000 0.000000 
#    y 0.000000 3.215550 0.000000 
#    z 0.000000 0.000000 3.216690 
# 
# 
# High freq. dielectric constant tensor:
#      x y z
#    x 1.684430 0.000000 0.000000 
#    y 0.000000 1.658100 0.000000 
#    z 0.000000 0.000000 1.648450 
# 
# From -- ./inp_files/20223.got.cif
#   From: 2010.03.12/outbox.cif.g09.slc.cpg/sg53_11_cif.got.tgz:20223.got - 2010.04.16 14:36:59.
