data_PCOD8218622
_publ_section_title
;
Structure prediction by ZEFSAII (Michael W. Deem and Ramdas Pophale) SiO2 
 PCOD8218622
Probable space group: P M N A
;
_chemical_formula_sum "Si O2"
_cell_formula_units_Z 64
_cell_length_a 8.950548
_cell_length_b 22.968733
_cell_length_c 17.339514
_cell_angle_alpha 90.000000
_cell_angle_beta 90.000000
_cell_angle_gamma 90.000000
_cell_volume 3564.704924
_symmetry_space_group_name_H-M "P M N A"
_symmetry_group_IT_number 53
_symmetry_cell_setting 'orthorhombic'
loop_
_space_group_symop_operation_xyz
x,y,z
1/2-x,-y,1/2+z
x,-y,-z
1/2-x,y,1/2-z
-x,-y,-z
1/2+x,y,1/2-z
-x,y,z
1/2+x,-y,1/2+z
loop_
_atom_site_type_symbol
_atom_site_label
_atom_site_fract_x
_atom_site_fract_y
_atom_site_fract_z
Si Si1 0.823701 0.259709 0.991158
Si Si2 0.322833 0.055914 0.167442
Si Si3 0.824248 0.298604 0.825445
Si Si4 0.328577 0.628144 0.958205
Si Si5 0.822780 0.458981 0.328821
Si Si6 0.164800 0.037803 0.923458
Si Si7 0.177051 0.132202 0.036398
Si Si8 0.827785 0.412393 0.628371
O O1 0.758902 0.310997 0.043693
O O2 0.770979 0.198697 0.027186
O O3 0.000000 0.264993 0.992123
O O4 0.766799 0.265834 0.902627
O O5 0.250000 0.068405 0.250000
O O6 0.500000 0.059576 0.174252
O O7 0.264957 0.104751 0.108175
O O8 0.277583 0.991134 0.137763
O O9 0.750000 0.268849 0.750000
O O10 0.774643 0.365932 0.827893
O O11 0.000000 0.294432 0.816828
O O12 0.500000 0.643502 0.942840
O O13 0.263455 0.585922 0.892781
O O14 0.306939 0.593558 0.037234
O O15 0.750000 0.437868 0.250000
O O16 0.768709 0.524019 0.348755
O O17 0.000000 0.457206 0.323730
O O18 0.000000 0.041355 0.884696
O O19 0.218205 0.101007 0.954423
O O20 0.155036 0.000000 0.000000
O O21 0.000000 0.125783 0.052096
O O22 0.000000 0.402354 0.652314
#
# Coordination Sequence:
#
# PCOD8218622 Si02
#       8
#     8   8   8   8   8   8   8   8
#     4   9  19  35  54  74  98 131 169 206 244 289
#     4  11  21  33  52  79 109 137 169 209 250 292
#     4  10  19  31  48  72 100 128 159 198 246 296
#     4   9  18  33  51  70  94 126 164 204 246 294
#     4  10  20  32  47  69  96 125 158 199 250 303
#     4   8  15  30  52  75 101 132 161 194 242 293
#     4   9  18  35  56  76 102 136 171 207 249 294
#     4   9  17  31  51  71  92 121 158 201 248 300
#
# _framework density 17.953800999999999
#
# number of rings (size 3 to 8) (size 9 to 14) (size 15 to 20)
#    0.000    2.625    0.000    3.000    0.000    6.750 
#    0.000    1.250    0.000    6.750    0.000    0.000 
#    0.000    0.000    0.000    0.000    0.000    0.000 
#
# Total GULP energy -793460.941231 kJ/mol
# GULP energy per Si atom -12397.827207 kJ/mol
# Density = 1.791294 g / cm^3
# Si number density = 17.953801 Si / 1000 Ang^3
#
#
#
# Elastic Constant Matrix: (Units=GPa)
#
#
# Indices 1 2 3 4 5 6 
#
# 1 64.4182 33.7704 42.1537 0.0000 0.0000 0.0000
# 2 33.7704 92.1474 43.5326 0.0000 0.0000 0.0000
# 3 42.1537 43.5326 98.8741 0.0000 0.0000 0.0000
# 4 0.0000 0.0000 0.0000 17.7772 0.0000 0.0000
# 5 0.0000 0.0000 0.0000 0.0000 29.2839 0.0000
# 6 0.0000 0.0000 0.0000 0.0000 0.0000 23.8791
#
#
#
# Elastic Compliance Matrix: (Units=1/GPa)
#
#
# Indices 1 2 3 4 5 6 
#
# 1 0.023107 -0.004816 -0.007731 0.000000 0.000000 0.000000
# 2 -0.004816 0.014706 -0.004422 0.000000 0.000000 0.000000
# 3 -0.007731 -0.004422 0.015357 0.000000 0.000000 0.000000
# 4 0.000000 0.000000 0.000000 0.056252 0.000000 0.000000
# 5 0.000000 0.000000 0.000000 0.000000 0.034148 0.000000
# 6 0.000000 0.000000 0.000000 0.000000 0.000000 0.041878
#
#
# Mechanical properties :
#
#
# Convention : Reuss Voigt Hill
#
# Bulk Modulus (GPa) = 51.99498 54.92810 53.46154
# Shear Modulus (GPa) = 22.14385 23.25357 22.69871
#
# Velocity S-wave (km/s) = 3.51576 3.60278 3.55953
# Velocity P-wave (km/s) = 6.74567 6.92584 6.83635
#
# Compressibility (1/GPa) = 0.01923262
#
# Stress axis : x y z
#
# Youngs Moduli (GPa) = 43.27618 67.99937 65.11834
#
# Poissons Ratio (x) = 0.32749 0.50344
# Poissons Ratio (y) = 0.20842 0.28792
# Poissons Ratio (z) = 0.33457 0.30066
#
# Static dielectric constant tensor:
#      x y z
#    x 3.201260 0.000000 0.000000 
#    y 0.000000 3.519500 0.000000 
#    z 0.000000 0.000000 3.373090 
# 
# 
# High freq. dielectric constant tensor:
#      x y z
#    x 1.686360 0.000000 0.000000 
#    y 0.000000 1.684830 0.000000 
#    z 0.000000 0.000000 1.690700 
# 
# From -- ./inp_files/20823.got.cif
#   From: 2010.03.12/outbox.cif.g09.slc.cpg/sg53_11_cif.got.tgz:20823.got - 2010.04.16 14:36:59.
