data_PCOD8218979
_publ_section_title
;
Structure prediction by ZEFSAII (Michael W. Deem and Ramdas Pophale) SiO2 
 PCOD8218979
Probable space group: P M N A
;
_chemical_formula_sum "Si O2"
_cell_formula_units_Z 64
_cell_length_a 8.735100
_cell_length_b 12.463668
_cell_length_c 28.964533
_cell_angle_alpha 90.000000
_cell_angle_beta 90.000000
_cell_angle_gamma 90.000000
_cell_volume 3153.408863
_symmetry_space_group_name_H-M "P M N A"
_symmetry_group_IT_number 53
_symmetry_cell_setting 'orthorhombic'
loop_
_space_group_symop_operation_xyz
x,y,z
1/2-x,-y,1/2+z
x,-y,-z
1/2-x,y,1/2-z
-x,-y,-z
1/2+x,y,1/2-z
-x,y,z
1/2+x,-y,1/2+z
loop_
_atom_site_type_symbol
_atom_site_label
_atom_site_fract_x
_atom_site_fract_y
_atom_site_fract_z
Si Si1 0.821568 0.438251 0.295644
Si Si2 0.675913 0.400756 0.576450
Si Si3 0.822332 0.796111 0.466954
Si Si4 0.824045 0.025170 0.606911
Si Si5 0.175904 0.654209 0.181175
Si Si6 0.180661 0.616362 0.603607
Si Si7 0.821754 0.174049 0.061495
Si Si8 0.320660 0.121712 0.795748
O O1 0.750000 0.382169 0.250000
O O2 0.778258 0.563316 0.295226
O O3 0.760199 0.384695 0.343125
O O4 0.000000 0.423133 0.291911
O O5 0.500000 0.404207 0.560983
O O6 0.768060 0.325813 0.540990
O O7 0.697802 0.349101 0.626443
O O8 0.741618 0.520900 0.574628
O O9 0.728292 0.847989 0.508986
O O10 0.000000 0.795431 0.480124
O O11 0.789064 0.867157 0.421792
O O12 0.712303 0.931246 0.591172
O O13 0.000000 0.989756 0.599620
O O14 0.787949 0.046448 0.660477
O O15 0.232753 0.766887 0.199562
O O16 0.000000 0.635345 0.195136
O O17 0.224384 0.728123 0.581279
O O18 0.000000 0.598346 0.601888
O O19 0.000000 0.201387 0.064358
O O20 0.250000 0.064848 0.750000
O O21 0.500000 0.143606 0.790374
#
# Coordination Sequence:
#
# PCOD8218979 Si02
#       8
#     8   8   8   8   8   8   8   8
#     4  10  20  34  56  84 115 153 199 246 294 352
#     4  10  20  35  59  92 127 157 193 245 300 349
#     4  11  22  40  66  93 122 158 200 243 299 363
#     4  10  23  43  65  88 120 160 202 247 295 356
#     4  10  19  32  53  83 122 160 192 237 294 351
#     4  10  22  41  62  85 119 162 204 245 297 362
#     4  12  26  42  63  90 119 154 201 254 304 355
#     4  11  22  37  58  87 121 158 200 243 294 354
#
# _framework density 20.295497000000001
#
# number of rings (size 3 to 8) (size 9 to 14) (size 15 to 20)
#    0.000    1.500    1.250    4.125    0.000    6.500 
#    0.000    3.125    0.000    0.000    0.000    0.000 
#    0.000    0.000    0.000    0.000    0.000    0.000 
#
# Total GULP energy -793875.000534 kJ/mol
# GULP energy per Si atom -12404.296883 kJ/mol
# Density = 2.024930 g / cm^3
# Si number density = 20.295497 Si / 1000 Ang^3
#
#
#
# Elastic Constant Matrix: (Units=GPa)
#
#
# Indices 1 2 3 4 5 6 
#
# 1 57.8541 21.2326 25.4582 0.0000 0.0000 0.0000
# 2 21.2326 72.6053 25.0014 0.0000 0.0000 0.0000
# 3 25.4582 25.0014 94.6066 0.0000 0.0000 0.0000
# 4 0.0000 0.0000 0.0000 11.0252 0.0000 0.0000
# 5 0.0000 0.0000 0.0000 0.0000 34.0228 0.0000
# 6 0.0000 0.0000 0.0000 0.0000 0.0000 31.7755
#
#
#
# Elastic Compliance Matrix: (Units=1/GPa)
#
#
# Indices 1 2 3 4 5 6 
#
# 1 0.020914 -0.004596 -0.004413 0.000000 0.000000 0.000000
# 2 -0.004596 0.016162 -0.003034 0.000000 0.000000 0.000000
# 3 -0.004413 -0.003034 0.012559 0.000000 0.000000 0.000000
# 4 0.000000 0.000000 0.000000 0.090702 0.000000 0.000000
# 5 0.000000 0.000000 0.000000 0.000000 0.029392 0.000000
# 6 0.000000 0.000000 0.000000 0.000000 0.000000 0.031471
#
#
# Mechanical properties :
#
#
# Convention : Reuss Voigt Hill
#
# Bulk Modulus (GPa) = 39.14224 40.93893 40.04059
# Shear Modulus (GPa) = 21.38553 25.58963 23.48758
#
# Velocity S-wave (km/s) = 3.24961 3.55470 3.40557
# Velocity P-wave (km/s) = 5.77996 6.08795 5.93595
#
# Compressibility (1/GPa) = 0.02554785
#
# Stress axis : x y z
#
# Youngs Moduli (GPa) = 47.81564 61.87330 79.62107
#
# Poissons Ratio (x) = 0.28439 0.35138
# Poissons Ratio (y) = 0.21978 0.24159
# Poissons Ratio (z) = 0.21102 0.18774
#
# Static dielectric constant tensor:
#      x y z
#    x 3.703250 0.000000 0.000000 
#    y 0.000000 3.388920 0.000000 
#    z 0.000000 0.000000 4.023470 
# 
# 
# High freq. dielectric constant tensor:
#      x y z
#    x 1.800850 0.000000 0.000000 
#    y 0.000000 1.770030 0.000000 
#    z 0.000000 0.000000 1.806670 
# 
# From -- ./inp_files/38238.got.cif
#   From: 2010.03.12/outbox.cif.g09.slc.cpg/sg53_20_cif.got.tgz:38238.got - 2010.04.16 14:36:59.
