data_PCOD8218851
_publ_section_title
;
Structure prediction by ZEFSAII (Michael W. Deem and Ramdas Pophale) SiO2 
 PCOD8218851
Probable space group: P M N A
;
_chemical_formula_sum "Si O2"
_cell_formula_units_Z 64
_cell_length_a 9.177398
_cell_length_b 25.891051
_cell_length_c 14.130167
_cell_angle_alpha 90.000000
_cell_angle_beta 90.000000
_cell_angle_gamma 90.000000
_cell_volume 3357.504019
_symmetry_space_group_name_H-M "P M N A"
_symmetry_group_IT_number 53
_symmetry_cell_setting 'orthorhombic'
loop_
_space_group_symop_operation_xyz
x,y,z
1/2-x,-y,1/2+z
x,-y,-z
1/2-x,y,1/2-z
-x,-y,-z
1/2+x,y,1/2-z
-x,y,z
1/2+x,-y,1/2+z
loop_
_atom_site_type_symbol
_atom_site_label
_atom_site_fract_x
_atom_site_fract_y
_atom_site_fract_z
Si Si1 0.828659 0.919587 0.339172
Si Si2 0.162566 0.982179 0.893361
Si Si3 0.832819 0.527540 0.346415
Si Si4 0.829118 0.781183 0.650519
Si Si5 0.673193 0.318413 0.040010
Si Si6 0.828935 0.583159 0.650374
Si Si7 0.331225 0.886620 0.952309
Si Si8 0.670297 0.359400 0.848198
O O1 0.750000 0.891004 0.250000
O O2 0.790607 0.889651 0.436254
O O3 0.000000 0.921709 0.321050
O O4 0.765304 0.977694 0.339258
O O5 0.236503 0.925862 0.889261
O O6 0.000000 0.979698 0.848105
O O7 0.149804 0.000000 0.000000
O O8 0.750000 0.523454 0.250000
O O9 0.800604 0.473172 0.402053
O O10 0.793889 0.583131 0.392611
O O11 0.000000 0.528355 0.318511
O O12 0.750000 0.787280 0.750000
O O13 0.765527 0.731609 0.594438
O O14 0.795008 0.829680 0.583788
O O15 0.000000 0.775555 0.670488
O O16 0.500000 0.318169 0.043795
O O17 0.735251 0.370399 0.087901
O O18 0.721819 0.319088 0.929328
O O19 0.750000 0.585187 0.750000
O O20 0.000000 0.591414 0.667190
O O21 0.500000 0.901422 0.938560
O O22 0.750000 0.347596 0.750000
O O23 0.500000 0.353638 0.827296
#
# Coordination Sequence:
#
# PCOD8218851 Si02
#       8
#     8   8   8   8   8   8   8   8
#     4  10  19  32  51  76 107 141 173 206 247 295
#     4   9  17  30  50  76 105 136 170 207 244 286
#     4   8  14  24  41  65  93 123 156 193 235 286
#     4  10  21  38  57  76  98 127 164 206 251 296
#     4   9  18  32  51  72  95 125 162 203 247 293
#     4   9  16  27  44  68  96 126 159 197 242 291
#     4   9  19  35  53  73 102 139 174 208 250 299
#     4   9  17  31  49  69  95 127 160 197 241 291
#
# _framework density 19.061779000000001
#
# number of rings (size 3 to 8) (size 9 to 14) (size 15 to 20)
#    0.000    2.875    0.000    1.125    0.000    3.500 
#    0.000    5.625    0.000    0.000    0.000    8.750 
#    0.000    0.000    0.000    0.000    0.000    0.000 
#
# Total GULP energy -792858.303870 kJ/mol
# GULP energy per Si atom -12388.410998 kJ/mol
# Density = 1.901839 g / cm^3
# Si number density = 19.061779 Si / 1000 Ang^3
#
#
#
# Elastic Constant Matrix: (Units=GPa)
#
#
# Indices 1 2 3 4 5 6 
#
# 1 54.6006 37.4325 39.8321 0.0000 0.0000 0.0000
# 2 37.4325 109.3085 63.7650 0.0000 0.0000 0.0000
# 3 39.8321 63.7650 110.6141 0.0000 0.0000 0.0000
# 4 0.0000 0.0000 0.0000 26.9030 0.0000 0.0000
# 5 0.0000 0.0000 0.0000 0.0000 26.0396 0.0000
# 6 0.0000 0.0000 0.0000 0.0000 0.0000 17.6406
#
#
#
# Elastic Compliance Matrix: (Units=1/GPa)
#
#
# Indices 1 2 3 4 5 6 
#
# 1 0.026759 -0.005337 -0.006559 0.000000 0.000000 0.000000
# 2 -0.005337 0.014848 -0.006637 0.000000 0.000000 0.000000
# 3 -0.006559 -0.006637 0.015229 0.000000 0.000000 0.000000
# 4 0.000000 0.000000 0.000000 0.037171 0.000000 0.000000
# 5 0.000000 0.000000 0.000000 0.000000 0.038403 0.000000
# 6 0.000000 0.000000 0.000000 0.000000 0.000000 0.056687
#
#
# Mechanical properties :
#
#
# Convention : Reuss Voigt Hill
#
# Bulk Modulus (GPa) = 50.58695 61.84248 56.21471
# Shear Modulus (GPa) = 21.48192 23.01619 22.24905
#
# Velocity S-wave (km/s) = 3.36067 3.47861 3.42015
# Velocity P-wave (km/s) = 6.45405 6.97481 6.71948
#
# Compressibility (1/GPa) = 0.01976795
#
# Stress axis : x y z
#
# Youngs Moduli (GPa) = 37.37076 67.34863 65.66580
#
# Poissons Ratio (x) = 0.35946 0.43071
# Poissons Ratio (y) = 0.19946 0.43585
# Poissons Ratio (z) = 0.24512 0.44702
#
# Static dielectric constant tensor:
#      x y z
#    x 3.386530 0.000000 0.000000 
#    y 0.000000 3.755990 0.000000 
#    z 0.000000 0.000000 3.443840 
# 
# 
# High freq. dielectric constant tensor:
#      x y z
#    x 1.722660 0.000000 0.000000 
#    y 0.000000 1.733430 0.000000 
#    z 0.000000 0.000000 1.737290 
# 
# From -- ./inp_files/20929.got.cif
#   From: 2010.03.12/outbox.cif.g09.slc.cpg/sg53_11_cif.got.tgz:20929.got - 2010.04.16 14:36:59.
