data_PCOD8218113
_publ_section_title
;
Structure prediction by ZEFSAII (Michael W. Deem and Ramdas Pophale) SiO2 
 PCOD8218113
Probable space group: P M N A
;
_chemical_formula_sum "Si O2"
_cell_formula_units_Z 64
_cell_length_a 8.896623
_cell_length_b 21.965146
_cell_length_c 18.713281
_cell_angle_alpha 90.000000
_cell_angle_beta 90.000000
_cell_angle_gamma 90.000000
_cell_volume 3656.867467
_symmetry_space_group_name_H-M "P M N A"
_symmetry_group_IT_number 53
_symmetry_cell_setting 'orthorhombic'
loop_
_space_group_symop_operation_xyz
x,y,z
1/2-x,-y,1/2+z
x,-y,-z
1/2-x,y,1/2-z
-x,-y,-z
1/2+x,y,1/2-z
-x,y,z
1/2+x,-y,1/2+z
loop_
_atom_site_type_symbol
_atom_site_label
_atom_site_fract_x
_atom_site_fract_y
_atom_site_fract_z
Si Si1 0.169034 0.026037 0.612291
Si Si2 0.327116 0.442566 0.550885
Si Si3 0.676918 0.134363 0.676929
Si Si4 0.677962 0.501686 0.822344
Si Si5 0.177576 0.677647 0.972841
Si Si6 0.168490 0.908807 0.538892
Si Si7 0.322473 0.196142 0.531430
Si Si8 0.178445 0.368010 0.177145
O O1 0.276775 0.063598 0.665315
O O2 0.170186 0.056853 0.535693
O O3 0.000000 0.026887 0.643931
O O4 0.224691 0.955879 0.600913
O O5 0.311921 0.500000 0.500000
O O6 0.500000 0.434104 0.575243
O O7 0.219472 0.452360 0.618165
O O8 0.262169 0.382728 0.511856
O O9 0.750000 0.159503 0.750000
O O10 0.500000 0.138559 0.684569
O O11 0.735788 0.175302 0.610018
O O12 0.750000 0.475938 0.750000
O O13 0.500000 0.509549 0.815194
O O14 0.753323 0.566231 0.840674
O O15 0.221270 0.676218 0.888764
O O16 0.000000 0.678228 0.979572
O O17 0.244905 0.737638 0.011306
O O18 0.273630 0.849861 0.531836
O O19 0.000000 0.887208 0.557203
O O20 0.500000 0.197268 0.531997
O O21 0.250000 0.341101 0.250000
O O22 0.000000 0.375038 0.186285
#
# Coordination Sequence:
#
# PCOD8218113 Si02
#       8
#     8   8   8   8   8   8   8   8
#     4   8  14  26  45  68  94 121 153 191 239 284
#     4  10  18  33  54  74  98 132 168 207 260 310
#     4  10  19  30  47  70  98 130 169 210 252 292
#     4  11  21  33  50  74 102 129 160 202 253 309
#     4   9  18  33  53  73  99 133 170 206 251 307
#     4   8  14  26  45  69  95 122 149 191 241 285
#     4   9  18  32  49  71  96 131 173 211 244 295
#     4  10  18  32  52  75  98 125 157 196 248 305
#
# _framework density 17.501318000000001
#
# number of rings (size 3 to 8) (size 9 to 14) (size 15 to 20)
#    0.000    2.625    1.250    3.375    0.000    1.250 
#    0.000    5.000    0.000    2.250    0.000    3.500 
#    0.000    0.000    0.000    0.000    0.000    0.000 
#
# Total GULP energy -793158.650771 kJ/mol
# GULP energy per Si atom -12393.103918 kJ/mol
# Density = 1.746148 g / cm^3
# Si number density = 17.501318 Si / 1000 Ang^3
#
#
#
# Elastic Constant Matrix: (Units=GPa)
#
#
# Indices 1 2 3 4 5 6 
#
# 1 65.3902 28.7204 39.8871 0.0000 0.0000 0.0000
# 2 28.7204 114.9258 58.8999 0.0000 0.0000 0.0000
# 3 39.8871 58.8999 109.3087 0.0000 0.0000 0.0000
# 4 0.0000 0.0000 0.0000 21.5704 0.0000 0.0000
# 5 0.0000 0.0000 0.0000 0.0000 26.3220 0.0000
# 6 0.0000 0.0000 0.0000 0.0000 0.0000 16.7417
#
#
#
# Elastic Compliance Matrix: (Units=1/GPa)
#
#
# Indices 1 2 3 4 5 6 
#
# 1 0.019917 -0.001730 -0.006335 0.000000 0.000000 0.000000
# 2 -0.001730 0.012171 -0.005927 0.000000 0.000000 0.000000
# 3 -0.006335 -0.005927 0.014654 0.000000 0.000000 0.000000
# 4 0.000000 0.000000 0.000000 0.046360 0.000000 0.000000
# 5 0.000000 0.000000 0.000000 0.000000 0.037991 0.000000
# 6 0.000000 0.000000 0.000000 0.000000 0.000000 0.059731
#
#
# Mechanical properties :
#
#
# Convention : Reuss Voigt Hill
#
# Bulk Modulus (GPa) = 53.31386 60.51550 56.91468
# Shear Modulus (GPa) = 22.21604 23.73464 22.97534
#
# Velocity S-wave (km/s) = 3.56672 3.68661 3.62716
# Velocity P-wave (km/s) = 6.89136 7.26458 7.08043
#
# Compressibility (1/GPa) = 0.01875685
#
# Stress axis : x y z
#
# Youngs Moduli (GPa) = 50.20727 82.16061 68.24123
#
# Poissons Ratio (x) = 0.14218 0.43234
# Poissons Ratio (y) = 0.08688 0.40446
# Poissons Ratio (z) = 0.31809 0.48696
#
# Static dielectric constant tensor:
#      x y z
#    x 3.143560 0.000000 0.000000 
#    y 0.000000 3.500880 0.000000 
#    z 0.000000 0.000000 3.392940 
# 
# 
# High freq. dielectric constant tensor:
#      x y z
#    x 1.664050 0.000000 0.000000 
#    y 0.000000 1.656380 0.000000 
#    z 0.000000 0.000000 1.666320 
# 
# From -- ./inp_files/31387.got.cif
#   From: 2010.03.12/outbox.cif.g09.slc.cpg/sg53_16_cif.got.tgz:31387.got - 2010.04.16 14:36:59.
