data_PCOD8218567
_publ_section_title
;
Structure prediction by ZEFSAII (Michael W. Deem and Ramdas Pophale) SiO2 
 PCOD8218567
Probable space group: P M N A
;
_chemical_formula_sum "Si O2"
_cell_formula_units_Z 64
_cell_length_a 14.625902
_cell_length_b 8.855982
_cell_length_c 27.580126
_cell_angle_alpha 90.000000
_cell_angle_beta 90.000000
_cell_angle_gamma 90.000000
_cell_volume 3572.363392
_symmetry_space_group_name_H-M "P M N A"
_symmetry_group_IT_number 53
_symmetry_cell_setting 'orthorhombic'
loop_
_space_group_symop_operation_xyz
x,y,z
1/2-x,-y,1/2+z
x,-y,-z
1/2-x,y,1/2-z
-x,-y,-z
1/2+x,y,1/2-z
-x,y,z
1/2+x,-y,1/2+z
loop_
_atom_site_type_symbol
_atom_site_label
_atom_site_fract_x
_atom_site_fract_y
_atom_site_fract_z
Si Si1 0.347704 0.401957 0.270601
Si Si2 0.103959 0.927042 0.949606
Si Si3 0.898101 0.929945 0.780669
Si Si4 0.213189 0.075485 0.864452
Si Si5 0.099300 0.417999 0.680077
Si Si6 0.602613 0.073455 0.820129
Si Si7 0.289248 0.573234 0.362836
Si Si8 0.395927 0.571939 0.550795
O O1 0.250000 0.355257 0.250000
O O2 0.404415 0.479540 0.227876
O O3 0.341905 0.519381 0.314832
O O4 0.395079 0.249737 0.289346
O O5 0.113140 0.749568 0.954468
O O6 0.000000 0.974477 0.936361
O O7 0.172319 0.983535 0.908721
O O8 0.134586 0.000000 0.000000
O O9 0.828203 0.018922 0.814099
O O10 0.875173 0.964792 0.724845
O O11 0.000000 0.985966 0.793661
O O12 0.322599 0.043536 0.862242
O O13 0.191073 0.251108 0.871144
O O14 0.113434 0.245973 0.697747
O O15 0.180657 0.462161 0.643158
O O16 0.000000 0.436606 0.654002
O O17 0.500000 0.042472 0.840408
O O18 0.325607 0.483374 0.408865
O O19 0.366521 0.500000 0.500000
O O20 0.500000 0.524901 0.564394
#
# Coordination Sequence:
#
# PCOD8218567 Si02
#       8
#     8   8   8   8   8   8   8   8
#     4  10  19  31  47  70 101 135 170 207 246 289
#     4  10  21  37  56  78 103 130 161 198 244 296
#     4  11  21  31  46  71 102 136 171 207 248 292
#     4  11  20  33  52  74 101 132 167 206 248 294
#     4   9  18  34  52  71  99 134 170 207 247 291
#     4   9  19  34  51  71  98 134 172 208 247 291
#     4  10  21  33  51  76 100 131 168 205 247 296
#     4  10  21  37  56  77 102 130 160 199 246 295
#
# _framework density 17.915310999999999
#
# number of rings (size 3 to 8) (size 9 to 14) (size 15 to 20)
#    0.000    2.000    0.000    4.125    0.000    7.000 
#    0.000    0.000    0.000    0.750    0.000    0.000 
#    0.000    0.000    0.000    0.000    0.000    0.000 
#
# Total GULP energy -793627.726866 kJ/mol
# GULP energy per Si atom -12400.433232 kJ/mol
# Density = 1.787453 g / cm^3
# Si number density = 17.915311 Si / 1000 Ang^3
#
#
#
# Elastic Constant Matrix: (Units=GPa)
#
#
# Indices 1 2 3 4 5 6 
#
# 1 111.2805 33.1500 59.1911 0.0000 0.0000 0.0000
# 2 33.1500 67.6133 28.5232 0.0000 0.0000 0.0000
# 3 59.1911 28.5232 89.2131 0.0000 0.0000 0.0000
# 4 0.0000 0.0000 0.0000 34.5098 0.0000 0.0000
# 5 0.0000 0.0000 0.0000 0.0000 18.9458 0.0000
# 6 0.0000 0.0000 0.0000 0.0000 0.0000 25.2164
#
#
#
# Elastic Compliance Matrix: (Units=1/GPa)
#
#
# Indices 1 2 3 4 5 6 
#
# 1 0.014588 -0.003548 -0.008545 0.000000 0.000000 0.000000
# 2 -0.003548 0.017959 -0.003388 0.000000 0.000000 0.000000
# 3 -0.008545 -0.003388 0.017961 0.000000 0.000000 0.000000
# 4 0.000000 0.000000 0.000000 0.028977 0.000000 0.000000
# 5 0.000000 0.000000 0.000000 0.000000 0.052782 0.000000
# 6 0.000000 0.000000 0.000000 0.000000 0.000000 0.039657
#
#
# Mechanical properties :
#
#
# Convention : Reuss Voigt Hill
#
# Bulk Modulus (GPa) = 51.15692 56.64838 53.90265
# Shear Modulus (GPa) = 23.87764 25.55056 24.71410
#
# Velocity S-wave (km/s) = 3.65472 3.78058 3.71819
# Velocity P-wave (km/s) = 6.81368 7.12361 6.97037
#
# Compressibility (1/GPa) = 0.01954770
#
# Stress axis : x y z
#
# Youngs Moduli (GPa) = 68.54884 55.68356 55.67465
#
# Poissons Ratio (x) = 0.19755 0.47572
# Poissons Ratio (y) = 0.24319 0.18862
# Poissons Ratio (z) = 0.58573 0.18865
#
# Static dielectric constant tensor:
#      x y z
#    x 3.497670 0.000000 0.000000 
#    y 0.000000 3.383140 0.000000 
#    z 0.000000 0.000000 3.119590 
# 
# 
# High freq. dielectric constant tensor:
#      x y z
#    x 1.699910 0.000000 0.000000 
#    y 0.000000 1.706290 0.000000 
#    z 0.000000 0.000000 1.663590 
# 
# From -- ./inp_files/35358.got.cif
#   From: 2010.03.12/outbox.cif.g09.slc.cpg/sg53_18_cif.got.tgz:35358.got - 2010.04.16 14:36:59.
