data_PCOD8218978
_publ_section_title
;
Structure prediction by ZEFSAII (Michael W. Deem and Ramdas Pophale) SiO2 
 PCOD8218978
Probable space group: P M N A
;
_chemical_formula_sum "Si O2"
_cell_formula_units_Z 64
_cell_length_a 8.909812
_cell_length_b 14.826188
_cell_length_c 23.959258
_cell_angle_alpha 90.000000
_cell_angle_beta 90.000000
_cell_angle_gamma 90.000000
_cell_volume 3164.983187
_symmetry_space_group_name_H-M "P M N A"
_symmetry_group_IT_number 53
_symmetry_cell_setting 'orthorhombic'
loop_
_space_group_symop_operation_xyz
x,y,z
1/2-x,-y,1/2+z
x,-y,-z
1/2-x,y,1/2-z
-x,-y,-z
1/2+x,y,1/2-z
-x,y,z
1/2+x,-y,1/2+z
loop_
_atom_site_type_symbol
_atom_site_label
_atom_site_fract_x
_atom_site_fract_y
_atom_site_fract_z
Si Si1 0.179127 0.489064 0.311466
Si Si2 0.822562 0.046260 0.656990
Si Si3 0.174068 0.637823 0.110893
Si Si4 0.177442 0.684057 0.620139
Si Si5 0.322097 0.150397 0.191865
Si Si6 0.329118 0.214598 0.698695
Si Si7 0.321966 0.085540 0.966824
Si Si8 0.178785 0.714073 0.495754
O O1 0.250000 0.496545 0.250000
O O2 0.234765 0.567530 0.352040
O O3 0.235919 0.397472 0.341332
O O4 0.000000 0.493731 0.305616
O O5 0.747032 0.116798 0.698154
O O6 0.766051 0.072329 0.595776
O O7 0.000000 0.052595 0.662140
O O8 0.763985 0.947064 0.672456
O O9 0.192534 0.734206 0.140657
O O10 0.000000 0.608758 0.106710
O O11 0.244572 0.648371 0.049546
O O12 0.234434 0.777959 0.646095
O O13 0.233399 0.677570 0.556088
O O14 0.000000 0.682440 0.619280
O O15 0.250000 0.178498 0.250000
O O16 0.500000 0.152277 0.198104
O O17 0.250000 0.268542 0.750000
O O18 0.500000 0.202695 0.714883
O O19 0.500000 0.083185 0.971526
O O20 0.265122 0.182169 0.989879
O O21 0.253673 0.000000 0.000000
O O22 0.000000 0.708008 0.487930
#
# Coordination Sequence:
#
# PCOD8218978 Si02
#       8
#     8   8   8   8   8   8   8   8
#     4  11  23  41  65  91 119 152 196 244 297 356
#     4  10  19  32  53  83 115 150 192 238 286 339
#     4  11  24  41  60  86 120 155 193 241 295 351
#     4   9  20  38  61  89 118 152 194 245 296 348
#     4  10  20  35  55  82 118 154 195 243 293 349
#     4  11  23  37  55  78 111 149 187 233 284 342
#     4   9  16  28  52  84 114 150 198 244 281 329
#     4  10  19  36  62  88 118 155 198 243 291 350
#
# _framework density 20.221274999999999
#
# number of rings (size 3 to 8) (size 9 to 14) (size 15 to 20)
#    0.000    1.875    1.250    3.000    0.000    7.500 
#    0.000    5.000    0.000    3.000    0.000    0.000 
#    0.000    0.000    0.000    0.000    0.000    0.000 
#
# Total GULP energy -793531.607437 kJ/mol
# GULP energy per Si atom -12398.931366 kJ/mol
# Density = 2.017525 g / cm^3
# Si number density = 20.221275 Si / 1000 Ang^3
#
#
#
# Elastic Constant Matrix: (Units=GPa)
#
#
# Indices 1 2 3 4 5 6 
#
# 1 49.9259 29.3257 38.8665 0.0000 0.0000 0.0000
# 2 29.3257 105.1507 53.6349 0.0000 0.0000 0.0000
# 3 38.8665 53.6349 154.0377 0.0000 0.0000 0.0000
# 4 0.0000 0.0000 0.0000 38.9419 0.0000 0.0000
# 5 0.0000 0.0000 0.0000 0.0000 28.6542 0.0000
# 6 0.0000 0.0000 0.0000 0.0000 0.0000 11.3864
#
#
#
# Elastic Compliance Matrix: (Units=1/GPa)
#
#
# Indices 1 2 3 4 5 6 
#
# 1 0.026856 -0.004905 -0.005069 0.000000 0.000000 0.000000
# 2 -0.004905 0.012460 -0.003101 0.000000 0.000000 0.000000
# 3 -0.005069 -0.003101 0.008851 0.000000 0.000000 0.000000
# 4 0.000000 0.000000 0.000000 0.025679 0.000000 0.000000
# 5 0.000000 0.000000 0.000000 0.000000 0.034899 0.000000
# 6 0.000000 0.000000 0.000000 0.000000 0.000000 0.087824
#
#
# Mechanical properties :
#
#
# Convention : Reuss Voigt Hill
#
# Bulk Modulus (GPa) = 45.41654 61.41872 53.41763
# Shear Modulus (GPa) = 21.73378 28.28231 25.00805
#
# Velocity S-wave (km/s) = 3.28197 3.74390 3.52052
# Velocity P-wave (km/s) = 6.07209 7.00916 6.55738
#
# Compressibility (1/GPa) = 0.02201841
#
# Stress axis : x y z
#
# Youngs Moduli (GPa) = 37.23507 80.25871 112.98794
#
# Poissons Ratio (x) = 0.39364 0.57269
# Poissons Ratio (y) = 0.18263 0.35036
# Poissons Ratio (z) = 0.18873 0.24887
#
# Static dielectric constant tensor:
#      x y z
#    x 3.341820 0.000000 0.000000 
#    y 0.000000 3.839470 0.000000 
#    z 0.000000 0.000000 3.055670 
# 
# 
# High freq. dielectric constant tensor:
#      x y z
#    x 1.756620 0.000000 0.000000 
#    y 0.000000 1.794780 0.000000 
#    z 0.000000 0.000000 1.808170 
# 
# From -- ./inp_files/34188.got.cif
#   From: 2010.03.12/outbox.cif.g09.slc.cpg/sg53_18_cif.got.tgz:34188.got - 2010.04.16 14:36:59.
