data_PCOD8218155
_publ_section_title
;
Structure prediction by ZEFSAII (Michael W. Deem and Ramdas Pophale) SiO2 
 PCOD8218155
Probable space group: P M N A
;
_chemical_formula_sum "Si O2"
_cell_formula_units_Z 64
_cell_length_a 8.379759
_cell_length_b 20.681605
_cell_length_c 19.510027
_cell_angle_alpha 90.000000
_cell_angle_beta 90.000000
_cell_angle_gamma 90.000000
_cell_volume 3381.221628
_symmetry_space_group_name_H-M "P M N A"
_symmetry_group_IT_number 53
_symmetry_cell_setting 'orthorhombic'
loop_
_space_group_symop_operation_xyz
x,y,z
1/2-x,-y,1/2+z
x,-y,-z
1/2-x,y,1/2-z
-x,-y,-z
1/2+x,y,1/2-z
-x,y,z
1/2+x,-y,1/2+z
loop_
_atom_site_type_symbol
_atom_site_label
_atom_site_fract_x
_atom_site_fract_y
_atom_site_fract_z
Si Si1 0.813399 0.128050 0.676419
Si Si2 0.685131 0.060198 0.044868
Si Si3 0.813220 0.632178 0.176264
Si Si4 0.813558 0.490573 0.320589
Si Si5 0.187043 0.687536 0.459515
Si Si6 0.813297 0.562991 0.536871
Si Si7 0.185936 0.013533 0.179079
Si Si8 0.183581 0.824132 0.039066
O O1 0.750000 0.151227 0.750000
O O2 0.723880 0.169789 0.619256
O O3 0.000000 0.141398 0.670416
O O4 0.779885 0.052578 0.664237
O O5 0.500000 0.051227 0.061359
O O6 0.780512 0.062398 0.116713
O O7 0.711234 0.126624 0.004998
O O8 0.749492 0.000000 0.000000
O O9 0.750000 0.655054 0.250000
O O10 0.779482 0.556573 0.164548
O O11 0.720416 0.673778 0.120019
O O12 0.000000 0.645779 0.169961
O O13 0.750000 0.458847 0.250000
O O14 0.779236 0.440194 0.381766
O O15 0.000000 0.507402 0.314860
O O16 0.258500 0.628816 0.505589
O O17 0.277117 0.751630 0.484695
O O18 0.000000 0.697510 0.471123
O O19 0.736803 0.500000 0.500000
O O20 0.000000 0.563324 0.520208
O O21 0.250000 0.044662 0.250000
O O22 0.000000 0.997859 0.185965
O O23 0.000000 0.840198 0.025751
#
# Coordination Sequence:
#
# PCOD8218155 Si02
#       8
#     8   8   8   8   8   8   8   8
#     4  11  21  36  56  82 114 153 194 233 278 334
#     4  11  22  38  62  88 115 150 195 239 286 339
#     4  11  21  34  52  79 112 149 188 228 275 330
#     4  10  18  32  54  82 112 144 183 227 278 329
#     4  11  22  39  59  80 110 149 191 233 281 336
#     4   9  17  33  58  83 108 145 186 228 277 334
#     4  11  21  35  58  88 120 152 188 236 288 336
#     4  12  25  40  57  83 117 152 191 235 288 342
#
# _framework density 18.928069000000001
#
# number of rings (size 3 to 8) (size 9 to 14) (size 15 to 20)
#    0.000    1.250    2.500    7.125    0.000    1.000 
#    0.000    5.625    0.000    0.750    0.000    3.500 
#    0.000    0.000    0.000    0.000    0.000    0.000 
#
# Total GULP energy -793869.444860 kJ/mol
# GULP energy per Si atom -12404.210076 kJ/mol
# Density = 1.888499 g / cm^3
# Si number density = 18.928069 Si / 1000 Ang^3
#
#
#
# Elastic Constant Matrix: (Units=GPa)
#
#
# Indices 1 2 3 4 5 6 
#
# 1 72.0294 5.1794 18.2859 0.0000 0.0000 0.0000
# 2 5.1794 97.6726 51.5015 0.0000 0.0000 0.0000
# 3 18.2859 51.5015 112.2993 0.0000 0.0000 0.0000
# 4 0.0000 0.0000 0.0000 21.6256 0.0000 0.0000
# 5 0.0000 0.0000 0.0000 0.0000 30.0698 0.0000
# 6 0.0000 0.0000 0.0000 0.0000 0.0000 22.4438
#
#
#
# Elastic Compliance Matrix: (Units=1/GPa)
#
#
# Indices 1 2 3 4 5 6 
#
# 1 0.014511 0.000628 -0.002651 0.000000 0.000000 0.000000
# 2 0.000628 0.013531 -0.006308 0.000000 0.000000 0.000000
# 3 -0.002651 -0.006308 0.012229 0.000000 0.000000 0.000000
# 4 0.000000 0.000000 0.000000 0.046242 0.000000 0.000000
# 5 0.000000 0.000000 0.000000 0.000000 0.033256 0.000000
# 6 0.000000 0.000000 0.000000 0.000000 0.000000 0.044556
#
#
# Mechanical properties :
#
#
# Convention : Reuss Voigt Hill
#
# Bulk Modulus (GPa) = 42.35419 47.99277 45.17348
# Shear Modulus (GPa) = 26.47528 28.63014 27.55271
#
# Velocity S-wave (km/s) = 3.74402 3.89340 3.81944
# Velocity P-wave (km/s) = 6.41211 6.75439 6.58548
#
# Compressibility (1/GPa) = 0.02361041
#
# Stress axis : x y z
#
# Youngs Moduli (GPa) = 68.91307 73.90461 81.77129
#
# Poissons Ratio (x) = -0.04644 0.21678
# Poissons Ratio (y) = -0.04330 0.51579
# Poissons Ratio (z) = 0.18269 0.46617
#
# Static dielectric constant tensor:
#      x y z
#    x 3.409980 0.000000 0.000000 
#    y 0.000000 3.267290 0.000000 
#    z 0.000000 0.000000 3.697250 
# 
# 
# High freq. dielectric constant tensor:
#      x y z
#    x 1.739820 0.000000 0.000000 
#    y 0.000000 1.705440 0.000000 
#    z 0.000000 0.000000 1.739950 
# 
# From -- ./inp_files/31203.got.cif
#   From: 2010.03.12/outbox.cif.g09.slc.cpg/sg53_16_cif.got.tgz:31203.got - 2010.04.16 14:36:59.
