data_PCOD8218420
_publ_section_title
;
Structure prediction by ZEFSAII (Michael W. Deem and Ramdas Pophale) SiO2 
 PCOD8218420
Probable space group: P M N A
;
_chemical_formula_sum "Si O2"
_cell_formula_units_Z 64
_cell_length_a 8.966414
_cell_length_b 17.104378
_cell_length_c 25.769074
_cell_angle_alpha 90.000000
_cell_angle_beta 90.000000
_cell_angle_gamma 90.000000
_cell_volume 3952.072343
_symmetry_space_group_name_H-M "P M N A"
_symmetry_group_IT_number 53
_symmetry_cell_setting 'orthorhombic'
loop_
_space_group_symop_operation_xyz
x,y,z
1/2-x,-y,1/2+z
x,-y,-z
1/2-x,y,1/2-z
-x,-y,-z
1/2+x,y,1/2-z
-x,y,z
1/2+x,-y,1/2+z
loop_
_atom_site_type_symbol
_atom_site_label
_atom_site_fract_x
_atom_site_fract_y
_atom_site_fract_z
Si Si1 0.824769 0.586146 0.697351
Si Si2 0.675732 0.593163 0.197062
Si Si3 0.327863 0.591739 0.005152
Si Si4 0.836310 0.999231 0.061715
Si Si5 0.675919 0.318026 0.098357
Si Si6 0.177077 0.166802 0.945087
Si Si7 0.821724 0.168036 0.061828
Si Si8 0.175955 0.671723 0.100427
O O1 0.750000 0.617425 0.750000
O O2 0.779414 0.496571 0.686495
O O3 0.765440 0.636633 0.649090
O O4 0.000000 0.594498 0.704098
O O5 0.750000 0.623150 0.250000
O O6 0.500000 0.604216 0.201060
O O7 0.737612 0.645289 0.150991
O O8 0.500000 0.610994 0.018097
O O9 0.223777 0.621131 0.051165
O O10 0.303265 0.500000 0.000000
O O11 0.275924 0.632562 0.951976
O O12 0.759949 0.081404 0.079144
O O13 0.000000 0.998825 0.087271
O O14 0.754789 0.916509 0.076404
O O15 0.851217 0.000000 0.000000
O O16 0.500000 0.307551 0.100346
O O17 0.751385 0.232970 0.099066
O O18 0.222844 0.237792 0.907936
O O19 0.000000 0.156481 0.948104
O O20 0.234367 0.185511 0.003209
O O21 0.000000 0.170898 0.065598
O O22 0.000000 0.662144 0.108295
#
# Coordination Sequence:
#
# PCOD8218420 Si02
#       8
#     8   8   8   8   8   8   8   8
#     4   9  19  35  52  68  87 117 156 197 235 275
#     4  10  20  36  54  70  91 120 159 199 237 278
#     4  10  20  33  46  61  89 130 164 187 224 281
#     4   7  11  21  40  62  86 120 155 185 220 262
#     4  10  19  30  45  66  94 123 150 186 236 279
#     4   8  14  25  41  65  95 122 152 189 224 266
#     4   9  15  26  44  66  91 121 157 190 220 265
#     4  11  20  30  47  72  98 122 153 194 237 275
#
# _framework density 16.194036000000001
#
# number of rings (size 3 to 8) (size 9 to 14) (size 15 to 20)
#    0.000    2.750    1.250    3.000    0.000    3.250 
#    0.000    1.250    0.000    4.875    0.000    0.875 
#    0.000    2.000    0.000    0.000    0.000    0.000 
#
# Total GULP energy -793136.955501 kJ/mol
# GULP energy per Si atom -12392.764930 kJ/mol
# Density = 1.615718 g / cm^3
# Si number density = 16.194036 Si / 1000 Ang^3
#
#
#
# Elastic Constant Matrix: (Units=GPa)
#
#
# Indices 1 2 3 4 5 6 
#
# 1 34.6340 31.1827 31.2532 0.0000 0.0000 0.0000
# 2 31.1827 129.9562 63.2566 0.0000 0.0000 0.0000
# 3 31.2532 63.2566 105.6969 0.0000 0.0000 0.0000
# 4 0.0000 0.0000 0.0000 8.6961 0.0000 0.0000
# 5 0.0000 0.0000 0.0000 0.0000 25.1697 0.0000
# 6 0.0000 0.0000 0.0000 0.0000 0.0000 17.5801
#
#
#
# Elastic Compliance Matrix: (Units=1/GPa)
#
#
# Indices 1 2 3 4 5 6 
#
# 1 0.042190 -0.005716 -0.009054 0.000000 0.000000 0.000000
# 2 -0.005716 0.011632 -0.005271 0.000000 0.000000 0.000000
# 3 -0.009054 -0.005271 0.015293 0.000000 0.000000 0.000000
# 4 0.000000 0.000000 0.000000 0.114994 0.000000 0.000000
# 5 0.000000 0.000000 0.000000 0.000000 0.039730 0.000000
# 6 0.000000 0.000000 0.000000 0.000000 0.000000 0.056882
#
#
# Mechanical properties :
#
#
# Convention : Reuss Voigt Hill
#
# Bulk Modulus (GPa) = 34.44470 57.96354 46.20412
# Shear Modulus (GPa) = 15.12934 19.92882 17.52908
#
# Velocity S-wave (km/s) = 3.05987 3.51184 3.29362
# Velocity P-wave (km/s) = 5.81377 7.23290 6.56181
#
# Compressibility (1/GPa) = 0.02903205
#
# Stress axis : x y z
#
# Youngs Moduli (GPa) = 23.70213 85.96668 65.38956
#
# Poissons Ratio (x) = 0.49142 0.59204
# Poissons Ratio (y) = 0.13549 0.34470
# Poissons Ratio (z) = 0.21460 0.45317
#
# Static dielectric constant tensor:
#      x y z
#    x 2.833420 0.000000 0.000000 
#    y 0.000000 3.471960 0.000000 
#    z 0.000000 0.000000 3.007930 
# 
# 
# High freq. dielectric constant tensor:
#      x y z
#    x 1.600390 0.000000 0.000000 
#    y 0.000000 1.635250 0.000000 
#    z 0.000000 0.000000 1.590540 
# 
# From -- ./inp_files/34420.got.cif
#   From: 2010.03.12/outbox.cif.g09.slc.cpg/sg53_18_cif.got.tgz:34420.got - 2010.04.16 14:36:59.
