data_PCOD8218651
_publ_section_title
;
Structure prediction by ZEFSAII (Michael W. Deem and Ramdas Pophale) SiO2 
 PCOD8218651
Probable space group: P M N A
;
_chemical_formula_sum "Si O2"
_cell_formula_units_Z 64
_cell_length_a 27.920890
_cell_length_b 15.119094
_cell_length_c 8.741002
_cell_angle_alpha 90.000000
_cell_angle_beta 90.000000
_cell_angle_gamma 90.000000
_cell_volume 3689.914001
_symmetry_space_group_name_H-M "P M N A"
_symmetry_group_IT_number 53
_symmetry_cell_setting 'orthorhombic'
loop_
_space_group_symop_operation_xyz
x,y,z
1/2-x,-y,1/2+z
x,-y,-z
1/2-x,y,1/2-z
-x,-y,-z
1/2+x,y,1/2-z
-x,y,z
1/2+x,-y,1/2+z
loop_
_atom_site_type_symbol
_atom_site_label
_atom_site_fract_x
_atom_site_fract_y
_atom_site_fract_z
Si Si1 0.444444 0.324078 0.850297
Si Si2 0.943443 0.845859 0.168597
Si Si3 0.705383 0.374775 0.151417
Si Si4 0.797818 0.417449 0.678166
Si Si5 0.443410 0.808054 0.664795
Si Si6 0.894680 0.463308 0.827675
Si Si7 0.442850 0.981096 0.831649
Si Si8 0.600793 0.355147 0.173200
O O1 0.500000 0.328921 0.899273
O O2 0.430086 0.225800 0.797293
O O3 0.435441 0.390225 0.706639
O O4 0.410810 0.348444 0.993330
O O5 0.923791 0.941503 0.219881
O O6 0.000000 0.849901 0.149787
O O7 0.921009 0.819941 0.004355
O O8 0.750000 0.334424 0.250000
O O9 0.709704 0.479596 0.148462
O O10 0.656136 0.336724 0.220688
O O11 0.700073 0.354255 0.971112
O O12 0.750000 0.377589 0.750000
O O13 0.844694 0.413279 0.786934
O O14 0.500000 0.814773 0.658342
O O15 0.430573 0.712612 0.730488
O O16 0.423288 0.886637 0.772724
O O17 0.909099 0.543724 0.717142
O O18 0.894119 0.500000 0.000000
O O19 0.500000 0.981400 0.835563
O O20 0.422123 0.000000 0.000000
#
# Coordination Sequence:
#
# PCOD8218651 Si02
#       8
#     8   8   8   8   8   8   8   8
#     4  11  22  36  51  68  99 144 185 221 256 298
#     4   9  18  32  48  69  97 129 169 214 256 296
#     4   9  18  32  50  71  95 121 157 207 262 309
#     4   9  18  31  51  72  93 119 159 210 268 317
#     4  10  19  31  49  73 101 135 168 205 253 301
#     4  11  23  35  49  72 101 137 178 219 256 304
#     4   9  16  28  48  72  97 127 164 207 256 302
#     4  11  21  34  49  71 101 131 174 212 254 307
#
# _framework density 17.344579
#
# number of rings (size 3 to 8) (size 9 to 14) (size 15 to 20)
#    0.000    2.125    1.250    2.625    5.250    5.250 
#    0.000    0.000    0.000    0.000    0.000    0.000 
#    0.000    7.000    0.000    0.000    0.000    0.125 
#
# Total GULP energy -792948.299872 kJ/mol
# GULP energy per Si atom -12389.817186 kJ/mol
# Density = 1.730510 g / cm^3
# Si number density = 17.344579 Si / 1000 Ang^3
#
#
#
# Elastic Constant Matrix: (Units=GPa)
#
#
# Indices 1 2 3 4 5 6 
#
# 1 43.4849 20.8497 20.5942 0.0000 0.0000 0.0000
# 2 20.8497 61.4000 12.4456 0.0000 0.0000 0.0000
# 3 20.5942 12.4456 93.3872 0.0000 0.0000 0.0000
# 4 0.0000 0.0000 0.0000 21.0354 0.0000 0.0000
# 5 0.0000 0.0000 0.0000 0.0000 23.3201 0.0000
# 6 0.0000 0.0000 0.0000 0.0000 0.0000 2.4238
#
#
#
# Elastic Compliance Matrix: (Units=1/GPa)
#
#
# Indices 1 2 3 4 5 6 
#
# 1 0.029890 -0.009058 -0.005384 0.000000 0.000000 0.000000
# 2 -0.009058 0.019484 -0.000599 0.000000 0.000000 0.000000
# 3 -0.005384 -0.000599 0.011975 0.000000 0.000000 0.000000
# 4 0.000000 0.000000 0.000000 0.047539 0.000000 0.000000
# 5 0.000000 0.000000 0.000000 0.000000 0.042881 0.000000
# 6 0.000000 0.000000 0.000000 0.000000 0.000000 0.412583
#
#
# Mechanical properties :
#
#
# Convention : Reuss Voigt Hill
#
# Bulk Modulus (GPa) = 31.98382 34.00568 32.99475
# Shear Modulus (GPa) = 8.26641 18.98136 13.62388
#
# Velocity S-wave (km/s) = 2.18548 3.31171 2.80569
# Velocity P-wave (km/s) = 4.98485 5.85421 5.43693
#
# Compressibility (1/GPa) = 0.03126581
#
# Stress axis : x y z
#
# Youngs Moduli (GPa) = 33.45651 51.32412 83.50535
#
# Poissons Ratio (x) = 0.46491 0.44961
# Poissons Ratio (y) = 0.30306 0.05002
# Poissons Ratio (z) = 0.18014 0.03075
#
# Static dielectric constant tensor:
#      x y z
#    x 3.029120 0.000000 0.000000 
#    y 0.000000 3.113860 0.000000 
#    z 0.000000 0.000000 3.578310 
# 
# 
# High freq. dielectric constant tensor:
#      x y z
#    x 1.628890 0.000000 0.000000 
#    y 0.000000 1.644890 0.000000 
#    z 0.000000 0.000000 1.687890 
# 
# From -- ./inp_files/13285.got.cif
#   From: 2010.03.12/outbox.cif.g09.slc.cpg/sg53_7_cif.got.tgz:13285.got - 2010.04.16 14:36:59.
