data_PCOD8218893
_publ_section_title
;
Structure prediction by ZEFSAII (Michael W. Deem and Ramdas Pophale) SiO2 
 PCOD8218893
Probable space group: P M N A
;
_chemical_formula_sum "Si O2"
_cell_formula_units_Z 56
_cell_length_a 9.201197
_cell_length_b 17.846174
_cell_length_c 18.970122
_cell_angle_alpha 90.000000
_cell_angle_beta 90.000000
_cell_angle_gamma 90.000000
_cell_volume 3115.010939
_symmetry_space_group_name_H-M "P M N A"
_symmetry_group_IT_number 53
_symmetry_cell_setting 'orthorhombic'
loop_
_space_group_symop_operation_xyz
x,y,z
1/2-x,-y,1/2+z
x,-y,-z
1/2-x,y,1/2-z
-x,-y,-z
1/2+x,y,1/2-z
-x,y,z
1/2+x,-y,1/2+z
loop_
_atom_site_type_symbol
_atom_site_label
_atom_site_fract_x
_atom_site_fract_y
_atom_site_fract_z
Si Si1 0.834932 0.476758 0.179202
Si Si2 0.831026 0.795805 0.571579
Si Si3 0.829012 0.314268 0.175036
Si Si4 0.833187 0.237645 0.590300
Si Si5 0.170294 0.360565 0.824865
Si Si6 0.827415 0.965517 0.571783
Si Si7 0.830233 0.909546 0.322989
O O1 0.750000 0.478859 0.250000
O O2 0.799608 0.397679 0.140402
O O3 0.802513 0.556100 0.140283
O O4 0.000000 0.475378 0.203059
O O5 0.734489 0.745424 0.621778
O O6 0.803706 0.770500 0.492080
O O7 0.774788 0.880613 0.582136
O O8 0.000000 0.788126 0.592067
O O9 0.750000 0.306609 0.250000
O O10 0.000000 0.299398 0.185603
O O11 0.730835 0.302786 0.618720
O O12 0.791642 0.160009 0.627246
O O13 0.000000 0.258766 0.605603
O O14 0.250000 0.350641 0.750000
O O15 0.000000 0.345234 0.812665
O O16 0.000000 0.967851 0.565250
O O17 0.760529 0.000000 0.500000
O O18 0.775334 0.015088 0.638139
O O19 0.750000 0.899538 0.250000
O O20 0.000000 0.913766 0.307228
#
# Coordination Sequence:
#
# PCOD8218893 Si02
#       7
#     8   8   8   8   8   8   8
#     4   8  16  31  51  74 100 135 175 215 261 314
#     4  10  20  35  57  81 105 138 180 219 261 315
#     4  10  20  36  57  80 107 137 174 220 269 316
#     4  10  20  34  52  76 107 142 178 214 258 314
#     4  10  19  32  52  77 105 138 178 220 263 311
#     4   9  16  33  58  77  97 136 181 215 254 311
#     4  10  20  34  54  79 105 136 175 216 260 309
#
# _framework density 17.977464999999999
#
# number of rings (size 3 to 8) (size 9 to 14) (size 15 to 20)
#    0.000    2.429    1.429    1.286    0.000    4.000 
#    0.000    2.857    0.000    5.143    0.000    0.000 
#    0.000    0.000    0.000    0.000    0.000    0.000 
#
# Total GULP energy -693974.837083 kJ/mol
# GULP energy per Si atom -12392.407805 kJ/mol
# Density = 1.793655 g / cm^3
# Si number density = 17.977465 Si / 1000 Ang^3
#
#
#
# Elastic Constant Matrix: (Units=GPa)
#
#
# Indices 1 2 3 4 5 6 
#
# 1 70.8761 69.5842 46.9295 0.0000 0.0000 0.0000
# 2 69.5842 167.0858 63.0754 0.0000 0.0000 0.0000
# 3 46.9295 63.0754 86.5692 0.0000 0.0000 0.0000
# 4 0.0000 0.0000 0.0000 208.4852 0.0000 0.0000
# 5 0.0000 0.0000 0.0000 0.0000 26.3831 0.0000
# 6 0.0000 0.0000 0.0000 0.0000 0.0000 27.8780
#
#
#
# Elastic Compliance Matrix: (Units=1/GPa)
#
#
# Indices 1 2 3 4 5 6 
#
# 1 0.028494 -0.008325 -0.009381 0.000000 0.000000 0.000000
# 2 -0.008325 0.010688 -0.003274 0.000000 0.000000 0.000000
# 3 -0.009381 -0.003274 0.019023 0.000000 0.000000 0.000000
# 4 0.000000 0.000000 0.000000 0.004797 0.000000 0.000000
# 5 0.000000 0.000000 0.000000 0.000000 0.037903 0.000000
# 6 0.000000 0.000000 0.000000 0.000000 0.000000 0.035871
#
#
# Mechanical properties :
#
#
# Convention : Reuss Voigt Hill
#
# Bulk Modulus (GPa) = 61.56176 75.96768 68.76472
# Shear Modulus (GPa) = 27.15173 62.21207 44.68190
#
# Velocity S-wave (km/s) = 3.89050 5.88903 4.99083
# Velocity P-wave (km/s) = 7.38238 9.41222 8.45841
#
# Compressibility (1/GPa) = 0.01624385
#
# Stress axis : x y z
#
# Youngs Moduli (GPa) = 35.09508 93.56149 52.56911
#
# Poissons Ratio (x) = 0.77893 0.49314
# Poissons Ratio (y) = 0.29218 0.17213
# Poissons Ratio (z) = 0.32922 0.30635
#
# Static dielectric constant tensor:
#      x y z
#    x 3.202800 0.000000 0.000000 
#    y 0.000000 4.000370 0.000000 
#    z 0.000000 0.000000 3.092380 
# 
# 
# High freq. dielectric constant tensor:
#      x y z
#    x 1.683990 0.000000 0.000000 
#    y 0.000000 1.719620 0.000000 
#    z 0.000000 0.000000 1.673920 
# 
# From -- ./inp_files/31060.got.cif
#   From: 2010.03.12/outbox.cif.g09.slc.cpg/sg53_16_cif.got.tgz:31060.got - 2010.04.16 14:36:59.
