data_PCOD8218589
_publ_section_title
;
Structure prediction by ZEFSAII (Michael W. Deem and Ramdas Pophale) SiO2 
 PCOD8218589
Probable space group: P M N A
;
_chemical_formula_sum "Si O2"
_cell_formula_units_Z 64
_cell_length_a 20.064749
_cell_length_b 9.462242
_cell_length_c 19.306723
_cell_angle_alpha 90.000000
_cell_angle_beta 90.000000
_cell_angle_gamma 90.000000
_cell_volume 3665.526369
_symmetry_space_group_name_H-M "P M N A"
_symmetry_group_IT_number 53
_symmetry_cell_setting 'orthorhombic'
loop_
_space_group_symop_operation_xyz
x,y,z
1/2-x,-y,1/2+z
x,-y,-z
1/2-x,y,1/2-z
-x,-y,-z
1/2+x,y,1/2-z
-x,y,z
1/2+x,-y,1/2+z
loop_
_atom_site_type_symbol
_atom_site_label
_atom_site_fract_x
_atom_site_fract_y
_atom_site_fract_z
Si Si1 0.422411 0.909582 0.314790
Si Si2 0.666960 0.575641 0.933339
Si Si3 0.574256 0.412303 0.191850
Si Si4 0.852663 0.655921 0.246122
Si Si5 0.241797 0.330376 0.634058
Si Si6 0.681849 0.098344 0.068321
Si Si7 0.693537 0.054806 0.577361
Si Si8 0.924963 0.906750 0.686007
O O1 0.500000 0.928574 0.336289
O O2 0.410279 0.753372 0.285796
O O3 0.374939 0.946656 0.379681
O O4 0.399564 0.007185 0.251686
O O5 0.604213 0.576413 0.883934
O O6 0.727934 0.476863 0.906551
O O7 0.689362 0.736044 0.950227
O O8 0.637409 0.500000 0.000000
O O9 0.500000 0.473005 0.188639
O O10 0.616411 0.501400 0.246108
O O11 0.576819 0.251176 0.215322
O O12 0.823943 0.714775 0.320360
O O13 0.796277 0.633582 0.190351
O O14 0.269417 0.208771 0.582043
O O15 0.620661 0.067917 0.119242
O O16 0.750889 0.054286 0.106792
O O17 0.673061 0.000000 0.000000
O O18 0.676142 0.000000 0.500000
O O19 0.000000 0.950796 0.664230
#
# Coordination Sequence:
#
# PCOD8218589 Si02
#       8
#     8   8   8   8   8   8   8   8
#     4  10  20  33  51  74  97 126 164 203 246 295
#     4  10  19  31  48  69  96 128 161 197 235 281
#     4   9  18  32  48  68  97 129 159 195 237 281
#     4   9  17  31  52  73  94 121 158 203 247 289
#     4   9  18  32  49  72  97 122 157 202 247 289
#     4  10  20  33  50  73 101 133 167 201 241 287
#     4  10  20  34  51  71  98 129 162 202 248 295
#     4   9  19  34  50  72 102 133 166 202 240 286
#
# _framework density 17.459976000000001
#
# number of rings (size 3 to 8) (size 9 to 14) (size 15 to 20)
#    0.000    2.500    0.000    2.625    0.000    4.250 
#    0.000    2.500    0.000    0.000    0.000    0.000 
#    0.000   19.000    0.000    0.000    0.000    0.000 
#
# Total GULP energy -792935.269520 kJ/mol
# GULP energy per Si atom -12389.613586 kJ/mol
# Density = 1.742024 g / cm^3
# Si number density = 17.459976 Si / 1000 Ang^3
#
#
#
# Elastic Constant Matrix: (Units=GPa)
#
#
# Indices 1 2 3 4 5 6 
#
# 1 86.5103 31.9567 32.2787 0.0000 0.0000 0.0000
# 2 31.9567 85.2865 40.0954 0.0000 0.0000 0.0000
# 3 32.2787 40.0954 78.8174 0.0000 0.0000 0.0000
# 4 0.0000 0.0000 0.0000 31.5805 0.0000 0.0000
# 5 0.0000 0.0000 0.0000 0.0000 16.1081 0.0000
# 6 0.0000 0.0000 0.0000 0.0000 0.0000 31.3878
#
#
#
# Elastic Compliance Matrix: (Units=1/GPa)
#
#
# Indices 1 2 3 4 5 6 
#
# 1 0.014374 -0.003441 -0.004136 0.000000 0.000000 0.000000
# 2 -0.003441 0.016235 -0.006849 0.000000 0.000000 0.000000
# 3 -0.004136 -0.006849 0.017866 0.000000 0.000000 0.000000
# 4 0.000000 0.000000 0.000000 0.031665 0.000000 0.000000
# 5 0.000000 0.000000 0.000000 0.000000 0.062081 0.000000
# 6 0.000000 0.000000 0.000000 0.000000 0.000000 0.031860
#
#
# Mechanical properties :
#
#
# Convention : Reuss Voigt Hill
#
# Bulk Modulus (GPa) = 50.96641 51.03063 50.99852
# Shear Modulus (GPa) = 23.86940 25.56752 24.71846
#
# Velocity S-wave (km/s) = 3.70143 3.83083 3.76669
# Velocity P-wave (km/s) = 6.89357 6.98983 6.94186
#
# Compressibility (1/GPa) = 0.01962077
#
# Stress axis : x y z
#
# Youngs Moduli (GPa) = 69.57130 61.59614 55.97300
#
# Poissons Ratio (x) = 0.21198 0.23150
# Poissons Ratio (y) = 0.23942 0.38338
# Poissons Ratio (z) = 0.28774 0.42190
#
# Static dielectric constant tensor:
#      x y z
#    x 3.318100 0.000000 0.000000 
#    y 0.000000 3.439700 0.000000 
#    z 0.000000 0.000000 3.181650 
# 
# 
# High freq. dielectric constant tensor:
#      x y z
#    x 1.673320 0.000000 0.000000 
#    y 0.000000 1.681810 0.000000 
#    z 0.000000 0.000000 1.665870 
# 
# From -- ./inp_files/29378.got.cif
#   From: 2010.03.12/outbox.cif.g09.slc.cpg/sg53_15_cif.got.tgz:29378.got - 2010.04.16 14:36:59.
