data_PCOD8218877
_publ_section_title
;
Structure prediction by ZEFSAII (Michael W. Deem and Ramdas Pophale) SiO2 
 PCOD8218877
Probable space group: P M N A
;
_chemical_formula_sum "Si O2"
_cell_formula_units_Z 64
_cell_length_a 9.062277
_cell_length_b 20.042216
_cell_length_c 19.314054
_cell_angle_alpha 90.000000
_cell_angle_beta 90.000000
_cell_angle_gamma 90.000000
_cell_volume 3507.975184
_symmetry_space_group_name_H-M "P M N A"
_symmetry_group_IT_number 53
_symmetry_cell_setting 'orthorhombic'
loop_
_space_group_symop_operation_xyz
x,y,z
1/2-x,-y,1/2+z
x,-y,-z
1/2-x,y,1/2-z
-x,-y,-z
1/2+x,y,1/2-z
-x,y,z
1/2+x,-y,1/2+z
loop_
_atom_site_type_symbol
_atom_site_label
_atom_site_fract_x
_atom_site_fract_y
_atom_site_fract_z
Si Si1 0.833399 0.001022 0.417661
Si Si2 0.327422 0.504414 0.079699
Si Si3 0.174640 0.236095 0.320957
Si Si4 0.672222 0.866863 0.582676
Si Si5 0.825854 0.395674 0.820969
Si Si6 0.670485 0.129525 0.578782
Si Si7 0.171960 0.756486 0.181054
Si Si8 0.829219 0.388276 0.318875
O O1 0.737939 0.063169 0.389752
O O2 0.000000 0.007495 0.389572
O O3 0.829239 0.000000 0.500000
O O4 0.763004 0.932269 0.390338
O O5 0.500000 0.521195 0.086972
O O6 0.234487 0.563008 0.114498
O O7 0.287107 0.434273 0.116004
O O8 0.279252 0.500000 0.000000
O O9 0.250000 0.212142 0.250000
O O10 0.241137 0.193693 0.383030
O O11 0.217691 0.312755 0.336608
O O12 0.000000 0.225217 0.315992
O O13 0.500000 0.863999 0.601347
O O14 0.702040 0.858807 0.501564
O O15 0.750000 0.420483 0.750000
O O16 0.781655 0.319167 0.836287
O O17 0.000000 0.405956 0.813644
O O18 0.500000 0.112553 0.591621
O O19 0.720635 0.196688 0.617601
O O20 0.250000 0.782689 0.250000
O O21 0.000000 0.761132 0.195165
O O22 0.750000 0.415055 0.250000
O O23 0.000000 0.392186 0.301544
#
# Coordination Sequence:
#
# PCOD8218877 Si02
#       8
#     8   8   8   8   8   8   8   8
#     4   9  17  30  49  74 102 132 170 213 253 299
#     4  10  21  36  53  77 109 139 169 211 260 305
#     4  10  20  35  53  74 101 131 167 210 254 302
#     4  10  19  32  52  76 102 134 169 207 255 307
#     4  10  20  35  55  77 102 136 176 213 253 305
#     4   9  18  33  52  74 102 135 170 210 257 307
#     4   9  19  35  53  75 104 136 171 212 256 304
#     4   9  19  35  54  74  98 133 172 208 250 302
#
# _framework density 18.244143000000001
#
# number of rings (size 3 to 8) (size 9 to 14) (size 15 to 20)
#    0.000    2.500    0.000    1.875    0.000    6.250 
#    0.000    0.625    0.000    1.500    0.000    0.000 
#    0.000    0.000    0.000    0.000    0.000    0.000 
#
# Total GULP energy -793744.910104 kJ/mol
# GULP energy per Si atom -12402.264220 kJ/mol
# Density = 1.820262 g / cm^3
# Si number density = 18.244143 Si / 1000 Ang^3
#
#
#
# Elastic Constant Matrix: (Units=GPa)
#
#
# Indices 1 2 3 4 5 6 
#
# 1 85.0245 56.0842 51.4539 0.0000 0.0000 0.0000
# 2 56.0842 115.4630 68.4692 0.0000 0.0000 0.0000
# 3 51.4539 68.4692 102.4212 0.0000 0.0000 0.0000
# 4 0.0000 0.0000 0.0000 22.8223 0.0000 0.0000
# 5 0.0000 0.0000 0.0000 0.0000 29.1663 0.0000
# 6 0.0000 0.0000 0.0000 0.0000 0.0000 25.4477
#
#
#
# Elastic Compliance Matrix: (Units=1/GPa)
#
#
# Indices 1 2 3 4 5 6 
#
# 1 0.019074 -0.005936 -0.005614 0.000000 0.000000 0.000000
# 2 -0.005936 0.016196 -0.007845 0.000000 0.000000 0.000000
# 3 -0.005614 -0.007845 0.017829 0.000000 0.000000 0.000000
# 4 0.000000 0.000000 0.000000 0.043817 0.000000 0.000000
# 5 0.000000 0.000000 0.000000 0.000000 0.034286 0.000000
# 6 0.000000 0.000000 0.000000 0.000000 0.000000 0.039296
#
#
# Mechanical properties :
#
#
# Convention : Reuss Voigt Hill
#
# Bulk Modulus (GPa) = 69.88878 72.76925 71.32902
# Shear Modulus (GPa) = 23.35808 23.94736 23.65272
#
# Velocity S-wave (km/s) = 3.58202 3.62692 3.60454
# Velocity P-wave (km/s) = 7.44973 7.58369 7.51701
#
# Compressibility (1/GPa) = 0.01430845
#
# Stress axis : x y z
#
# Youngs Moduli (GPa) = 52.42660 61.74295 56.08906
#
# Poissons Ratio (x) = 0.36649 0.31491
# Poissons Ratio (y) = 0.31119 0.44004
# Poissons Ratio (z) = 0.29435 0.48439
#
# Static dielectric constant tensor:
#      x y z
#    x 3.414090 0.000000 0.000000 
#    y 0.000000 3.560310 0.000000 
#    z 0.000000 0.000000 3.246910 
# 
# 
# High freq. dielectric constant tensor:
#      x y z
#    x 1.712800 0.000000 0.000000 
#    y 0.000000 1.716240 0.000000 
#    z 0.000000 0.000000 1.688090 
# 
# From -- ./inp_files/27003.got.cif
#   From: 2010.03.12/outbox.cif.g09.slc.cpg/sg53_14_cif.got.tgz:27003.got - 2010.04.16 14:36:59.
