data_PCOD8218995
_publ_section_title
;
Structure prediction by ZEFSAII (Michael W. Deem and Ramdas Pophale) SiO2 
 PCOD8218995
Probable space group: P M N A
;
_chemical_formula_sum "Si O2"
_cell_formula_units_Z 64
_cell_length_a 9.166288
_cell_length_b 14.742128
_cell_length_c 23.829661
_cell_angle_alpha 90.000000
_cell_angle_beta 90.000000
_cell_angle_gamma 90.000000
_cell_volume 3220.116174
_symmetry_space_group_name_H-M "P M N A"
_symmetry_group_IT_number 53
_symmetry_cell_setting 'orthorhombic'
loop_
_space_group_symop_operation_xyz
x,y,z
1/2-x,-y,1/2+z
x,-y,-z
1/2-x,y,1/2-z
-x,-y,-z
1/2+x,y,1/2-z
-x,y,z
1/2+x,-y,1/2+z
loop_
_atom_site_type_symbol
_atom_site_label
_atom_site_fract_x
_atom_site_fract_y
_atom_site_fract_z
Si Si1 0.164430 0.732126 0.303777
Si Si2 0.670899 0.777901 0.498881
Si Si3 0.328386 0.652275 0.806801
Si Si4 0.836441 0.542769 0.350956
Si Si5 0.172591 0.202028 0.123729
Si Si6 0.329301 0.854232 0.384058
Si Si7 0.171538 0.023753 0.190651
Si Si8 0.173203 0.417353 0.962303
O O1 0.250000 0.769419 0.250000
O O2 0.168794 0.623386 0.305598
O O3 0.241134 0.770331 0.358928
O O4 0.000000 0.769156 0.300033
O O5 0.500000 0.763272 0.500962
O O6 0.722271 0.815874 0.559265
O O7 0.709919 0.852215 0.450630
O O8 0.738319 0.678240 0.485264
O O9 0.250000 0.683492 0.750000
O O10 0.500000 0.670828 0.801269
O O11 0.290597 0.548013 0.818745
O O12 0.261225 0.710210 0.857188
O O13 0.724109 0.564445 0.399583
O O14 0.000000 0.533254 0.375887
O O15 0.219629 0.117900 0.162486
O O16 0.000000 0.220204 0.128081
O O17 0.500000 0.836302 0.374817
O O18 0.280589 0.947058 0.354118
O O19 0.250000 0.009331 0.250000
O O20 0.000000 0.020675 0.201849
O O21 0.000000 0.415239 0.961785
O O22 0.232621 0.500000 0.000000
#
# Coordination Sequence:
#
# PCOD8218995 Si02
#       8
#     8   8   8   8   8   8   8   8
#     4  11  22  36  55  81 112 149 189 232 281 336
#     4   9  18  34  57  85 117 150 190 235 281 339
#     4  11  23  39  58  83 114 151 194 241 292 345
#     4  10  22  37  53  79 113 148 189 234 285 339
#     4  10  21  39  61  86 115 150 191 239 290 343
#     4  10  20  37  59  85 116 151 189 233 284 339
#     4  10  22  38  60  87 115 149 191 238 291 345
#     4  10  19  32  54  82 112 151 194 235 280 333
#
# _framework density 19.875059
#
# number of rings (size 3 to 8) (size 9 to 14) (size 15 to 20)
#    0.000    1.875    1.250    2.625    0.000    6.250 
#    0.000    3.750    0.000    0.000    0.000    2.625 
#    0.000    0.000    0.000    0.000    0.000    0.000 
#
# Total GULP energy -793603.304721 kJ/mol
# GULP energy per Si atom -12400.051636 kJ/mol
# Density = 1.982982 g / cm^3
# Si number density = 19.875059 Si / 1000 Ang^3
#
#
#
# Elastic Constant Matrix: (Units=GPa)
#
#
# Indices 1 2 3 4 5 6 
#
# 1 50.7819 30.5042 38.0364 0.0000 0.0000 0.0000
# 2 30.5042 91.9896 35.5895 0.0000 0.0000 0.0000
# 3 38.0364 35.5895 134.2890 0.0000 0.0000 0.0000
# 4 0.0000 0.0000 0.0000 35.8617 0.0000 0.0000
# 5 0.0000 0.0000 0.0000 0.0000 29.3564 0.0000
# 6 0.0000 0.0000 0.0000 0.0000 0.0000 20.1411
#
#
#
# Elastic Compliance Matrix: (Units=1/GPa)
#
#
# Indices 1 2 3 4 5 6 
#
# 1 0.028608 -0.007077 -0.006227 0.000000 0.000000 0.000000
# 2 -0.007077 0.013864 -0.001670 0.000000 0.000000 0.000000
# 3 -0.006227 -0.001670 0.009653 0.000000 0.000000 0.000000
# 4 0.000000 0.000000 0.000000 0.027885 0.000000 0.000000
# 5 0.000000 0.000000 0.000000 0.000000 0.034064 0.000000
# 6 0.000000 0.000000 0.000000 0.000000 0.000000 0.049650
#
#
# Mechanical properties :
#
#
# Convention : Reuss Voigt Hill
#
# Bulk Modulus (GPa) = 45.09377 53.92449 49.50913
# Shear Modulus (GPa) = 24.86785 28.60054 26.73420
#
# Velocity S-wave (km/s) = 3.54108 3.79755 3.67156
# Velocity P-wave (km/s) = 6.28147 6.81316 6.55271
#
# Compressibility (1/GPa) = 0.02217601
#
# Stress axis : x y z
#
# Youngs Moduli (GPa) = 34.95577 72.13159 103.59541
#
# Poissons Ratio (x) = 0.51049 0.64512
# Poissons Ratio (y) = 0.24739 0.17296
# Poissons Ratio (z) = 0.21768 0.12043
#
# Static dielectric constant tensor:
#      x y z
#    x 3.411330 0.000000 0.000000 
#    y 0.000000 3.716460 0.000000 
#    z 0.000000 0.000000 3.738930 
# 
# 
# High freq. dielectric constant tensor:
#      x y z
#    x 1.753450 0.000000 0.000000 
#    y 0.000000 1.778010 0.000000 
#    z 0.000000 0.000000 1.783470 
# 
# From -- ./inp_files/34210.got.cif
#   From: 2010.03.12/outbox.cif.g09.slc.cpg/sg53_18_cif.got.tgz:34210.got - 2010.04.16 14:36:59.
