data_PCOD8218775
_publ_section_title
;
Structure prediction by ZEFSAII (Michael W. Deem and Ramdas Pophale) SiO2 
 PCOD8218775
Probable space group: P M N A
;
_chemical_formula_sum "Si O2"
_cell_formula_units_Z 48
_cell_length_a 8.632212
_cell_length_b 14.764321
_cell_length_c 20.625298
_cell_angle_alpha 90.000000
_cell_angle_beta 90.000000
_cell_angle_gamma 90.000000
_cell_volume 2628.668426
_symmetry_space_group_name_H-M "P M N A"
_symmetry_group_IT_number 53
_symmetry_cell_setting 'orthorhombic'
loop_
_space_group_symop_operation_xyz
x,y,z
1/2-x,-y,1/2+z
x,-y,-z
1/2-x,y,1/2-z
-x,-y,-z
1/2+x,y,1/2-z
-x,y,z
1/2+x,-y,1/2+z
loop_
_atom_site_type_symbol
_atom_site_label
_atom_site_fract_x
_atom_site_fract_y
_atom_site_fract_z
Si Si1 0.819119 0.424978 0.951019
Si Si2 0.819173 0.000811 0.815308
Si Si3 0.318512 0.614444 0.183455
Si Si4 0.319895 0.221434 0.522970
Si Si5 0.320023 0.817914 0.154617
Si Si6 0.818131 0.072841 0.446228
O O1 0.744871 0.436756 0.879918
O O2 0.781974 0.327847 0.983260
O O3 0.000000 0.440261 0.941249
O O4 0.749834 0.500000 0.000000
O O5 0.750000 0.955621 0.750000
O O6 0.787799 0.108596 0.810449
O O7 0.000000 0.980265 0.821568
O O8 0.727298 0.960611 0.875538
O O9 0.250000 0.572639 0.250000
O O10 0.500000 0.601778 0.184225
O O11 0.269644 0.719783 0.180683
O O12 0.500000 0.206646 0.539667
O O13 0.212778 0.177453 0.578156
O O14 0.271745 0.167925 0.458040
O O15 0.500000 0.840094 0.167058
O O16 0.000000 0.090076 0.449186
O O17 0.764220 0.000000 0.500000
#
# Coordination Sequence:
#
# PCOD8218775 Si02
#       6
#     8   8   8   8   8   8
#     4   9  19  36  57  81 110 141 175 219 271 323
#     4  12  24  36  52  74 105 142 183 225 270 319
#     4  10  20  32  50  76 108 142 176 215 263 321
#     4  10  19  32  54  81 106 138 179 220 265 315
#     4  10  19  32  49  74 107 141 176 214 261 315
#     4  11  22  36  55  77 107 143 182 222 262 312
#
# _framework density 18.260196000000001
#
# number of rings (size 3 to 8) (size 9 to 14) (size 15 to 20)
#    0.000    1.667    1.667    4.000    0.000    5.000 
#    0.000    0.000    0.000    1.000    0.000    4.667 
#    0.000    0.000    0.000    0.000    0.000    0.000 
#
# Total GULP energy -595278.741903 kJ/mol
# GULP energy per Si atom -12401.640456 kJ/mol
# Density = 1.821863 g / cm^3
# Si number density = 18.260196 Si / 1000 Ang^3
#
#
#
# Elastic Constant Matrix: (Units=GPa)
#
#
# Indices 1 2 3 4 5 6 
#
# 1 61.0832 26.6373 30.4336 0.0000 0.0000 0.0000
# 2 26.6373 67.6694 54.1393 0.0000 0.0000 0.0000
# 3 30.4336 54.1393 141.3340 0.0000 0.0000 0.0000
# 4 0.0000 0.0000 0.0000 20.8019 0.0000 0.0000
# 5 0.0000 0.0000 0.0000 0.0000 31.9156 0.0000
# 6 0.0000 0.0000 0.0000 0.0000 0.0000 20.4248
#
#
#
# Elastic Compliance Matrix: (Units=1/GPa)
#
#
# Indices 1 2 3 4 5 6 
#
# 1 0.020101 -0.006416 -0.001871 0.000000 0.000000 0.000000
# 2 -0.006416 0.023356 -0.007565 0.000000 0.000000 0.000000
# 3 -0.001871 -0.007565 0.010376 0.000000 0.000000 0.000000
# 4 0.000000 0.000000 0.000000 0.048072 0.000000 0.000000
# 5 0.000000 0.000000 0.000000 0.000000 0.031333 0.000000
# 6 0.000000 0.000000 0.000000 0.000000 0.000000 0.048960
#
#
# Mechanical properties :
#
#
# Convention : Reuss Voigt Hill
#
# Bulk Modulus (GPa) = 45.18848 54.72302 49.95575
# Shear Modulus (GPa) = 22.59600 25.22022 23.90811
#
# Velocity S-wave (km/s) = 3.52155 3.72043 3.62235
# Velocity P-wave (km/s) = 6.42929 6.96340 6.70167
#
# Compressibility (1/GPa) = 0.02212953
#
# Stress axis : x y z
#
# Youngs Moduli (GPa) = 49.74879 42.81597 96.37488
#
# Poissons Ratio (x) = 0.27470 0.18029
# Poissons Ratio (y) = 0.31918 0.72909
# Poissons Ratio (z) = 0.09307 0.32391
#
# Static dielectric constant tensor:
#      x y z
#    x 3.304880 0.000000 0.000000 
#    y 0.000000 3.262360 0.000000 
#    z 0.000000 0.000000 3.480520 
# 
# 
# High freq. dielectric constant tensor:
#      x y z
#    x 1.717180 0.000000 0.000000 
#    y 0.000000 1.670940 0.000000 
#    z 0.000000 0.000000 1.711370 
# 
# From -- ./inp_files/26422.got.cif
#   From: 2010.03.12/outbox.cif.g09.slc.cpg/sg53_14_cif.got.tgz:26422.got - 2010.04.16 14:36:59.
