data_PCOD8218479
_publ_section_title
;
Structure prediction by ZEFSAII (Michael W. Deem and Ramdas Pophale) SiO2 
 PCOD8218479
Probable space group: P M N A
;
_chemical_formula_sum "Si O2"
_cell_formula_units_Z 48
_cell_length_a 9.249699
_cell_length_b 15.096508
_cell_length_c 19.442257
_cell_angle_alpha 90.000000
_cell_angle_beta 90.000000
_cell_angle_gamma 90.000000
_cell_volume 2714.880896
_symmetry_space_group_name_H-M "P M N A"
_symmetry_group_IT_number 53
_symmetry_cell_setting 'orthorhombic'
loop_
_space_group_symop_operation_xyz
x,y,z
1/2-x,-y,1/2+z
x,-y,-z
1/2-x,y,1/2-z
-x,-y,-z
1/2+x,y,1/2-z
-x,y,z
1/2+x,-y,1/2+z
loop_
_atom_site_type_symbol
_atom_site_label
_atom_site_fract_x
_atom_site_fract_y
_atom_site_fract_z
Si Si1 0.168599 0.931510 0.318676
Si Si2 0.828546 0.607553 0.322179
Si Si3 0.828543 0.538672 0.571075
Si Si4 0.672230 0.263171 0.062728
Si Si5 0.669692 0.133263 0.180625
Si Si6 0.171023 0.226839 0.588418
O O1 0.250000 0.902374 0.250000
O O2 0.219898 0.867460 0.380275
O O3 0.000000 0.919268 0.303711
O O4 0.206049 0.032012 0.339635
O O5 0.750000 0.603970 0.250000
O O6 0.779133 0.521218 0.364988
O O7 0.773248 0.693806 0.363307
O O8 0.000000 0.609895 0.310577
O O9 0.763594 0.500000 0.500000
O O10 0.772018 0.638673 0.582192
O O11 0.000000 0.538087 0.565146
O O12 0.500000 0.260010 0.060808
O O13 0.730354 0.194492 0.119478
O O14 0.736200 0.235837 0.988233
O O15 0.750000 0.161475 0.250000
O O16 0.500000 0.146903 0.192587
O O17 0.000000 0.233821 0.583210
#
# Coordination Sequence:
#
# PCOD8218479 Si02
#       6
#     8   8   8   8   8   8
#     4   9  17  29  45  66  92 122 150 182 226 270
#     4  10  19  30  47  71  94 118 150 188 226 268
#     4   9  15  27  46  67  90 118 152 186 222 265
#     4   9  16  27  46  70  91 115 151 193 228 261
#     4   9  18  31  47  67  92 120 151 187 226 268
#     4   9  16  27  45  69  93 116 149 190 227 264
#
# _framework density 17.680333000000001
#
# number of rings (size 3 to 8) (size 9 to 14) (size 15 to 20)
#    0.000    2.833    1.667    0.500    0.000    1.333 
#    0.000    3.333    0.000    2.500    0.000    4.667 
#    0.000    0.000    0.000    0.000    0.000    0.000 
#
# Total GULP energy -595090.319962 kJ/mol
# GULP energy per Si atom -12397.714999 kJ/mol
# Density = 1.764009 g / cm^3
# Si number density = 17.680333 Si / 1000 Ang^3
#
#
#
# Elastic Constant Matrix: (Units=GPa)
#
#
# Indices 1 2 3 4 5 6 
#
# 1 15.9447 21.0912 29.3576 0.0000 0.0000 0.0000
# 2 21.0912 152.4977 107.8388 0.0000 0.0000 0.0000
# 3 29.3576 107.8388 182.7419 0.0000 0.0000 0.0000
# 4 0.0000 0.0000 0.0000 39.0617 0.0000 0.0000
# 5 0.0000 0.0000 0.0000 0.0000 24.7850 0.0000
# 6 0.0000 0.0000 0.0000 0.0000 0.0000 11.4335
#
#
#
# Elastic Compliance Matrix: (Units=1/GPa)
#
#
# Indices 1 2 3 4 5 6 
#
# 1 0.090345 -0.003830 -0.012254 0.000000 0.000000 0.000000
# 2 -0.003830 0.011416 -0.006121 0.000000 0.000000 0.000000
# 3 -0.012254 -0.006121 0.011053 0.000000 0.000000 0.000000
# 4 0.000000 0.000000 0.000000 0.025601 0.000000 0.000000
# 5 0.000000 0.000000 0.000000 0.000000 0.040347 0.000000
# 6 0.000000 0.000000 0.000000 0.000000 0.000000 0.087462
#
#
# Mechanical properties :
#
#
# Convention : Reuss Voigt Hill
#
# Bulk Modulus (GPa) = 14.61910 74.19548 44.40729
# Shear Modulus (GPa) = 14.99541 27.91582 21.45561
#
# Velocity S-wave (km/s) = 2.91545 3.97787 3.48735
# Velocity P-wave (km/s) = 4.42940 7.94695 6.43326
#
# Compressibility (1/GPa) = 0.06840364
#
# Stress axis : x y z
#
# Youngs Moduli (GPa) = 11.06870 87.59672 90.47175
#
# Poissons Ratio (x) = 0.33547 1.10864
# Poissons Ratio (y) = 0.04239 0.55382
# Poissons Ratio (z) = 0.13564 0.53622
#
# Static dielectric constant tensor:
#      x y z
#    x 2.730350 0.000000 0.000000 
#    y 0.000000 3.571300 0.000000 
#    z 0.000000 0.000000 3.438140 
# 
# 
# High freq. dielectric constant tensor:
#      x y z
#    x 1.621750 0.000000 0.000000 
#    y 0.000000 1.699100 0.000000 
#    z 0.000000 0.000000 1.689910 
# 
# From -- ./inp_files/21780.got.cif
#   From: 2010.03.12/outbox.cif.g09.slc.cpg/sg53_11_cif.got.tgz:21780.got - 2010.04.16 14:36:59.
