data_PCOD8218512
_publ_section_title
;
Structure prediction by ZEFSAII (Michael W. Deem and Ramdas Pophale) SiO2 
 PCOD8218512
Probable space group: P M N A
;
_chemical_formula_sum "Si O2"
_cell_formula_units_Z 64
_cell_length_a 8.826467
_cell_length_b 15.229637
_cell_length_c 23.293574
_cell_angle_alpha 90.000000
_cell_angle_beta 90.000000
_cell_angle_gamma 90.000000
_cell_volume 3131.212792
_symmetry_space_group_name_H-M "P M N A"
_symmetry_group_IT_number 53
_symmetry_cell_setting 'orthorhombic'
loop_
_space_group_symop_operation_xyz
x,y,z
1/2-x,-y,1/2+z
x,-y,-z
1/2-x,y,1/2-z
-x,-y,-z
1/2+x,y,1/2-z
-x,y,z
1/2+x,-y,1/2+z
loop_
_atom_site_type_symbol
_atom_site_label
_atom_site_fract_x
_atom_site_fract_y
_atom_site_fract_z
Si Si1 0.821787 0.189881 0.376620
Si Si2 0.675332 0.164840 0.497588
Si Si3 0.178838 0.101893 0.608948
Si Si4 0.820205 0.041515 0.189572
Si Si5 0.325022 0.614979 0.897866
Si Si6 0.822715 0.261747 0.690689
Si Si7 0.324677 0.428033 0.872606
Si Si8 0.171798 0.366651 0.984557
O O1 0.762401 0.154679 0.437636
O O2 0.734927 0.139755 0.325788
O O3 0.783064 0.293179 0.367318
O O4 0.000000 0.171374 0.372479
O O5 0.500000 0.138236 0.488974
O O6 0.754302 0.102948 0.544661
O O7 0.692421 0.262901 0.520850
O O8 0.219186 0.192029 0.641598
O O9 0.000000 0.085140 0.606622
O O10 0.259849 0.022210 0.640507
O O11 0.750000 0.012081 0.250000
O O12 0.000000 0.037449 0.193597
O O13 0.500000 0.617542 0.917200
O O14 0.294215 0.530685 0.855963
O O15 0.224269 0.600158 0.953669
O O16 0.750000 0.231112 0.750000
O O17 0.753358 0.357328 0.671864
O O18 0.000000 0.265592 0.701485
O O19 0.500000 0.405746 0.873412
O O20 0.268818 0.414191 0.936752
O O21 0.000000 0.395711 0.975955
#
# Coordination Sequence:
#
# PCOD8218512 Si02
#       8
#     8   8   8   8   8   8   8   8
#     4  10  21  40  63  89 120 157 199 249 299 353
#     4  10  20  35  57  89 126 162 195 239 295 357
#     4  11  22  39  63  91 119 154 195 242 295 356
#     4  12  26  45  67  91 117 151 195 246 297 354
#     4   9  19  34  56  81 113 153 194 237 287 344
#     4  10  22  37  56  80 113 153 195 240 289 347
#     4  10  19  34  53  78 111 153 197 236 283 344
#     4  10  19  30  49  81 119 154 191 236 284 337
#
# _framework density 20.439363
#
# number of rings (size 3 to 8) (size 9 to 14) (size 15 to 20)
#    0.000    1.750    1.250    3.375    0.000    6.500 
#    0.000    3.125    0.000    1.500    0.000    0.000 
#    0.000    0.000    0.000    0.000    0.000    0.000 
#
# Total GULP energy -793592.989144 kJ/mol
# GULP energy per Si atom -12399.890455 kJ/mol
# Density = 2.039284 g / cm^3
# Si number density = 20.439363 Si / 1000 Ang^3
#
#
#
# Elastic Constant Matrix: (Units=GPa)
#
#
# Indices 1 2 3 4 5 6 
#
# 1 65.0607 24.3560 15.4838 0.0000 0.0000 0.0000
# 2 24.3560 74.7440 14.0090 0.0000 0.0000 0.0000
# 3 15.4838 14.0090 34.0862 0.0000 0.0000 0.0000
# 4 0.0000 0.0000 0.0000 15.4710 0.0000 0.0000
# 5 0.0000 0.0000 0.0000 0.0000 30.9554 0.0000
# 6 0.0000 0.0000 0.0000 0.0000 0.0000 42.7266
#
#
#
# Elastic Compliance Matrix: (Units=1/GPa)
#
#
# Indices 1 2 3 4 5 6 
#
# 1 0.018750 -0.004890 -0.006507 0.000000 0.000000 0.000000
# 2 -0.004890 0.015771 -0.004260 0.000000 0.000000 0.000000
# 3 -0.006507 -0.004260 0.034044 0.000000 0.000000 0.000000
# 4 0.000000 0.000000 0.000000 0.064637 0.000000 0.000000
# 5 0.000000 0.000000 0.000000 0.000000 0.032305 0.000000
# 6 0.000000 0.000000 0.000000 0.000000 0.000000 0.023405
#
#
# Mechanical properties :
#
#
# Convention : Reuss Voigt Hill
#
# Bulk Modulus (GPa) = 26.84608 31.28762 29.06685
# Shear Modulus (GPa) = 21.49214 25.83340 23.66277
#
# Velocity S-wave (km/s) = 3.24621 3.55900 3.40620
# Velocity P-wave (km/s) = 5.21666 5.67709 5.45174
#
# Compressibility (1/GPa) = 0.03724938
#
# Stress axis : x y z
#
# Youngs Moduli (GPa) = 53.33451 63.40765 29.37346
#
# Poissons Ratio (x) = 0.31007 0.19114
# Poissons Ratio (y) = 0.26081 0.12514
# Poissons Ratio (z) = 0.34707 0.27014
#
# Static dielectric constant tensor:
#      x y z
#    x 3.694460 0.000000 0.000000 
#    y 0.000000 4.111390 0.000000 
#    z 0.000000 0.000000 3.547920 
# 
# 
# High freq. dielectric constant tensor:
#      x y z
#    x 1.800280 0.000000 0.000000 
#    y 0.000000 1.813690 0.000000 
#    z 0.000000 0.000000 1.776080 
# 
# From -- ./inp_files/34324.got.cif
#   From: 2010.03.12/outbox.cif.g09.slc.cpg/sg53_18_cif.got.tgz:34324.got - 2010.04.16 14:36:59.
