data_PCOD8218879
_publ_section_title
;
Structure prediction by ZEFSAII (Michael W. Deem and Ramdas Pophale) SiO2 
 PCOD8218879
Probable space group: P M N A
;
_chemical_formula_sum "Si O2"
_cell_formula_units_Z 60
_cell_length_a 13.314384
_cell_length_b 11.347079
_cell_length_c 22.801591
_cell_angle_alpha 90.000000
_cell_angle_beta 90.000000
_cell_angle_gamma 90.000000
_cell_volume 3444.849937
_symmetry_space_group_name_H-M "P M N A"
_symmetry_group_IT_number 53
_symmetry_cell_setting 'orthorhombic'
loop_
_space_group_symop_operation_xyz
x,y,z
1/2-x,-y,1/2+z
x,-y,-z
1/2-x,y,1/2-z
-x,-y,-z
1/2+x,y,1/2-z
-x,y,z
1/2+x,-y,1/2+z
loop_
_atom_site_type_symbol
_atom_site_label
_atom_site_fract_x
_atom_site_fract_y
_atom_site_fract_z
Si Si1 0.193133 0.379546 0.329639
Si Si2 0.885910 0.512192 0.783449
Si Si3 0.380691 0.253313 0.872053
Si Si4 0.119217 0.487290 0.565684
Si Si5 0.116157 0.024986 0.563438
Si Si6 0.250000 0.947290 0.250000
Si Si7 0.884492 0.248797 0.762960
Si Si8 0.882279 0.121247 0.326623
O O1 0.129089 0.462044 0.285721
O O2 0.311719 0.406108 0.321459
O O3 0.160657 0.404006 0.396117
O O4 0.170732 0.244817 0.314117
O O5 0.862660 0.373781 0.794363
O O6 0.000000 0.542238 0.801472
O O7 0.500000 0.250998 0.874692
O O8 0.338950 0.367108 0.906283
O O9 0.347451 0.257427 0.804608
O O10 0.335040 0.138601 0.904733
O O11 0.161617 0.500000 0.500000
O O12 0.000000 0.492956 0.565774
O O13 0.128994 0.910782 0.604816
O O14 0.000000 0.054076 0.552702
O O15 0.167507 0.000000 0.500000
O O16 0.324609 0.023946 0.210960
O O17 0.179234 0.860084 0.210074
O O18 0.000000 0.215393 0.768132
O O19 0.000000 0.123932 0.308472
#
# Coordination Sequence:
#
# PCOD8218879 Si02
#       8
#     8   8   8   8   8   4   8   8
#     4  11  21  34  52  75 104 139 175 209 258 317
#     4  10  20  35  54  77 103 134 171 217 266 311
#     4   9  16  30  48  69  98 132 166 204 254 301
#     4  10  20  31  49  77 107 136 168 214 264 313
#     4   9  18  31  47  67  97 136 169 198 242 298
#     4  12  20  32  50  72 104 138 174 208 252 298
#     4  10  19  32  52  76 103 132 166 213 258 302
#     4  11  23  35  49  73 107 141 173 209 248 303
#
# _framework density 17.417304000000001
#
# number of rings (size 3 to 8) (size 9 to 14) (size 15 to 20)
#    0.000    1.867    2.667    3.200    1.867    0.000 
#    0.000    0.667    0.000    0.400    0.000    0.000 
#    0.000    2.667    0.000    0.000    0.000    0.000 
#
# Total GULP energy -743708.307713 kJ/mol
# GULP energy per Si atom -12395.138462 kJ/mol
# Density = 1.737766 g / cm^3
# Si number density = 17.417304 Si / 1000 Ang^3
#
#
#
# Elastic Constant Matrix: (Units=GPa)
#
#
# Indices 1 2 3 4 5 6 
#
# 1 90.3828 49.8155 18.4204 0.0000 0.0000 0.0000
# 2 49.8155 112.1789 14.8618 0.0000 0.0000 0.0000
# 3 18.4204 14.8618 58.1581 0.0000 0.0000 0.0000
# 4 0.0000 0.0000 0.0000 17.5618 0.0000 0.0000
# 5 0.0000 0.0000 0.0000 0.0000 14.1596 0.0000
# 6 0.0000 0.0000 0.0000 0.0000 0.0000 29.5289
#
#
#
# Elastic Compliance Matrix: (Units=1/GPa)
#
#
# Indices 1 2 3 4 5 6 
#
# 1 0.015203 -0.006328 -0.003198 0.000000 0.000000 0.000000
# 2 -0.006328 0.011860 -0.001027 0.000000 0.000000 0.000000
# 3 -0.003198 -0.001027 0.018470 0.000000 0.000000 0.000000
# 4 0.000000 0.000000 0.000000 0.056942 0.000000 0.000000
# 5 0.000000 0.000000 0.000000 0.000000 0.070623 0.000000
# 6 0.000000 0.000000 0.000000 0.000000 0.000000 0.033865
#
#
# Mechanical properties :
#
#
# Convention : Reuss Voigt Hill
#
# Bulk Modulus (GPa) = 40.93631 47.43502 44.18566
# Shear Modulus (GPa) = 21.16742 24.09153 22.62947
#
# Velocity S-wave (km/s) = 3.48991 3.72317 3.60842
# Velocity P-wave (km/s) = 6.30821 6.76581 6.54101
#
# Compressibility (1/GPa) = 0.02442819
#
# Stress axis : x y z
#
# Youngs Moduli (GPa) = 65.77437 84.31491 54.14222
#
# Poissons Ratio (x) = 0.53352 0.17317
# Poissons Ratio (y) = 0.41620 0.05558
# Poissons Ratio (z) = 0.21037 0.08656
#
# Static dielectric constant tensor:
#      x y z
#    x 3.067280 0.000000 0.000000 
#    y 0.000000 3.462810 0.000000 
#    z 0.000000 0.000000 3.165000 
# 
# 
# High freq. dielectric constant tensor:
#      x y z
#    x 1.645860 0.000000 0.000000 
#    y 0.000000 1.689740 0.000000 
#    z 0.000000 0.000000 1.644000 
# 
# From -- ./inp_files/32597.got.cif
#   From: 2010.03.12/outbox.cif.g09.slc.cpg/sg53_17_cif.got.tgz:32597.got - 2010.04.16 14:36:59.
