data_PCOD8218172
_publ_section_title
;
Structure prediction by ZEFSAII (Michael W. Deem and Ramdas Pophale) SiO2 
 PCOD8218172
Probable space group: P M N A
;
_chemical_formula_sum "Si O2"
_cell_formula_units_Z 40
_cell_length_a 14.406994
_cell_length_b 12.909555
_cell_length_c 10.362402
_cell_angle_alpha 90.000000
_cell_angle_beta 90.000000
_cell_angle_gamma 90.000000
_cell_volume 1927.281194
_symmetry_space_group_name_H-M "P M N A"
_symmetry_group_IT_number 53
_symmetry_cell_setting 'orthorhombic'
loop_
_space_group_symop_operation_xyz
x,y,z
1/2-x,-y,1/2+z
x,-y,-z
1/2-x,y,1/2-z
-x,-y,-z
1/2+x,y,1/2-z
-x,y,z
1/2+x,-y,1/2+z
loop_
_atom_site_type_symbol
_atom_site_label
_atom_site_fract_x
_atom_site_fract_y
_atom_site_fract_z
Si Si1 0.730930 0.916533 0.601885
Si Si2 0.355591 0.575735 0.106152
Si Si3 0.350289 0.493436 0.365452
Si Si4 0.102629 0.214520 0.473002
Si Si5 0.604828 0.269790 0.320387
O O1 0.750000 0.957347 0.750000
O O2 0.823803 0.878652 0.527489
O O3 0.655985 0.825188 0.610597
O O4 0.689758 0.000000 0.500000
O O5 0.402601 0.547728 0.245043
O O6 0.246915 0.551709 0.115285
O O7 0.402326 0.500000 0.000000
O O8 0.371615 0.695893 0.075111
O O9 0.407886 0.500000 0.500000
O O10 0.334121 0.371615 0.343577
O O11 0.102313 0.261492 0.331890
O O12 0.000000 0.171045 0.508160
O O13 0.500000 0.278233 0.375555
#
# Coordination Sequence:
#
# PCOD8218172 Si02
#       5
#     8   8   8   8   8
#     4  10  22  42  66  89 116 154 200 255 315 364
#     4  10  18  32  56  84 116 159 199 237 277 348
#     4  10  20  32  53  84 124 162 192 237 292 345
#     4  10  21  38  63  90 116 155 206 251 294 353
#     4  10  21  38  62  87 118 160 204 245 294 361
#
# _framework density 20.754625000000001
#
# number of rings (size 3 to 8) (size 9 to 14) (size 15 to 20)
#    0.000    2.000    2.000    2.400    5.600    2.400 
#    7.200    0.000    0.000    0.000    0.000    0.000 
#    0.000    0.000    0.000    0.000    0.000    0.000 
#
# Total GULP energy -495530.957830 kJ/mol
# GULP energy per Si atom -12388.273946 kJ/mol
# Density = 2.070739 g / cm^3
# Si number density = 20.754625 Si / 1000 Ang^3
#
#
#
# Elastic Constant Matrix: (Units=GPa)
#
#
# Indices 1 2 3 4 5 6 
#
# 1 98.4064 27.6641 16.3151 0.0000 0.0000 0.0000
# 2 27.6641 97.2750 52.0536 0.0000 0.0000 0.0000
# 3 16.3151 52.0536 149.0807 0.0000 0.0000 0.0000
# 4 0.0000 0.0000 0.0000 42.5658 0.0000 0.0000
# 5 0.0000 0.0000 0.0000 0.0000 7.0871 0.0000
# 6 0.0000 0.0000 0.0000 0.0000 0.0000 7.7379
#
#
#
# Elastic Compliance Matrix: (Units=1/GPa)
#
#
# Indices 1 2 3 4 5 6 
#
# 1 0.011047 -0.003068 -0.000138 0.000000 0.000000 0.000000
# 2 -0.003068 0.013494 -0.004376 0.000000 0.000000 0.000000
# 3 -0.000138 -0.004376 0.008251 0.000000 0.000000 0.000000
# 4 0.000000 0.000000 0.000000 0.023493 0.000000 0.000000
# 5 0.000000 0.000000 0.000000 0.000000 0.141102 0.000000
# 6 0.000000 0.000000 0.000000 0.000000 0.000000 0.129233
#
#
# Mechanical properties :
#
#
# Convention : Reuss Voigt Hill
#
# Bulk Modulus (GPa) = 56.72512 59.64752 58.18632
# Shear Modulus (GPa) = 14.38184 28.06011 21.22098
#
# Velocity S-wave (km/s) = 2.63524 3.68094 3.20108
# Velocity P-wave (km/s) = 6.05392 6.84598 6.46210
#
# Compressibility (1/GPa) = 0.01762887
#
# Stress axis : x y z
#
# Youngs Moduli (GPa) = 90.52018 74.10526 121.20056
#
# Poissons Ratio (x) = 0.22736 0.01670
# Poissons Ratio (y) = 0.27772 0.53037
# Poissons Ratio (z) = 0.01247 0.32428
#
# Static dielectric constant tensor:
#      x y z
#    x 3.883220 0.000000 0.000000 
#    y 0.000000 3.490930 0.000000 
#    z 0.000000 0.000000 4.852610 
# 
# 
# High freq. dielectric constant tensor:
#      x y z
#    x 1.804650 0.000000 0.000000 
#    y 0.000000 1.788300 0.000000 
#    z 0.000000 0.000000 1.818950 
# 
# From -- ./inp_files/15777.got.cif
#   From: 2010.03.12/outbox.cif.g09.slc.cpg/sg53_8_cif.got.tgz:15777.got - 2010.04.16 14:36:59.
