data_PCOD8218506
_publ_section_title
;
Structure prediction by ZEFSAII (Michael W. Deem and Ramdas Pophale) SiO2 
 PCOD8218506
Probable space group: P M N A
;
_chemical_formula_sum "Si O2"
_cell_formula_units_Z 64
_cell_length_a 8.666832
_cell_length_b 19.884055
_cell_length_c 19.108571
_cell_angle_alpha 90.000000
_cell_angle_beta 90.000000
_cell_angle_gamma 90.000000
_cell_volume 3293.013751
_symmetry_space_group_name_H-M "P M N A"
_symmetry_group_IT_number 53
_symmetry_cell_setting 'orthorhombic'
loop_
_space_group_symop_operation_xyz
x,y,z
1/2-x,-y,1/2+z
x,-y,-z
1/2-x,y,1/2-z
-x,-y,-z
1/2+x,y,1/2-z
-x,y,z
1/2+x,-y,1/2+z
loop_
_atom_site_type_symbol
_atom_site_label
_atom_site_fract_x
_atom_site_fract_y
_atom_site_fract_z
Si Si1 0.816958 0.290265 0.946087
Si Si2 0.683285 0.388095 0.676070
Si Si3 0.683427 0.860707 0.438982
Si Si4 0.682390 0.532288 0.824462
Si Si5 0.816630 0.094050 0.087298
Si Si6 0.817349 0.650686 0.907460
Si Si7 0.681777 0.219383 0.325001
Si Si8 0.683039 0.966251 0.327372
O O1 0.761034 0.333476 0.880123
O O2 0.747475 0.214944 0.939543
O O3 0.000000 0.285498 0.949375
O O4 0.758172 0.327070 0.016128
O O5 0.750000 0.363873 0.750000
O O6 0.500000 0.394017 0.680233
O O7 0.751316 0.459962 0.654395
O O8 0.500000 0.856477 0.441920
O O9 0.741632 0.902758 0.506871
O O10 0.736691 0.899178 0.368739
O O11 0.750000 0.556617 0.750000
O O12 0.500000 0.528082 0.817661
O O13 0.730477 0.583004 0.885694
O O14 0.754975 0.161602 0.123995
O O15 0.000000 0.090507 0.088639
O O16 0.750513 0.029660 0.128810
O O17 0.766395 0.708346 0.853348
O O18 0.000000 0.638040 0.906478
O O19 0.750000 0.205890 0.250000
O O20 0.500000 0.215063 0.320690
O O21 0.750000 0.965054 0.250000
O O22 0.500000 0.970320 0.321858
#
# Coordination Sequence:
#
# PCOD8218506 Si02
#       8
#     8   8   8   8   8   8   8   8
#     4   9  18  33  55  80 106 138 179 223 265 315
#     4  10  20  36  57  80 104 136 178 222 268 317
#     4   9  16  31  54  79 104 136 183 226 260 304
#     4  11  22  37  56  79 108 142 177 217 264 317
#     4   9  16  30  51  77 104 136 178 222 259 301
#     4  10  19  34  54  77 106 140 176 219 265 314
#     4  10  19  30  49  74 104 138 173 213 258 305
#     4  10  20  32  52  80 109 140 176 222 268 314
#
# _framework density 19.435084
#
# number of rings (size 3 to 8) (size 9 to 14) (size 15 to 20)
#    0.000    2.250    1.250    3.375    0.000    4.000 
#    0.000    3.750    0.000    3.750    0.000    0.000 
#    0.000    0.000    0.000    0.000    0.000    0.000 
#
# Total GULP energy -793539.148684 kJ/mol
# GULP energy per Si atom -12399.049198 kJ/mol
# Density = 1.939085 g / cm^3
# Si number density = 19.435084 Si / 1000 Ang^3
#
#
#
# Elastic Constant Matrix: (Units=GPa)
#
#
# Indices 1 2 3 4 5 6 
#
# 1 43.7720 28.8329 27.9023 0.0000 0.0000 0.0000
# 2 28.8329 139.5449 95.7476 0.0000 0.0000 0.0000
# 3 27.9023 95.7476 156.6762 0.0000 0.0000 0.0000
# 4 0.0000 0.0000 0.0000 41.9553 0.0000 0.0000
# 5 0.0000 0.0000 0.0000 0.0000 28.1829 0.0000
# 6 0.0000 0.0000 0.0000 0.0000 0.0000 14.7209
#
#
#
# Elastic Compliance Matrix: (Units=1/GPa)
#
#
# Indices 1 2 3 4 5 6 
#
# 1 0.026961 -0.003920 -0.002406 0.000000 0.000000 0.000000
# 2 -0.003920 0.012911 -0.007192 0.000000 0.000000 0.000000
# 3 -0.002406 -0.007192 0.011206 0.000000 0.000000 0.000000
# 4 0.000000 0.000000 0.000000 0.023835 0.000000 0.000000
# 5 0.000000 0.000000 0.000000 0.000000 0.035482 0.000000
# 6 0.000000 0.000000 0.000000 0.000000 0.000000 0.067930
#
#
# Mechanical properties :
#
#
# Convention : Reuss Voigt Hill
#
# Bulk Modulus (GPa) = 41.59267 71.66207 56.62737
# Shear Modulus (GPa) = 23.43281 29.47252 26.45267
#
# Velocity S-wave (km/s) = 3.47608 3.89840 3.69328
# Velocity P-wave (km/s) = 6.12847 7.56412 6.88382
#
# Compressibility (1/GPa) = 0.02404270
#
# Stress axis : x y z
#
# Youngs Moduli (GPa) = 37.09004 77.45478 89.23663
#
# Poissons Ratio (x) = 0.30362 0.21470
# Poissons Ratio (y) = 0.14539 0.64178
# Poissons Ratio (z) = 0.08924 0.55705
#
# Static dielectric constant tensor:
#      x y z
#    x 3.100070 0.000000 0.000000 
#    y 0.000000 3.779880 0.000000 
#    z 0.000000 0.000000 3.657620 
# 
# 
# High freq. dielectric constant tensor:
#      x y z
#    x 1.711320 0.000000 0.000000 
#    y 0.000000 1.768650 0.000000 
#    z 0.000000 0.000000 1.766270 
# 
# From -- ./inp_files/26989.got.cif
#   From: 2010.03.12/outbox.cif.g09.slc.cpg/sg53_14_cif.got.tgz:26989.got - 2010.04.16 14:36:59.
