data_PCOD8218264
_publ_section_title
;
Structure prediction by ZEFSAII (Michael W. Deem and Ramdas Pophale) SiO2 
 PCOD8218264
Probable space group: P M N A
;
_chemical_formula_sum "Si O2"
_cell_formula_units_Z 64
_cell_length_a 17.984336
_cell_length_b 13.861367
_cell_length_c 12.869049
_cell_angle_alpha 90.000000
_cell_angle_beta 90.000000
_cell_angle_gamma 90.000000
_cell_volume 3208.092815
_symmetry_space_group_name_H-M "P M N A"
_symmetry_group_IT_number 53
_symmetry_cell_setting 'orthorhombic'
loop_
_space_group_symop_operation_xyz
x,y,z
1/2-x,-y,1/2+z
x,-y,-z
1/2-x,y,1/2-z
-x,-y,-z
1/2+x,y,1/2-z
-x,y,z
1/2+x,-y,1/2+z
loop_
_atom_site_type_symbol
_atom_site_label
_atom_site_fract_x
_atom_site_fract_y
_atom_site_fract_z
Si Si1 0.131578 0.608900 0.381874
Si Si2 0.726334 0.280521 0.560516
Si Si3 0.583032 0.719499 0.315814
Si Si4 0.920546 0.059799 0.796049
Si Si5 0.299293 0.758071 0.849994
Si Si6 0.413466 0.392528 0.109135
Si Si7 0.226067 0.941642 0.103453
Si Si8 0.363718 0.036886 0.113339
O O1 0.216677 0.647370 0.381434
O O2 0.089152 0.651045 0.283513
O O3 0.090635 0.640415 0.488417
O O4 0.127610 0.493854 0.373678
O O5 0.642196 0.310133 0.593573
O O6 0.742146 0.283620 0.437050
O O7 0.736750 0.171794 0.598356
O O8 0.500000 0.707367 0.363076
O O9 0.596067 0.827655 0.272958
O O10 0.855877 0.020290 0.870527
O O11 0.000000 0.050283 0.854178
O O12 0.928624 0.993417 0.692884
O O13 0.250000 0.782021 0.750000
O O14 0.364525 0.681758 0.822957
O O15 0.343867 0.850693 0.891270
O O16 0.500000 0.394802 0.144267
O O17 0.294970 0.979114 0.172749
O O18 0.248930 0.000000 0.000000
O O19 0.388393 0.000000 0.000000
#
# Coordination Sequence:
#
# PCOD8218264 Si02
#       8
#     8   8   8   8   8   8   8   8
#     4  10  19  36  62  89 115 152 192 240 292 356
#     4  10  20  35  57  88 114 148 199 245 292 343
#     4  10  20  34  57  88 122 152 187 242 304 350
#     4  10  22  34  50  83 117 147 189 240 292 344
#     4  11  23  39  59  83 116 154 204 245 288 352
#     4  10  22  39  60  88 122 154 191 236 298 358
#     4  10  18  34  58  78 108 152 193 234 283 340
#     4  11  21  36  57  80 106 152 197 238 283 336
#
# _framework density 19.949548
#
# number of rings (size 3 to 8) (size 9 to 14) (size 15 to 20)
#    0.000    1.750    2.500    3.750    1.750    4.000 
#    0.000    0.625    0.000    0.000    0.000    8.750 
#    0.000    0.000    0.000    0.000    0.000    0.000 
#
# Total GULP energy -792987.795573 kJ/mol
# GULP energy per Si atom -12390.434306 kJ/mol
# Density = 1.990414 g / cm^3
# Si number density = 19.949548 Si / 1000 Ang^3
#
#
#
# Elastic Constant Matrix: (Units=GPa)
#
#
# Indices 1 2 3 4 5 6 
#
# 1 126.9136 39.8980 23.6130 0.0000 0.0000 0.0000
# 2 39.8980 84.4948 15.9798 0.0000 0.0000 0.0000
# 3 23.6130 15.9798 45.1600 0.0000 0.0000 0.0000
# 4 0.0000 0.0000 0.0000 23.2016 0.0000 0.0000
# 5 0.0000 0.0000 0.0000 0.0000 20.7485 0.0000
# 6 0.0000 0.0000 0.0000 0.0000 0.0000 15.2447
#
#
#
# Elastic Compliance Matrix: (Units=1/GPa)
#
#
# Indices 1 2 3 4 5 6 
#
# 1 0.009809 -0.003924 -0.003740 0.000000 0.000000 0.000000
# 2 -0.003924 0.014254 -0.002992 0.000000 0.000000 0.000000
# 3 -0.003740 -0.002992 0.025158 0.000000 0.000000 0.000000
# 4 0.000000 0.000000 0.000000 0.043100 0.000000 0.000000
# 5 0.000000 0.000000 0.000000 0.000000 0.048196 0.000000
# 6 0.000000 0.000000 0.000000 0.000000 0.000000 0.065597
#
#
# Mechanical properties :
#
#
# Convention : Reuss Voigt Hill
#
# Bulk Modulus (GPa) = 35.83209 46.17222 41.00216
# Shear Modulus (GPa) = 21.12114 23.64413 22.38264
#
# Velocity S-wave (km/s) = 3.25734 3.44640 3.35320
# Velocity P-wave (km/s) = 5.66986 6.24753 5.96569
#
# Compressibility (1/GPa) = 0.02790794
#
# Stress axis : x y z
#
# Youngs Moduli (GPa) = 101.94740 70.15606 39.74913
#
# Poissons Ratio (x) = 0.27532 0.14867
# Poissons Ratio (y) = 0.40008 0.11892
# Poissons Ratio (z) = 0.38131 0.20989
#
# Static dielectric constant tensor:
#      x y z
#    x 3.792690 0.000000 0.000000 
#    y 0.000000 3.561600 0.000000 
#    z 0.000000 0.000000 3.447140 
# 
# 
# High freq. dielectric constant tensor:
#      x y z
#    x 1.787810 0.000000 0.000000 
#    y 0.000000 1.770960 0.000000 
#    z 0.000000 0.000000 1.755150 
# 
# From -- ./inp_files/23877.got.cif
#   From: 2010.03.12/outbox.cif.g09.slc.cpg/sg53_12_cif.got.tgz:23877.got - 2010.04.16 14:36:59.
