data_PCOD8218150
_publ_section_title
;
Structure prediction by ZEFSAII (Michael W. Deem and Ramdas Pophale) SiO2 
 PCOD8218150
Probable space group: P M N A
;
_chemical_formula_sum "Si O2"
_cell_formula_units_Z 40
_cell_length_a 14.457575
_cell_length_b 10.190943
_cell_length_c 14.211488
_cell_angle_alpha 90.000000
_cell_angle_beta 90.000000
_cell_angle_gamma 90.000000
_cell_volume 2093.868383
_symmetry_space_group_name_H-M "P M N A"
_symmetry_group_IT_number 53
_symmetry_cell_setting 'orthorhombic'
loop_
_space_group_symop_operation_xyz
x,y,z
1/2-x,-y,1/2+z
x,-y,-z
1/2-x,y,1/2-z
-x,-y,-z
1/2+x,y,1/2-z
-x,y,z
1/2+x,-y,1/2+z
loop_
_atom_site_type_symbol
_atom_site_label
_atom_site_fract_x
_atom_site_fract_y
_atom_site_fract_z
Si Si1 0.397567 0.021389 0.610780
Si Si2 0.897648 0.600588 0.417522
Si Si3 0.149949 0.490372 0.224698
Si Si4 0.706619 0.275454 0.592136
Si Si5 0.896975 0.740603 0.902054
O O1 0.500000 0.062696 0.648061
O O2 0.322685 0.133963 0.635077
O O3 0.399642 0.000000 0.500000
O O4 0.367527 0.877478 0.650429
O O5 0.869332 0.500000 0.500000
O O6 0.905360 0.524389 0.318893
O O7 0.818469 0.712413 0.409666
O O8 0.000000 0.661428 0.438216
O O9 0.250000 0.433504 0.250000
O O10 0.160156 0.617110 0.158651
O O11 0.096152 0.375707 0.172323
O O12 0.671399 0.296949 0.486357
O O13 0.000000 0.761645 0.944798
#
# Coordination Sequence:
#
# PCOD8218150 Si02
#       5
#     8   8   8   8   8
#     4   8  16  30  49  77 111 139 159 192 255 322
#     4  10  21  36  52  71 101 141 181 219 255 294
#     4  10  20  33  51  78 106 134 172 213 254 301
#     4  10  18  32  54  80 108 134 164 208 260 309
#     4  10  19  32  54  83 110 134 162 204 261 316
#
# _framework density 19.103397999999999
#
# number of rings (size 3 to 8) (size 9 to 14) (size 15 to 20)
#    0.000    2.400    0.000    5.400    0.000    4.000 
#    0.000    3.000    0.000    5.400    0.000    2.800 
#    0.000    0.000    0.000    0.000    0.000    0.000 
#
# Total GULP energy -495698.196190 kJ/mol
# GULP energy per Si atom -12392.454905 kJ/mol
# Density = 1.905992 g / cm^3
# Si number density = 19.103398 Si / 1000 Ang^3
#
#
#
# Elastic Constant Matrix: (Units=GPa)
#
#
# Indices 1 2 3 4 5 6 
#
# 1 116.3183 60.2058 28.1575 0.0000 0.0000 0.0000
# 2 60.2058 135.7747 47.0755 0.0000 0.0000 0.0000
# 3 28.1575 47.0755 72.4036 0.0000 0.0000 0.0000
# 4 0.0000 0.0000 0.0000 3.4594 0.0000 0.0000
# 5 0.0000 0.0000 0.0000 0.0000 -59.7956 0.0000
# 6 0.0000 0.0000 0.0000 0.0000 0.0000 28.4158
#
#
#
# Elastic Compliance Matrix: (Units=1/GPa)
#
#
# Indices 1 2 3 4 5 6 
#
# 1 0.011277 -0.004493 -0.001465 0.000000 0.000000 0.000000
# 2 -0.004493 0.011299 -0.005599 0.000000 0.000000 0.000000
# 3 -0.001465 -0.005599 0.018021 0.000000 0.000000 0.000000
# 4 0.000000 0.000000 0.000000 0.289069 0.000000 0.000000
# 5 0.000000 0.000000 0.000000 0.000000 -0.016724 0.000000
# 6 0.000000 0.000000 0.000000 0.000000 0.000000 0.035192
#
#
# Mechanical properties :
#
#
# Convention : Reuss Voigt Hill
#
# Bulk Modulus (GPa) = 57.19314 66.15270 61.67292
# Shear Modulus (GPa) = 13.25998 7.01978 10.13988
#
# Velocity S-wave (km/s) = 2.63747 1.91901 2.30639
# Velocity P-wave (km/s) = 6.26727 6.29397 6.28064
#
# Compressibility (1/GPa) = 0.01748461
#
# Stress axis : x y z
#
# Youngs Moduli (GPa) = 88.67577 88.50670 55.48977
#
# Poissons Ratio (x) = 0.39764 0.08127
# Poissons Ratio (y) = 0.39840 0.31068
# Poissons Ratio (z) = 0.12987 0.49554
#
# Static dielectric constant tensor:
#      x y z
#    x 3.495250 0.000000 0.000000 
#    y 0.000000 3.958290 0.000000 
#    z 0.000000 0.000000 3.351410 
# 
# 
# High freq. dielectric constant tensor:
#      x y z
#    x 1.745220 0.000000 0.000000 
#    y 0.000000 1.735320 0.000000 
#    z 0.000000 0.000000 1.721720 
# 
# From -- ./inp_files/22415.got.cif
#   From: 2010.03.12/outbox.cif.g09.slc.cpg/sg53_12_cif.got.tgz:22415.got - 2010.04.16 14:36:59.
