data_PCOD8218765
_publ_section_title
;
Structure prediction by ZEFSAII (Michael W. Deem and Ramdas Pophale) SiO2 
 PCOD8218765
Probable space group: P M N A
;
_chemical_formula_sum "Si O2"
_cell_formula_units_Z 48
_cell_length_a 8.833727
_cell_length_b 31.480971
_cell_length_c 9.700927
_cell_angle_alpha 90.000000
_cell_angle_beta 90.000000
_cell_angle_gamma 90.000000
_cell_volume 2697.772537
_symmetry_space_group_name_H-M "P M N A"
_symmetry_group_IT_number 53
_symmetry_cell_setting 'orthorhombic'
loop_
_space_group_symop_operation_xyz
x,y,z
1/2-x,-y,1/2+z
x,-y,-z
1/2-x,y,1/2-z
-x,-y,-z
1/2+x,y,1/2-z
-x,y,z
1/2+x,-y,1/2+z
loop_
_atom_site_type_symbol
_atom_site_label
_atom_site_fract_x
_atom_site_fract_y
_atom_site_fract_z
Si Si1 0.823360 0.035392 0.101821
Si Si2 0.323097 0.128665 0.398647
Si Si3 0.323381 0.285312 0.898263
Si Si4 0.178775 0.538067 0.099299
Si Si5 0.822755 0.378679 0.601216
Si Si6 0.179744 0.211924 0.401077
O O1 0.750000 0.030249 0.250000
O O2 0.794520 0.082227 0.033712
O O3 0.000000 0.027714 0.123547
O O4 0.753827 0.000000 0.000000
O O5 0.250000 0.125792 0.250000
O O6 0.500000 0.139099 0.387540
O O7 0.239481 0.168153 0.473872
O O8 0.250000 0.278517 0.750000
O O9 0.500000 0.279153 0.874251
O O10 0.290495 0.332175 0.964430
O O11 0.261045 0.250763 0.005720
O O12 0.250000 0.530929 0.250000
O O13 0.241447 0.581496 0.026287
O O14 0.000000 0.541046 0.115080
O O15 0.228652 0.500000 0.000000
O O16 0.750000 0.376918 0.750000
O O17 0.000000 0.388235 0.610695
O O18 0.250000 0.217360 0.250000
O O19 0.000000 0.211006 0.389782
#
# Coordination Sequence:
#
# PCOD8218765 Si02
#       6
#     8   8   8   8   8   8
#     4   9  18  32  49  70  95 122 155 194 233 277
#     4   9  16  28  47  68  91 122 158 192 229 275
#     4   9  19  33  50  72  96 123 157 195 233 278
#     4  10  20  33  50  73  98 125 159 195 233 279
#     4   9  16  29  49  70  93 123 158 193 231 276
#     4  10  19  32  49  71  97 124 157 194 233 278
#
# _framework density 17.792456000000001
#
# number of rings (size 3 to 8) (size 9 to 14) (size 15 to 20)
#    0.000    2.667    0.000    4.000    0.000    4.333 
#    0.000    1.667    0.000    8.000    0.000    0.000 
#    0.000    0.000    0.000    0.000    0.000    0.000 
#
# Total GULP energy -594662.808601 kJ/mol
# GULP energy per Si atom -12388.808513 kJ/mol
# Density = 1.775196 g / cm^3
# Si number density = 17.792456 Si / 1000 Ang^3
#
#
#
# Elastic Constant Matrix: (Units=GPa)
#
#
# Indices 1 2 3 4 5 6 
#
# 1 72.3898 56.6546 27.3801 0.0000 0.0000 0.0000
# 2 56.6546 200.6756 67.4412 0.0000 0.0000 0.0000
# 3 27.3801 67.4412 59.7558 0.0000 0.0000 0.0000
# 4 0.0000 0.0000 0.0000 33.9208 0.0000 0.0000
# 5 0.0000 0.0000 0.0000 0.0000 13.9368 0.0000
# 6 0.0000 0.0000 0.0000 0.0000 0.0000 43.0835
#
#
#
# Elastic Compliance Matrix: (Units=1/GPa)
#
#
# Indices 1 2 3 4 5 6 
#
# 1 0.018342 -0.003792 -0.004124 0.000000 0.000000 0.000000
# 2 -0.003792 0.008812 -0.008208 0.000000 0.000000 0.000000
# 3 -0.004124 -0.008208 0.027888 0.000000 0.000000 0.000000
# 4 0.000000 0.000000 0.000000 0.029480 0.000000 0.000000
# 5 0.000000 0.000000 0.000000 0.000000 0.071753 0.000000
# 6 0.000000 0.000000 0.000000 0.000000 0.000000 0.023211
#
#
# Mechanical properties :
#
#
# Convention : Reuss Voigt Hill
#
# Bulk Modulus (GPa) = 43.87258 70.64143 57.25701
# Shear Modulus (GPa) = 22.79636 30.27790 26.53713
#
# Velocity S-wave (km/s) = 3.58332 4.12967 3.86616
# Velocity P-wave (km/s) = 6.46775 7.90748 7.22357
#
# Compressibility (1/GPa) = 0.02279328
#
# Stress axis : x y z
#
# Youngs Moduli (GPa) = 54.51977 113.47817 35.85740
#
# Poissons Ratio (x) = 0.43033 0.14789
# Poissons Ratio (y) = 0.20675 0.29432
# Poissons Ratio (z) = 0.22486 0.93143
#
# Static dielectric constant tensor:
#      x y z
#    x 3.378180 0.000000 0.000000 
#    y 0.000000 4.633050 0.000000 
#    z 0.000000 0.000000 2.911400 
# 
# 
# High freq. dielectric constant tensor:
#      x y z
#    x 1.698400 0.000000 0.000000 
#    y 0.000000 1.719150 0.000000 
#    z 0.000000 0.000000 1.633790 
# 
# From -- ./inp_files/14121.got.cif
#   From: 2010.03.12/outbox.cif.g09.slc.cpg/sg53_8_cif.got.tgz:14121.got - 2010.04.16 14:36:59.
