data_PCOD8218484
_publ_section_title
;
Structure prediction by ZEFSAII (Michael W. Deem and Ramdas Pophale) SiO2 
 PCOD8218484
Probable space group: P M N A
;
_chemical_formula_sum "Si O2"
_cell_formula_units_Z 64
_cell_length_a 9.008456
_cell_length_b 30.390034
_cell_length_c 13.664813
_cell_angle_alpha 90.000000
_cell_angle_beta 90.000000
_cell_angle_gamma 90.000000
_cell_volume 3740.978743
_symmetry_space_group_name_H-M "P M N A"
_symmetry_group_IT_number 53
_symmetry_cell_setting 'orthorhombic'
loop_
_space_group_symop_operation_xyz
x,y,z
1/2-x,-y,1/2+z
x,-y,-z
1/2-x,y,1/2-z
-x,-y,-z
1/2+x,y,1/2-z
-x,y,z
1/2+x,-y,1/2+z
loop_
_atom_site_type_symbol
_atom_site_label
_atom_site_fract_x
_atom_site_fract_y
_atom_site_fract_z
Si Si1 0.663966 0.892992 0.844174
Si Si2 0.667788 0.815201 0.996441
Si Si3 0.675594 0.749946 0.646421
Si Si4 0.826914 0.050009 0.011127
Si Si5 0.824315 0.433370 0.038195
Si Si6 0.676215 0.876021 0.355527
Si Si7 0.324383 0.518193 0.350247
Si Si8 0.173461 0.649531 0.849632
O O1 0.750000 0.875628 0.750000
O O2 0.500000 0.907896 0.813122
O O3 0.745511 0.934443 0.891195
O O4 0.659167 0.853822 0.919496
O O5 0.500000 0.800394 0.025425
O O6 0.755337 0.832749 0.091956
O O7 0.757031 0.775673 0.945790
O O8 0.750000 0.763659 0.750000
O O9 0.500000 0.759152 0.654740
O O10 0.713203 0.699357 0.621411
O O11 0.000000 0.053452 0.031748
O O12 0.784719 0.079840 0.917081
O O13 0.774237 0.000000 0.000000
O O14 0.768961 0.469733 0.116514
O O15 0.768820 0.384415 0.067253
O O16 0.000000 0.435540 0.037151
O O17 0.768044 0.446031 0.930086
O O18 0.750000 0.881724 0.250000
O O19 0.500000 0.869541 0.345194
O O20 0.250000 0.532150 0.250000
O O21 0.500000 0.519455 0.337810
O O22 0.250000 0.635372 0.750000
O O23 0.000000 0.644301 0.832579
#
# Coordination Sequence:
#
# PCOD8218484 Si02
#       8
#     8   8   8   8   8   8   8   8
#     4  10  20  32  48  70  95 124 155 188 228 273
#     4  10  20  34  52  73  97 124 157 197 237 279
#     4  10  19  30  47  72  99 127 157 191 237 290
#     4   9  19  35  52  72  99 129 160 194 231 272
#     4   8  15  28  44  62  88 123 155 186 232 285
#     4  10  20  35  55  76 100 129 163 202 241 282
#     4   9  16  27  44  64  87 117 154 193 233 277
#     4   9  17  29  45  66  93 124 156 189 229 280
#
# _framework density 17.107821000000001
#
# number of rings (size 3 to 8) (size 9 to 14) (size 15 to 20)
#    0.000    2.625    0.000    3.000    0.000    4.250 
#    0.000    3.125    0.000    0.750    0.000    1.750 
#    0.000    0.000    0.000    0.000    0.000    0.000 
#
# Total GULP energy -793363.749811 kJ/mol
# GULP energy per Si atom -12396.308591 kJ/mol
# Density = 1.706888 g / cm^3
# Si number density = 17.107821 Si / 1000 Ang^3
#
#
#
# Elastic Constant Matrix: (Units=GPa)
#
#
# Indices 1 2 3 4 5 6 
#
# 1 68.1641 32.4297 41.6558 0.0000 0.0000 0.0000
# 2 32.4297 94.6953 43.9447 0.0000 0.0000 0.0000
# 3 41.6558 43.9447 102.6556 0.0000 0.0000 0.0000
# 4 0.0000 0.0000 0.0000 22.6137 0.0000 0.0000
# 5 0.0000 0.0000 0.0000 0.0000 32.1530 0.0000
# 6 0.0000 0.0000 0.0000 0.0000 0.0000 11.8527
#
#
#
# Elastic Compliance Matrix: (Units=1/GPa)
#
#
# Indices 1 2 3 4 5 6 
#
# 1 0.020639 -0.003970 -0.006675 0.000000 0.000000 0.000000
# 2 -0.003970 0.013942 -0.004357 0.000000 0.000000 0.000000
# 3 -0.006675 -0.004357 0.014315 0.000000 0.000000 0.000000
# 4 0.000000 0.000000 0.000000 0.044221 0.000000 0.000000
# 5 0.000000 0.000000 0.000000 0.000000 0.031101 0.000000
# 6 0.000000 0.000000 0.000000 0.000000 0.000000 0.084369
#
#
# Mechanical properties :
#
#
# Convention : Reuss Voigt Hill
#
# Bulk Modulus (GPa) = 52.93680 55.73061 54.33371
# Shear Modulus (GPa) = 20.41740 23.15619 21.78679
#
# Velocity S-wave (km/s) = 3.45839 3.68305 3.57248
# Velocity P-wave (km/s) = 6.85255 7.12273 6.98895
#
# Compressibility (1/GPa) = 0.01889045
#
# Stress axis : x y z
#
# Youngs Moduli (GPa) = 48.45278 71.72644 69.85589
#
# Poissons Ratio (x) = 0.28477 0.46630
# Poissons Ratio (y) = 0.19237 0.30437
# Poissons Ratio (z) = 0.32343 0.31252
#
# Static dielectric constant tensor:
#      x y z
#    x 3.259590 0.000000 0.000000 
#    y 0.000000 3.368250 0.000000 
#    z 0.000000 0.000000 3.309640 
# 
# 
# High freq. dielectric constant tensor:
#      x y z
#    x 1.658950 0.000000 0.000000 
#    y 0.000000 1.652420 0.000000 
#    z 0.000000 0.000000 1.650530 
# 
# From -- ./inp_files/14252.got.cif
#   From: 2010.03.12/outbox.cif.g09.slc.cpg/sg53_8_cif.got.tgz:14252.got - 2010.04.16 14:36:59.
