data_PCOD8218115
_publ_section_title
;
Structure prediction by ZEFSAII (Michael W. Deem and Ramdas Pophale) SiO2 
 PCOD8218115
Probable space group: P M N A
;
_chemical_formula_sum "Si O2"
_cell_formula_units_Z 40
_cell_length_a 8.626571
_cell_length_b 7.857558
_cell_length_c 29.347856
_cell_angle_alpha 90.000000
_cell_angle_beta 90.000000
_cell_angle_gamma 90.000000
_cell_volume 1989.308672
_symmetry_space_group_name_H-M "P M N A"
_symmetry_group_IT_number 53
_symmetry_cell_setting 'orthorhombic'
loop_
_space_group_symop_operation_xyz
x,y,z
1/2-x,-y,1/2+z
x,-y,-z
1/2-x,y,1/2-z
-x,-y,-z
1/2+x,y,1/2-z
-x,y,z
1/2+x,-y,1/2+z
loop_
_atom_site_type_symbol
_atom_site_label
_atom_site_fract_x
_atom_site_fract_y
_atom_site_fract_z
Si Si1 0.181706 0.175134 0.608332
Si Si2 0.315203 0.488633 0.948983
Si Si3 0.817884 0.201317 0.386670
Si Si4 0.183152 0.304216 0.703424
Si Si5 0.317330 0.322392 0.296325
O O1 0.253251 0.316916 0.574316
O O2 0.244435 0.198141 0.659923
O O3 0.000000 0.209502 0.609300
O O4 0.218984 0.983948 0.591247
O O5 0.500000 0.486106 0.950510
O O6 0.257411 0.653531 0.920941
O O7 0.247342 0.500000 0.000000
O O8 0.727248 0.206607 0.339117
O O9 0.000000 0.222116 0.376783
O O10 0.250000 0.223258 0.750000
O O11 0.239667 0.495415 0.696495
O O12 0.000000 0.303232 0.707043
O O13 0.250000 0.238228 0.250000
O O14 0.500000 0.342694 0.292046
#
# Coordination Sequence:
#
# PCOD8218115 Si02
#       5
#     8   8   8   8   8
#     4   9  18  31  51  80 110 142 178 219 269 317
#     4   9  17  31  53  81 111 141 177 224 274 320
#     4  10  19  34  55  79 112 144 177 224 269 316
#     4  10  18  32  52  77 109 142 179 218 262 316
#     4  11  21  34  54  80 109 144 184 219 264 319
#
# _framework density 20.107486999999999
#
# number of rings (size 3 to 8) (size 9 to 14) (size 15 to 20)
#    0.000    2.200    2.000    3.600    0.000    1.600 
#    0.000    8.000    0.000    0.600    0.000    1.400 
#    0.000    0.000    0.000    0.000    0.000    0.000 
#
# Total GULP energy -495871.472338 kJ/mol
# GULP energy per Si atom -12396.786808 kJ/mol
# Density = 2.006172 g / cm^3
# Si number density = 20.107487 Si / 1000 Ang^3
#
#
#
# Elastic Constant Matrix: (Units=GPa)
#
#
# Indices 1 2 3 4 5 6 
#
# 1 47.4473 9.5873 24.5975 0.0000 0.0000 0.0000
# 2 9.5873 130.3627 79.9510 0.0000 0.0000 0.0000
# 3 24.5975 79.9510 165.2266 0.0000 0.0000 0.0000
# 4 0.0000 0.0000 0.0000 16.6071 0.0000 0.0000
# 5 0.0000 0.0000 0.0000 0.0000 20.4492 0.0000
# 6 0.0000 0.0000 0.0000 0.0000 0.0000 2.9824
#
#
#
# Elastic Compliance Matrix: (Units=1/GPa)
#
#
# Indices 1 2 3 4 5 6 
#
# 1 0.022869 0.000578 -0.003684 0.000000 0.000000 0.000000
# 2 0.000578 0.010923 -0.005371 0.000000 0.000000 0.000000
# 3 -0.003684 -0.005371 0.009200 0.000000 0.000000 0.000000
# 4 0.000000 0.000000 0.000000 0.060215 0.000000 0.000000
# 5 0.000000 0.000000 0.000000 0.000000 0.048902 0.000000
# 6 0.000000 0.000000 0.000000 0.000000 0.000000 0.335301
#
#
# Mechanical properties :
#
#
# Convention : Reuss Voigt Hill
#
# Bulk Modulus (GPa) = 38.40827 63.47868 50.94348
# Shear Modulus (GPa) = 9.74576 23.26781 16.50678
#
# Velocity S-wave (km/s) = 2.20394 3.40541 2.86829
# Velocity P-wave (km/s) = 5.06156 6.86299 6.02993
#
# Compressibility (1/GPa) = 0.02603606
#
# Stress axis : x y z
#
# Youngs Moduli (GPa) = 43.72700 91.55311 108.69762
#
# Poissons Ratio (x) = -0.05287 0.40044
# Poissons Ratio (y) = -0.02525 0.58385
# Poissons Ratio (z) = 0.16109 0.49176
#
# Static dielectric constant tensor:
#      x y z
#    x 3.196400 0.000000 0.000000 
#    y 0.000000 3.670160 0.000000 
#    z 0.000000 0.000000 4.010890 
# 
# 
# High freq. dielectric constant tensor:
#      x y z
#    x 1.738460 0.000000 0.000000 
#    y 0.000000 1.784140 0.000000 
#    z 0.000000 0.000000 1.788550 
# 
# From -- ./inp_files/37513.got.cif
#   From: 2010.03.12/outbox.cif.g09.slc.cpg/sg53_19_cif.got.tgz:37513.got - 2010.04.16 14:36:59.
