data_PCOD8218200
_publ_section_title
;
Structure prediction by ZEFSAII (Michael W. Deem and Ramdas Pophale) SiO2 
 PCOD8218200
Probable space group: P M N A
;
_chemical_formula_sum "Si O2"
_cell_formula_units_Z 40
_cell_length_a 16.896829
_cell_length_b 8.945581
_cell_length_c 14.166861
_cell_angle_alpha 90.000000
_cell_angle_beta 90.000000
_cell_angle_gamma 90.000000
_cell_volume 2141.348700
_symmetry_space_group_name_H-M "P M N A"
_symmetry_group_IT_number 53
_symmetry_cell_setting 'orthorhombic'
loop_
_space_group_symop_operation_xyz
x,y,z
1/2-x,-y,1/2+z
x,-y,-z
1/2-x,y,1/2-z
-x,-y,-z
1/2+x,y,1/2-z
-x,y,z
1/2+x,-y,1/2+z
loop_
_atom_site_type_symbol
_atom_site_label
_atom_site_fract_x
_atom_site_fract_y
_atom_site_fract_z
Si Si1 0.320186 0.967708 0.685856
Si Si2 0.409546 0.412102 0.624426
Si Si3 0.408917 0.797731 0.203474
Si Si4 0.659489 0.705715 0.555217
Si Si5 0.711595 0.147090 0.947816
O O1 0.250000 0.896507 0.750000
O O2 0.364265 0.841720 0.624164
O O3 0.386465 0.042118 0.752002
O O4 0.282747 0.097175 0.620967
O O5 0.500000 0.469115 0.623183
O O6 0.389784 0.333917 0.723040
O O7 0.397737 0.298557 0.536395
O O8 0.348884 0.550422 0.612168
O O9 0.500000 0.799713 0.174354
O O10 0.357904 0.769961 0.109051
O O11 0.750548 0.734799 0.521937
O O12 0.677097 0.000000 0.000000
#
# Coordination Sequence:
#
# PCOD8218200 Si02
#       5
#     8   8   8   8   8
#     4   9  18  34  51  76 106 133 182 226 262 315
#     4  10  21  34  49  79 114 137 175 222 275 338
#     4  10  20  34  54  81 111 143 175 222 276 324
#     4  10  18  33  52  75 105 143 174 222 268 313
#     4   9  18  34  57  77 108 139 186 228 257 320
#
# _framework density 18.679817
#
# number of rings (size 3 to 8) (size 9 to 14) (size 15 to 20)
#    0.000    2.400    2.000    1.200    0.000    2.000 
#    7.200    2.000    0.000    0.000    0.000    2.800 
#    0.000    0.000    0.000    0.000    0.000    0.000 
#
# Total GULP energy -495823.942283 kJ/mol
# GULP energy per Si atom -12395.598557 kJ/mol
# Density = 1.863730 g / cm^3
# Si number density = 18.679817 Si / 1000 Ang^3
#
#
#
# Elastic Constant Matrix: (Units=GPa)
#
#
# Indices 1 2 3 4 5 6 
#
# 1 86.7488 64.1270 50.1623 0.0000 0.0000 0.0000
# 2 64.1270 89.5461 46.4320 0.0000 0.0000 0.0000
# 3 50.1623 46.4320 82.0154 0.0000 0.0000 0.0000
# 4 0.0000 0.0000 0.0000 27.0475 0.0000 0.0000
# 5 0.0000 0.0000 0.0000 0.0000 30.4521 0.0000
# 6 0.0000 0.0000 0.0000 0.0000 0.0000 19.5015
#
#
#
# Elastic Compliance Matrix: (Units=1/GPa)
#
#
# Indices 1 2 3 4 5 6 
#
# 1 0.027863 -0.015737 -0.008132 0.000000 0.000000 0.000000
# 2 -0.015737 0.024696 -0.004356 0.000000 0.000000 0.000000
# 3 -0.008132 -0.004356 0.019633 0.000000 0.000000 0.000000
# 4 0.000000 0.000000 0.000000 0.036972 0.000000 0.000000
# 5 0.000000 0.000000 0.000000 0.000000 0.032838 0.000000
# 6 0.000000 0.000000 0.000000 0.000000 0.000000 0.051278
#
#
# Mechanical properties :
#
#
# Convention : Reuss Voigt Hill
#
# Bulk Modulus (GPa) = 63.52859 64.41699 63.97279
# Shear Modulus (GPa) = 19.60942 21.90615 20.75778
#
# Velocity S-wave (km/s) = 3.24352 3.42821 3.33715
# Velocity P-wave (km/s) = 6.93616 7.08730 7.01214
#
# Compressibility (1/GPa) = 0.01574094
#
# Stress axis : x y z
#
# Youngs Moduli (GPa) = 35.88956 40.49225 50.93439
#
# Poissons Ratio (x) = 0.63722 0.41422
# Poissons Ratio (y) = 0.56479 0.22189
# Poissons Ratio (z) = 0.29187 0.17640
#
# Static dielectric constant tensor:
#      x y z
#    x 3.237410 0.000000 0.000000 
#    y 0.000000 3.224840 0.000000 
#    z 0.000000 0.000000 3.579940 
# 
# 
# High freq. dielectric constant tensor:
#      x y z
#    x 1.701280 0.000000 0.000000 
#    y 0.000000 1.705060 0.000000 
#    z 0.000000 0.000000 1.728220 
# 
# From -- ./inp_files/23432.got.cif
#   From: 2010.03.12/outbox.cif.g09.slc.cpg/sg53_12_cif.got.tgz:23432.got - 2010.04.16 14:36:59.
