data_PCOD8218158
_publ_section_title
;
Structure prediction by ZEFSAII (Michael W. Deem and Ramdas Pophale) SiO2 
 PCOD8218158
Probable space group: P M N A
;
_chemical_formula_sum "Si O2"
_cell_formula_units_Z 40
_cell_length_a 20.089595
_cell_length_b 19.921716
_cell_length_c 5.224079
_cell_angle_alpha 90.000000
_cell_angle_beta 90.000000
_cell_angle_gamma 90.000000
_cell_volume 2090.776750
_symmetry_space_group_name_H-M "P M N A"
_symmetry_group_IT_number 53
_symmetry_cell_setting 'orthorhombic'
loop_
_space_group_symop_operation_xyz
x,y,z
1/2-x,-y,1/2+z
x,-y,-z
1/2-x,y,1/2-z
-x,-y,-z
1/2+x,y,1/2-z
-x,y,z
1/2+x,-y,1/2+z
loop_
_atom_site_type_symbol
_atom_site_label
_atom_site_fract_x
_atom_site_fract_y
_atom_site_fract_z
Si Si1 0.250000 0.738066 0.750000
Si Si2 0.575731 0.254843 0.690989
Si Si3 0.126639 0.187511 0.328485
Si Si4 0.172349 0.958086 0.748452
Si Si5 0.294390 0.500000 0.500000
Si Si6 0.680043 0.641942 0.390264
O O1 0.298843 0.786605 0.912396
O O2 0.304579 0.691313 0.620692
O O3 0.500000 0.278954 0.665031
O O4 0.598083 0.221535 0.426495
O O5 0.619863 0.321669 0.760703
O O6 0.580969 0.202236 0.925172
O O7 0.128744 0.109031 0.265357
O O8 0.250000 0.939354 0.750000
O O9 0.153297 0.000000 0.500000
O O10 0.152475 0.000000 0.000000
O O11 0.250000 0.512660 0.750000
O O12 0.341062 0.433778 0.529655
O O13 0.750000 0.634647 0.250000
#
# Coordination Sequence:
#
# PCOD8218158 Si02
#       6
#     4   8   8   8   4   8
#     4  10  18  32  54  90 106 150 182 244 280 338
#     4  11  24  38  58  84 118 154 195 241 288 343
#     4  11  21  37  60  82 119 146 195 233 296 338
#     4  10  20  34  55  87 120 146 182 237 294 344
#     4  10  20  32  55  84 119 150 188 240 294 344
#     4  10  19  35  56  86 115 150 193 240 288 345
#
# _framework density 19.131644999999999
#
# number of rings (size 3 to 8) (size 9 to 14) (size 15 to 20)
#    0.000    1.600    4.000    1.800    0.000    0.000 
#    0.000    0.500    0.000   12.000    0.000    7.700 
#    0.000    0.000    0.000    0.000    0.000    0.000 
#
# Total GULP energy -495571.534311 kJ/mol
# GULP energy per Si atom -12389.288358 kJ/mol
# Density = 1.908810 g / cm^3
# Si number density = 19.131645 Si / 1000 Ang^3
#
#
#
# Elastic Constant Matrix: (Units=GPa)
#
#
# Indices 1 2 3 4 5 6 
#
# 1 90.8915 60.0852 27.1489 0.0000 0.0000 0.0000
# 2 60.0852 146.7806 43.2186 0.0000 0.0000 0.0000
# 3 27.1489 43.2186 121.4771 0.0000 0.0000 0.0000
# 4 0.0000 0.0000 0.0000 59.0382 0.0000 0.0000
# 5 0.0000 0.0000 0.0000 0.0000 4.7586 0.0000
# 6 0.0000 0.0000 0.0000 0.0000 0.0000 37.3371
#
#
#
# Elastic Compliance Matrix: (Units=1/GPa)
#
#
# Indices 1 2 3 4 5 6 
#
# 1 0.015273 -0.005861 -0.001328 0.000000 0.000000 0.000000
# 2 -0.005861 0.009859 -0.002198 0.000000 0.000000 0.000000
# 3 -0.001328 -0.002198 0.009311 0.000000 0.000000 0.000000
# 4 0.000000 0.000000 0.000000 0.016938 0.000000 0.000000
# 5 0.000000 0.000000 0.000000 0.000000 0.210144 0.000000
# 6 0.000000 0.000000 0.000000 0.000000 0.000000 0.026783
#
#
# Mechanical properties :
#
#
# Convention : Reuss Voigt Hill
#
# Bulk Modulus (GPa) = 63.81939 68.89495 66.35717
# Shear Modulus (GPa) = 16.00994 35.47322 25.74158
#
# Velocity S-wave (km/s) = 2.89594 4.31067 3.67208
# Velocity P-wave (km/s) = 6.67925 7.80160 7.26214
#
# Compressibility (1/GPa) = 0.01566922
#
# Stress axis : x y z
#
# Youngs Moduli (GPa) = 65.47296 101.42692 107.40257
#
# Poissons Ratio (x) = 0.59448 0.14265
# Poissons Ratio (y) = 0.38375 0.23605
# Poissons Ratio (z) = 0.08696 0.22292
#
# Static dielectric constant tensor:
#      x y z
#    x 3.544640 0.000000 0.000000 
#    y 0.000000 4.115320 0.000000 
#    z 0.000000 0.000000 2.783170 
# 
# 
# High freq. dielectric constant tensor:
#      x y z
#    x 1.707880 0.000000 0.000000 
#    y 0.000000 1.754860 0.000000 
#    z 0.000000 0.000000 1.745990 
# 
# From -- ./inp_files/2126.got.cif
#   From: 2010.03.12/outbox.cif.g09.slc.cpg/sg53_2_cif.got.tgz:2126.got - 2010.04.16 14:36:59.
