data_PCOD8218895
_publ_section_title
;
Structure prediction by ZEFSAII (Michael W. Deem and Ramdas Pophale) SiO2 
 PCOD8218895
Probable space group: P M N A
;
_chemical_formula_sum "Si O2"
_cell_formula_units_Z 48
_cell_length_a 9.042992
_cell_length_b 9.543159
_cell_length_c 30.549129
_cell_angle_alpha 90.000000
_cell_angle_beta 90.000000
_cell_angle_gamma 90.000000
_cell_volume 2636.350439
_symmetry_space_group_name_H-M "P M N A"
_symmetry_group_IT_number 53
_symmetry_cell_setting 'orthorhombic'
loop_
_space_group_symop_operation_xyz
x,y,z
1/2-x,-y,1/2+z
x,-y,-z
1/2-x,y,1/2-z
-x,-y,-z
1/2+x,y,1/2-z
-x,y,z
1/2+x,-y,1/2+z
loop_
_atom_site_type_symbol
_atom_site_label
_atom_site_fract_x
_atom_site_fract_y
_atom_site_fract_z
Si Si1 0.170028 0.267997 0.569864
Si Si2 0.671230 0.221663 0.391746
Si Si3 0.824894 0.305456 0.796641
Si Si4 0.168891 0.080578 0.865732
Si Si5 0.325204 0.498270 0.135874
Si Si6 0.670029 0.848183 0.980041
O O1 0.246962 0.134936 0.591748
O O2 0.219034 0.414269 0.592136
O O3 0.201588 0.267779 0.517935
O O4 0.000000 0.241027 0.579264
O O5 0.500000 0.267097 0.392666
O O6 0.770401 0.341196 0.370457
O O7 0.720709 0.187429 0.440895
O O8 0.695773 0.085439 0.361021
O O9 0.750000 0.295744 0.750000
O O10 0.781427 0.161765 0.821841
O O11 0.757742 0.437421 0.822410
O O12 0.000000 0.325512 0.791721
O O13 0.000000 0.115511 0.875264
O O14 0.500000 0.498929 0.144450
O O15 0.500000 0.838986 0.963872
O O16 0.704382 0.000000 0.000000
#
# Coordination Sequence:
#
# PCOD8218895 Si02
#       6
#     8   8   8   8   8   8
#     4   9  18  33  53  76 103 140 186 230 269 315
#     4  11  22  35  52  78 112 148 183 226 275 323
#     4  10  20  38  62  86 108 134 171 215 265 325
#     4   9  19  34  54  78 107 139 174 218 267 317
#     4  10  21  37  56  79 109 146 183 222 272 324
#     4  10  19  32  52  77 106 143 188 235 276 319
#
# _framework density 18.206987000000002
#
# number of rings (size 3 to 8) (size 9 to 14) (size 15 to 20)
#    0.000    2.167    1.667    1.500    0.000    3.667 
#    0.000    4.167    0.000    2.000    0.000    0.000 
#    0.000    0.000    0.000    0.000    0.000    0.000 
#
# Total GULP energy -595177.609294 kJ/mol
# GULP energy per Si atom -12399.533527 kJ/mol
# Density = 1.816555 g / cm^3
# Si number density = 18.206987 Si / 1000 Ang^3
#
#
#
# Elastic Constant Matrix: (Units=GPa)
#
#
# Indices 1 2 3 4 5 6 
#
# 1 74.4936 40.4245 42.6623 0.0000 0.0000 0.0000
# 2 40.4245 98.3165 46.1534 0.0000 0.0000 0.0000
# 3 42.6623 46.1534 103.9028 0.0000 0.0000 0.0000
# 4 0.0000 0.0000 0.0000 16.5020 0.0000 0.0000
# 5 0.0000 0.0000 0.0000 0.0000 29.1433 0.0000
# 6 0.0000 0.0000 0.0000 0.0000 0.0000 31.1494
#
#
#
# Elastic Compliance Matrix: (Units=1/GPa)
#
#
# Indices 1 2 3 4 5 6 
#
# 1 0.019588 -0.005406 -0.005642 0.000000 0.000000 0.000000
# 2 -0.005406 0.014343 -0.004151 0.000000 0.000000 0.000000
# 3 -0.005642 -0.004151 0.013785 0.000000 0.000000 0.000000
# 4 0.000000 0.000000 0.000000 0.060599 0.000000 0.000000
# 5 0.000000 0.000000 0.000000 0.000000 0.034313 0.000000
# 6 0.000000 0.000000 0.000000 0.000000 0.000000 0.032103
#
#
# Mechanical properties :
#
#
# Convention : Reuss Voigt Hill
#
# Bulk Modulus (GPa) = 57.74238 59.46593 58.60415
# Shear Modulus (GPa) = 23.70769 25.19044 24.44907
#
# Velocity S-wave (km/s) = 3.61241 3.72366 3.66845
# Velocity P-wave (km/s) = 7.01303 7.15678 7.08527
#
# Compressibility (1/GPa) = 0.01731830
#
# Stress axis : x y z
#
# Youngs Moduli (GPa) = 51.05052 69.72185 72.54286
#
# Poissons Ratio (x) = 0.37689 0.40927
# Poissons Ratio (y) = 0.27596 0.30116
# Poissons Ratio (z) = 0.28802 0.28945
#
# Static dielectric constant tensor:
#      x y z
#    x 3.412420 0.000000 0.000000 
#    y 0.000000 3.474800 0.000000 
#    z 0.000000 0.000000 3.354790 
# 
# 
# High freq. dielectric constant tensor:
#      x y z
#    x 1.712850 0.000000 0.000000 
#    y 0.000000 1.704150 0.000000 
#    z 0.000000 0.000000 1.692620 
# 
# From -- ./inp_files/37685.got.cif
#   From: 2010.03.12/outbox.cif.g09.slc.cpg/sg53_19_cif.got.tgz:37685.got - 2010.04.16 14:36:59.
