data_PCOD8218678
_publ_section_title
;
Structure prediction by ZEFSAII (Michael W. Deem and Ramdas Pophale) SiO2 
 PCOD8218678
Probable space group: P M N A
;
_chemical_formula_sum "Si O2"
_cell_formula_units_Z 40
_cell_length_a 7.738867
_cell_length_b 17.447493
_cell_length_c 14.105347
_cell_angle_alpha 90.000000
_cell_angle_beta 90.000000
_cell_angle_gamma 90.000000
_cell_volume 1904.557945
_symmetry_space_group_name_H-M "P M N A"
_symmetry_group_IT_number 53
_symmetry_cell_setting 'orthorhombic'
loop_
_space_group_symop_operation_xyz
x,y,z
1/2-x,-y,1/2+z
x,-y,-z
1/2-x,y,1/2-z
-x,-y,-z
1/2+x,y,1/2-z
-x,y,z
1/2+x,-y,1/2+z
loop_
_atom_site_type_symbol
_atom_site_label
_atom_site_fract_x
_atom_site_fract_y
_atom_site_fract_z
Si Si1 0.704993 0.383315 0.958740
Si Si2 0.801569 0.837111 0.844505
Si Si3 0.805584 0.216169 0.950291
Si Si4 0.000000 0.111453 0.587808
Si Si5 0.500000 0.945790 0.874999
Si Si6 0.297919 0.466499 0.143059
O O1 0.500000 0.373008 0.957242
O O2 0.790407 0.304912 0.922447
O O3 0.770257 0.448842 0.885542
O O4 0.771096 0.404996 0.065517
O O5 0.750000 0.787318 0.750000
O O6 0.676834 0.910792 0.834018
O O7 0.000000 0.864651 0.844144
O O8 0.760880 0.788104 0.937772
O O9 0.670551 0.163222 0.893168
O O10 0.000000 0.187141 0.928157
O O11 0.000000 0.074177 0.485248
O O12 0.000000 0.036028 0.653696
O O13 0.250000 0.443322 0.250000
O O14 0.500000 0.468965 0.131164
#
# Coordination Sequence:
#
# PCOD8218678 Si02
#       6
#     8   8   8   4   4   8
#     4   9  18  35  54  75 110 148 181 224 275 329
#     4  10  19  31  49  77 108 138 176 216 265 324
#     4  10  20  32  52  80 105 138 179 218 264 320
#     4   9  18  34  52  73 104 132 171 217 263 315
#     4   9  18  32  52  74  98 139 171 209 265 312
#     4   9  19  34  54  79 106 143 186 225 273 325
#
# _framework density 21.002248000000002
#
# number of rings (size 3 to 8) (size 9 to 14) (size 15 to 20)
#    0.000    2.600    2.000    1.200    0.000    3.200 
#    0.000   10.000    0.000    1.200    0.000    0.000 
#    0.000    0.000    0.000    0.000    0.000    0.000 
#
# Total GULP energy -495601.798874 kJ/mol
# GULP energy per Si atom -12390.044972 kJ/mol
# Density = 2.095445 g / cm^3
# Si number density = 21.002248 Si / 1000 Ang^3
#
#
#
# Elastic Constant Matrix: (Units=GPa)
#
#
# Indices 1 2 3 4 5 6 
#
# 1 101.4166 25.7146 -5.1287 0.0000 0.0000 0.0000
# 2 25.7146 91.2907 -17.7690 0.0000 0.0000 0.0000
# 3 -5.1287 -17.7690 30.7723 0.0000 0.0000 0.0000
# 4 0.0000 0.0000 0.0000 14.4085 0.0000 0.0000
# 5 0.0000 0.0000 0.0000 0.0000 21.0266 0.0000
# 6 0.0000 0.0000 0.0000 0.0000 0.0000 12.6184
#
#
#
# Elastic Compliance Matrix: (Units=1/GPa)
#
#
# Indices 1 2 3 4 5 6 
#
# 1 0.010619 -0.002982 0.000048 0.000000 0.000000 0.000000
# 2 -0.002982 0.013178 0.007113 0.000000 0.000000 0.000000
# 3 0.000048 0.007113 0.036612 0.000000 0.000000 0.000000
# 4 0.000000 0.000000 0.000000 0.069403 0.000000 0.000000
# 5 0.000000 0.000000 0.000000 0.000000 0.047559 0.000000
# 6 0.000000 0.000000 0.000000 0.000000 0.000000 0.079249
#
#
# Mechanical properties :
#
#
# Convention : Reuss Voigt Hill
#
# Bulk Modulus (GPa) = 14.54187 25.45704 19.99946
# Shear Modulus (GPa) = 18.43762 24.32156 21.37959
#
# Velocity S-wave (km/s) = 2.96613 3.40670 3.19402
# Velocity P-wave (km/s) = 4.32083 5.25562 4.81098
#
# Compressibility (1/GPa) = 0.06876695
#
# Stress axis : x y z
#
# Youngs Moduli (GPa) = 94.17278 75.88211 27.31355
#
# Poissons Ratio (x) = 0.22626 -0.00131
# Poissons Ratio (y) = 0.28080 -0.19427
# Poissons Ratio (z) = -0.00452 -0.53973
#
# Static dielectric constant tensor:
#      x y z
#    x 3.736580 0.000000 0.000000 
#    y 0.000000 3.741730 0.000000 
#    z 0.000000 0.000000 2.871790 
# 
# 
# High freq. dielectric constant tensor:
#      x y z
#    x 1.825350 0.000000 0.000000 
#    y 0.000000 1.803700 0.000000 
#    z 0.000000 0.000000 1.798240 
# 
# From -- ./inp_files/19909.got.cif
#   From: 2010.03.12/outbox.cif.g09.slc.cpg/sg53_10_cif.got.tgz:19909.got - 2010.04.16 14:36:59.
