data_PCOD8218196
_publ_section_title
;
Structure prediction by ZEFSAII (Michael W. Deem and Ramdas Pophale) SiO2 
 PCOD8218196
Probable space group: P M N A
;
_chemical_formula_sum "Si O2"
_cell_formula_units_Z 56
_cell_length_a 14.411025
_cell_length_b 9.090273
_cell_length_c 22.856793
_cell_angle_alpha 90.000000
_cell_angle_beta 90.000000
_cell_angle_gamma 90.000000
_cell_volume 2994.243345
_symmetry_space_group_name_H-M "P M N A"
_symmetry_group_IT_number 53
_symmetry_cell_setting 'orthorhombic'
loop_
_space_group_symop_operation_xyz
x,y,z
1/2-x,-y,1/2+z
x,-y,-z
1/2-x,y,1/2-z
-x,-y,-z
1/2+x,y,1/2-z
-x,y,z
1/2+x,-y,1/2+z
loop_
_atom_site_type_symbol
_atom_site_label
_atom_site_fract_x
_atom_site_fract_y
_atom_site_fract_z
Si Si1 0.703112 0.165648 0.881447
Si Si2 0.897551 0.670814 0.715873
Si Si3 0.104358 0.176745 0.165195
Si Si4 0.394211 0.825137 0.001496
Si Si5 0.351135 0.345728 0.771435
Si Si6 0.600379 0.159322 0.663220
Si Si7 0.791259 0.177437 0.386316
O O1 0.650860 0.241543 0.827911
O O2 0.814111 0.199903 0.879767
O O3 0.683280 0.992607 0.876840
O O4 0.659915 0.230914 0.941010
O O5 0.865816 0.723137 0.780072
O O6 0.903899 0.494817 0.713385
O O7 0.828285 0.729735 0.667620
O O8 0.000000 0.734269 0.702838
O O9 0.179209 0.202209 0.112934
O O10 0.000000 0.215616 0.142907
O O11 0.111420 0.007660 0.185574
O O12 0.500000 0.764854 0.000752
O O13 0.337286 0.762952 0.945951
O O14 0.394424 0.000000 0.000000
O O15 0.250000 0.390643 0.750000
O O16 0.403366 0.260067 0.720312
O O17 0.500000 0.178604 0.630779
#
# Coordination Sequence:
#
# PCOD8218196 Si02
#       7
#     8   8   8   8   8   8   8
#     4   9  19  33  51  72  95 128 165 199 237 283
#     4  11  21  31  47  73 101 129 160 196 242 288
#     4   9  18  31  49  73  99 127 158 195 241 289
#     4   9  18  32  50  71  94 124 163 202 238 279
#     4  10  19  31  48  72 101 130 159 194 239 287
#     4   9  17  31  50  73 100 127 157 195 240 289
#     4  10  18  33  52  70  96 128 164 201 236 282
#
# _framework density 18.702555
#
# number of rings (size 3 to 8) (size 9 to 14) (size 15 to 20)
#    0.000    2.429    0.000    3.000    0.000    4.000 
#    0.000    1.429    0.000    6.000    0.000    0.000 
#    0.000    9.143    0.000    0.000    0.000    0.000 
#
# Total GULP energy -694182.726944 kJ/mol
# GULP energy per Si atom -12396.120124 kJ/mol
# Density = 1.865999 g / cm^3
# Si number density = 18.702555 Si / 1000 Ang^3
#
#
#
# Elastic Constant Matrix: (Units=GPa)
#
#
# Indices 1 2 3 4 5 6 
#
# 1 135.4600 28.5202 78.5500 0.0000 0.0000 0.0000
# 2 28.5202 52.5473 25.6562 0.0000 0.0000 0.0000
# 3 78.5500 25.6562 107.3001 0.0000 0.0000 0.0000
# 4 0.0000 0.0000 0.0000 2.1439 0.0000 0.0000
# 5 0.0000 0.0000 0.0000 0.0000 29.3801 0.0000
# 6 0.0000 0.0000 0.0000 0.0000 0.0000 18.6258
#
#
#
# Elastic Compliance Matrix: (Units=1/GPa)
#
#
# Indices 1 2 3 4 5 6 
#
# 1 0.013173 -0.002764 -0.008982 0.000000 0.000000 0.000000
# 2 -0.002764 0.022126 -0.003267 0.000000 0.000000 0.000000
# 3 -0.008982 -0.003267 0.016677 0.000000 0.000000 0.000000
# 4 0.000000 0.000000 0.000000 0.466445 0.000000 0.000000
# 5 0.000000 0.000000 0.000000 0.000000 0.034037 0.000000
# 6 0.000000 0.000000 0.000000 0.000000 0.000000 0.053689
#
#
# Mechanical properties :
#
#
# Convention : Reuss Voigt Hill
#
# Bulk Modulus (GPa) = 45.56168 62.30669 53.93418
# Shear Modulus (GPa) = 7.77015 20.86870 14.31942
#
# Velocity S-wave (km/s) = 2.04049 3.34401 2.77002
# Velocity P-wave (km/s) = 5.47408 6.94959 6.25549
#
# Compressibility (1/GPa) = 0.02194827
#
# Stress axis : x y z
#
# Youngs Moduli (GPa) = 75.91346 45.19622 59.96458
#
# Poissons Ratio (x) = 0.12492 0.53863
# Poissons Ratio (y) = 0.20982 0.19591
# Poissons Ratio (z) = 0.68189 0.14766
#
# Static dielectric constant tensor:
#      x y z
#    x 3.712000 0.000000 0.000000 
#    y 0.000000 3.187510 0.000000 
#    z 0.000000 0.000000 3.289430 
# 
# 
# High freq. dielectric constant tensor:
#      x y z
#    x 1.747210 0.000000 0.000000 
#    y 0.000000 1.704760 0.000000 
#    z 0.000000 0.000000 1.695400 
# 
# From -- ./inp_files/32415.got.cif
#   From: 2010.03.12/outbox.cif.g09.slc.cpg/sg53_17_cif.got.tgz:32415.got - 2010.04.16 14:36:59.
