data_PCOD8218989
_publ_section_title
;
Structure prediction by ZEFSAII (Michael W. Deem and Ramdas Pophale) SiO2 
 PCOD8218989
Probable space group: P M N A
;
_chemical_formula_sum "Si O2"
_cell_formula_units_Z 60
_cell_length_a 9.228098
_cell_length_b 19.482733
_cell_length_c 16.865608
_cell_angle_alpha 90.000000
_cell_angle_beta 90.000000
_cell_angle_gamma 90.000000
_cell_volume 3032.243535
_symmetry_space_group_name_H-M "P M N A"
_symmetry_group_IT_number 53
_symmetry_cell_setting 'orthorhombic'
loop_
_space_group_symop_operation_xyz
x,y,z
1/2-x,-y,1/2+z
x,-y,-z
1/2-x,y,1/2-z
-x,-y,-z
1/2+x,y,1/2-z
-x,y,z
1/2+x,-y,1/2+z
loop_
_atom_site_type_symbol
_atom_site_label
_atom_site_fract_x
_atom_site_fract_y
_atom_site_fract_z
Si Si1 0.335618 0.393161 0.130883
Si Si2 0.750000 0.719752 0.750000
Si Si3 0.831668 0.626168 0.031078
Si Si4 0.828390 0.527368 0.174223
Si Si5 0.166799 0.036827 0.170767
Si Si6 0.836690 0.179496 0.117110
Si Si7 0.830759 0.223060 0.951894
Si Si8 0.168065 0.112303 0.832204
O O1 0.500000 0.419468 0.119530
O O2 0.342373 0.327964 0.190392
O O3 0.234674 0.451071 0.168839
O O4 0.269100 0.376001 0.045559
O O5 0.659728 0.770565 0.693370
O O6 0.790202 0.567127 0.093341
O O7 0.803221 0.698596 0.074967
O O8 0.000000 0.619229 0.004201
O O9 0.750000 0.563122 0.250000
O O10 0.000000 0.524641 0.188848
O O11 0.250000 0.022641 0.250000
O O12 0.237034 0.104433 0.130112
O O13 0.000000 0.052681 0.190313
O O14 0.183734 0.963394 0.125549
O O15 0.000000 0.164465 0.093170
O O16 0.761270 0.213626 0.040103
O O17 0.761236 0.169105 0.890619
O O18 0.000000 0.207562 0.954896
O O19 0.250000 0.118505 0.750000
O O20 0.000000 0.127561 0.814786
#
# Coordination Sequence:
#
# PCOD8218989 Si02
#       8
#     8   4   8   8   8   8   8   8
#     4  12  25  39  61  90 119 151 189 236 287 345
#     4  12  22  36  58  84 118 148 184 228 280 340
#     4  10  22  41  62  84 116 156 194 235 289 343
#     4  11  24  41  63  88 115 152 195 239 287 342
#     4   9  17  30  50  79 109 144 184 228 273 327
#     4  10  19  32  54  81 111 147 185 226 277 333
#     4   9  18  34  56  81 109 146 188 233 278 329
#     4   9  18  33  55  80 109 144 189 233 278 330
#
# _framework density 19.787329
#
# number of rings (size 3 to 8) (size 9 to 14) (size 15 to 20)
#    0.000    1.867    2.667    1.600    0.000    4.800 
#    0.000    3.333    0.000    0.000    0.000    3.733 
#    0.000    0.000    0.000    0.000    0.000    0.000 
#
# Total GULP energy -743341.460611 kJ/mol
# GULP energy per Si atom -12389.024344 kJ/mol
# Density = 1.974229 g / cm^3
# Si number density = 19.787329 Si / 1000 Ang^3
#
#
#
# Elastic Constant Matrix: (Units=GPa)
#
#
# Indices 1 2 3 4 5 6 
#
# 1 62.6133 26.6368 32.0415 0.0000 0.0000 0.0000
# 2 26.6368 122.4692 59.9723 0.0000 0.0000 0.0000
# 3 32.0415 59.9723 117.3171 0.0000 0.0000 0.0000
# 4 0.0000 0.0000 0.0000 36.5466 0.0000 0.0000
# 5 0.0000 0.0000 0.0000 0.0000 25.3512 0.0000
# 6 0.0000 0.0000 0.0000 0.0000 0.0000 16.9874
#
#
#
# Elastic Compliance Matrix: (Units=1/GPa)
#
#
# Indices 1 2 3 4 5 6 
#
# 1 0.018969 -0.002119 -0.004098 0.000000 0.000000 0.000000
# 2 -0.002119 0.011129 -0.005110 0.000000 0.000000 0.000000
# 3 -0.004098 -0.005110 0.012255 0.000000 0.000000 0.000000
# 4 0.000000 0.000000 0.000000 0.027362 0.000000 0.000000
# 5 0.000000 0.000000 0.000000 0.000000 0.039446 0.000000
# 6 0.000000 0.000000 0.000000 0.000000 0.000000 0.058867
#
#
# Mechanical properties :
#
#
# Convention : Reuss Voigt Hill
#
# Bulk Modulus (GPa) = 50.76262 59.96675 55.36468
# Shear Modulus (GPa) = 25.34865 28.02698 26.68781
#
# Velocity S-wave (km/s) = 3.58307 3.76761 3.67649
# Velocity P-wave (km/s) = 6.54428 7.02125 6.78695
#
# Compressibility (1/GPa) = 0.01969954
#
# Stress axis : x y z
#
# Youngs Moduli (GPa) = 52.71621 89.85810 81.59721
#
# Poissons Ratio (x) = 0.19044 0.33435
# Poissons Ratio (y) = 0.11172 0.41697
# Poissons Ratio (z) = 0.21601 0.45919
#
# Static dielectric constant tensor:
#      x y z
#    x 1.545760 0.000000 0.000000 
#    y 0.000000 3.981190 0.000000 
#    z 0.000000 0.000000 3.778100 
# 
# 
# High freq. dielectric constant tensor:
#      x y z
#    x 1.736050 0.000000 0.000000 
#    y 0.000000 1.790700 0.000000 
#    z 0.000000 0.000000 1.767260 
# 
# From -- ./inp_files/26570.got.cif
#   From: 2010.03.12/outbox.cif.g09.slc.cpg/sg53_14_cif.got.tgz:26570.got - 2010.04.16 14:36:59.
