data_PCOD8218707
_publ_section_title
;
Structure prediction by ZEFSAII (Michael W. Deem and Ramdas Pophale) SiO2 
 PCOD8218707
Probable space group: P M N A
;
_chemical_formula_sum "Si O2"
_cell_formula_units_Z 40
_cell_length_a 9.192734
_cell_length_b 9.556049
_cell_length_c 25.278604
_cell_angle_alpha 90.000000
_cell_angle_beta 90.000000
_cell_angle_gamma 90.000000
_cell_volume 2220.629721
_symmetry_space_group_name_H-M "P M N A"
_symmetry_group_IT_number 53
_symmetry_cell_setting 'orthorhombic'
loop_
_space_group_symop_operation_xyz
x,y,z
1/2-x,-y,1/2+z
x,-y,-z
1/2-x,y,1/2-z
-x,-y,-z
1/2+x,y,1/2-z
-x,y,z
1/2+x,-y,1/2+z
loop_
_atom_site_type_symbol
_atom_site_label
_atom_site_fract_x
_atom_site_fract_y
_atom_site_fract_z
Si Si1 0.670157 0.248887 0.586603
Si Si2 0.832002 0.723019 0.965774
Si Si3 0.668499 0.943637 0.622822
Si Si4 0.168919 0.520130 0.606198
Si Si5 0.330542 0.743405 0.803990
O O1 0.500000 0.278895 0.592810
O O2 0.715237 0.241777 0.525184
O O3 0.758588 0.369893 0.616368
O O4 0.713867 0.103626 0.613992
O O5 0.799414 0.860569 0.931277
O O6 0.740082 0.591459 0.945214
O O7 0.000000 0.679053 0.962217
O O8 0.500000 0.929347 0.638729
O O9 0.765176 0.884156 0.670496
O O10 0.198727 0.612729 0.657796
O O11 0.000000 0.500793 0.594733
O O12 0.250000 0.707643 0.750000
O O13 0.500000 0.767903 0.793356
#
# Coordination Sequence:
#
# PCOD8218707 Si02
#       5
#     8   8   8   8   8
#     4  10  19  31  50  77 107 138 170 204 244 292
#     4   9  17  31  51  74 103 140 177 207 238 287
#     4   9  18  33  53  77 104 134 169 208 249 294
#     4  10  21  34  49  74 105 135 169 209 252 298
#     4  10  21  38  58  76  95 125 167 211 256 305
#
# _framework density 18.012907999999999
#
# number of rings (size 3 to 8) (size 9 to 14) (size 15 to 20)
#    0.000    2.400    0.000    2.400    0.000    8.800 
#    0.000    1.000    0.000    8.400    0.000    0.000 
#    0.000    0.000    0.000    0.000    0.000    0.000 
#
# Total GULP energy -496167.391634 kJ/mol
# GULP energy per Si atom -12404.184791 kJ/mol
# Density = 1.797191 g / cm^3
# Si number density = 18.012908 Si / 1000 Ang^3
#
#
#
# Elastic Constant Matrix: (Units=GPa)
#
#
# Indices 1 2 3 4 5 6 
#
# 1 89.4456 62.8640 51.6624 0.0000 0.0000 0.0000
# 2 62.8640 133.9383 36.0998 0.0000 0.0000 0.0000
# 3 51.6624 36.0998 83.7451 0.0000 0.0000 0.0000
# 4 0.0000 0.0000 0.0000 12.4743 0.0000 0.0000
# 5 0.0000 0.0000 0.0000 0.0000 24.7445 0.0000
# 6 0.0000 0.0000 0.0000 0.0000 0.0000 24.4644
#
#
#
# Elastic Compliance Matrix: (Units=1/GPa)
#
#
# Indices 1 2 3 4 5 6 
#
# 1 0.022907 -0.007855 -0.010745 0.000000 0.000000 0.000000
# 2 -0.007855 0.011141 0.000043 0.000000 0.000000 0.000000
# 3 -0.010745 0.000043 0.018551 0.000000 0.000000 0.000000
# 4 0.000000 0.000000 0.000000 0.080165 0.000000 0.000000
# 5 0.000000 0.000000 0.000000 0.000000 0.040413 0.000000
# 6 0.000000 0.000000 0.000000 0.000000 0.000000 0.040876
#
#
# Mechanical properties :
#
#
# Convention : Reuss Voigt Hill
#
# Bulk Modulus (GPa) = 64.57868 67.59791 66.08829
# Shear Modulus (GPa) = 19.50612 22.77014 21.13813
#
# Velocity S-wave (km/s) = 3.29431 3.55928 3.42935
# Velocity P-wave (km/s) = 7.09923 7.38243 7.24221
#
# Compressibility (1/GPa) = 0.01548499
#
# Stress axis : x y z
#
# Youngs Moduli (GPa) = 43.65445 89.75557 53.90520
#
# Poissons Ratio (x) = 0.70506 0.57923
# Poissons Ratio (y) = 0.34292 -0.00233
# Poissons Ratio (z) = 0.46908 -0.00389
#
# Static dielectric constant tensor:
#      x y z
#    x 3.327550 0.000000 0.000000 
#    y 0.000000 3.403530 0.000000 
#    z 0.000000 0.000000 3.194340 
# 
# 
# High freq. dielectric constant tensor:
#      x y z
#    x 1.697020 0.000000 0.000000 
#    y 0.000000 1.701250 0.000000 
#    z 0.000000 0.000000 1.683640 
# 
# From -- ./inp_files/33606.got.cif
#   From: 2010.03.12/outbox.cif.g09.slc.cpg/sg53_17_cif.got.tgz:33606.got - 2010.04.16 14:36:59.
