data_PCOD8218494
_publ_section_title
;
Structure prediction by ZEFSAII (Michael W. Deem and Ramdas Pophale) SiO2 
 PCOD8218494
Probable space group: P M N A
;
_chemical_formula_sum "Si O2"
_cell_formula_units_Z 64
_cell_length_a 8.992962
_cell_length_b 20.587962
_cell_length_c 19.092678
_cell_angle_alpha 90.000000
_cell_angle_beta 90.000000
_cell_angle_gamma 90.000000
_cell_volume 3534.947470
_symmetry_space_group_name_H-M "P M N A"
_symmetry_group_IT_number 53
_symmetry_cell_setting 'orthorhombic'
loop_
_space_group_symop_operation_xyz
x,y,z
1/2-x,-y,1/2+z
x,-y,-z
1/2-x,y,1/2-z
-x,-y,-z
1/2+x,y,1/2-z
-x,y,z
1/2+x,-y,1/2+z
loop_
_atom_site_type_symbol
_atom_site_label
_atom_site_fract_x
_atom_site_fract_y
_atom_site_fract_z
Si Si1 0.324174 0.053117 0.173951
Si Si2 0.674739 0.773473 0.174962
Si Si3 0.828127 0.085553 0.676830
Si Si4 0.327709 0.462983 0.569744
Si Si5 0.325918 0.304379 0.414819
Si Si6 0.823813 0.672185 0.439884
Si Si7 0.827787 0.575405 0.823875
Si Si8 0.174824 0.821622 0.825038
O O1 0.250000 0.051277 0.250000
O O2 0.500000 0.066150 0.179019
O O3 0.245284 0.114517 0.136236
O O4 0.290415 0.982694 0.136003
O O5 0.750000 0.762983 0.250000
O O6 0.500000 0.765610 0.186707
O O7 0.712828 0.845267 0.140998
O O8 0.734705 0.720286 0.120760
O O9 0.750000 0.083800 0.750000
O O10 0.000000 0.084412 0.694698
O O11 0.275468 0.500000 0.500000
O O12 0.500000 0.443122 0.562634
O O13 0.230353 0.399296 0.579940
O O14 0.297997 0.508198 0.636350
O O15 0.500000 0.313056 0.430017
O O16 0.241306 0.302400 0.487697
O O17 0.264841 0.364989 0.369696
O O18 0.288619 0.238782 0.374182
O O19 0.000000 0.672697 0.445121
O O20 0.750000 0.572230 0.750000
O O21 0.000000 0.587338 0.809946
O O22 0.250000 0.809026 0.750000
O O23 0.000000 0.831208 0.814306
#
# Coordination Sequence:
#
# PCOD8218494 Si02
#       8
#     8   8   8   8   8   8   8   8
#     4   9  15  24  42  68  98 132 170 211 257 308
#     4   9  19  35  53  78 108 136 171 215 264 312
#     4   8  14  26  45  68  97 132 168 209 256 308
#     4  10  20  39  61  76 102 141 176 208 251 314
#     4  10  21  38  55  73 103 144 182 209 254 317
#     4  11  23  36  56  83 108 134 172 221 261 303
#     4  10  21  37  58  82 106 136 173 215 258 304
#     4  10  19  30  48  73 104 138 173 218 262 309
#
# _framework density 18.104935999999999
#
# number of rings (size 3 to 8) (size 9 to 14) (size 15 to 20)
#    0.000    2.375    1.250    2.250    0.000    4.250 
#    0.000    2.500    0.000    0.750    0.000    5.250 
#    0.000    0.000    0.000    0.000    0.000    0.000 
#
# Total GULP energy -793042.840002 kJ/mol
# GULP energy per Si atom -12391.294375 kJ/mol
# Density = 1.806373 g / cm^3
# Si number density = 18.104936 Si / 1000 Ang^3
#
#
#
# Elastic Constant Matrix: (Units=GPa)
#
#
# Indices 1 2 3 4 5 6 
#
# 1 62.2509 56.3381 40.9907 0.0000 0.0000 0.0000
# 2 56.3381 173.2630 67.1161 0.0000 0.0000 0.0000
# 3 40.9907 67.1161 98.9838 0.0000 0.0000 0.0000
# 4 0.0000 0.0000 0.0000 14.2670 0.0000 0.0000
# 5 0.0000 0.0000 0.0000 0.0000 24.0881 0.0000
# 6 0.0000 0.0000 0.0000 0.0000 0.0000 29.0707
#
#
#
# Elastic Compliance Matrix: (Units=1/GPa)
#
#
# Indices 1 2 3 4 5 6 
#
# 1 0.025708 -0.005744 -0.006751 0.000000 0.000000 0.000000
# 2 -0.005744 0.009111 -0.003799 0.000000 0.000000 0.000000
# 3 -0.006751 -0.003799 0.015474 0.000000 0.000000 0.000000
# 4 0.000000 0.000000 0.000000 0.070092 0.000000 0.000000
# 5 0.000000 0.000000 0.000000 0.000000 0.041514 0.000000
# 6 0.000000 0.000000 0.000000 0.000000 0.000000 0.034399
#
#
# Mechanical properties :
#
#
# Convention : Reuss Voigt Hill
#
# Bulk Modulus (GPa) = 56.48226 73.70972 65.09599
# Shear Modulus (GPa) = 21.29576 24.82201 23.05889
#
# Velocity S-wave (km/s) = 3.43336 3.70673 3.57266
# Velocity P-wave (km/s) = 6.85435 7.68900 7.28364
#
# Compressibility (1/GPa) = 0.01770467
#
# Stress axis : x y z
#
# Youngs Moduli (GPa) = 38.89836 109.75911 64.62281
#
# Poissons Ratio (x) = 0.63045 0.43629
# Poissons Ratio (y) = 0.22343 0.24550
# Poissons Ratio (z) = 0.26262 0.41697
#
# Static dielectric constant tensor:
#      x y z
#    x 3.066720 0.000000 0.000000 
#    y 0.000000 4.210030 0.000000 
#    z 0.000000 0.000000 3.015550 
# 
# 
# High freq. dielectric constant tensor:
#      x y z
#    x 1.702010 0.000000 0.000000 
#    y 0.000000 1.731200 0.000000 
#    z 0.000000 0.000000 1.661820 
# 
# From -- ./inp_files/31401.got.cif
#   From: 2010.03.12/outbox.cif.g09.slc.cpg/sg53_16_cif.got.tgz:31401.got - 2010.04.16 14:36:59.
