data_PCOD8218419
_publ_section_title
;
Structure prediction by ZEFSAII (Michael W. Deem and Ramdas Pophale) SiO2 
 PCOD8218419
Probable space group: P M N A
;
_chemical_formula_sum "Si O2"
_cell_formula_units_Z 64
_cell_length_a 9.479884
_cell_length_b 21.925581
_cell_length_c 18.546119
_cell_angle_alpha 90.000000
_cell_angle_beta 90.000000
_cell_angle_gamma 90.000000
_cell_volume 3854.847268
_symmetry_space_group_name_H-M "P M N A"
_symmetry_group_IT_number 53
_symmetry_cell_setting 'orthorhombic'
loop_
_space_group_symop_operation_xyz
x,y,z
1/2-x,-y,1/2+z
x,-y,-z
1/2-x,y,1/2-z
-x,-y,-z
1/2+x,y,1/2-z
-x,y,z
1/2+x,-y,1/2+z
loop_
_atom_site_type_symbol
_atom_site_label
_atom_site_fract_x
_atom_site_fract_y
_atom_site_fract_z
Si Si1 0.158308 0.025795 0.614361
Si Si2 0.336649 0.441617 0.537969
Si Si3 0.667562 0.127648 0.679960
Si Si4 0.840964 0.500093 0.815233
Si Si5 0.832832 0.681311 0.973644
Si Si6 0.157124 0.908119 0.537567
Si Si7 0.334574 0.190437 0.529858
Si Si8 0.164327 0.360873 0.180128
O O1 0.271614 0.059529 0.665355
O O2 0.157274 0.056845 0.537262
O O3 0.000000 0.030074 0.648073
O O4 0.202214 0.954847 0.601812
O O5 0.263423 0.500000 0.500000
O O6 0.500000 0.440269 0.513672
O O7 0.318478 0.450443 0.622819
O O8 0.266313 0.377790 0.513937
O O9 0.750000 0.154147 0.750000
O O10 0.500000 0.124208 0.694113
O O11 0.703356 0.171479 0.611992
O O12 0.750000 0.475357 0.750000
O O13 0.798407 0.568717 0.839175
O O14 0.000000 0.501193 0.788002
O O15 0.790379 0.679481 0.889077
O O16 0.000000 0.679602 0.981261
O O17 0.775888 0.741744 0.013622
O O18 0.265172 0.852413 0.531052
O O19 0.000000 0.882996 0.553456
O O20 0.500000 0.185419 0.517070
O O21 0.250000 0.338285 0.250000
O O22 0.000000 0.352728 0.197434
#
# Coordination Sequence:
#
# PCOD8218419 Si02
#       8
#     8   8   8   8   8   8   8   8
#     4   8  14  26  45  68  90 113 144 182 225 267
#     4   9  14  24  44  68  88 112 153 198 235 274
#     4  10  19  30  45  66  93 125 160 197 236 275
#     4   9  16  26  43  66  89 113 142 181 231 284
#     4   9  16  28  46  67  91 119 157 200 233 270
#     4   8  14  26  45  67  91 116 141 176 223 273
#     4   9  18  30  45  67  92 121 160 201 235 269
#     4   9  16  27  45  67  89 111 138 179 230 280
#
# _framework density 16.602474000000001
#
# number of rings (size 3 to 8) (size 9 to 14) (size 15 to 20)
#    0.000    3.125    1.250    1.125    0.000    1.000 
#    0.000    3.750    0.000    2.625    0.000    3.500 
#    0.000    0.000    0.000    0.000    0.000    0.000 
#
# Total GULP energy -793048.511507 kJ/mol
# GULP energy per Si atom -12391.382992 kJ/mol
# Density = 1.656469 g / cm^3
# Si number density = 16.602474 Si / 1000 Ang^3
#
#
#
# Elastic Constant Matrix: (Units=GPa)
#
#
# Indices 1 2 3 4 5 6 
#
# 1 51.6866 37.7863 39.4471 0.0000 0.0000 0.0000
# 2 37.7863 119.4950 56.9482 0.0000 0.0000 0.0000
# 3 39.4471 56.9482 84.3390 0.0000 0.0000 0.0000
# 4 0.0000 0.0000 0.0000 19.1222 0.0000 0.0000
# 5 0.0000 0.0000 0.0000 0.0000 24.0455 0.0000
# 6 0.0000 0.0000 0.0000 0.0000 0.0000 15.9328
#
#
#
# Elastic Compliance Matrix: (Units=1/GPa)
#
#
# Indices 1 2 3 4 5 6 
#
# 1 0.031544 -0.004340 -0.011823 0.000000 0.000000 0.000000
# 2 -0.004340 0.012936 -0.006705 0.000000 0.000000 0.000000
# 3 -0.011823 -0.006705 0.021914 0.000000 0.000000 0.000000
# 4 0.000000 0.000000 0.000000 0.052295 0.000000 0.000000
# 5 0.000000 0.000000 0.000000 0.000000 0.041588 0.000000
# 6 0.000000 0.000000 0.000000 0.000000 0.000000 0.062763
#
#
# Mechanical properties :
#
#
# Convention : Reuss Voigt Hill
#
# Bulk Modulus (GPa) = 48.40779 58.20931 53.30855
# Shear Modulus (GPa) = 18.13806 19.90935 19.02370
#
# Velocity S-wave (km/s) = 3.30887 3.46667 3.38869
# Velocity P-wave (km/s) = 6.61955 7.15266 6.89126
#
# Compressibility (1/GPa) = 0.02065783
#
# Stress axis : x y z
#
# Youngs Moduli (GPa) = 31.70220 77.30100 45.63224
#
# Poissons Ratio (x) = 0.33549 0.53951
# Poissons Ratio (y) = 0.13759 0.30597
# Poissons Ratio (z) = 0.37482 0.51831
#
# Static dielectric constant tensor:
#      x y z
#    x 2.952130 0.000000 0.000000 
#    y 0.000000 3.314800 0.000000 
#    z 0.000000 0.000000 3.096960 
# 
# 
# High freq. dielectric constant tensor:
#      x y z
#    x 1.612380 0.000000 0.000000 
#    y 0.000000 1.622820 0.000000 
#    z 0.000000 0.000000 1.628300 
# 
# From -- ./inp_files/31389.got.cif
#   From: 2010.03.12/outbox.cif.g09.slc.cpg/sg53_16_cif.got.tgz:31389.got - 2010.04.16 14:36:59.
