data_PCOD8218416
_publ_section_title
;
Structure prediction by ZEFSAII (Michael W. Deem and Ramdas Pophale) SiO2 
 PCOD8218416
Probable space group: P M N A
;
_chemical_formula_sum "Si O2"
_cell_formula_units_Z 64
_cell_length_a 9.450720
_cell_length_b 16.314794
_cell_length_c 24.129346
_cell_angle_alpha 90.000000
_cell_angle_beta 90.000000
_cell_angle_gamma 90.000000
_cell_volume 3720.420612
_symmetry_space_group_name_H-M "P M N A"
_symmetry_group_IT_number 53
_symmetry_cell_setting 'orthorhombic'
loop_
_space_group_symop_operation_xyz
x,y,z
1/2-x,-y,1/2+z
x,-y,-z
1/2-x,y,1/2-z
-x,-y,-z
1/2+x,y,1/2-z
-x,y,z
1/2+x,-y,1/2+z
loop_
_atom_site_type_symbol
_atom_site_label
_atom_site_fract_x
_atom_site_fract_y
_atom_site_fract_z
Si Si1 0.834297 0.200528 0.085472
Si Si2 0.166576 0.292458 0.195518
Si Si3 0.336870 0.369070 0.628409
Si Si4 0.837341 0.038744 0.440838
Si Si5 0.158445 0.868797 0.402687
Si Si6 0.662628 0.520722 0.697111
Si Si7 0.337004 0.742108 0.468978
Si Si8 0.838576 0.244290 0.697436
O O1 0.780551 0.240761 0.142599
O O2 0.758511 0.114854 0.075374
O O3 0.000000 0.182650 0.089189
O O4 0.801545 0.263923 0.034544
O O5 0.250000 0.261758 0.250000
O O6 0.206210 0.386710 0.182258
O O7 0.000000 0.281450 0.206064
O O8 0.500000 0.345965 0.641206
O O9 0.310459 0.465160 0.641919
O O10 0.299293 0.342378 0.564683
O O11 0.233494 0.322081 0.669395
O O12 0.000000 0.067628 0.438686
O O13 0.798027 0.000000 0.500000
O O14 0.803873 0.964948 0.398031
O O15 0.256746 0.820262 0.444960
O O16 0.169693 0.834573 0.341269
O O17 0.000000 0.858882 0.426926
O O18 0.750000 0.487771 0.750000
O O19 0.500000 0.516032 0.715187
O O20 0.500000 0.762758 0.460306
O O21 0.750000 0.217612 0.750000
O O22 0.000000 0.267241 0.712564
#
# Coordination Sequence:
#
# PCOD8218416 Si02
#       8
#     8   8   8   8   8   8   8   8
#     4  10  20  33  51  75 101 127 159 200 246 293
#     4   9  19  36  54  73  97 127 164 205 246 288
#     4   9  17  29  46  70  98 127 161 197 237 284
#     4  10  19  32  52  75  98 124 160 200 237 284
#     4   9  18  32  47  67  94 124 158 196 234 277
#     4   9  17  30  49  70  94 125 164 206 242 281
#     4   9  17  29  46  70 100 129 155 190 237 289
#     4  10  19  30  45  65  94 129 161 193 234 283
#
# _framework density 17.202356000000002
#
# number of rings (size 3 to 8) (size 9 to 14) (size 15 to 20)
#    0.000    2.625    1.250    0.750    0.000    3.250 
#    0.000    1.250    0.000    6.750    0.000    0.000 
#    0.000    9.000    0.000    0.000    0.000    0.000 
#
# Total GULP energy -793187.170172 kJ/mol
# GULP energy per Si atom -12393.549534 kJ/mol
# Density = 1.716320 g / cm^3
# Si number density = 17.202356 Si / 1000 Ang^3
#
#
#
# Elastic Constant Matrix: (Units=GPa)
#
#
# Indices 1 2 3 4 5 6 
#
# 1 59.9472 35.9326 49.5337 0.0000 0.0000 0.0000
# 2 35.9326 94.7815 65.2914 0.0000 0.0000 0.0000
# 3 49.5337 65.2914 125.9252 0.0000 0.0000 0.0000
# 4 0.0000 0.0000 0.0000 26.9827 0.0000 0.0000
# 5 0.0000 0.0000 0.0000 0.0000 23.5929 0.0000
# 6 0.0000 0.0000 0.0000 0.0000 0.0000 22.9372
#
#
#
# Elastic Compliance Matrix: (Units=1/GPa)
#
#
# Indices 1 2 3 4 5 6 
#
# 1 0.025814 -0.004343 -0.007903 0.000000 0.000000 0.000000
# 2 -0.004343 0.017143 -0.007180 0.000000 0.000000 0.000000
# 3 -0.007903 -0.007180 0.014773 0.000000 0.000000 0.000000
# 4 0.000000 0.000000 0.000000 0.037061 0.000000 0.000000
# 5 0.000000 0.000000 0.000000 0.000000 0.042386 0.000000
# 6 0.000000 0.000000 0.000000 0.000000 0.000000 0.043597
#
#
# Mechanical properties :
#
#
# Convention : Reuss Voigt Hill
#
# Bulk Modulus (GPa) = 52.96928 64.68549 58.82738
# Shear Modulus (GPa) = 22.13190 23.36230 22.74710
#
# Velocity S-wave (km/s) = 3.59076 3.68922 3.64032
# Velocity P-wave (km/s) = 6.93182 7.47205 7.20700
#
# Compressibility (1/GPa) = 0.01887887
#
# Stress axis : x y z
#
# Youngs Moduli (GPa) = 38.73848 58.33189 67.69197
#
# Poissons Ratio (x) = 0.25331 0.53494
# Poissons Ratio (y) = 0.16823 0.48606
# Poissons Ratio (z) = 0.30613 0.41885
#
# Static dielectric constant tensor:
#      x y z
#    x 3.268620 0.000000 0.000000 
#    y 0.000000 3.197500 0.000000 
#    z 0.000000 0.000000 3.422440 
# 
# 
# High freq. dielectric constant tensor:
#      x y z
#    x 1.665330 0.000000 0.000000 
#    y 0.000000 1.651840 0.000000 
#    z 0.000000 0.000000 1.657090 
# 
# From -- ./inp_files/34507.got.cif
#   From: 2010.03.12/outbox.cif.g09.slc.cpg/sg53_18_cif.got.tgz:34507.got - 2010.04.16 14:36:59.
