data_PCOD8218043
_publ_section_title
;
Structure prediction by ZEFSAII (Michael W. Deem and Ramdas Pophale) SiO2 
 PCOD8218043
Probable space group: P M N A
;
_chemical_formula_sum "Si O2"
_cell_formula_units_Z 48
_cell_length_a 18.998934
_cell_length_b 13.258077
_cell_length_c 9.721808
_cell_angle_alpha 90.000000
_cell_angle_beta 90.000000
_cell_angle_gamma 90.000000
_cell_volume 2448.819702
_symmetry_space_group_name_H-M "P M N A"
_symmetry_group_IT_number 53
_symmetry_cell_setting 'orthorhombic'
loop_
_space_group_symop_operation_xyz
x,y,z
1/2-x,-y,1/2+z
x,-y,-z
1/2-x,y,1/2-z
-x,-y,-z
1/2+x,y,1/2-z
-x,y,z
1/2+x,-y,1/2+z
loop_
_atom_site_type_symbol
_atom_site_label
_atom_site_fract_x
_atom_site_fract_y
_atom_site_fract_z
Si Si1 0.833215 0.068910 0.244602
Si Si2 0.821232 0.234069 0.036528
Si Si3 0.666104 0.844371 0.253890
Si Si4 0.154472 0.227141 0.463434
Si Si5 0.683400 0.555241 0.646751
Si Si6 0.419043 0.430636 0.131276
O O1 0.750000 0.058458 0.250000
O O2 0.851589 0.135295 0.111392
O O3 0.863690 0.125514 0.378918
O O4 0.866313 0.957219 0.232642
O O5 0.846594 0.334100 0.112053
O O6 0.852499 0.226595 0.883022
O O7 0.737392 0.244894 0.043010
O O8 0.750000 0.853750 0.250000
O O9 0.632264 0.791019 0.121247
O O10 0.115166 0.322366 0.400418
O O11 0.698193 0.500000 0.500000
O O12 0.750000 0.552887 0.750000
O O13 0.619215 0.512855 0.739727
O O14 0.500000 0.415115 0.169250
O O15 0.408534 0.500000 0.000000
#
# Coordination Sequence:
#
# PCOD8218043 Si02
#       6
#     8   8   8   8   8   8
#     4   9  15  29  48  78 120 153 184 232 295 349
#     4  10  18  31  51  86 118 148 183 240 295 356
#     4   9  18  26  49  85 119 153 184 233 296 351
#     4  10  18  33  54  80 117 149 194 237 289 353
#     4  12  24  39  63  92 120 150 195 253 308 358
#     4  11  25  44  62  83 117 162 205 251 307 363
#
# _framework density 19.601281
#
# number of rings (size 3 to 8) (size 9 to 14) (size 15 to 20)
#    0.000    1.833    3.333    2.000    2.333    5.000 
#    0.000    0.000    0.000    2.000    0.000    1.167 
#    0.000    0.000    0.000    0.000    0.000    0.000 
#
# Total GULP energy -594753.350642 kJ/mol
# GULP energy per Si atom -12390.694805 kJ/mol
# Density = 1.955667 g / cm^3
# Si number density = 19.601281 Si / 1000 Ang^3
#
#
#
# Elastic Constant Matrix: (Units=GPa)
#
#
# Indices 1 2 3 4 5 6 
#
# 1 46.2085 22.4310 46.5260 0.0000 0.0000 0.0000
# 2 22.4310 72.0742 35.9812 0.0000 0.0000 0.0000
# 3 46.5260 35.9812 167.1798 0.0000 0.0000 0.0000
# 4 0.0000 0.0000 0.0000 21.2327 0.0000 0.0000
# 5 0.0000 0.0000 0.0000 0.0000 17.8866 0.0000
# 6 0.0000 0.0000 0.0000 0.0000 0.0000 13.5140
#
#
#
# Elastic Compliance Matrix: (Units=1/GPa)
#
#
# Indices 1 2 3 4 5 6 
#
# 1 0.032401 -0.006254 -0.007671 0.000000 0.000000 0.000000
# 2 -0.006254 0.016752 -0.001865 0.000000 0.000000 0.000000
# 3 -0.007671 -0.001865 0.008518 0.000000 0.000000 0.000000
# 4 0.000000 0.000000 0.000000 0.047097 0.000000 0.000000
# 5 0.000000 0.000000 0.000000 0.000000 0.055908 0.000000
# 6 0.000000 0.000000 0.000000 0.000000 0.000000 0.073997
#
#
# Mechanical properties :
#
#
# Convention : Reuss Voigt Hill
#
# Bulk Modulus (GPa) = 38.32848 55.03767 46.68308
# Shear Modulus (GPa) = 18.18512 22.56161 20.37337
#
# Velocity S-wave (km/s) = 3.04921 3.39636 3.22745
# Velocity P-wave (km/s) = 5.65627 6.59696 6.14464
#
# Compressibility (1/GPa) = 0.02609026
#
# Stress axis : x y z
#
# Youngs Moduli (GPa) = 30.86342 59.69421 117.40118
#
# Poissons Ratio (x) = 0.37334 0.90059
# Poissons Ratio (y) = 0.19303 0.21894
# Poissons Ratio (z) = 0.23675 0.11132
#
# Static dielectric constant tensor:
#      x y z
#    x 3.024850 0.000000 0.000000 
#    y 0.000000 3.714100 0.000000 
#    z 0.000000 0.000000 4.022300 
# 
# 
# High freq. dielectric constant tensor:
#      x y z
#    x 1.686320 0.000000 0.000000 
#    y 0.000000 1.770370 0.000000 
#    z 0.000000 0.000000 1.789330 
# 
# From -- ./inp_files/9900.got.cif
#   From: 2010.03.12/outbox.cif.g09.slc.cpg/sg53_5_cif.got.tgz:9900.got - 2010.04.16 14:36:59.
