data_PCOD8218842
_publ_section_title
;
Structure prediction by ZEFSAII (Michael W. Deem and Ramdas Pophale) SiO2 
 PCOD8218842
Probable space group: P M N A
;
_chemical_formula_sum "Si O2"
_cell_formula_units_Z 48
_cell_length_a 8.951579
_cell_length_b 31.391133
_cell_length_c 9.085241
_cell_angle_alpha 90.000000
_cell_angle_beta 90.000000
_cell_angle_gamma 90.000000
_cell_volume 2552.954601
_symmetry_space_group_name_H-M "P M N A"
_symmetry_group_IT_number 53
_symmetry_cell_setting 'orthorhombic'
loop_
_space_group_symop_operation_xyz
x,y,z
1/2-x,-y,1/2+z
x,-y,-z
1/2-x,y,1/2-z
-x,-y,-z
1/2+x,y,1/2-z
-x,y,z
1/2+x,-y,1/2+z
loop_
_atom_site_type_symbol
_atom_site_label
_atom_site_fract_x
_atom_site_fract_y
_atom_site_fract_z
Si Si1 0.175719 0.796140 0.592358
Si Si2 0.326257 0.461524 0.594577
Si Si3 0.176219 0.959160 0.591662
Si Si4 0.823663 0.877312 0.408230
Si Si5 0.674767 0.631348 0.408003
Si Si6 0.177044 0.286172 0.590112
O O1 0.250000 0.799321 0.750000
O O2 0.231792 0.834994 0.491453
O O3 0.224864 0.752681 0.513259
O O4 0.000000 0.798429 0.615636
O O5 0.256547 0.500000 0.500000
O O6 0.250000 0.462683 0.750000
O O7 0.500000 0.469449 0.620869
O O8 0.300190 0.415133 0.516081
O O9 0.250000 0.959702 0.750000
O O10 0.229487 0.917474 0.504024
O O11 0.000000 0.959578 0.614380
O O12 0.230865 0.000000 0.500000
O O13 0.750000 0.879667 0.250000
O O14 0.000000 0.877225 0.385670
O O15 0.750000 0.628509 0.250000
O O16 0.500000 0.641796 0.393110
O O17 0.757561 0.670822 0.488788
O O18 0.250000 0.279537 0.750000
O O19 0.000000 0.289609 0.607715
#
# Coordination Sequence:
#
# PCOD8218842 Si02
#       6
#     8   8   8   8   8   8
#     4  10  22  37  53  75 103 135 170 208 251 302
#     4   9  18  32  49  71  98 127 162 202 243 292
#     4  10  21  36  55  81 111 142 178 218 260 309
#     4  10  21  37  56  80 107 136 175 217 257 305
#     4   9  16  28  48  71  96 127 162 201 245 291
#     4  10  19  32  51  75  99 125 163 206 247 295
#
# _framework density 18.801745
#
# number of rings (size 3 to 8) (size 9 to 14) (size 15 to 20)
#    0.000    2.333    0.000    3.500    0.000    4.000 
#    0.000    0.833    0.000    4.000    0.000    0.000 
#    0.000    0.000    0.000    0.000    0.000    0.000 
#
# Total GULP energy -594998.130139 kJ/mol
# GULP energy per Si atom -12395.794378 kJ/mol
# Density = 1.875895 g / cm^3
# Si number density = 18.801745 Si / 1000 Ang^3
#
#
#
# Elastic Constant Matrix: (Units=GPa)
#
#
# Indices 1 2 3 4 5 6 
#
# 1 55.1979 50.8555 40.8363 0.0000 0.0000 0.0000
# 2 50.8555 205.7386 86.0348 0.0000 0.0000 0.0000
# 3 40.8363 86.0348 127.5600 0.0000 0.0000 0.0000
# 4 0.0000 0.0000 0.0000 33.8858 0.0000 0.0000
# 5 0.0000 0.0000 0.0000 0.0000 30.3042 0.0000
# 6 0.0000 0.0000 0.0000 0.0000 0.0000 26.2373
#
#
#
# Elastic Compliance Matrix: (Units=1/GPa)
#
#
# Indices 1 2 3 4 5 6 
#
# 1 0.026011 -0.004105 -0.005558 0.000000 0.000000 0.000000
# 2 -0.004105 0.007418 -0.003689 0.000000 0.000000 0.000000
# 3 -0.005558 -0.003689 0.012107 0.000000 0.000000 0.000000
# 4 0.000000 0.000000 0.000000 0.029511 0.000000 0.000000
# 5 0.000000 0.000000 0.000000 0.000000 0.032999 0.000000
# 6 0.000000 0.000000 0.000000 0.000000 0.000000 0.038114
#
#
# Mechanical properties :
#
#
# Convention : Reuss Voigt Hill
#
# Bulk Modulus (GPa) = 53.10365 82.66107 67.88236
# Shear Modulus (GPa) = 27.91107 32.13678 30.02393
#
# Velocity S-wave (km/s) = 3.85709 4.13879 4.00042
# Velocity P-wave (km/s) = 6.93841 8.17921 7.58423
#
# Compressibility (1/GPa) = 0.01883110
#
# Stress axis : x y z
#
# Youngs Moduli (GPa) = 38.44545 134.80922 82.59801
#
# Poissons Ratio (x) = 0.55342 0.45909
# Poissons Ratio (y) = 0.15783 0.30469
# Poissons Ratio (z) = 0.21369 0.49730
#
# Static dielectric constant tensor:
#      x y z
#    x 3.392160 0.000000 0.000000 
#    y 0.000000 4.489920 0.000000 
#    z 0.000000 0.000000 3.174160 
# 
# 
# High freq. dielectric constant tensor:
#      x y z
#    x 1.727810 0.000000 0.000000 
#    y 0.000000 1.761270 0.000000 
#    z 0.000000 0.000000 1.704420 
# 
# From -- ./inp_files/6692.got.cif
#   From: 2010.03.12/outbox.cif.g09.slc.cpg/sg53_4_cif.got.tgz:6692.got - 2010.04.16 14:36:59.
