data_PCOD8218290
_publ_section_title
;
Structure prediction by ZEFSAII (Michael W. Deem and Ramdas Pophale) SiO2 
 PCOD8218290
Probable space group: P M N A
;
_chemical_formula_sum "Si O2"
_cell_formula_units_Z 64
_cell_length_a 14.830546
_cell_length_b 9.289611
_cell_length_c 22.590635
_cell_angle_alpha 90.000000
_cell_angle_beta 90.000000
_cell_angle_gamma 90.000000
_cell_volume 3112.311858
_symmetry_space_group_name_H-M "P M N A"
_symmetry_group_IT_number 53
_symmetry_cell_setting 'orthorhombic'
loop_
_space_group_symop_operation_xyz
x,y,z
1/2-x,-y,1/2+z
x,-y,-z
1/2-x,y,1/2-z
-x,-y,-z
1/2+x,y,1/2-z
-x,y,z
1/2+x,-y,1/2+z
loop_
_atom_site_type_symbol
_atom_site_label
_atom_site_fract_x
_atom_site_fract_y
_atom_site_fract_z
Si Si1 0.335869 0.697830 0.634227
Si Si2 0.790287 0.091260 0.307493
Si Si3 0.901297 0.680468 0.548138
Si Si4 0.101461 0.668988 0.993724
Si Si5 0.822598 0.514179 0.362912
Si Si6 0.102560 0.635544 0.739842
Si Si7 0.105009 0.001542 0.591184
Si Si8 0.280518 0.253996 0.948537
O O1 0.291497 0.851914 0.650872
O O2 0.394759 0.718199 0.575102
O O3 0.262390 0.580192 0.618312
O O4 0.392433 0.630410 0.689087
O O5 0.750000 0.008791 0.250000
O O6 0.844570 0.228038 0.284021
O O7 0.856440 0.982191 0.341887
O O8 0.902537 0.558270 0.598657
O O9 0.879138 0.835694 0.576139
O O10 0.827830 0.645299 0.497833
O O11 0.000000 0.683198 0.518616
O O12 0.000000 0.705268 0.016449
O O13 0.120976 0.500000 0.000000
O O14 0.174255 0.756062 0.034515
O O15 0.850275 0.502919 0.293113
O O16 0.799511 0.676691 0.383535
O O17 0.000000 0.644877 0.719560
O O18 0.000000 0.048096 0.586615
O O19 0.167177 0.100819 0.549124
#
# Coordination Sequence:
#
# PCOD8218290 Si02
#       8
#     8   8   8   8   8   8   8   8
#     4  10  18  35  58  85 110 146 191 248 297 337
#     4   9  18  34  59  82 110 153 198 246 290 336
#     4  11  21  35  57  83 114 157 200 235 280 343
#     4  11  21  37  61  84 112 155 202 244 295 356
#     4  11  20  35  56  83 118 151 186 236 295 342
#     4  10  19  32  56  87 116 144 193 248 291 345
#     4  11  22  37  58  85 119 159 198 235 290 355
#     4  12  23  37  55  84 123 155 192 239 292 351
#
# _framework density 20.563493000000001
#
# number of rings (size 3 to 8) (size 9 to 14) (size 15 to 20)
#    0.000    1.375    5.000    3.375    0.000    3.500 
#    0.000    1.250    0.000    9.750    0.000    0.000 
#    0.000    0.000    0.000    0.000    0.000    0.000 
#
# Total GULP energy -793120.514632 kJ/mol
# GULP energy per Si atom -12392.508041 kJ/mol
# Density = 2.051669 g / cm^3
# Si number density = 20.563493 Si / 1000 Ang^3
#
#
#
# Elastic Constant Matrix: (Units=GPa)
#
#
# Indices 1 2 3 4 5 6 
#
# 1 125.5685 16.0854 38.9526 0.0000 0.0000 0.0000
# 2 16.0854 41.4376 20.7193 0.0000 0.0000 0.0000
# 3 38.9526 20.7193 107.9994 0.0000 0.0000 0.0000
# 4 0.0000 0.0000 0.0000 21.7382 0.0000 0.0000
# 5 0.0000 0.0000 0.0000 0.0000 27.1477 0.0000
# 6 0.0000 0.0000 0.0000 0.0000 0.0000 18.5635
#
#
#
# Elastic Compliance Matrix: (Units=1/GPa)
#
#
# Indices 1 2 3 4 5 6 
#
# 1 0.009129 -0.002099 -0.002890 0.000000 0.000000 0.000000
# 2 -0.002099 0.027176 -0.004457 0.000000 0.000000 0.000000
# 3 -0.002890 -0.004457 0.011157 0.000000 0.000000 0.000000
# 4 0.000000 0.000000 0.000000 0.046002 0.000000 0.000000
# 5 0.000000 0.000000 0.000000 0.000000 0.036836 0.000000
# 6 0.000000 0.000000 0.000000 0.000000 0.000000 0.053869
#
#
# Mechanical properties :
#
#
# Convention : Reuss Voigt Hill
#
# Bulk Modulus (GPa) = 35.00076 47.39111 41.19593
# Shear Modulus (GPa) = 23.52028 26.77309 25.14668
#
# Velocity S-wave (km/s) = 3.38566 3.61220 3.50076
# Velocity P-wave (km/s) = 5.68695 6.36346 6.03469
#
# Compressibility (1/GPa) = 0.02857081
#
# Stress axis : x y z
#
# Youngs Moduli (GPa) = 109.53934 36.79754 89.63266
#
# Poissons Ratio (x) = 0.07723 0.25904
# Poissons Ratio (y) = 0.22989 0.39946
# Poissons Ratio (z) = 0.31657 0.16399
#
# Static dielectric constant tensor:
#      x y z
#    x 3.961650 0.000000 0.000000 
#    y 0.000000 3.292740 0.000000 
#    z 0.000000 0.000000 4.149410 
# 
# 
# High freq. dielectric constant tensor:
#      x y z
#    x 1.807730 0.000000 0.000000 
#    y 0.000000 1.753790 0.000000 
#    z 0.000000 0.000000 1.808610 
# 
# From -- ./inp_files/35342.got.cif
#   From: 2010.03.12/outbox.cif.g09.slc.cpg/sg53_18_cif.got.tgz:35342.got - 2010.04.16 14:36:59.
