data_PCOD8218010
_publ_section_title
;
Structure prediction by ZEFSAII (Michael W. Deem and Ramdas Pophale) SiO2 
 PCOD8218010
Probable space group: P M N A
;
_chemical_formula_sum "Si O2"
_cell_formula_units_Z 48
_cell_length_a 8.976551
_cell_length_b 10.440185
_cell_length_c 29.934405
_cell_angle_alpha 90.000000
_cell_angle_beta 90.000000
_cell_angle_gamma 90.000000
_cell_volume 2805.358236
_symmetry_space_group_name_H-M "P M N A"
_symmetry_group_IT_number 53
_symmetry_cell_setting 'orthorhombic'
loop_
_space_group_symop_operation_xyz
x,y,z
1/2-x,-y,1/2+z
x,-y,-z
1/2-x,y,1/2-z
-x,-y,-z
1/2+x,y,1/2-z
-x,y,z
1/2+x,-y,1/2+z
loop_
_atom_site_type_symbol
_atom_site_label
_atom_site_fract_x
_atom_site_fract_y
_atom_site_fract_z
Si Si1 0.323027 0.740214 0.388454
Si Si2 0.832122 0.019796 0.206457
Si Si3 0.177087 0.988385 0.615629
Si Si4 0.175192 0.881638 0.967953
Si Si5 0.163673 0.714727 0.207899
Si Si6 0.324118 0.630882 0.480718
O O1 0.500000 0.771060 0.386960
O O2 0.271165 0.676995 0.341124
O O3 0.281103 0.643941 0.428428
O O4 0.238797 0.872304 0.396989
O O5 0.750000 0.077356 0.250000
O O6 0.741205 0.061729 0.162705
O O7 0.000000 0.074539 0.203953
O O8 0.836458 0.867305 0.210150
O O9 0.232107 0.891160 0.577641
O O10 0.000000 0.992156 0.618369
O O11 0.000000 0.877107 0.956921
O O12 0.234006 0.752872 0.991768
O O13 0.212570 0.000000 0.000000
O O14 0.250000 0.654724 0.250000
O O15 0.000000 0.657110 0.212493
O O16 0.252268 0.500000 0.500000
O O17 0.500000 0.625874 0.485760
#
# Coordination Sequence:
#
# PCOD8218010 Si02
#       6
#     8   8   8   8   8   8
#     4   9  16  29  45  64  91 122 153 192 244 286
#     4   9  16  27  42  63  94 127 158 193 241 289
#     4  11  20  28  43  68  96 126 163 199 236 284
#     4  10  18  31  50  69  92 123 157 199 247 287
#     4   8  14  22  36  57  85 116 145 179 220 272
#     4   9  17  30  50  72  91 117 159 203 243 294
#
# _framework density 17.110113999999999
#
# number of rings (size 3 to 8) (size 9 to 14) (size 15 to 20)
#    0.000    2.667    1.667    3.000    0.000    4.333 
#    0.000    0.000    0.000    2.000    0.000    1.167 
#    0.000    2.667    0.000    0.000    0.000    1.333 
#
# Total GULP energy -594925.700338 kJ/mol
# GULP energy per Si atom -12394.285424 kJ/mol
# Density = 1.707117 g / cm^3
# Si number density = 17.110114 Si / 1000 Ang^3
#
#
#
# Elastic Constant Matrix: (Units=GPa)
#
#
# Indices 1 2 3 4 5 6 
#
# 1 76.1046 20.1204 55.6297 0.0000 0.0000 0.0000
# 2 20.1204 71.3406 55.8776 0.0000 0.0000 0.0000
# 3 55.6297 55.8776 183.9363 0.0000 0.0000 0.0000
# 4 0.0000 0.0000 0.0000 14.0924 0.0000 0.0000
# 5 0.0000 0.0000 0.0000 0.0000 30.6364 0.0000
# 6 0.0000 0.0000 0.0000 0.0000 0.0000 5.6133
#
#
#
# Elastic Compliance Matrix: (Units=1/GPa)
#
#
# Indices 1 2 3 4 5 6 
#
# 1 0.016924 -0.001003 -0.004814 0.000000 0.000000 0.000000
# 2 -0.001003 0.018453 -0.005303 0.000000 0.000000 0.000000
# 3 -0.004814 -0.005303 0.008503 0.000000 0.000000 0.000000
# 4 0.000000 0.000000 0.000000 0.070960 0.000000 0.000000
# 5 0.000000 0.000000 0.000000 0.000000 0.032641 0.000000
# 6 0.000000 0.000000 0.000000 0.000000 0.000000 0.178150
#
#
# Mechanical properties :
#
#
# Convention : Reuss Voigt Hill
#
# Bulk Modulus (GPa) = 46.20595 66.07075 56.13835
# Shear Modulus (GPa) = 14.08120 23.38534 18.73327
#
# Velocity S-wave (km/s) = 2.87187 3.70098 3.31246
# Velocity P-wave (km/s) = 6.16932 7.54731 6.89283
#
# Compressibility (1/GPa) = 0.02164223
#
# Stress axis : x y z
#
# Youngs Moduli (GPa) = 59.08919 54.19072 117.59957
#
# Poissons Ratio (x) = 0.05433 0.56610
# Poissons Ratio (y) = 0.05924 0.62359
# Poissons Ratio (z) = 0.28444 0.28736
#
# Static dielectric constant tensor:
#      x y z
#    x 3.078380 0.000000 0.000000 
#    y 0.000000 2.817830 0.000000 
#    z 0.000000 0.000000 3.615790 
# 
# 
# High freq. dielectric constant tensor:
#      x y z
#    x 1.641810 0.000000 0.000000 
#    y 0.000000 1.591150 0.000000 
#    z 0.000000 0.000000 1.686230 
# 
# From -- ./inp_files/37923.got.cif
#   From: 2010.03.12/outbox.cif.g09.slc.cpg/sg53_19_cif.got.tgz:37923.got - 2010.04.16 14:36:59.
