data_PCOD8218372
_publ_section_title
;
Structure prediction by ZEFSAII (Michael W. Deem and Ramdas Pophale) SiO2 
 PCOD8218372
Probable space group: P M N A
;
_chemical_formula_sum "Si O2"
_cell_formula_units_Z 48
_cell_length_a 9.041913
_cell_length_b 10.271917
_cell_length_c 29.521360
_cell_angle_alpha 90.000000
_cell_angle_beta 90.000000
_cell_angle_gamma 90.000000
_cell_volume 2741.878375
_symmetry_space_group_name_H-M "P M N A"
_symmetry_group_IT_number 53
_symmetry_cell_setting 'orthorhombic'
loop_
_space_group_symop_operation_xyz
x,y,z
1/2-x,-y,1/2+z
x,-y,-z
1/2-x,y,1/2-z
-x,-y,-z
1/2+x,y,1/2-z
-x,y,z
1/2+x,-y,1/2+z
loop_
_atom_site_type_symbol
_atom_site_label
_atom_site_fract_x
_atom_site_fract_y
_atom_site_fract_z
Si Si1 0.333691 0.020810 0.706298
Si Si2 0.173382 0.980662 0.383678
Si Si3 0.332806 0.289021 0.294357
Si Si4 0.172492 0.630657 0.973663
Si Si5 0.328423 0.120646 0.531570
Si Si6 0.325732 0.718514 0.885581
O O1 0.250000 0.077971 0.750000
O O2 0.500000 0.075468 0.705778
O O3 0.249548 0.070448 0.661917
O O4 0.333242 0.865808 0.707993
O O5 0.230697 0.888908 0.423594
O O6 0.000000 0.964127 0.377845
O O7 0.216669 0.130501 0.393571
O O8 0.250000 0.345567 0.250000
O O9 0.500000 0.343326 0.295361
O O10 0.247956 0.335035 0.339532
O O11 0.264394 0.634999 0.927343
O O12 0.000000 0.637993 0.961070
O O13 0.213771 0.500000 0.000000
O O14 0.218758 0.749023 0.005933
O O15 0.500000 0.120917 0.545455
O O16 0.289090 0.000000 0.500000
O O17 0.500000 0.699046 0.881373
#
# Coordination Sequence:
#
# PCOD8218372 Si02
#       6
#     8   8   8   8   8   8
#     4   9  16  26  41  63  95 130 162 198 244 294
#     4  10  19  29  45  70  98 128 164 204 246 291
#     4   9  16  26  42  65  95 128 162 200 244 292
#     4  10  21  36  52  71  97 130 167 207 251 297
#     4  10  19  32  51  72  95 126 165 204 244 290
#     4  10  19  30  46  69  98 130 164 202 246 293
#
# _framework density 17.506246999999998
#
# number of rings (size 3 to 8) (size 9 to 14) (size 15 to 20)
#    0.000    2.333    1.667    2.000    0.000    6.667 
#    0.000    0.000    0.000    0.000    0.000    1.167 
#    0.000    0.000    0.000    0.000    0.000    0.000 
#
# Total GULP energy -595307.776488 kJ/mol
# GULP energy per Si atom -12402.245344 kJ/mol
# Density = 1.746640 g / cm^3
# Si number density = 17.506247 Si / 1000 Ang^3
#
#
#
# Elastic Constant Matrix: (Units=GPa)
#
#
# Indices 1 2 3 4 5 6 
#
# 1 113.2282 26.8467 86.7883 0.0000 0.0000 0.0000
# 2 26.8467 60.5784 41.8307 0.0000 0.0000 0.0000
# 3 86.7883 41.8307 170.4557 0.0000 0.0000 0.0000
# 4 0.0000 0.0000 0.0000 13.6012 0.0000 0.0000
# 5 0.0000 0.0000 0.0000 0.0000 42.8629 0.0000
# 6 0.0000 0.0000 0.0000 0.0000 0.0000 2.9814
#
#
#
# Elastic Compliance Matrix: (Units=1/GPa)
#
#
# Indices 1 2 3 4 5 6 
#
# 1 0.014614 -0.001612 -0.007045 0.000000 0.000000 0.000000
# 2 -0.001612 0.020053 -0.004101 0.000000 0.000000 0.000000
# 3 -0.007045 -0.004101 0.010460 0.000000 0.000000 0.000000
# 4 0.000000 0.000000 0.000000 0.073523 0.000000 0.000000
# 5 0.000000 0.000000 0.000000 0.000000 0.023330 0.000000
# 6 0.000000 0.000000 0.000000 0.000000 0.000000 0.335417
#
#
# Mechanical properties :
#
#
# Convention : Reuss Voigt Hill
#
# Bulk Modulus (GPa) = 50.98826 72.79930 61.89378
# Shear Modulus (GPa) = 9.81452 24.47553 17.14502
#
# Velocity S-wave (km/s) = 2.37033 3.74318 3.13288
# Velocity P-wave (km/s) = 6.05642 7.76897 6.96553
#
# Compressibility (1/GPa) = 0.01961236
#
# Stress axis : x y z
#
# Youngs Moduli (GPa) = 68.42761 49.86702 95.60157
#
# Poissons Ratio (x) = 0.08037 0.67354
# Poissons Ratio (y) = 0.11028 0.39203
# Poissons Ratio (z) = 0.48209 0.20449
#
# Static dielectric constant tensor:
#      x y z
#    x 3.315150 0.000000 0.000000 
#    y 0.000000 2.753400 0.000000 
#    z 0.000000 0.000000 3.505980 
# 
# 
# High freq. dielectric constant tensor:
#      x y z
#    x 1.687530 0.000000 0.000000 
#    y 0.000000 1.609230 0.000000 
#    z 0.000000 0.000000 1.693770 
# 
# From -- ./inp_files/36140.got.cif
#   From: 2010.03.12/outbox.cif.g09.slc.cpg/sg53_19_cif.got.tgz:36140.got - 2010.04.16 14:36:59.
