data_PCOD8218748
_publ_section_title
;
Structure prediction by ZEFSAII (Michael W. Deem and Ramdas Pophale) SiO2 
 PCOD8218748
Probable space group: P M N A
;
_chemical_formula_sum "Si O2"
_cell_formula_units_Z 32
_cell_length_a 13.557752
_cell_length_b 5.167463
_cell_length_c 21.596648
_cell_angle_alpha 90.000000
_cell_angle_beta 90.000000
_cell_angle_gamma 90.000000
_cell_volume 1513.043489
_symmetry_space_group_name_H-M "P M N A"
_symmetry_group_IT_number 53
_symmetry_cell_setting 'orthorhombic'
loop_
_space_group_symop_operation_xyz
x,y,z
1/2-x,-y,1/2+z
x,-y,-z
1/2-x,y,1/2-z
-x,-y,-z
1/2+x,y,1/2-z
-x,y,z
1/2+x,-y,1/2+z
loop_
_atom_site_type_symbol
_atom_site_label
_atom_site_fract_x
_atom_site_fract_y
_atom_site_fract_z
Si Si1 0.387226 0.465978 0.159876
Si Si2 0.885681 0.316783 0.202014
Si Si3 0.614688 0.750817 0.968456
Si Si4 0.779376 0.815095 0.179990
O O1 0.500000 0.565357 0.162333
O O2 0.356581 0.326061 0.224375
O O3 0.370747 0.255163 0.105794
O O4 0.320143 0.720155 0.144635
O O5 0.862513 0.592143 0.170518
O O6 0.000000 0.249493 0.195154
O O7 0.824405 0.096868 0.163938
O O8 0.500000 0.753745 0.986286
O O9 0.664195 0.500000 0.000000
O O10 0.666328 0.000000 0.000000
O O11 0.750000 0.826652 0.250000
#
# Coordination Sequence:
#
# PCOD8218748 Si02
#       4
#     8   8   8   8
#     4   9  19  34  52  74 105 142 168 198 251 301
#     4  10  20  33  49  69  97 131 166 203 243 288
#     4   9  18  31  47  69  98 132 170 205 236 284
#     4  10  19  32  47  70  97 127 167 202 236 292
#
# _framework density 21.149425999999998
#
# number of rings (size 3 to 8) (size 9 to 14) (size 15 to 20)
#    0.000    2.500    0.000    3.000    0.000    7.000 
#    0.000   16.250    0.000    0.000    0.000    0.000 
#    0.000   20.000    0.000    0.000    0.000    0.000 
#
# Total GULP energy -396461.348587 kJ/mol
# GULP energy per Si atom -12389.417143 kJ/mol
# Density = 2.110129 g / cm^3
# Si number density = 21.149426 Si / 1000 Ang^3
#
#
#
# Elastic Constant Matrix: (Units=GPa)
#
#
# Indices 1 2 3 4 5 6 
#
# 1 78.1625 35.2337 14.6624 0.0000 0.0000 0.0000
# 2 35.2337 135.5169 10.9582 0.0000 0.0000 0.0000
# 3 14.6624 10.9582 39.9090 0.0000 0.0000 0.0000
# 4 0.0000 0.0000 0.0000 3.6812 0.0000 0.0000
# 5 0.0000 0.0000 0.0000 0.0000 10.2501 0.0000
# 6 0.0000 0.0000 0.0000 0.0000 0.0000 13.2993
#
#
#
# Elastic Compliance Matrix: (Units=1/GPa)
#
#
# Indices 1 2 3 4 5 6 
#
# 1 0.015285 -0.003600 -0.004627 0.000000 0.000000 0.000000
# 2 -0.003600 0.008395 -0.000982 0.000000 0.000000 0.000000
# 3 -0.004627 -0.000982 0.027027 0.000000 0.000000 0.000000
# 4 0.000000 0.000000 0.000000 0.271648 0.000000 0.000000
# 5 0.000000 0.000000 0.000000 0.000000 0.097560 0.000000
# 6 0.000000 0.000000 0.000000 0.000000 0.000000 0.075192
#
#
# Mechanical properties :
#
#
# Convention : Reuss Voigt Hill
#
# Bulk Modulus (GPa) = 30.97194 41.69968 36.33581
# Shear Modulus (GPa) = 9.53676 18.29506 13.91591
#
# Velocity S-wave (km/s) = 2.12580 2.94434 2.56790
# Velocity P-wave (km/s) = 4.54989 5.59628 5.09999
#
# Compressibility (1/GPa) = 0.03228729
#
# Stress axis : x y z
#
# Youngs Moduli (GPa) = 65.42564 119.12551 37.00038
#
# Poissons Ratio (x) = 0.42882 0.17120
# Poissons Ratio (y) = 0.23552 0.03635
# Poissons Ratio (z) = 0.30273 0.11703
#
# Static dielectric constant tensor:
#      x y z
#    x 4.426470 0.000000 0.000000 
#    y 0.000000 4.519660 0.000000 
#    z 0.000000 0.000000 1.661000 
# 
# 
# High freq. dielectric constant tensor:
#      x y z
#    x 1.806230 0.000000 0.000000 
#    y 0.000000 1.843540 0.000000 
#    z 0.000000 0.000000 1.770570 
# 
# From -- ./inp_files/27818.got.cif
#   From: 2010.03.12/outbox.cif.g09.slc.cpg/sg53_14_cif.got.tgz:27818.got - 2010.04.16 14:36:59.
