data_PCOD8218951
_publ_section_title
;
Structure prediction by ZEFSAII (Michael W. Deem and Ramdas Pophale) SiO2 
 PCOD8218951
Probable space group: P M N A
;
_chemical_formula_sum "Si O2"
_cell_formula_units_Z 64
_cell_length_a 8.938069
_cell_length_b 11.275329
_cell_length_c 34.079096
_cell_angle_alpha 90.000000
_cell_angle_beta 90.000000
_cell_angle_gamma 90.000000
_cell_volume 3434.480001
_symmetry_space_group_name_H-M "P M N A"
_symmetry_group_IT_number 53
_symmetry_cell_setting 'orthorhombic'
loop_
_space_group_symop_operation_xyz
x,y,z
1/2-x,-y,1/2+z
x,-y,-z
1/2-x,y,1/2-z
-x,-y,-z
1/2+x,y,1/2-z
-x,y,z
1/2+x,-y,1/2+z
loop_
_atom_site_type_symbol
_atom_site_label
_atom_site_fract_x
_atom_site_fract_y
_atom_site_fract_z
Si Si1 0.324465 0.262825 0.024008
Si Si2 0.329190 0.965611 0.931443
Si Si3 0.675246 0.846016 0.636529
Si Si4 0.176605 0.737702 0.209737
Si Si5 0.177791 0.378951 0.397143
Si Si6 0.176992 0.377439 0.871473
Si Si7 0.327293 0.761268 0.060798
Si Si8 0.324652 0.006419 0.289092
O O1 0.500000 0.276879 0.021418
O O2 0.283598 0.126504 0.034294
O O3 0.265010 0.350922 0.058267
O O4 0.264650 0.295313 0.980257
O O5 0.500000 0.939364 0.917980
O O6 0.217704 0.944332 0.895468
O O7 0.311335 0.098685 0.946047
O O8 0.500000 0.817534 0.634394
O O9 0.767892 0.725544 0.631311
O O10 0.724094 0.902780 0.677493
O O11 0.250000 0.688294 0.250000
O O12 0.228907 0.660618 0.172205
O O13 0.230946 0.872512 0.201818
O O14 0.000000 0.729893 0.214933
O O15 0.247585 0.499624 0.382276
O O16 0.000000 0.387720 0.395473
O O17 0.227679 0.279212 0.902842
O O18 0.000000 0.390021 0.873558
O O19 0.500000 0.725578 0.068788
O O20 0.250000 0.056235 0.250000
O O21 0.500000 0.004685 0.283255
#
# Coordination Sequence:
#
# PCOD8218951 Si02
#       8
#     8   8   8   8   8   8   8   8
#     4   8  16  32  53  76 103 136 176 222 263 299
#     4   9  17  30  51  78 105 136 175 216 258 308
#     4  10  19  33  53  76 105 138 169 207 262 316
#     4   9  19  36  57  80 107 137 167 205 254 307
#     4  10  21  38  57  75  98 135 184 226 258 300
#     4  11  23  38  54  76 108 140 173 217 269 316
#     4  10  19  32  53  79 106 139 179 219 258 305
#     4   9  18  32  52  79 108 135 163 200 251 310
#
# _framework density 18.634553
#
# number of rings (size 3 to 8) (size 9 to 14) (size 15 to 20)
#    0.000    2.500    0.000    3.000    0.000    5.500 
#    0.000    8.750    0.000    3.750    0.000    0.000 
#    0.000    0.000    0.000    0.000    0.000    0.000 
#
# Total GULP energy -793344.959706 kJ/mol
# GULP energy per Si atom -12396.014995 kJ/mol
# Density = 1.859214 g / cm^3
# Si number density = 18.634553 Si / 1000 Ang^3
#
#
#
# Elastic Constant Matrix: (Units=GPa)
#
#
# Indices 1 2 3 4 5 6 
#
# 1 44.1498 33.3330 40.8493 0.0000 0.0000 0.0000
# 2 33.3330 73.2324 65.1971 0.0000 0.0000 0.0000
# 3 40.8493 65.1971 154.1428 0.0000 0.0000 0.0000
# 4 0.0000 0.0000 0.0000 27.8298 0.0000 0.0000
# 5 0.0000 0.0000 0.0000 0.0000 28.4369 0.0000
# 6 0.0000 0.0000 0.0000 0.0000 0.0000 31.1178
#
#
#
# Elastic Compliance Matrix: (Units=1/GPa)
#
#
# Indices 1 2 3 4 5 6 
#
# 1 0.036129 -0.012705 -0.004201 0.000000 0.000000 0.000000
# 2 -0.012705 0.026371 -0.007787 0.000000 0.000000 0.000000
# 3 -0.004201 -0.007787 0.010894 0.000000 0.000000 0.000000
# 4 0.000000 0.000000 0.000000 0.035933 0.000000 0.000000
# 5 0.000000 0.000000 0.000000 0.000000 0.035166 0.000000
# 6 0.000000 0.000000 0.000000 0.000000 0.000000 0.032136
#
#
# Mechanical properties :
#
#
# Convention : Reuss Voigt Hill
#
# Bulk Modulus (GPa) = 41.65154 61.14263 51.39709
# Shear Modulus (GPa) = 21.36601 26.28660 23.82631
#
# Velocity S-wave (km/s) = 3.38979 3.75992 3.57964
# Velocity P-wave (km/s) = 6.14176 7.19250 6.68780
#
# Compressibility (1/GPa) = 0.02400872
#
# Stress axis : x y z
#
# Youngs Moduli (GPa) = 27.67847 37.92111 91.79083
#
# Poissons Ratio (x) = 0.48179 0.38560
# Poissons Ratio (y) = 0.35165 0.71477
# Poissons Ratio (z) = 0.11627 0.29529
#
# Static dielectric constant tensor:
#      x y z
#    x 3.285370 0.000000 0.000000 
#    y 0.000000 3.367820 0.000000 
#    z 0.000000 0.000000 3.644040 
# 
# 
# High freq. dielectric constant tensor:
#      x y z
#    x 1.707650 0.000000 0.000000 
#    y 0.000000 1.714870 0.000000 
#    z 0.000000 0.000000 1.730710 
# 
# From -- ./inp_files/38207.got.cif
#   From: 2010.03.12/outbox.cif.g09.slc.cpg/sg53_20_cif.got.tgz:38207.got - 2010.04.16 14:36:59.
