data_PCOD8218444
_publ_section_title
;
Structure prediction by ZEFSAII (Michael W. Deem and Ramdas Pophale) SiO2 
 PCOD8218444
Probable space group: P M N A
;
_chemical_formula_sum "Si O2"
_cell_formula_units_Z 56
_cell_length_a 9.024382
_cell_length_b 20.440778
_cell_length_c 18.443280
_cell_angle_alpha 90.000000
_cell_angle_beta 90.000000
_cell_angle_gamma 90.000000
_cell_volume 3402.146821
_symmetry_space_group_name_H-M "P M N A"
_symmetry_group_IT_number 53
_symmetry_cell_setting 'orthorhombic'
loop_
_space_group_symop_operation_xyz
x,y,z
1/2-x,-y,1/2+z
x,-y,-z
1/2-x,y,1/2-z
-x,-y,-z
1/2+x,y,1/2-z
-x,y,z
1/2+x,-y,1/2+z
loop_
_atom_site_type_symbol
_atom_site_label
_atom_site_fract_x
_atom_site_fract_y
_atom_site_fract_z
Si Si1 0.324472 0.997216 0.325643
Si Si2 0.837092 0.929758 0.963372
Si Si3 0.828711 0.751067 0.323482
Si Si4 0.661829 0.428689 0.466692
Si Si5 0.670177 0.118382 0.907512
Si Si6 0.323279 0.624734 0.388251
Si Si7 0.823724 0.486434 0.175721
O O1 0.250000 0.015475 0.250000
O O2 0.500000 0.989440 0.316360
O O3 0.263714 0.928433 0.355214
O O4 0.285002 0.057033 0.380593
O O5 0.000000 0.896587 0.964683
O O6 0.723742 0.884938 0.008620
O O7 0.847333 0.000000 0.000000
O O8 0.750000 0.773903 0.250000
O O9 0.807605 0.807450 0.382680
O O10 0.755463 0.685715 0.352794
O O11 0.000000 0.737380 0.306880
O O12 0.641033 0.500000 0.500000
O O13 0.500000 0.398193 0.452384
O O14 0.739518 0.383808 0.528576
O O15 0.740686 0.438102 0.388168
O O16 0.500000 0.096238 0.903368
O O17 0.500000 0.634388 0.389083
O O18 0.279738 0.561288 0.341120
O O19 0.750000 0.463323 0.250000
O O20 0.000000 0.479497 0.180381
#
# Coordination Sequence:
#
# PCOD8218444 Si02
#       7
#     8   8   8   8   8   8   8
#     4  10  19  30  46  69  94 118 145 180 221 262
#     4   8  16  30  46  65  89 115 144 180 220 262
#     4  11  23  34  44  63  90 119 151 183 213 249
#     4   7  12  25  43  61  82 110 143 176 212 258
#     4  10  20  32  46  64  88 120 153 183 217 257
#     4   9  17  30  47  63  83 116 151 181 214 253
#     4   9  16  26  42  65  90 113 141 177 217 261
#
# _framework density 16.460196
#
# number of rings (size 3 to 8) (size 9 to 14) (size 15 to 20)
#    0.000    2.857    0.000    4.714    0.000    8.286 
#    0.000    0.714    0.000    2.571    0.000    1.000 
#    0.000    2.286    0.000    0.000    0.000    0.000 
#
# Total GULP energy -693841.344411 kJ/mol
# GULP energy per Si atom -12390.024007 kJ/mol
# Density = 1.642273 g / cm^3
# Si number density = 16.460196 Si / 1000 Ang^3
#
#
#
# Elastic Constant Matrix: (Units=GPa)
#
#
# Indices 1 2 3 4 5 6 
#
# 1 63.9045 19.0842 38.5468 0.0000 0.0000 0.0000
# 2 19.0842 26.5674 17.0538 0.0000 0.0000 0.0000
# 3 38.5468 17.0538 121.9137 0.0000 0.0000 0.0000
# 4 0.0000 0.0000 0.0000 24.1276 0.0000 0.0000
# 5 0.0000 0.0000 0.0000 0.0000 27.7484 0.0000
# 6 0.0000 0.0000 0.0000 0.0000 0.0000 -6.2498
#
#
#
# Elastic Compliance Matrix: (Units=1/GPa)
#
#
# Indices 1 2 3 4 5 6 
#
# 1 0.022746 -0.012879 -0.005390 0.000000 0.000000 0.000000
# 2 -0.012879 0.048646 -0.002733 0.000000 0.000000 0.000000
# 3 -0.005390 -0.002733 0.010289 0.000000 0.000000 0.000000
# 4 0.000000 0.000000 0.000000 0.041446 0.000000 0.000000
# 5 0.000000 0.000000 0.000000 0.000000 0.036038 0.000000
# 6 0.000000 0.000000 0.000000 0.000000 0.000000 -0.160004
#
#
# Mechanical properties :
#
#
# Convention : Reuss Voigt Hill
#
# Bulk Modulus (GPa) = 25.20371 40.19503 32.69937
# Shear Modulus (GPa) = 91.92893 18.30528 55.11710
#
# Velocity S-wave (km/s) = 7.48134 3.33842 5.79291
# Velocity P-wave (km/s) = 9.48538 6.27157 8.04068
#
# Compressibility (1/GPa) = 0.03967669
#
# Stress axis : x y z
#
# Youngs Moduli (GPa) = 43.96410 20.55686 97.19047
#
# Poissons Ratio (x) = 0.26475 0.52388
# Poissons Ratio (y) = 0.56621 0.26559
# Poissons Ratio (z) = 0.23698 0.05618
#
# Static dielectric constant tensor:
#      x y z
#    x 3.029980 0.000000 0.000000 
#    y 0.000000 2.789630 0.000000 
#    z 0.000000 0.000000 3.666560 
# 
# 
# High freq. dielectric constant tensor:
#      x y z
#    x 1.624280 0.000000 0.000000 
#    y 0.000000 1.587620 0.000000 
#    z 0.000000 0.000000 1.646760 
# 
# From -- ./inp_files/26725.got.cif
#   From: 2010.03.12/outbox.cif.g09.slc.cpg/sg53_14_cif.got.tgz:26725.got - 2010.04.16 14:36:59.
