data_PCOD8218681
_publ_section_title
;
Structure prediction by ZEFSAII (Michael W. Deem and Ramdas Pophale) SiO2 
 PCOD8218681
Probable space group: P M N A
;
_chemical_formula_sum "Si O2"
_cell_formula_units_Z 48
_cell_length_a 8.953153
_cell_length_b 14.883455
_cell_length_c 18.545799
_cell_angle_alpha 90.000000
_cell_angle_beta 90.000000
_cell_angle_gamma 90.000000
_cell_volume 2471.299114
_symmetry_space_group_name_H-M "P M N A"
_symmetry_group_IT_number 53
_symmetry_cell_setting 'orthorhombic'
loop_
_space_group_symop_operation_xyz
x,y,z
1/2-x,-y,1/2+z
x,-y,-z
1/2-x,y,1/2-z
-x,-y,-z
1/2+x,y,1/2-z
-x,y,z
1/2+x,-y,1/2+z
loop_
_atom_site_type_symbol
_atom_site_label
_atom_site_fract_x
_atom_site_fract_y
_atom_site_fract_z
Si Si1 0.823180 0.970852 0.826342
Si Si2 0.176930 0.372787 0.444539
Si Si3 0.170839 0.274757 0.680034
Si Si4 0.171027 0.114520 0.576025
Si Si5 0.822555 0.560685 0.402811
Si Si6 0.324113 0.174815 0.083455
O O1 0.750000 0.996860 0.750000
O O2 0.763758 0.874075 0.852332
O O3 0.000000 0.968707 0.817021
O O4 0.779387 0.043420 0.886753
O O5 0.242470 0.399833 0.522420
O O6 0.222978 0.455808 0.391082
O O7 0.240048 0.276939 0.418168
O O8 0.000000 0.362707 0.449643
O O9 0.250000 0.234326 0.750000
O O10 0.196184 0.211585 0.611419
O O11 0.235555 0.374359 0.661075
O O12 0.000000 0.280871 0.701347
O O13 0.209773 0.124069 0.491809
O O14 0.000000 0.081992 0.586301
O O15 0.000000 0.568220 0.407764
O O16 0.500000 0.172723 0.100195
#
# Coordination Sequence:
#
# PCOD8218681 Si02
#       6
#     8   8   8   8   8   8
#     4  12  26  42  58  78 107 145 185 229 280 334
#     4   8  13  25  51  81 106 136 176 222 263 307
#     4  10  19  31  49  77 112 147 182 223 271 323
#     4  10  20  36  58  84 112 143 181 226 274 329
#     4   8  13  25  47  77 108 138 179 221 257 307
#     4  10  19  35  60  88 113 142 182 228 274 324
#
# _framework density 19.422982000000001
#
# number of rings (size 3 to 8) (size 9 to 14) (size 15 to 20)
#    0.000    2.333    1.667    3.500    0.000    4.667 
#    0.000    0.833    0.000    3.000    0.000    2.333 
#    0.000    0.000    0.000    0.000    0.000    0.000 
#
# Total GULP energy -594903.733939 kJ/mol
# GULP energy per Si atom -12393.827790 kJ/mol
# Density = 1.937877 g / cm^3
# Si number density = 19.422982 Si / 1000 Ang^3
#
#
#
# Elastic Constant Matrix: (Units=GPa)
#
#
# Indices 1 2 3 4 5 6 
#
# 1 62.6680 33.9973 24.6906 0.0000 0.0000 0.0000
# 2 33.9973 113.9607 15.4826 0.0000 0.0000 0.0000
# 3 24.6906 15.4826 53.6631 0.0000 0.0000 0.0000
# 4 0.0000 0.0000 0.0000 15.8937 0.0000 0.0000
# 5 0.0000 0.0000 0.0000 0.0000 22.5590 0.0000
# 6 0.0000 0.0000 0.0000 0.0000 0.0000 13.5358
#
#
#
# Elastic Compliance Matrix: (Units=1/GPa)
#
#
# Indices 1 2 3 4 5 6 
#
# 1 0.022365 -0.005489 -0.008707 0.000000 0.000000 0.000000
# 2 -0.005489 0.010480 -0.000498 0.000000 0.000000 0.000000
# 3 -0.008707 -0.000498 0.022784 0.000000 0.000000 0.000000
# 4 0.000000 0.000000 0.000000 0.062918 0.000000 0.000000
# 5 0.000000 0.000000 0.000000 0.000000 0.044328 0.000000
# 6 0.000000 0.000000 0.000000 0.000000 0.000000 0.073878
#
#
# Mechanical properties :
#
#
# Convention : Reuss Voigt Hill
#
# Bulk Modulus (GPa) = 38.10678 42.07031 40.08855
# Shear Modulus (GPa) = 18.18911 20.80579 19.49745
#
# Velocity S-wave (km/s) = 3.06351 3.27646 3.17177
# Velocity P-wave (km/s) = 5.67234 6.00172 5.83935
#
# Compressibility (1/GPa) = 0.02624205
#
# Stress axis : x y z
#
# Youngs Moduli (GPa) = 44.71201 95.41804 43.88957
#
# Poissons Ratio (x) = 0.52377 0.38213
# Poissons Ratio (y) = 0.24544 0.02186
# Poissons Ratio (z) = 0.38929 0.04753
#
# Static dielectric constant tensor:
#      x y z
#    x 3.054280 0.000000 0.000000 
#    y 0.000000 3.993800 0.000000 
#    z 0.000000 0.000000 3.412760 
# 
# 
# High freq. dielectric constant tensor:
#      x y z
#    x 1.705050 0.000000 0.000000 
#    y 0.000000 1.776770 0.000000 
#    z 0.000000 0.000000 1.739880 
# 
# From -- ./inp_files/30530.got.cif
#   From: 2010.03.12/outbox.cif.g09.slc.cpg/sg53_16_cif.got.tgz:30530.got - 2010.04.16 14:36:59.
