data_PCOD8218962
_publ_section_title
;
Structure prediction by ZEFSAII (Michael W. Deem and Ramdas Pophale) SiO2 
 PCOD8218962
Probable space group: P M N A
;
_chemical_formula_sum "Si O2"
_cell_formula_units_Z 64
_cell_length_a 8.843991
_cell_length_b 20.679489
_cell_length_c 18.130610
_cell_angle_alpha 90.000000
_cell_angle_beta 90.000000
_cell_angle_gamma 90.000000
_cell_volume 3315.893023
_symmetry_space_group_name_H-M "P M N A"
_symmetry_group_IT_number 53
_symmetry_cell_setting 'orthorhombic'
loop_
_space_group_symop_operation_xyz
x,y,z
1/2-x,-y,1/2+z
x,-y,-z
1/2-x,y,1/2-z
-x,-y,-z
1/2+x,y,1/2-z
-x,y,z
1/2+x,-y,1/2+z
loop_
_atom_site_type_symbol
_atom_site_label
_atom_site_fract_x
_atom_site_fract_y
_atom_site_fract_z
Si Si1 0.179227 0.753745 0.672217
Si Si2 0.678314 0.138376 0.931368
Si Si3 0.822584 0.130236 0.089553
Si Si4 0.820418 0.507860 0.670042
Si Si5 0.678719 0.744009 0.170810
Si Si6 0.679248 0.369263 0.080024
Si Si7 0.820231 0.618995 0.415099
Si Si8 0.833374 0.998372 0.587596
O O1 0.250000 0.734211 0.750000
O O2 0.241924 0.822479 0.646703
O O3 0.230212 0.699048 0.613942
O O4 0.000000 0.757438 0.679727
O O5 0.500000 0.141242 0.949879
O O6 0.730962 0.195941 0.878928
O O7 0.718984 0.070838 0.889396
O O8 0.767189 0.145640 0.007530
O O9 0.000000 0.140181 0.094848
O O10 0.782332 0.056740 0.114214
O O11 0.750000 0.502358 0.750000
O O12 0.758834 0.572410 0.630482
O O13 0.764018 0.447261 0.621617
O O14 0.000000 0.508154 0.677592
O O15 0.750000 0.752572 0.250000
O O16 0.500000 0.742162 0.179159
O O17 0.740973 0.678722 0.133248
O O18 0.500000 0.374194 0.076527
O O19 0.747005 0.375624 0.997712
O O20 0.000000 0.621493 0.418844
O O21 0.000000 0.982590 0.619943
O O22 0.841882 0.000000 0.500000
#
# Coordination Sequence:
#
# PCOD8218962 Si02
#       8
#     8   8   8   8   8   8   8   8
#     4  11  22  37  55  75 104 139 176 219 268 321
#     4   9  18  34  55  77 104 141 180 218 263 313
#     4  11  21  33  53  81 108 135 172 218 266 317
#     4  10  19  32  53  80 109 139 172 211 256 308
#     4  10  20  34  52  75 105 140 176 215 262 313
#     4   9  18  33  55  79 101 133 178 222 259 303
#     4   9  17  31  53  79 105 136 176 216 254 304
#     4   8  15  30  52  76 103 137 175 215 261 312
#
# _framework density 19.300985000000001
#
# number of rings (size 3 to 8) (size 9 to 14) (size 15 to 20)
#    0.000    2.375    0.000    4.125    0.000    6.250 
#    0.000    1.250    0.000    5.250    0.000    0.000 
#    0.000    0.000    0.000    0.000    0.000    0.000 
#
# Total GULP energy -793572.368566 kJ/mol
# GULP energy per Si atom -12399.568259 kJ/mol
# Density = 1.925705 g / cm^3
# Si number density = 19.300985 Si / 1000 Ang^3
#
#
#
# Elastic Constant Matrix: (Units=GPa)
#
#
# Indices 1 2 3 4 5 6 
#
# 1 52.8214 30.4672 26.9727 0.0000 0.0000 0.0000
# 2 30.4672 121.8774 26.1248 0.0000 0.0000 0.0000
# 3 26.9727 26.1248 83.6854 0.0000 0.0000 0.0000
# 4 0.0000 0.0000 0.0000 20.9972 0.0000 0.0000
# 5 0.0000 0.0000 0.0000 0.0000 28.3491 0.0000
# 6 0.0000 0.0000 0.0000 0.0000 0.0000 13.5044
#
#
#
# Elastic Compliance Matrix: (Units=1/GPa)
#
#
# Indices 1 2 3 4 5 6 
#
# 1 0.025092 -0.004864 -0.006569 0.000000 0.000000 0.000000
# 2 -0.004864 0.009736 -0.001472 0.000000 0.000000 0.000000
# 3 -0.006569 -0.001472 0.014526 0.000000 0.000000 0.000000
# 4 0.000000 0.000000 0.000000 0.047625 0.000000 0.000000
# 5 0.000000 0.000000 0.000000 0.000000 0.035274 0.000000
# 6 0.000000 0.000000 0.000000 0.000000 0.000000 0.074050
#
#
# Mechanical properties :
#
#
# Convention : Reuss Voigt Hill
#
# Bulk Modulus (GPa) = 42.47259 47.27929 44.87594
# Shear Modulus (GPa) = 20.83662 24.22478 22.53070
#
# Velocity S-wave (km/s) = 3.28923 3.54659 3.42033
# Velocity P-wave (km/s) = 6.03975 6.42807 6.23693
#
# Compressibility (1/GPa) = 0.02354459
#
# Stress axis : x y z
#
# Youngs Moduli (GPa) = 39.85369 102.70690 68.84153
#
# Poissons Ratio (x) = 0.49961 0.45220
# Poissons Ratio (y) = 0.19387 0.10131
# Poissons Ratio (z) = 0.26179 0.15115
#
# Static dielectric constant tensor:
#      x y z
#    x 3.182050 0.000000 0.000000 
#    y 0.000000 4.014130 0.000000 
#    z 0.000000 0.000000 3.469740 
# 
# 
# High freq. dielectric constant tensor:
#      x y z
#    x 1.716250 0.000000 0.000000 
#    y 0.000000 1.773940 0.000000 
#    z 0.000000 0.000000 1.741730 
# 
# From -- ./inp_files/26763.got.cif
#   From: 2010.03.12/outbox.cif.g09.slc.cpg/sg53_14_cif.got.tgz:26763.got - 2010.04.16 14:36:59.
