data_PCOD8218095
_publ_section_title
;
Structure prediction by ZEFSAII (Michael W. Deem and Ramdas Pophale) SiO2 
 PCOD8218095
Probable space group: P M N A
;
_chemical_formula_sum "Si O2"
_cell_formula_units_Z 64
_cell_length_a 8.708409
_cell_length_b 16.908143
_cell_length_c 25.294657
_cell_angle_alpha 90.000000
_cell_angle_beta 90.000000
_cell_angle_gamma 90.000000
_cell_volume 3724.461805
_symmetry_space_group_name_H-M "P M N A"
_symmetry_group_IT_number 53
_symmetry_cell_setting 'orthorhombic'
loop_
_space_group_symop_operation_xyz
x,y,z
1/2-x,-y,1/2+z
x,-y,-z
1/2-x,y,1/2-z
-x,-y,-z
1/2+x,y,1/2-z
-x,y,z
1/2+x,-y,1/2+z
loop_
_atom_site_type_symbol
_atom_site_label
_atom_site_fract_x
_atom_site_fract_y
_atom_site_fract_z
Si Si1 0.672794 0.504748 0.937278
Si Si2 0.181608 0.915366 0.806437
Si Si3 0.180618 0.917553 0.305925
Si Si4 0.677182 0.346845 0.560555
Si Si5 0.677602 0.907334 0.503780
Si Si6 0.679469 0.819854 0.899171
Si Si7 0.321931 0.821865 0.396603
Si Si8 0.820416 0.664519 0.939661
O O1 0.500000 0.518463 0.917623
O O2 0.732998 0.421300 0.914388
O O3 0.776149 0.577898 0.917294
O O4 0.684537 0.500000 0.000000
O O5 0.250000 0.890799 0.750000
O O6 0.227619 0.849720 0.848573
O O7 0.000000 0.921693 0.802026
O O8 0.246752 0.999945 0.825179
O O9 0.250000 0.890991 0.250000
O O10 0.218415 0.850223 0.348270
O O11 0.000000 0.928353 0.299950
O O12 0.500000 0.370618 0.559395
O O13 0.709651 0.271232 0.596909
O O14 0.729813 0.327262 0.500855
O O15 0.500000 0.887251 0.515977
O O16 0.780215 0.872485 0.550165
O O17 0.729628 0.867729 0.449179
O O18 0.707036 0.000000 0.500000
O O19 0.500000 0.826524 0.887658
O O20 0.725486 0.729032 0.907328
O O21 0.500000 0.839115 0.384488
O O22 0.000000 0.679953 0.931886
#
# Coordination Sequence:
#
# PCOD8218095 Si02
#       8
#     8   8   8   8   8   8   8   8
#     4   9  17  28  44  69 100 133 169 211 256 298
#     4  11  22  39  59  77 100 132 173 219 264 307
#     4  11  22  37  56  78 102 132 173 219 266 308
#     4   9  17  30  48  70 100 138 175 208 250 308
#     4  10  20  34  51  71 100 140 176 207 252 309
#     4  12  23  34  51  77 107 136 171 213 258 305
#     4  10  19  33  51  75 105 138 175 214 258 307
#     4  10  18  32  50  71 100 138 176 208 251 306
#
# _framework density 17.183689999999999
#
# number of rings (size 3 to 8) (size 9 to 14) (size 15 to 20)
#    0.000    1.750    1.250    5.625    0.000    4.250 
#    0.000    0.000    0.000    0.000    0.000    0.875 
#    0.000    4.000    0.000    0.000    0.000    0.000 
#
# Total GULP energy -793833.275164 kJ/mol
# GULP energy per Si atom -12403.644924 kJ/mol
# Density = 1.714458 g / cm^3
# Si number density = 17.183690 Si / 1000 Ang^3
#
#
#
# Elastic Constant Matrix: (Units=GPa)
#
#
# Indices 1 2 3 4 5 6 
#
# 1 105.1034 40.1690 36.3063 0.0000 0.0000 0.0000
# 2 40.1690 104.4755 46.4253 0.0000 0.0000 0.0000
# 3 36.3063 46.4253 73.2190 0.0000 0.0000 0.0000
# 4 0.0000 0.0000 0.0000 12.7129 0.0000 0.0000
# 5 0.0000 0.0000 0.0000 0.0000 25.2710 0.0000
# 6 0.0000 0.0000 0.0000 0.0000 0.0000 31.3281
#
#
#
# Elastic Compliance Matrix: (Units=1/GPa)
#
#
# Indices 1 2 3 4 5 6 
#
# 1 0.012022 -0.002747 -0.004219 0.000000 0.000000 0.000000
# 2 -0.002747 0.013954 -0.007486 0.000000 0.000000 0.000000
# 3 -0.004219 -0.007486 0.020496 0.000000 0.000000 0.000000
# 4 0.000000 0.000000 0.000000 0.078660 0.000000 0.000000
# 5 0.000000 0.000000 0.000000 0.000000 0.039571 0.000000
# 6 0.000000 0.000000 0.000000 0.000000 0.000000 0.031920
#
#
# Mechanical properties :
#
#
# Convention : Reuss Voigt Hill
#
# Bulk Modulus (GPa) = 56.92149 58.73325 57.82737
# Shear Modulus (GPa) = 21.60914 24.52224 23.06569
#
# Velocity S-wave (km/s) = 3.55002 3.78175 3.66772
# Velocity P-wave (km/s) = 7.07112 7.30224 7.18761
#
# Compressibility (1/GPa) = 0.01756806
#
# Stress axis : x y z
#
# Youngs Moduli (GPa) = 83.18169 71.66274 48.78986
#
# Poissons Ratio (x) = 0.19688 0.20585
# Poissons Ratio (y) = 0.22853 0.36522
# Poissons Ratio (z) = 0.35096 0.53644
#
# Static dielectric constant tensor:
#      x y z
#    x 3.251690 0.000000 0.000000 
#    y 0.000000 3.321280 0.000000 
#    z 0.000000 0.000000 2.963790 
# 
# 
# High freq. dielectric constant tensor:
#      x y z
#    x 1.672510 0.000000 0.000000 
#    y 0.000000 1.670360 0.000000 
#    z 0.000000 0.000000 1.625990 
# 
# From -- ./inp_files/34477.got.cif
#   From: 2010.03.12/outbox.cif.g09.slc.cpg/sg53_18_cif.got.tgz:34477.got - 2010.04.16 14:36:59.
