data_PCOD8218658
_publ_section_title
;
Structure prediction by ZEFSAII (Michael W. Deem and Ramdas Pophale) SiO2 
 PCOD8218658
Probable space group: P M N A
;
_chemical_formula_sum "Si O2"
_cell_formula_units_Z 40
_cell_length_a 9.270069
_cell_length_b 13.825742
_cell_length_c 17.814370
_cell_angle_alpha 90.000000
_cell_angle_beta 90.000000
_cell_angle_gamma 90.000000
_cell_volume 2283.189105
_symmetry_space_group_name_H-M "P M N A"
_symmetry_group_IT_number 53
_symmetry_cell_setting 'orthorhombic'
loop_
_space_group_symop_operation_xyz
x,y,z
1/2-x,-y,1/2+z
x,-y,-z
1/2-x,y,1/2-z
-x,-y,-z
1/2+x,y,1/2-z
-x,y,z
1/2+x,-y,1/2+z
loop_
_atom_site_type_symbol
_atom_site_label
_atom_site_fract_x
_atom_site_fract_y
_atom_site_fract_z
Si Si1 0.333084 0.368828 0.880296
Si Si2 0.668916 0.808807 0.321096
Si Si3 0.666732 0.716763 0.960722
Si Si4 0.331759 0.106348 0.519726
Si Si5 0.669546 0.419331 0.173224
O O1 0.500000 0.348418 0.860222
O O2 0.232555 0.298215 0.832336
O O3 0.285943 0.476684 0.859383
O O4 0.304638 0.353215 0.968531
O O5 0.750000 0.856936 0.250000
O O6 0.500000 0.800863 0.304711
O O7 0.702701 0.874783 0.393034
O O8 0.500000 0.744617 0.955360
O O9 0.753558 0.816362 0.966917
O O10 0.719146 0.660875 0.886754
O O11 0.500000 0.115725 0.502460
O O12 0.273486 0.000000 0.500000
O O13 0.750000 0.396497 0.250000
O O14 0.500000 0.414472 0.187687
#
# Coordination Sequence:
#
# PCOD8218658 Si02
#       5
#     8   8   8   8   8
#     4   9  17  31  51  72  97 129 163 199 238 282
#     4  10  19  31  49  74 101 126 156 197 244 290
#     4   9  18  33  52  73  96 125 163 203 241 284
#     4   9  19  36  55  73  95 125 160 200 247 293
#     4  10  20  32  47  70 101 135 166 196 234 281
#
# _framework density 17.519355000000001
#
# number of rings (size 3 to 8) (size 9 to 14) (size 15 to 20)
#    0.000    2.600    0.000    1.800    0.000    6.800 
#    0.000    1.000    0.000   10.800    0.000    0.000 
#    0.000    0.000    0.000    0.000    0.000    0.000 
#
# Total GULP energy -496083.661571 kJ/mol
# GULP energy per Si atom -12402.091539 kJ/mol
# Density = 1.747948 g / cm^3
# Si number density = 17.519355 Si / 1000 Ang^3
#
#
#
# Elastic Constant Matrix: (Units=GPa)
#
#
# Indices 1 2 3 4 5 6 
#
# 1 62.6301 51.6942 53.5301 0.0000 0.0000 0.0000
# 2 51.6942 129.5748 76.5319 0.0000 0.0000 0.0000
# 3 53.5301 76.5319 126.6686 0.0000 0.0000 0.0000
# 4 0.0000 0.0000 0.0000 18.1667 0.0000 0.0000
# 5 0.0000 0.0000 0.0000 0.0000 31.5686 0.0000
# 6 0.0000 0.0000 0.0000 0.0000 0.0000 25.1150
#
#
#
# Elastic Compliance Matrix: (Units=1/GPa)
#
#
# Indices 1 2 3 4 5 6 
#
# 1 0.028158 -0.006539 -0.007949 0.000000 0.000000 0.000000
# 2 -0.006539 0.013518 -0.005404 0.000000 0.000000 0.000000
# 3 -0.007949 -0.005404 0.014519 0.000000 0.000000 0.000000
# 4 0.000000 0.000000 0.000000 0.055046 0.000000 0.000000
# 5 0.000000 0.000000 0.000000 0.000000 0.031677 0.000000
# 6 0.000000 0.000000 0.000000 0.000000 0.000000 0.039817
#
#
# Mechanical properties :
#
#
# Convention : Reuss Voigt Hill
#
# Bulk Modulus (GPa) = 60.93392 75.82065 68.37728
# Shear Modulus (GPa) = 21.93096 24.11121 23.02108
#
# Velocity S-wave (km/s) = 3.54194 3.71382 3.62890
# Velocity P-wave (km/s) = 7.18216 7.85889 7.52814
#
# Compressibility (1/GPa) = 0.01641122
#
# Stress axis : x y z
#
# Youngs Moduli (GPa) = 35.51449 73.97459 68.87540
#
# Poissons Ratio (x) = 0.48370 0.54747
# Poissons Ratio (y) = 0.23222 0.37222
# Poissons Ratio (z) = 0.28230 0.39978
#
# Static dielectric constant tensor:
#      x y z
#    x 3.203640 0.000000 0.000000 
#    y 0.000000 3.174370 0.000000 
#    z 0.000000 0.000000 3.392410 
# 
# 
# High freq. dielectric constant tensor:
#      x y z
#    x 1.674470 0.000000 0.000000 
#    y 0.000000 1.662730 0.000000 
#    z 0.000000 0.000000 1.682760 
# 
# From -- ./inp_files/19832.got.cif
#   From: 2010.03.12/outbox.cif.g09.slc.cpg/sg53_10_cif.got.tgz:19832.got - 2010.04.16 14:36:59.
