data_PCOD8218325
_publ_section_title
;
Structure prediction by ZEFSAII (Michael W. Deem and Ramdas Pophale) SiO2 
 PCOD8218325
Probable space group: P M N A
;
_chemical_formula_sum "Si O2"
_cell_formula_units_Z 64
_cell_length_a 9.004706
_cell_length_b 18.036236
_cell_length_c 25.307933
_cell_angle_alpha 90.000000
_cell_angle_beta 90.000000
_cell_angle_gamma 90.000000
_cell_volume 4110.286770
_symmetry_space_group_name_H-M "P M N A"
_symmetry_group_IT_number 53
_symmetry_cell_setting 'orthorhombic'
loop_
_space_group_symop_operation_xyz
x,y,z
1/2-x,-y,1/2+z
x,-y,-z
1/2-x,y,1/2-z
-x,-y,-z
1/2+x,y,1/2-z
-x,y,z
1/2+x,-y,1/2+z
loop_
_atom_site_type_symbol
_atom_site_label
_atom_site_fract_x
_atom_site_fract_y
_atom_site_fract_z
Si Si1 0.327099 0.802201 0.305971
Si Si2 0.827047 0.361636 0.806472
Si Si3 0.326558 0.500230 0.193128
Si Si4 0.832834 0.911885 0.501157
Si Si5 0.675026 0.089067 0.603847
Si Si6 0.674106 0.339176 0.193323
Si Si7 0.324832 0.196534 0.306654
Si Si8 0.672744 0.080340 0.394858
O O1 0.250000 0.814499 0.250000
O O2 0.500000 0.814880 0.295630
O O3 0.299340 0.719933 0.331046
O O4 0.264337 0.861416 0.347810
O O5 0.750000 0.359584 0.750000
O O6 0.749426 0.430376 0.838633
O O7 0.000000 0.379099 0.801084
O O8 0.250000 0.496349 0.250000
O O9 0.500000 0.516306 0.199792
O O10 0.301502 0.419648 0.164899
O O11 0.747993 0.880586 0.449995
O O12 0.756663 0.884083 0.555048
O O13 0.000000 0.881802 0.499923
O O14 0.825217 0.000000 0.500000
O O15 0.500000 0.097866 0.597368
O O16 0.721848 0.004380 0.615608
O O17 0.750000 0.342647 0.250000
O O18 0.500000 0.322179 0.199250
O O19 0.755145 0.269996 0.164522
O O20 0.250000 0.182295 0.250000
O O21 0.500000 0.207105 0.299655
O O22 0.286056 0.126328 0.342846
O O23 0.500000 0.084591 0.408362
#
# Coordination Sequence:
#
# PCOD8218325 Si02
#       8
#     8   8   8   8   8   8   8   8
#     4   9  18  29  41  59  84 115 145 172 203 242
#     4   9  15  23  35  52  75 103 135 167 200 236
#     4   9  15  22  34  52  72  98 133 167 200 239
#     4   9  17  29  46  67  84  99 129 175 219 251
#     4   9  17  31  47  61  82 111 141 172 208 248
#     4   9  16  25  37  53  75 104 136 168 203 241
#     4  10  19  29  41  59  84 113 144 172 203 244
#     4   9  18  31  46  62  81 110 142 171 207 250
#
# _framework density 15.570689
#
# number of rings (size 3 to 8) (size 9 to 14) (size 15 to 20)
#    0.000    2.875    0.000    3.375    0.000    5.500 
#    0.000    0.000    0.000    0.000    0.000    0.000 
#    0.000    1.000    0.000   11.250    0.000    6.375 
#
# Total GULP energy -792870.643945 kJ/mol
# GULP energy per Si atom -12388.603812 kJ/mol
# Density = 1.553525 g / cm^3
# Si number density = 15.570689 Si / 1000 Ang^3
#
#
#
# Elastic Constant Matrix: (Units=GPa)
#
#
# Indices 1 2 3 4 5 6 
#
# 1 84.0591 49.6332 38.7963 0.0000 0.0000 0.0000
# 2 49.6332 111.4115 51.3512 0.0000 0.0000 0.0000
# 3 38.7963 51.3512 72.2638 0.0000 0.0000 0.0000
# 4 0.0000 0.0000 0.0000 1.6904 0.0000 0.0000
# 5 0.0000 0.0000 0.0000 0.0000 18.2267 0.0000
# 6 0.0000 0.0000 0.0000 0.0000 0.0000 71.3212
#
#
#
# Elastic Compliance Matrix: (Units=1/GPa)
#
#
# Indices 1 2 3 4 5 6 
#
# 1 0.017627 -0.005191 -0.005774 0.000000 0.000000 0.000000
# 2 -0.005191 0.014876 -0.007784 0.000000 0.000000 0.000000
# 3 -0.005774 -0.007784 0.022470 0.000000 0.000000 0.000000
# 4 0.000000 0.000000 0.000000 0.591565 0.000000 0.000000
# 5 0.000000 0.000000 0.000000 0.000000 0.054865 0.000000
# 6 0.000000 0.000000 0.000000 0.000000 0.000000 0.014021
#
#
# Mechanical properties :
#
#
# Convention : Reuss Voigt Hill
#
# Bulk Modulus (GPa) = 57.23030 60.81067 59.02048
# Shear Modulus (GPa) = 6.58981 26.77791 16.68386
#
# Velocity S-wave (km/s) = 2.05946 4.15150 3.27692
# Velocity P-wave (km/s) = 6.51844 7.88158 7.23220
#
# Compressibility (1/GPa) = 0.01747326
#
# Stress axis : x y z
#
# Youngs Moduli (GPa) = 56.73257 67.22168 44.50418
#
# Poissons Ratio (x) = 0.34895 0.25699
# Poissons Ratio (y) = 0.29450 0.34643
# Poissons Ratio (z) = 0.32760 0.52327
#
# Static dielectric constant tensor:
#      x y z
#    x 3.097950 0.000000 0.000000 
#    y 0.000000 3.938030 0.000000 
#    z 0.000000 0.000000 2.613620 
# 
# 
# High freq. dielectric constant tensor:
#      x y z
#    x 1.610940 0.000000 0.000000 
#    y 0.000000 1.604040 0.000000 
#    z 0.000000 0.000000 1.537490 
# 
# From -- ./inp_files/36512.got.cif
#   From: 2010.03.12/outbox.cif.g09.slc.cpg/sg53_19_cif.got.tgz:36512.got - 2010.04.16 14:36:59.
