data_PCOD8218226
_publ_section_title
;
Structure prediction by ZEFSAII (Michael W. Deem and Ramdas Pophale) SiO2 
 PCOD8218226
Probable space group: P M N A
;
_chemical_formula_sum "Si O2"
_cell_formula_units_Z 48
_cell_length_a 8.495046
_cell_length_b 16.492458
_cell_length_c 18.080011
_cell_angle_alpha 90.000000
_cell_angle_beta 90.000000
_cell_angle_gamma 90.000000
_cell_volume 2533.085285
_symmetry_space_group_name_H-M "P M N A"
_symmetry_group_IT_number 53
_symmetry_cell_setting 'orthorhombic'
loop_
_space_group_symop_operation_xyz
x,y,z
1/2-x,-y,1/2+z
x,-y,-z
1/2-x,y,1/2-z
-x,-y,-z
1/2+x,y,1/2-z
-x,y,z
1/2+x,-y,1/2+z
loop_
_atom_site_type_symbol
_atom_site_label
_atom_site_fract_x
_atom_site_fract_y
_atom_site_fract_z
Si Si1 0.314868 0.832804 0.327625
Si Si2 0.313061 0.348134 0.168264
Si Si3 0.315137 0.086294 0.969796
Si Si4 0.684580 0.496809 0.917622
Si Si5 0.815269 0.237748 0.045985
Si Si6 0.315925 0.682918 0.095034
O O1 0.250000 0.866670 0.250000
O O2 0.500000 0.823122 0.324009
O O3 0.270261 0.895283 0.392255
O O4 0.240185 0.744034 0.341457
O O5 0.250000 0.340142 0.250000
O O6 0.500000 0.345957 0.167672
O O7 0.244829 0.431865 0.133299
O O8 0.246715 0.271897 0.123240
O O9 0.500000 0.087077 0.954771
O O10 0.270883 0.152717 0.030984
O O11 0.256796 0.000000 0.000000
O O12 0.500000 0.512216 0.924604
O O13 0.720786 0.409411 0.880466
O O14 0.758974 0.500000 0.000000
O O15 0.000000 0.222213 0.049290
O O16 0.775570 0.300872 0.981050
O O17 0.500000 0.695928 0.079350
#
# Coordination Sequence:
#
# PCOD8218226 Si02
#       6
#     8   8   8   8   8   8
#     4  11  22  37  57  84 119 153 188 231 284 336
#     4  11  22  38  56  78 111 148 192 240 289 336
#     4  10  21  39  64  91 116 146 185 227 277 338
#     4   9  17  32  55  80 107 148 192 235 284 333
#     4  11  21  35  56  83 112 146 186 226 274 331
#     4  10  18  33  57  82 110 147 190 232 279 334
#
# _framework density 18.949224000000001
#
# number of rings (size 3 to 8) (size 9 to 14) (size 15 to 20)
#    0.000    1.667    1.667    6.500    0.000    2.000 
#    0.000    6.667    0.000    4.000    0.000    0.000 
#    0.000    0.000    0.000    0.000    0.000    0.000 
#
# Total GULP energy -595277.491932 kJ/mol
# GULP energy per Si atom -12401.614415 kJ/mol
# Density = 1.890609 g / cm^3
# Si number density = 18.949224 Si / 1000 Ang^3
#
#
#
# Elastic Constant Matrix: (Units=GPa)
#
#
# Indices 1 2 3 4 5 6 
#
# 1 49.5716 16.1001 11.7970 0.0000 0.0000 0.0000
# 2 16.1001 127.2364 61.4520 0.0000 0.0000 0.0000
# 3 11.7970 61.4520 127.4169 0.0000 0.0000 0.0000
# 4 0.0000 0.0000 0.0000 17.4758 0.0000 0.0000
# 5 0.0000 0.0000 0.0000 0.0000 31.6405 0.0000
# 6 0.0000 0.0000 0.0000 0.0000 0.0000 14.4769
#
#
#
# Elastic Compliance Matrix: (Units=1/GPa)
#
#
# Indices 1 2 3 4 5 6 
#
# 1 0.021111 -0.002252 -0.000869 0.000000 0.000000 0.000000
# 2 -0.002252 0.010486 -0.004849 0.000000 0.000000 0.000000
# 3 -0.000869 -0.004849 0.010267 0.000000 0.000000 0.000000
# 4 0.000000 0.000000 0.000000 0.057222 0.000000 0.000000
# 5 0.000000 0.000000 0.000000 0.000000 0.031605 0.000000
# 6 0.000000 0.000000 0.000000 0.000000 0.000000 0.069075
#
#
# Mechanical properties :
#
#
# Convention : Reuss Voigt Hill
#
# Bulk Modulus (GPa) = 38.57163 53.65813 46.11488
# Shear Modulus (GPa) = 22.28686 27.04370 24.66528
#
# Velocity S-wave (km/s) = 3.43320 3.78188 3.61175
# Velocity P-wave (km/s) = 6.00960 6.88828 6.46389
#
# Compressibility (1/GPa) = 0.02592579
#
# Stress axis : x y z
#
# Youngs Moduli (GPa) = 47.36896 95.36312 97.39695
#
# Poissons Ratio (x) = 0.21474 0.08459
# Poissons Ratio (y) = 0.10667 0.47227
# Poissons Ratio (z) = 0.04114 0.46241
#
# Static dielectric constant tensor:
#      x y z
#    x 3.437740 0.000000 0.000000 
#    y 0.000000 3.594740 0.000000 
#    z 0.000000 0.000000 3.514230 
# 
# 
# High freq. dielectric constant tensor:
#      x y z
#    x 1.736660 0.000000 0.000000 
#    y 0.000000 1.733680 0.000000 
#    z 0.000000 0.000000 1.727700 
# 
# From -- ./inp_files/26436.got.cif
#   From: 2010.03.12/outbox.cif.g09.slc.cpg/sg53_14_cif.got.tgz:26436.got - 2010.04.16 14:36:59.
