data_PCOD8218231
_publ_section_title
;
Structure prediction by ZEFSAII (Michael W. Deem and Ramdas Pophale) SiO2 
 PCOD8218231
Probable space group: P M N A
;
_chemical_formula_sum "Si O2"
_cell_formula_units_Z 48
_cell_length_a 14.473534
_cell_length_b 10.103310
_cell_length_c 18.774064
_cell_angle_alpha 90.000000
_cell_angle_beta 90.000000
_cell_angle_gamma 90.000000
_cell_volume 2745.342658
_symmetry_space_group_name_H-M "P M N A"
_symmetry_group_IT_number 53
_symmetry_cell_setting 'orthorhombic'
loop_
_space_group_symop_operation_xyz
x,y,z
1/2-x,-y,1/2+z
x,-y,-z
1/2-x,y,1/2-z
-x,-y,-z
1/2+x,y,1/2-z
-x,y,z
1/2+x,-y,1/2+z
loop_
_atom_site_type_symbol
_atom_site_label
_atom_site_fract_x
_atom_site_fract_y
_atom_site_fract_z
Si Si1 0.500000 0.786954 0.728849
Si Si2 0.500000 0.786726 0.890530
Si Si3 0.304535 0.476980 0.678472
Si Si4 0.500000 0.525738 0.269652
Si Si5 0.803182 0.214029 0.176602
Si Si6 0.195097 0.615469 0.449605
Si Si7 0.000000 0.531708 0.391830
Si Si8 0.809257 0.866413 0.543400
O O1 0.500000 0.840057 0.809567
O O2 0.500000 0.630668 0.736837
O O3 0.590934 0.833729 0.686290
O O4 0.500000 0.627525 0.896395
O O5 0.587698 0.848259 0.928767
O O6 0.250000 0.450823 0.750000
O O7 0.409776 0.427823 0.687553
O O8 0.296596 0.630949 0.657393
O O9 0.258010 0.384656 0.620150
O O10 0.500000 0.582264 0.189506
O O11 0.750000 0.184138 0.250000
O O12 0.759732 0.133763 0.111014
O O13 0.231755 0.500000 0.500000
O O14 0.214178 0.752667 0.487662
O O15 0.087912 0.592264 0.431350
O O16 0.797354 0.000000 0.500000
#
# Coordination Sequence:
#
# PCOD8218231 Si02
#       8
#     4   4   8   4   8   8   4   8
#     4   9  18  30  61  89 106 142 199 241 268 330
#     4  11  18  35  59  90 116 141 185 241 290 336
#     4  10  18  33  57  86 115 147 190 236 279 340
#     4   9  18  30  54  91 117 138 189 243 284 324
#     4  10  18  35  59  84 113 147 193 234 277 341
#     4  12  21  35  57  85 116 147 185 230 292 341
#     4  11  18  32  60  90 115 146 183 239 286 346
#     4  12  25  38  55  85 123 153 186 237 290 337
#
# _framework density 17.484155999999999
#
# number of rings (size 3 to 8) (size 9 to 14) (size 15 to 20)
#    0.000    1.333    6.667    1.000    0.000    0.000 
#    0.000    2.500    0.000    0.000    0.000    0.000 
#    0.000    0.000    0.000    0.000    0.000    0.000 
#
# Total GULP energy -595219.809509 kJ/mol
# GULP energy per Si atom -12400.412698 kJ/mol
# Density = 1.744436 g / cm^3
# Si number density = 17.484156 Si / 1000 Ang^3
#
#
#
# Elastic Constant Matrix: (Units=GPa)
#
#
# Indices 1 2 3 4 5 6 
#
# 1 136.4745 32.3191 62.3724 0.0000 0.0000 0.0000
# 2 32.3191 81.9073 56.7630 0.0000 0.0000 0.0000
# 3 62.3724 56.7630 126.9403 0.0000 0.0000 0.0000
# 4 0.0000 0.0000 0.0000 11.1719 0.0000 0.0000
# 5 0.0000 0.0000 0.0000 0.0000 7.2216 0.0000
# 6 0.0000 0.0000 0.0000 0.0000 0.0000 -25.1613
#
#
#
# Elastic Compliance Matrix: (Units=1/GPa)
#
#
# Indices 1 2 3 4 5 6 
#
# 1 0.009480 -0.000743 -0.004326 0.000000 0.000000 0.000000
# 2 -0.000743 0.017749 -0.007572 0.000000 0.000000 0.000000
# 3 -0.004326 -0.007572 0.013389 0.000000 0.000000 0.000000
# 4 0.000000 0.000000 0.000000 0.089510 0.000000 0.000000
# 5 0.000000 0.000000 0.000000 0.000000 0.138473 0.000000
# 6 0.000000 0.000000 0.000000 0.000000 0.000000 -0.039744
#
#
# Mechanical properties :
#
#
# Convention : Reuss Voigt Hill
#
# Bulk Modulus (GPa) = 65.19946 72.02566 68.61256
# Shear Modulus (GPa) = 19.28616 11.57096 15.42856
#
# Velocity S-wave (km/s) = 3.32485 2.57533 2.97380
# Velocity P-wave (km/s) = 7.21880 7.08007 7.14977
#
# Compressibility (1/GPa) = 0.01533755
#
# Stress axis : x y z
#
# Youngs Moduli (GPa) = 105.48078 56.33963 74.68672
#
# Poissons Ratio (x) = 0.04185 0.32310
# Poissons Ratio (y) = 0.07835 0.56553
# Poissons Ratio (z) = 0.45632 0.42660
#
# Static dielectric constant tensor:
#      x y z
#    x 3.659160 0.000000 0.000000 
#    y 0.000000 2.760640 0.000000 
#    z 0.000000 0.000000 3.377440 
# 
# 
# High freq. dielectric constant tensor:
#      x y z
#    x 1.685050 0.000000 0.000000 
#    y 0.000000 1.623590 0.000000 
#    z 0.000000 0.000000 1.690280 
# 
# From -- ./inp_files/28342.got.cif
#   From: 2010.03.12/outbox.cif.g09.slc.cpg/sg53_15_cif.got.tgz:28342.got - 2010.04.16 14:36:59.
