data_PCOD8218265
_publ_section_title
;
Structure prediction by ZEFSAII (Michael W. Deem and Ramdas Pophale) SiO2 
 PCOD8218265
Probable space group: P M N A
;
_chemical_formula_sum "Si O2"
_cell_formula_units_Z 48
_cell_length_a 8.719611
_cell_length_b 16.494153
_cell_length_c 17.855444
_cell_angle_alpha 90.000000
_cell_angle_beta 90.000000
_cell_angle_gamma 90.000000
_cell_volume 2568.016343
_symmetry_space_group_name_H-M "P M N A"
_symmetry_group_IT_number 53
_symmetry_cell_setting 'orthorhombic'
loop_
_space_group_symop_operation_xyz
x,y,z
1/2-x,-y,1/2+z
x,-y,-z
1/2-x,y,1/2-z
-x,-y,-z
1/2+x,y,1/2-z
-x,y,z
1/2+x,-y,1/2+z
loop_
_atom_site_type_symbol
_atom_site_label
_atom_site_fract_x
_atom_site_fract_y
_atom_site_fract_z
Si Si1 0.175351 0.500509 0.588874
Si Si2 0.179797 0.648189 0.168856
Si Si3 0.678914 0.909166 0.524829
Si Si4 0.818445 0.839006 0.671304
Si Si5 0.819008 0.321945 0.404272
Si Si6 0.182189 0.762611 0.446693
O O1 0.184073 0.500000 0.500000
O O2 0.284196 0.432495 0.622207
O O3 0.239426 0.588188 0.617434
O O4 0.000000 0.484688 0.615115
O O5 0.250000 0.638304 0.250000
O O6 0.251545 0.727644 0.130297
O O7 0.000000 0.660243 0.174841
O O8 0.500000 0.889783 0.530648
O O9 0.754316 0.895902 0.605962
O O10 0.754305 0.852482 0.461455
O O11 0.712538 0.000000 0.500000
O O12 0.750000 0.867918 0.750000
O O13 0.768187 0.745276 0.656513
O O14 0.000000 0.847941 0.672554
O O15 0.758297 0.295078 0.485935
O O16 0.000000 0.326262 0.410715
O O17 0.000000 0.766163 0.441926
#
# Coordination Sequence:
#
# PCOD8218265 Si02
#       6
#     8   8   8   8   8   8
#     4  10  18  34  58  81 112 151 192 238 286 334
#     4  12  25  39  55  80 114 152 196 242 291 338
#     4  10  21  38  61  90 120 149 185 229 279 342
#     4  10  20  35  56  83 117 153 191 235 287 338
#     4   8  16  31  54  81 108 145 185 225 276 333
#     4  10  19  37  61  84 110 145 187 230 281 338
#
# _framework density 18.691471
#
# number of rings (size 3 to 8) (size 9 to 14) (size 15 to 20)
#    0.000    2.000    1.667    4.000    0.000    2.333 
#    0.000    4.167    0.000    4.000    0.000    0.000 
#    0.000    0.000    0.000    0.000    0.000    0.000 
#
# Total GULP energy -595180.526251 kJ/mol
# GULP energy per Si atom -12399.594297 kJ/mol
# Density = 1.864893 g / cm^3
# Si number density = 18.691471 Si / 1000 Ang^3
#
#
#
# Elastic Constant Matrix: (Units=GPa)
#
#
# Indices 1 2 3 4 5 6 
#
# 1 107.5242 56.1541 44.7847 0.0000 0.0000 0.0000
# 2 56.1541 117.5718 49.2678 0.0000 0.0000 0.0000
# 3 44.7847 49.2678 93.6513 0.0000 0.0000 0.0000
# 4 0.0000 0.0000 0.0000 19.4250 0.0000 0.0000
# 5 0.0000 0.0000 0.0000 0.0000 29.2282 0.0000
# 6 0.0000 0.0000 0.0000 0.0000 0.0000 28.1347
#
#
#
# Elastic Compliance Matrix: (Units=1/GPa)
#
#
# Indices 1 2 3 4 5 6 
#
# 1 0.013420 -0.004772 -0.003907 0.000000 0.000000 0.000000
# 2 -0.004772 0.012608 -0.004351 0.000000 0.000000 0.000000
# 3 -0.003907 -0.004351 0.014835 0.000000 0.000000 0.000000
# 4 0.000000 0.000000 0.000000 0.051480 0.000000 0.000000
# 5 0.000000 0.000000 0.000000 0.000000 0.034213 0.000000
# 6 0.000000 0.000000 0.000000 0.000000 0.000000 0.035543
#
#
# Mechanical properties :
#
#
# Convention : Reuss Voigt Hill
#
# Bulk Modulus (GPa) = 67.55326 68.79561 68.17444
# Shear Modulus (GPa) = 25.89422 26.59363 26.24393
#
# Velocity S-wave (km/s) = 3.72607 3.77605 3.75114
# Velocity P-wave (km/s) = 7.39805 7.47644 7.43735
#
# Compressibility (1/GPa) = 0.01480313
#
# Stress axis : x y z
#
# Youngs Moduli (GPa) = 74.51675 79.31550 67.40876
#
# Poissons Ratio (x) = 0.37852 0.26335
# Poissons Ratio (y) = 0.35562 0.29326
# Poissons Ratio (z) = 0.29112 0.34506
#
# Static dielectric constant tensor:
#      x y z
#    x 3.371580 0.000000 0.000000 
#    y 0.000000 3.655720 0.000000 
#    z 0.000000 0.000000 3.391960 
# 
# 
# High freq. dielectric constant tensor:
#      x y z
#    x 1.721170 0.000000 0.000000 
#    y 0.000000 1.725580 0.000000 
#    z 0.000000 0.000000 1.716600 
# 
# From -- ./inp_files/26265.got.cif
#   From: 2010.03.12/outbox.cif.g09.slc.cpg/sg53_14_cif.got.tgz:26265.got - 2010.04.16 14:36:59.
