data_PCOD8218236
_publ_section_title
;
Structure prediction by ZEFSAII (Michael W. Deem and Ramdas Pophale) SiO2 
 PCOD8218236
Probable space group: P M N A
;
_chemical_formula_sum "Si O2"
_cell_formula_units_Z 48
_cell_length_a 8.707534
_cell_length_b 14.493819
_cell_length_c 20.527838
_cell_angle_alpha 90.000000
_cell_angle_beta 90.000000
_cell_angle_gamma 90.000000
_cell_volume 2590.724452
_symmetry_space_group_name_H-M "P M N A"
_symmetry_group_IT_number 53
_symmetry_cell_setting 'orthorhombic'
loop_
_space_group_symop_operation_xyz
x,y,z
1/2-x,-y,1/2+z
x,-y,-z
1/2-x,y,1/2-z
-x,-y,-z
1/2+x,y,1/2-z
-x,y,z
1/2+x,-y,1/2+z
loop_
_atom_site_type_symbol
_atom_site_label
_atom_site_fract_x
_atom_site_fract_y
_atom_site_fract_z
Si Si1 0.681809 0.741287 0.521752
Si Si2 0.180587 0.444937 0.435832
Si Si3 0.818207 0.942956 0.939309
Si Si4 0.682403 0.059526 0.681398
Si Si5 0.318274 0.555580 0.318699
Si Si6 0.182137 0.748077 0.126558
O O1 0.500000 0.723004 0.525305
O O2 0.771976 0.661250 0.558711
O O3 0.729742 0.836215 0.556951
O O4 0.740930 0.745618 0.447534
O O5 0.235780 0.500000 0.500000
O O6 0.266031 0.484621 0.373400
O O7 0.000000 0.454582 0.425552
O O8 0.000000 0.952811 0.942604
O O9 0.757211 0.986436 0.872019
O O10 0.747429 0.000000 0.000000
O O11 0.750000 0.028095 0.750000
O O12 0.500000 0.060094 0.685133
O O13 0.746209 0.160998 0.662429
O O14 0.250000 0.523774 0.250000
O O15 0.500000 0.554647 0.314569
O O16 0.255908 0.657942 0.336005
O O17 0.000000 0.750976 0.125805
#
# Coordination Sequence:
#
# PCOD8218236 Si02
#       6
#     8   8   8   8   8   8
#     4  10  18  33  58  85 107 138 187 233 274 324
#     4  11  23  38  56  81 113 147 185 232 280 329
#     4   9  16  30  56  82 105 137 184 232 265 311
#     4  10  19  33  52  80 113 145 178 219 271 325
#     4  11  22  37  57  83 114 148 184 227 278 336
#     4   9  17  30  54  83 111 140 177 224 273 327
#
# _framework density 18.527636000000001
#
# number of rings (size 3 to 8) (size 9 to 14) (size 15 to 20)
#    0.000    2.000    3.333    1.500    0.000    0.667 
#    0.000    3.333    0.000    3.000    0.000    0.000 
#    0.000    0.000    0.000    0.000    0.000    0.000 
#
# Total GULP energy -595287.089012 kJ/mol
# GULP energy per Si atom -12401.814354 kJ/mol
# Density = 1.848547 g / cm^3
# Si number density = 18.527636 Si / 1000 Ang^3
#
#
#
# Elastic Constant Matrix: (Units=GPa)
#
#
# Indices 1 2 3 4 5 6 
#
# 1 34.1640 23.7139 28.4265 0.0000 0.0000 0.0000
# 2 23.7139 130.7171 76.0714 0.0000 0.0000 0.0000
# 3 28.4265 76.0714 164.1520 0.0000 0.0000 0.0000
# 4 0.0000 0.0000 0.0000 27.3768 0.0000 0.0000
# 5 0.0000 0.0000 0.0000 0.0000 24.7122 0.0000
# 6 0.0000 0.0000 0.0000 0.0000 0.0000 11.5709
#
#
#
# Elastic Compliance Matrix: (Units=1/GPa)
#
#
# Indices 1 2 3 4 5 6 
#
# 1 0.035616 -0.003932 -0.004345 0.000000 0.000000 0.000000
# 2 -0.003932 0.010909 -0.004375 0.000000 0.000000 0.000000
# 3 -0.004345 -0.004375 0.008872 0.000000 0.000000 0.000000
# 4 0.000000 0.000000 0.000000 0.036527 0.000000 0.000000
# 5 0.000000 0.000000 0.000000 0.000000 0.040466 0.000000
# 6 0.000000 0.000000 0.000000 0.000000 0.000000 0.086424
#
#
# Mechanical properties :
#
#
# Convention : Reuss Voigt Hill
#
# Bulk Modulus (GPa) = 33.23135 65.05073 49.14104
# Shear Modulus (GPa) = 19.67351 26.12007 22.89679
#
# Velocity S-wave (km/s) = 3.26213 3.75879 3.51923
# Velocity P-wave (km/s) = 5.67131 7.35012 6.56460
#
# Compressibility (1/GPa) = 0.03009207
#
# Stress axis : x y z
#
# Youngs Moduli (GPa) = 28.07752 91.66457 112.71820
#
# Poissons Ratio (x) = 0.36047 0.48979
# Poissons Ratio (y) = 0.11041 0.49310
# Poissons Ratio (z) = 0.12200 0.40100
#
# Static dielectric constant tensor:
#      x y z
#    x 3.007160 0.000000 0.000000 
#    y 0.000000 3.555610 0.000000 
#    z 0.000000 0.000000 3.481870 
# 
# 
# High freq. dielectric constant tensor:
#      x y z
#    x 1.684960 0.000000 0.000000 
#    y 0.000000 1.723760 0.000000 
#    z 0.000000 0.000000 1.721860 
# 
# From -- ./inp_files/30536.got.cif
#   From: 2010.03.12/outbox.cif.g09.slc.cpg/sg53_16_cif.got.tgz:30536.got - 2010.04.16 14:36:59.
