data_PCOD8218881
_publ_section_title
;
Structure prediction by ZEFSAII (Michael W. Deem and Ramdas Pophale) SiO2 
 PCOD8218881
Probable space group: P M N A
;
_chemical_formula_sum "Si O2"
_cell_formula_units_Z 64
_cell_length_a 9.161880
_cell_length_b 20.048381
_cell_length_c 19.495162
_cell_angle_alpha 90.000000
_cell_angle_beta 90.000000
_cell_angle_gamma 90.000000
_cell_volume 3580.888140
_symmetry_space_group_name_H-M "P M N A"
_symmetry_group_IT_number 53
_symmetry_cell_setting 'orthorhombic'
loop_
_space_group_symop_operation_xyz
x,y,z
1/2-x,-y,1/2+z
x,-y,-z
1/2-x,y,1/2-z
-x,-y,-z
1/2+x,y,1/2-z
-x,y,z
1/2+x,-y,1/2+z
loop_
_atom_site_type_symbol
_atom_site_label
_atom_site_fract_x
_atom_site_fract_y
_atom_site_fract_z
Si Si1 0.828831 0.191762 0.537985
Si Si2 0.329705 0.561704 0.047199
Si Si3 0.670356 0.632533 0.681210
Si Si4 0.159224 0.792150 0.312453
Si Si5 0.338057 0.050535 0.813154
Si Si6 0.171061 0.522792 0.180677
Si Si7 0.834215 0.059940 0.947687
Si Si8 0.331672 0.317904 0.051278
O O1 0.773389 0.221102 0.611723
O O2 0.741616 0.124918 0.519117
O O3 0.800373 0.244760 0.478446
O O4 0.000000 0.173885 0.545603
O O5 0.500000 0.556573 0.066304
O O6 0.237288 0.563094 0.116936
O O7 0.281074 0.500000 0.000000
O O8 0.290941 0.628917 0.006989
O O9 0.750000 0.657223 0.750000
O O10 0.500000 0.647013 0.689258
O O11 0.703447 0.555023 0.668025
O O12 0.731599 0.674206 0.617580
O O13 0.250000 0.759451 0.250000
O O14 0.148876 0.870904 0.301692
O O15 0.000000 0.758806 0.308099
O O16 0.250000 0.017817 0.750000
O O17 0.500000 0.018825 0.817095
O O18 0.250968 0.033883 0.881644
O O19 0.250000 0.547073 0.250000
O O20 0.000000 0.537633 0.187042
O O21 0.000000 0.078489 0.927690
O O22 0.829071 0.000000 0.000000
O O23 0.500000 0.327056 0.073011
#
# Coordination Sequence:
#
# PCOD8218881 Si02
#       8
#     8   8   8   8   8   8   8   8
#     4   9  19  34  51  73 102 137 173 211 256 307
#     4  10  19  32  52  76 103 136 170 207 257 308
#     4  10  20  33  52  77 102 131 171 217 262 309
#     4   8  14  25  42  65  91 122 160 197 235 280
#     4   9  16  27  46  72 101 131 165 205 248 296
#     4  10  20  33  51  74 103 136 174 219 261 307
#     4  10  20  33  51  76 105 136 171 212 257 306
#     4  10  20  35  54  76 105 138 172 213 260 311
#
# _framework density 17.872661000000001
#
# number of rings (size 3 to 8) (size 9 to 14) (size 15 to 20)
#    0.000    2.500    1.250    2.250    0.000    6.250 
#    0.000    0.625    0.000    2.250    0.000    5.250 
#    0.000    0.000    0.000    0.000    0.000    0.000 
#
# Total GULP energy -793573.415900 kJ/mol
# GULP energy per Si atom -12399.584623 kJ/mol
# Density = 1.783198 g / cm^3
# Si number density = 17.872661 Si / 1000 Ang^3
#
#
#
# Elastic Constant Matrix: (Units=GPa)
#
#
# Indices 1 2 3 4 5 6 
#
# 1 115.8694 37.0760 74.0294 0.0000 0.0000 0.0000
# 2 37.0760 50.0211 36.1532 0.0000 0.0000 0.0000
# 3 74.0294 36.1532 129.1111 0.0000 0.0000 0.0000
# 4 0.0000 0.0000 0.0000 19.7868 0.0000 0.0000
# 5 0.0000 0.0000 0.0000 0.0000 38.4463 0.0000
# 6 0.0000 0.0000 0.0000 0.0000 0.0000 8.4641
#
#
#
# Elastic Compliance Matrix: (Units=1/GPa)
#
#
# Indices 1 2 3 4 5 6 
#
# 1 0.014987 -0.006140 -0.006874 0.000000 0.000000 0.000000
# 2 -0.006140 0.027580 -0.004202 0.000000 0.000000 0.000000
# 3 -0.006874 -0.004202 0.012863 0.000000 0.000000 0.000000
# 4 0.000000 0.000000 0.000000 0.050539 0.000000 0.000000
# 5 0.000000 0.000000 0.000000 0.000000 0.026010 0.000000
# 6 0.000000 0.000000 0.000000 0.000000 0.000000 0.118146
#
#
# Mechanical properties :
#
#
# Convention : Reuss Voigt Hill
#
# Bulk Modulus (GPa) = 47.62442 65.50207 56.56325
# Shear Modulus (GPa) = 17.14936 23.18897 20.16917
#
# Velocity S-wave (km/s) = 3.10099 3.60593 3.36295
# Velocity P-wave (km/s) = 6.28696 7.35295 6.84075
#
# Compressibility (1/GPa) = 0.02099763
#
# Stress axis : x y z
#
# Youngs Moduli (GPa) = 66.72526 36.25832 77.74138
#
# Poissons Ratio (x) = 0.22264 0.53437
# Poissons Ratio (y) = 0.40971 0.32668
# Poissons Ratio (z) = 0.45865 0.15236
#
# Static dielectric constant tensor:
#      x y z
#    x 3.477440 0.000000 0.000000 
#    y 0.000000 2.886780 0.000000 
#    z 0.000000 0.000000 3.384620 
# 
# 
# High freq. dielectric constant tensor:
#      x y z
#    x 1.698560 0.000000 0.000000 
#    y 0.000000 1.644940 0.000000 
#    z 0.000000 0.000000 1.699410 
# 
# From -- ./inp_files/31165.got.cif
#   From: 2010.03.12/outbox.cif.g09.slc.cpg/sg53_16_cif.got.tgz:31165.got - 2010.04.16 14:36:59.
