data_PCOD8218392
_publ_section_title
;
Structure prediction by ZEFSAII (Michael W. Deem and Ramdas Pophale) SiO2 
 PCOD8218392
Probable space group: P M N A
;
_chemical_formula_sum "Si O2"
_cell_formula_units_Z 64
_cell_length_a 9.004074
_cell_length_b 15.193769
_cell_length_c 30.470739
_cell_angle_alpha 90.000000
_cell_angle_beta 90.000000
_cell_angle_gamma 90.000000
_cell_volume 4168.574448
_symmetry_space_group_name_H-M "P M N A"
_symmetry_group_IT_number 53
_symmetry_cell_setting 'orthorhombic'
loop_
_space_group_symop_operation_xyz
x,y,z
1/2-x,-y,1/2+z
x,-y,-z
1/2-x,y,1/2-z
-x,-y,-z
1/2+x,y,1/2-z
-x,y,z
1/2+x,-y,1/2+z
loop_
_atom_site_type_symbol
_atom_site_label
_atom_site_fract_x
_atom_site_fract_y
_atom_site_fract_z
Si Si1 0.166813 0.397180 0.707395
Si Si2 0.828547 0.278537 0.451209
Si Si3 0.832403 0.393202 0.292834
Si Si4 0.825772 0.396204 0.119369
Si Si5 0.328730 0.083952 0.044432
Si Si6 0.328514 0.078347 0.548006
Si Si7 0.326878 0.401194 0.620395
Si Si8 0.827182 0.727909 0.043722
O O1 0.250000 0.358554 0.750000
O O2 0.171348 0.502067 0.708695
O O3 0.244236 0.363393 0.663103
O O4 0.000000 0.361118 0.708187
O O5 0.730941 0.342950 0.422219
O O6 0.810129 0.178705 0.432215
O O7 0.774237 0.284795 0.501181
O O8 0.000000 0.307727 0.449432
O O9 0.750000 0.354561 0.250000
O O10 0.750718 0.359467 0.336568
O O11 0.000000 0.357225 0.293221
O O12 0.783868 0.497809 0.111270
O O13 0.000000 0.382854 0.124695
O O14 0.500000 0.068747 0.031626
O O15 0.267552 0.999296 0.072484
O O16 0.224419 0.084965 0.002070
O O17 0.500000 0.051656 0.550743
O O18 0.301791 0.176600 0.567048
O O19 0.500000 0.390822 0.629902
O O20 0.276779 0.345627 0.578304
O O21 0.000000 0.717357 0.030228
#
# Coordination Sequence:
#
# PCOD8218392 Si02
#       8
#     8   8   8   8   8   8   8   8
#     4   9  16  26  42  62  82 105 134 170 211 250
#     4  10  20  31  42  58  82 112 144 177 210 245
#     4   9  16  27  43  62  83 105 133 170 211 252
#     4  10  19  30  44  60  81 112 146 177 208 242
#     4   9  16  26  40  57  78 103 130 165 211 253
#     4   9  15  24  41  61  78  99 130 168 208 248
#     4   9  18  31  44  59  82 112 144 175 207 244
#     4   9  18  31  44  59  82 112 143 174 208 246
#
# _framework density 15.352969
#
# number of rings (size 3 to 8) (size 9 to 14) (size 15 to 20)
#    0.000    2.750    0.000    3.000    0.000    6.500 
#    0.000    2.500    0.000    0.000    0.000    0.000 
#    0.000    1.000    0.000    7.750    0.000    4.750 
#
# Total GULP energy -793159.262253 kJ/mol
# GULP energy per Si atom -12393.113473 kJ/mol
# Density = 1.531803 g / cm^3
# Si number density = 15.352969 Si / 1000 Ang^3
#
#
#
# Elastic Constant Matrix: (Units=GPa)
#
#
# Indices 1 2 3 4 5 6 
#
# 1 81.7826 36.2300 40.3744 0.0000 0.0000 0.0000
# 2 36.2300 68.0574 39.7087 0.0000 0.0000 0.0000
# 3 40.3744 39.7087 77.5800 0.0000 0.0000 0.0000
# 4 0.0000 0.0000 0.0000 0.2130 0.0000 0.0000
# 5 0.0000 0.0000 0.0000 0.0000 26.0615 0.0000
# 6 0.0000 0.0000 0.0000 0.0000 0.0000 19.6451
#
#
#
# Elastic Compliance Matrix: (Units=1/GPa)
#
#
# Indices 1 2 3 4 5 6 
#
# 1 0.017955 -0.005855 -0.006347 0.000000 0.000000 0.000000
# 2 -0.005855 0.022859 -0.008653 0.000000 0.000000 0.000000
# 3 -0.006347 -0.008653 0.020622 0.000000 0.000000 0.000000
# 4 0.000000 0.000000 0.000000 4.695075 0.000000 0.000000
# 5 0.000000 0.000000 0.000000 0.000000 0.038371 0.000000
# 6 0.000000 0.000000 0.000000 0.000000 0.000000 0.050903
#
#
# Mechanical properties :
#
#
# Convention : Reuss Voigt Hill
#
# Bulk Modulus (GPa) = 50.69604 51.11626 50.90615
# Shear Modulus (GPa) = 1.02164 16.59105 8.80635
#
# Velocity S-wave (km/s) = 0.81663 3.29088 2.39758
# Velocity P-wave (km/s) = 5.82934 6.91420 6.39482
#
# Compressibility (1/GPa) = 0.01972541
#
# Stress axis : x y z
#
# Youngs Moduli (GPa) = 55.69548 43.74639 48.49103
#
# Poissons Ratio (x) = 0.25612 0.30779
# Poissons Ratio (y) = 0.32608 0.41961
# Poissons Ratio (z) = 0.35352 0.37855
#
# Static dielectric constant tensor:
#      x y z
#    x 3.078050 0.000000 0.000000 
#    y 0.000000 3.253070 0.000000 
#    z 0.000000 0.000000 2.737180 
# 
# 
# High freq. dielectric constant tensor:
#      x y z
#    x 1.606540 0.000000 0.000000 
#    y 0.000000 1.565740 0.000000 
#    z 0.000000 0.000000 1.553490 
# 
# From -- ./inp_files/38511.got.cif
#   From: 2010.03.12/outbox.cif.g09.slc.cpg/sg53_20_cif.got.tgz:38511.got - 2010.04.16 14:36:59.
