data_PCOD8218698
_publ_section_title
;
Structure prediction by ZEFSAII (Michael W. Deem and Ramdas Pophale) SiO2 
 PCOD8218698
Probable space group: P M N A
;
_chemical_formula_sum "Si O2"
_cell_formula_units_Z 56
_cell_length_a 9.099103
_cell_length_b 21.170043
_cell_length_c 15.630628
_cell_angle_alpha 90.000000
_cell_angle_beta 90.000000
_cell_angle_gamma 90.000000
_cell_volume 3010.902890
_symmetry_space_group_name_H-M "P M N A"
_symmetry_group_IT_number 53
_symmetry_cell_setting 'orthorhombic'
loop_
_space_group_symop_operation_xyz
x,y,z
1/2-x,-y,1/2+z
x,-y,-z
1/2-x,y,1/2-z
-x,-y,-z
1/2+x,y,1/2-z
-x,y,z
1/2+x,-y,1/2+z
loop_
_atom_site_type_symbol
_atom_site_label
_atom_site_fract_x
_atom_site_fract_y
_atom_site_fract_z
Si Si1 0.665116 0.037378 0.411899
Si Si2 0.171031 0.927476 0.332040
Si Si3 0.174319 0.288487 0.497976
Si Si4 0.325325 0.635818 0.163072
Si Si5 0.325720 0.631520 0.836294
Si Si6 0.174163 0.498037 0.595667
Si Si7 0.671335 0.145458 0.004829
O O1 0.500000 0.046814 0.376780
O O2 0.740042 0.105565 0.424669
O O3 0.663639 0.000000 0.500000
O O4 0.760138 0.996944 0.345430
O O5 0.250000 0.896342 0.250000
O O6 0.201843 0.881105 0.410550
O O7 0.000000 0.935819 0.314028
O O8 0.232096 0.320536 0.585214
O O9 0.231969 0.326234 0.415253
O O10 0.231081 0.216775 0.492452
O O11 0.000000 0.290802 0.499789
O O12 0.250000 0.659985 0.250000
O O13 0.500000 0.639981 0.173258
O O14 0.271178 0.564401 0.144501
O O15 0.250000 0.656549 0.750000
O O16 0.500000 0.636813 0.826384
O O17 0.273768 0.559626 0.852662
O O18 0.241320 0.500000 0.500000
O O19 0.000000 0.496944 0.587733
O O20 0.500000 0.140947 0.027983
#
# Coordination Sequence:
#
# PCOD8218698 Si02
#       7
#     8   8   8   8   8   8   8
#     4   9  17  31  51  74  98 125 159 199 244 291
#     4  10  19  31  50  76 104 131 163 205 250 298
#     4   9  18  34  54  73  99 141 183 212 248 312
#     4  10  19  32  51  75 103 135 174 216 262 313
#     4  10  19  33  54  76  99 131 173 219 264 310
#     4   9  15  28  52  76  97 130 174 215 257 313
#     4   9  18  33  52  72  97 133 173 207 245 298
#
# _framework density 18.599070999999999
#
# number of rings (size 3 to 8) (size 9 to 14) (size 15 to 20)
#    0.000    2.571    1.429    1.286    0.000    2.857 
#    0.000    2.857    0.000    2.571    0.000    0.000 
#    0.000    0.000    0.000    0.000    0.000    0.000 
#
# Total GULP energy -694367.193323 kJ/mol
# GULP energy per Si atom -12399.414166 kJ/mol
# Density = 1.855674 g / cm^3
# Si number density = 18.599071 Si / 1000 Ang^3
#
#
#
# Elastic Constant Matrix: (Units=GPa)
#
#
# Indices 1 2 3 4 5 6 
#
# 1 53.0988 28.9540 27.7515 0.0000 0.0000 0.0000
# 2 28.9540 136.6260 41.5785 0.0000 0.0000 0.0000
# 3 27.7515 41.5785 107.9998 0.0000 0.0000 0.0000
# 4 0.0000 0.0000 0.0000 15.8857 0.0000 0.0000
# 5 0.0000 0.0000 0.0000 0.0000 30.5205 0.0000
# 6 0.0000 0.0000 0.0000 0.0000 0.0000 14.6593
#
#
#
# Elastic Compliance Matrix: (Units=1/GPa)
#
#
# Indices 1 2 3 4 5 6 
#
# 1 0.023148 -0.003506 -0.004598 0.000000 0.000000 0.000000
# 2 -0.003506 0.008822 -0.002495 0.000000 0.000000 0.000000
# 3 -0.004598 -0.002495 0.011401 0.000000 0.000000 0.000000
# 4 0.000000 0.000000 0.000000 0.062950 0.000000 0.000000
# 5 0.000000 0.000000 0.000000 0.000000 0.032765 0.000000
# 6 0.000000 0.000000 0.000000 0.000000 0.000000 0.068216
#
#
# Mechanical properties :
#
#
# Convention : Reuss Voigt Hill
#
# Bulk Modulus (GPa) = 45.10262 54.92139 50.01201
# Shear Modulus (GPa) = 21.19617 25.50913 23.35265
#
# Velocity S-wave (km/s) = 3.37951 3.70743 3.54726
# Velocity P-wave (km/s) = 6.28735 6.92242 6.61251
#
# Compressibility (1/GPa) = 0.02217166
#
# Stress axis : x y z
#
# Youngs Moduli (GPa) = 43.20048 113.35729 87.70801
#
# Poissons Ratio (x) = 0.39745 0.40330
# Poissons Ratio (y) = 0.15147 0.21886
# Poissons Ratio (z) = 0.19864 0.28286
#
# Static dielectric constant tensor:
#      x y z
#    x 3.106790 0.000000 0.000000 
#    y 0.000000 3.539570 0.000000 
#    z 0.000000 0.000000 3.407970 
# 
# 
# High freq. dielectric constant tensor:
#      x y z
#    x 1.689960 0.000000 0.000000 
#    y 0.000000 1.717870 0.000000 
#    z 0.000000 0.000000 1.721700 
# 
# From -- ./inp_files/20630.got.cif
#   From: 2010.03.12/outbox.cif.g09.slc.cpg/sg53_11_cif.got.tgz:20630.got - 2010.04.16 14:36:59.
