data_PCOD8218178
_publ_section_title
;
Structure prediction by ZEFSAII (Michael W. Deem and Ramdas Pophale) SiO2 
 PCOD8218178
Probable space group: P M N A
;
_chemical_formula_sum "Si O2"
_cell_formula_units_Z 64
_cell_length_a 15.543033
_cell_length_b 24.078786
_cell_length_c 8.636221
_cell_angle_alpha 90.000000
_cell_angle_beta 90.000000
_cell_angle_gamma 90.000000
_cell_volume 3232.169318
_symmetry_space_group_name_H-M "P M N A"
_symmetry_group_IT_number 53
_symmetry_cell_setting 'orthorhombic'
loop_
_space_group_symop_operation_xyz
x,y,z
1/2-x,-y,1/2+z
x,-y,-z
1/2-x,y,1/2-z
-x,-y,-z
1/2+x,y,1/2-z
-x,y,z
1/2+x,-y,1/2+z
loop_
_atom_site_type_symbol
_atom_site_label
_atom_site_fract_x
_atom_site_fract_y
_atom_site_fract_z
Si Si1 0.250852 0.738810 0.428748
Si Si2 0.595937 0.057690 0.436097
Si Si3 0.761223 0.868880 0.070260
Si Si4 0.097657 0.669739 0.931464
Si Si5 0.327405 0.953858 0.870026
Si Si6 0.102054 0.444735 0.922756
Si Si7 0.097866 0.670635 0.566528
Si Si8 0.102124 0.444425 0.577101
O O1 0.250000 0.723089 0.250000
O O2 0.253817 0.803977 0.458296
O O3 0.337743 0.714884 0.501447
O O4 0.162637 0.716525 0.501950
O O5 0.500000 0.064280 0.499275
O O6 0.647368 0.109105 0.508440
O O7 0.593537 0.056501 0.247473
O O8 0.636884 0.000000 0.500000
O O9 0.750000 0.884551 0.250000
O O10 0.688419 0.897508 0.965259
O O11 0.099591 0.673687 0.749071
O O12 0.000000 0.680585 0.993131
O O13 0.130759 0.608906 0.980434
O O14 0.250000 0.969103 0.750000
O O15 0.346040 0.000000 0.000000
O O16 0.139212 0.439327 0.750011
O O17 0.000000 0.449626 0.919547
O O18 0.141768 0.500000 0.000000
O O19 0.131349 0.609879 0.516767
O O20 0.000000 0.681578 0.505240
O O21 0.141268 0.500000 0.500000
O O22 0.000000 0.448746 0.578124
#
# Coordination Sequence:
#
# PCOD8218178 Si02
#       8
#     8   8   8   8   8   8   8   8
#     4  11  24  40  59  83 112 149 195 239 284 339
#     4  10  21  36  57  88 122 151 183 229 281 329
#     4  10  21  39  59  80 109 150 194 232 274 329
#     4  10  21  37  58  82 110 147 187 232 287 343
#     4  10  18  32  57  84 112 149 190 227 270 327
#     4   9  16  28  49  77 108 142 183 228 278 340
#     4  10  21  38  59  83 113 147 186 236 290 342
#     4   9  16  28  50  79 110 144 182 226 281 345
#
# _framework density 19.800944000000001
#
# number of rings (size 3 to 8) (size 9 to 14) (size 15 to 20)
#    0.000    2.125    0.000    4.500    0.000    8.250 
#    0.000    5.000    0.000    0.000    0.000    0.000 
#    0.000    0.000    0.000    0.000    0.000    0.000 
#
# Total GULP energy -793409.815559 kJ/mol
# GULP energy per Si atom -12397.028368 kJ/mol
# Density = 1.975588 g / cm^3
# Si number density = 19.800944 Si / 1000 Ang^3
#
#
#
# Elastic Constant Matrix: (Units=GPa)
#
#
# Indices 1 2 3 4 5 6 
#
# 1 75.7764 50.2527 40.6698 0.0000 0.0000 0.0000
# 2 50.2527 123.7258 67.3270 0.0000 0.0000 0.0000
# 3 40.6698 67.3270 133.4449 0.0000 0.0000 0.0000
# 4 0.0000 0.0000 0.0000 39.8420 0.0000 0.0000
# 5 0.0000 0.0000 0.0000 0.0000 21.1302 0.0000
# 6 0.0000 0.0000 0.0000 0.0000 0.0000 18.8607
#
#
#
# Elastic Compliance Matrix: (Units=1/GPa)
#
#
# Indices 1 2 3 4 5 6 
#
# 1 0.018680 -0.006188 -0.002571 0.000000 0.000000 0.000000
# 2 -0.006188 0.013191 -0.004769 0.000000 0.000000 0.000000
# 3 -0.002571 -0.004769 0.010684 0.000000 0.000000 0.000000
# 4 0.000000 0.000000 0.000000 0.025099 0.000000 0.000000
# 5 0.000000 0.000000 0.000000 0.000000 0.047326 0.000000
# 6 0.000000 0.000000 0.000000 0.000000 0.000000 0.053020
#
#
# Mechanical properties :
#
#
# Convention : Reuss Voigt Hill
#
# Bulk Modulus (GPa) = 64.52484 72.16067 68.34275
# Shear Modulus (GPa) = 24.97210 27.61309 26.29259
#
# Velocity S-wave (km/s) = 3.55513 3.73840 3.64791
# Velocity P-wave (km/s) = 7.03629 7.42673 7.23415
#
# Compressibility (1/GPa) = 0.01549791
#
# Stress axis : x y z
#
# Youngs Moduli (GPa) = 53.53181 75.80861 93.60154
#
# Poissons Ratio (x) = 0.46912 0.24066
# Poissons Ratio (y) = 0.33127 0.44642
# Poissons Ratio (z) = 0.13763 0.36156
#
# Static dielectric constant tensor:
#      x y z
#    x 3.481000 0.000000 0.000000 
#    y 0.000000 3.568470 0.000000 
#    z 0.000000 0.000000 3.935440 
# 
# 
# High freq. dielectric constant tensor:
#      x y z
#    x 1.751280 0.000000 0.000000 
#    y 0.000000 1.769460 0.000000 
#    z 0.000000 0.000000 1.790070 
# 
# From -- ./inp_files/10233.got.cif
#   From: 2010.03.12/outbox.cif.g09.slc.cpg/sg53_6_cif.got.tgz:10233.got - 2010.04.16 14:36:59.
