data_PCOD8218207
_publ_section_title
;
Structure prediction by ZEFSAII (Michael W. Deem and Ramdas Pophale) SiO2 
 PCOD8218207
Probable space group: P M N A
;
_chemical_formula_sum "Si O2"
_cell_formula_units_Z 40
_cell_length_a 8.905257
_cell_length_b 12.491206
_cell_length_c 19.774095
_cell_angle_alpha 90.000000
_cell_angle_beta 90.000000
_cell_angle_gamma 90.000000
_cell_volume 2199.618909
_symmetry_space_group_name_H-M "P M N A"
_symmetry_group_IT_number 53
_symmetry_cell_setting 'orthorhombic'
loop_
_space_group_symop_operation_xyz
x,y,z
1/2-x,-y,1/2+z
x,-y,-z
1/2-x,y,1/2-z
-x,-y,-z
1/2+x,y,1/2-z
-x,y,z
1/2+x,-y,1/2+z
loop_
_atom_site_type_symbol
_atom_site_label
_atom_site_fract_x
_atom_site_fract_y
_atom_site_fract_z
Si Si1 0.177443 0.618654 0.179126
Si Si2 0.328055 0.224894 0.050397
Si Si3 0.168927 0.019927 0.079410
Si Si4 0.173065 0.466300 0.425061
Si Si5 0.823630 0.808984 0.396554
O O1 0.250000 0.586661 0.250000
O O2 0.219738 0.525841 0.126776
O O3 0.239400 0.733264 0.155962
O O4 0.000000 0.625359 0.186402
O O5 0.500000 0.187934 0.053655
O O6 0.233213 0.138572 0.093183
O O7 0.302913 0.339690 0.084516
O O8 0.279092 0.229800 0.971837
O O9 0.000000 0.013491 0.107371
O O10 0.268713 0.930331 0.116657
O O11 0.176183 0.000000 0.000000
O O12 0.221034 0.500000 0.500000
O O13 0.000000 0.499647 0.412004
O O14 0.000000 0.801468 0.383346
#
# Coordination Sequence:
#
# PCOD8218207 Si02
#       5
#     8   8   8   8   8
#     4  12  25  39  56  80 111 148 189 232 283 337
#     4   9  17  30  52  79 109 145 180 220 274 330
#     4   9  17  28  45  75 111 141 174 219 267 317
#     4  10  19  36  58  82 112 147 187 231 280 334
#     4  10  18  33  54  77 107 143 182 223 274 331
#
# _framework density 18.184968999999999
#
# number of rings (size 3 to 8) (size 9 to 14) (size 15 to 20)
#    0.000    2.000    2.000    3.000    0.000    4.400 
#    0.000    0.000    0.000    1.200    0.000    2.800 
#    0.000    0.000    0.000    0.000    0.000    0.000 
#
# Total GULP energy -496103.012236 kJ/mol
# GULP energy per Si atom -12402.575306 kJ/mol
# Density = 1.814358 g / cm^3
# Si number density = 18.184969 Si / 1000 Ang^3
#
#
#
# Elastic Constant Matrix: (Units=GPa)
#
#
# Indices 1 2 3 4 5 6 
#
# 1 120.9298 54.6214 45.0101 0.0000 0.0000 0.0000
# 2 54.6214 114.0697 39.6171 0.0000 0.0000 0.0000
# 3 45.0101 39.6171 67.4741 0.0000 0.0000 0.0000
# 4 0.0000 0.0000 0.0000 15.9513 0.0000 0.0000
# 5 0.0000 0.0000 0.0000 0.0000 22.7843 0.0000
# 6 0.0000 0.0000 0.0000 0.0000 0.0000 35.6537
#
#
#
# Elastic Compliance Matrix: (Units=1/GPa)
#
#
# Indices 1 2 3 4 5 6 
#
# 1 0.012173 -0.003779 -0.005901 0.000000 0.000000 0.000000
# 2 -0.003779 0.012186 -0.004634 0.000000 0.000000 0.000000
# 3 -0.005901 -0.004634 0.021478 0.000000 0.000000 0.000000
# 4 0.000000 0.000000 0.000000 0.062691 0.000000 0.000000
# 5 0.000000 0.000000 0.000000 0.000000 0.043890 0.000000
# 6 0.000000 0.000000 0.000000 0.000000 0.000000 0.028048
#
#
# Mechanical properties :
#
#
# Convention : Reuss Voigt Hill
#
# Bulk Modulus (GPa) = 58.11318 64.55231 61.33274
# Shear Modulus (GPa) = 23.27444 25.75952 24.51698
#
# Velocity S-wave (km/s) = 3.58141 3.76776 3.67577
# Velocity P-wave (km/s) = 7.00914 7.38260 7.19829
#
# Compressibility (1/GPa) = 0.01720780
#
# Stress axis : x y z
#
# Youngs Moduli (GPa) = 82.15124 82.06447 46.56035
#
# Poissons Ratio (x) = 0.31015 0.27475
# Poissons Ratio (y) = 0.31048 0.21574
# Poissons Ratio (z) = 0.48478 0.38025
#
# Static dielectric constant tensor:
#      x y z
#    x 3.390460 0.000000 0.000000 
#    y 0.000000 3.520940 0.000000 
#    z 0.000000 0.000000 3.048320 
# 
# 
# High freq. dielectric constant tensor:
#      x y z
#    x 1.710200 0.000000 0.000000 
#    y 0.000000 1.719660 0.000000 
#    z 0.000000 0.000000 1.655170 
# 
# From -- ./inp_files/25845.got.cif
#   From: 2010.03.12/outbox.cif.g09.slc.cpg/sg53_13_cif.got.tgz:25845.got - 2010.04.16 14:36:59.
