data_PCOD8218676
_publ_section_title
;
Structure prediction by ZEFSAII (Michael W. Deem and Ramdas Pophale) SiO2 
 PCOD8218676
Probable space group: P M N A
;
_chemical_formula_sum "Si O2"
_cell_formula_units_Z 64
_cell_length_a 8.921532
_cell_length_b 19.742847
_cell_length_c 20.031172
_cell_angle_alpha 90.000000
_cell_angle_beta 90.000000
_cell_angle_gamma 90.000000
_cell_volume 3528.219351
_symmetry_space_group_name_H-M "P M N A"
_symmetry_group_IT_number 53
_symmetry_cell_setting 'orthorhombic'
loop_
_space_group_symop_operation_xyz
x,y,z
1/2-x,-y,1/2+z
x,-y,-z
1/2-x,y,1/2-z
-x,-y,-z
1/2+x,y,1/2-z
-x,y,z
1/2+x,-y,1/2+z
loop_
_atom_site_type_symbol
_atom_site_label
_atom_site_fract_x
_atom_site_fract_y
_atom_site_fract_z
Si Si1 0.823678 0.386232 0.681600
Si Si2 0.324584 0.846159 0.460456
Si Si3 0.678278 0.702851 0.057099
Si Si4 0.177139 0.655079 0.584532
Si Si5 0.822687 0.459824 0.318886
Si Si6 0.822462 0.227126 0.318221
Si Si7 0.675100 0.891353 0.610106
Si Si8 0.330886 0.022726 0.923870
O O1 0.750000 0.360055 0.750000
O O2 0.767903 0.339794 0.620904
O O3 0.774033 0.463206 0.665687
O O4 0.000000 0.381247 0.690573
O O5 0.500000 0.845641 0.445545
O O6 0.253518 0.775727 0.438348
O O7 0.289922 0.859895 0.537808
O O8 0.249492 0.904884 0.415820
O O9 0.500000 0.712424 0.054970
O O10 0.735821 0.662339 0.991339
O O11 0.238244 0.586902 0.620301
O O12 0.230968 0.720803 0.625009
O O13 0.000000 0.651432 0.583967
O O14 0.750000 0.434343 0.250000
O O15 0.000000 0.452682 0.311007
O O16 0.750000 0.253177 0.250000
O O17 0.759710 0.153208 0.335183
O O18 0.000000 0.224141 0.311126
O O19 0.500000 0.892409 0.625730
O O20 0.738277 0.967231 0.617717
O O21 0.500000 0.027832 0.896197
O O22 0.330691 0.000000 0.000000
#
# Coordination Sequence:
#
# PCOD8218676 Si02
#       8
#     8   8   8   8   8   8   8   8
#     4   9  19  34  55  77 101 132 171 214 263 320
#     4  10  19  31  49  76 106 135 167 212 262 308
#     4  10  19  33  52  76 104 137 172 215 265 317
#     4   9  18  31  50  74 103 134 174 219 261 308
#     4   9  17  32  51  74 101 136 175 216 260 307
#     4  11  21  33  49  71 102 143 182 220 262 313
#     4  10  19  32  49  72 102 134 173 217 258 305
#     4   9  17  29  49  74 100 133 169 207 252 304
#
# _framework density 18.139462999999999
#
# number of rings (size 3 to 8) (size 9 to 14) (size 15 to 20)
#    0.000    2.375    1.250    1.875    0.000    3.500 
#    0.000    3.750    0.000    0.750    0.000    7.875 
#    0.000    0.000    0.000    0.000    0.000    0.000 
#
# Total GULP energy -793618.546764 kJ/mol
# GULP energy per Si atom -12400.289793 kJ/mol
# Density = 1.809818 g / cm^3
# Si number density = 18.139463 Si / 1000 Ang^3
#
#
#
# Elastic Constant Matrix: (Units=GPa)
#
#
# Indices 1 2 3 4 5 6 
#
# 1 65.1286 41.4996 36.6965 0.0000 0.0000 0.0000
# 2 41.4996 135.4650 72.7398 0.0000 0.0000 0.0000
# 3 36.6965 72.7398 115.7782 0.0000 0.0000 0.0000
# 4 0.0000 0.0000 0.0000 19.1212 0.0000 0.0000
# 5 0.0000 0.0000 0.0000 0.0000 25.0523 0.0000
# 6 0.0000 0.0000 0.0000 0.0000 0.0000 23.5183
#
#
#
# Elastic Compliance Matrix: (Units=1/GPa)
#
#
# Indices 1 2 3 4 5 6 
#
# 1 0.020118 -0.004134 -0.003779 0.000000 0.000000 0.000000
# 2 -0.004134 0.011990 -0.006222 0.000000 0.000000 0.000000
# 3 -0.003779 -0.006222 0.013744 0.000000 0.000000 0.000000
# 4 0.000000 0.000000 0.000000 0.052298 0.000000 0.000000
# 5 0.000000 0.000000 0.000000 0.000000 0.039916 0.000000
# 6 0.000000 0.000000 0.000000 0.000000 0.000000 0.042520
#
#
# Mechanical properties :
#
#
# Convention : Reuss Voigt Hill
#
# Bulk Modulus (GPa) = 56.88052 68.69376 62.78714
# Shear Modulus (GPa) = 23.28643 24.56743 23.92693
#
# Velocity S-wave (km/s) = 3.58682 3.68416 3.63582
# Velocity P-wave (km/s) = 6.96987 7.48661 7.23286
#
# Compressibility (1/GPa) = 0.01758071
#
# Stress axis : x y z
#
# Youngs Moduli (GPa) = 49.70763 83.40581 72.75646
#
# Poissons Ratio (x) = 0.34477 0.27497
# Poissons Ratio (y) = 0.20547 0.45273
# Poissons Ratio (z) = 0.18786 0.51899
#
# Static dielectric constant tensor:
#      x y z
#    x 3.240470 0.000000 0.000000 
#    y 0.000000 3.482340 0.000000 
#    z 0.000000 0.000000 3.327590 
# 
# 
# High freq. dielectric constant tensor:
#      x y z
#    x 1.694730 0.000000 0.000000 
#    y 0.000000 1.709670 0.000000 
#    z 0.000000 0.000000 1.677780 
# 
# From -- ./inp_files/31130.got.cif
#   From: 2010.03.12/outbox.cif.g09.slc.cpg/sg53_16_cif.got.tgz:31130.got - 2010.04.16 14:36:59.
