data_PCOD8218524
_publ_section_title
;
Structure prediction by ZEFSAII (Michael W. Deem and Ramdas Pophale) SiO2 
 PCOD8218524
Probable space group: P M N A
;
_chemical_formula_sum "Si O2"
_cell_formula_units_Z 64
_cell_length_a 8.943919
_cell_length_b 15.367137
_cell_length_c 30.540469
_cell_angle_alpha 90.000000
_cell_angle_beta 90.000000
_cell_angle_gamma 90.000000
_cell_volume 4197.556230
_symmetry_space_group_name_H-M "P M N A"
_symmetry_group_IT_number 53
_symmetry_cell_setting 'orthorhombic'
loop_
_space_group_symop_operation_xyz
x,y,z
1/2-x,-y,1/2+z
x,-y,-z
1/2-x,y,1/2-z
-x,-y,-z
1/2+x,y,1/2-z
-x,y,z
1/2+x,-y,1/2+z
loop_
_atom_site_type_symbol
_atom_site_label
_atom_site_fract_x
_atom_site_fract_y
_atom_site_fract_z
Si Si1 0.669458 0.391819 0.206786
Si Si2 0.830869 0.902615 0.947516
Si Si3 0.321066 0.274332 0.545566
Si Si4 0.326434 0.595313 0.379755
Si Si5 0.822780 0.271388 0.451808
Si Si6 0.166371 0.088637 0.948569
Si Si7 0.175594 0.606707 0.881937
Si Si8 0.667078 0.401036 0.792590
O O1 0.750000 0.353673 0.250000
O O2 0.500000 0.356124 0.204336
O O3 0.761925 0.360011 0.164606
O O4 0.669753 0.495313 0.208913
O O5 0.728346 0.822365 0.932351
O O6 0.000000 0.890130 0.929197
O O7 0.758078 0.996976 0.932853
O O8 0.837064 0.904265 0.999431
O O9 0.500000 0.271511 0.538237
O O10 0.271606 0.350554 0.578228
O O11 0.243238 0.292058 0.499412
O O12 0.263550 0.181387 0.566589
O O13 0.500000 0.609580 0.371014
O O14 0.289376 0.494948 0.388535
O O15 0.244531 0.631975 0.336872
O O16 0.763076 0.345759 0.420213
O O17 0.000000 0.273862 0.453966
O O18 0.000000 0.081752 0.929768
O O19 0.000000 0.626882 0.884411
O O20 0.750000 0.362786 0.750000
O O21 0.500000 0.364378 0.791929
#
# Coordination Sequence:
#
# PCOD8218524 Si02
#       8
#     8   8   8   8   8   8   8   8
#     4   9  16  27  43  63  83 105 133 169 211 252
#     4   8  13  25  43  60  77 101 132 167 207 252
#     4   9  17  31  46  60  81 111 143 174 206 247
#     4   9  18  30  45  62  81 108 144 178 208 242
#     4  11  21  30  40  58  83 112 144 178 211 245
#     4   7  11  22  43  63  77  98 131 167 206 250
#     4  10  19  31  44  59  81 112 146 178 208 242
#     4   9  16  26  42  61  83 107 134 169 210 250
#
# _framework density 15.246967
#
# number of rings (size 3 to 8) (size 9 to 14) (size 15 to 20)
#    0.000    3.000    0.000    3.750    0.000    4.500 
#    0.000    7.500    0.000    0.000    0.000    0.000 
#    0.000    1.000    0.000    5.000    0.000    3.750 
#
# Total GULP energy -792921.874502 kJ/mol
# GULP energy per Si atom -12389.404289 kJ/mol
# Density = 1.521226 g / cm^3
# Si number density = 15.246967 Si / 1000 Ang^3
#
#
#
# Elastic Constant Matrix: (Units=GPa)
#
#
# Indices 1 2 3 4 5 6 
#
# 1 83.8555 38.8771 50.2172 0.0000 0.0000 0.0000
# 2 38.8771 73.0806 51.1789 0.0000 0.0000 0.0000
# 3 50.2172 51.1789 96.0670 0.0000 0.0000 0.0000
# 4 0.0000 0.0000 0.0000 0.5253 0.0000 0.0000
# 5 0.0000 0.0000 0.0000 0.0000 24.7452 0.0000
# 6 0.0000 0.0000 0.0000 0.0000 0.0000 9.5900
#
#
#
# Elastic Compliance Matrix: (Units=1/GPa)
#
#
# Indices 1 2 3 4 5 6 
#
# 1 0.018383 -0.004865 -0.007018 0.000000 0.000000 0.000000
# 2 -0.004865 0.023114 -0.009771 0.000000 0.000000 0.000000
# 3 -0.007018 -0.009771 0.019283 0.000000 0.000000 0.000000
# 4 0.000000 0.000000 0.000000 1.903731 0.000000 0.000000
# 5 0.000000 0.000000 0.000000 0.000000 0.040412 0.000000
# 6 0.000000 0.000000 0.000000 0.000000 0.000000 0.104275
#
#
# Mechanical properties :
#
#
# Convention : Reuss Voigt Hill
#
# Bulk Modulus (GPa) = 57.22927 59.28328 58.25627
# Shear Modulus (GPa) = 2.31661 14.48743 8.40202
#
# Velocity S-wave (km/s) = 1.23397 3.08585 2.35002
# Velocity P-wave (km/s) = 6.29655 7.18770 6.75684
#
# Compressibility (1/GPa) = 0.01747358
#
# Stress axis : x y z
#
# Youngs Moduli (GPa) = 54.39696 43.26363 51.85860
#
# Poissons Ratio (x) = 0.21047 0.36394
# Poissons Ratio (y) = 0.26463 0.50670
# Poissons Ratio (z) = 0.38175 0.42272
#
# Static dielectric constant tensor:
#      x y z
#    x 2.913320 0.000000 0.000000 
#    y 0.000000 3.188250 0.000000 
#    z 0.000000 0.000000 2.793370 
# 
# 
# High freq. dielectric constant tensor:
#      x y z
#    x 1.579380 0.000000 0.000000 
#    y 0.000000 1.563480 0.000000 
#    z 0.000000 0.000000 1.556670 
# 
# From -- ./inp_files/38457.got.cif
#   From: 2010.03.12/outbox.cif.g09.slc.cpg/sg53_20_cif.got.tgz:38457.got - 2010.04.16 14:36:59.
