data_PCOD8218794
_publ_section_title
;
Structure prediction by ZEFSAII (Michael W. Deem and Ramdas Pophale) SiO2 
 PCOD8218794
Probable space group: P M N A
;
_chemical_formula_sum "Si O2"
_cell_formula_units_Z 64
_cell_length_a 15.174214
_cell_length_b 11.372986
_cell_length_c 19.367056
_cell_angle_alpha 90.000000
_cell_angle_beta 90.000000
_cell_angle_gamma 90.000000
_cell_volume 3342.291446
_symmetry_space_group_name_H-M "P M N A"
_symmetry_group_IT_number 53
_symmetry_cell_setting 'orthorhombic'
loop_
_space_group_symop_operation_xyz
x,y,z
1/2-x,-y,1/2+z
x,-y,-z
1/2-x,y,1/2-z
-x,-y,-z
1/2+x,y,1/2-z
-x,y,z
1/2+x,-y,1/2+z
loop_
_atom_site_type_symbol
_atom_site_label
_atom_site_fract_x
_atom_site_fract_y
_atom_site_fract_z
Si Si1 0.730745 0.826583 0.047806
Si Si2 0.218333 0.922486 0.596569
Si Si3 0.095546 0.173044 0.884051
Si Si4 0.099726 0.469223 0.310822
Si Si5 0.154369 0.783882 0.721837
Si Si6 0.268179 0.440573 0.924767
Si Si7 0.595643 0.081534 0.350421
Si Si8 0.398357 0.578413 0.334380
O O1 0.837322 0.827386 0.051463
O O2 0.701679 0.696679 0.071717
O O3 0.700670 0.936462 0.096290
O O4 0.690755 0.856080 0.973260
O O5 0.160861 0.873045 0.658263
O O6 0.321498 0.885122 0.602234
O O7 0.110409 0.280816 0.831455
O O8 0.000000 0.182345 0.919800
O O9 0.103333 0.058067 0.836083
O O10 0.101359 0.329934 0.300894
O O11 0.161216 0.500543 0.374785
O O12 0.132088 0.530378 0.239927
O O13 0.000000 0.508541 0.327813
O O14 0.250000 0.746844 0.750000
O O15 0.097928 0.850533 0.778706
O O16 0.170131 0.464751 0.893671
O O17 0.271721 0.500000 0.000000
O O18 0.500000 0.110029 0.385382
O O19 0.500000 0.538852 0.351477
#
# Coordination Sequence:
#
# PCOD8218794 Si02
#       8
#     8   8   8   8   8   8   8   8
#     4   9  18  32  50  73 100 133 170 205 251 306
#     4   9  18  32  50  72 100 132 165 205 252 305
#     4   8  15  29  49  75 105 133 164 204 249 301
#     4  11  23  38  56  77 104 141 182 223 267 315
#     4  10  19  32  50  73 100 129 166 212 261 309
#     4  11  22  36  56  81 109 143 181 221 265 313
#     4   9  17  29  48  75 103 130 162 201 248 304
#     4   9  19  36  57  81 110 143 179 219 263 313
#
# _framework density 19.148540000000001
#
# number of rings (size 3 to 8) (size 9 to 14) (size 15 to 20)
#    0.000    2.500    0.000    2.250    0.000    3.000 
#    0.000    6.250    0.000    0.750    0.000    5.250 
#    0.000    0.000    0.000    0.000    0.000    0.000 
#
# Total GULP energy -792937.270663 kJ/mol
# GULP energy per Si atom -12389.644854 kJ/mol
# Density = 1.910496 g / cm^3
# Si number density = 19.148540 Si / 1000 Ang^3
#
#
#
# Elastic Constant Matrix: (Units=GPa)
#
#
# Indices 1 2 3 4 5 6 
#
# 1 49.0026 15.1182 22.2681 0.0000 0.0000 0.0000
# 2 15.1182 88.6378 37.9124 0.0000 0.0000 0.0000
# 3 22.2681 37.9124 94.0146 0.0000 0.0000 0.0000
# 4 0.0000 0.0000 0.0000 28.0229 0.0000 0.0000
# 5 0.0000 0.0000 0.0000 0.0000 23.2040 0.0000
# 6 0.0000 0.0000 0.0000 0.0000 0.0000 22.7485
#
#
#
# Elastic Compliance Matrix: (Units=1/GPa)
#
#
# Indices 1 2 3 4 5 6 
#
# 1 0.023140 -0.001937 -0.004700 0.000000 0.000000 0.000000
# 2 -0.001937 0.013795 -0.005104 0.000000 0.000000 0.000000
# 3 -0.004700 -0.005104 0.013808 0.000000 0.000000 0.000000
# 4 0.000000 0.000000 0.000000 0.035685 0.000000 0.000000
# 5 0.000000 0.000000 0.000000 0.000000 0.043096 0.000000
# 6 0.000000 0.000000 0.000000 0.000000 0.000000 0.043959
#
#
# Mechanical properties :
#
#
# Convention : Reuss Voigt Hill
#
# Bulk Modulus (GPa) = 36.68108 42.47251 39.57679
# Shear Modulus (GPa) = 24.26551 25.21882 24.74216
#
# Velocity S-wave (km/s) = 3.56367 3.63300 3.59850
# Velocity P-wave (km/s) = 6.01088 6.31086 6.16270
#
# Compressibility (1/GPa) = 0.02726201
#
# Stress axis : x y z
#
# Youngs Moduli (GPa) = 43.21448 72.48759 72.42003
#
# Poissons Ratio (x) = 0.14038 0.34038
# Poissons Ratio (y) = 0.08369 0.36967
# Poissons Ratio (z) = 0.20311 0.37001
#
# Static dielectric constant tensor:
#      x y z
#    x 3.416440 0.000000 0.000000 
#    y 0.000000 3.653430 0.000000 
#    z 0.000000 0.000000 3.275640 
# 
# 
# High freq. dielectric constant tensor:
#      x y z
#    x 1.732070 0.000000 0.000000 
#    y 0.000000 1.755070 0.000000 
#    z 0.000000 0.000000 1.724370 
# 
# From -- ./inp_files/28539.got.cif
#   From: 2010.03.12/outbox.cif.g09.slc.cpg/sg53_15_cif.got.tgz:28539.got - 2010.04.16 14:36:59.
