data_PCOD8218205
_publ_section_title
;
Structure prediction by ZEFSAII (Michael W. Deem and Ramdas Pophale) SiO2 
 PCOD8218205
Probable space group: P M N A
;
_chemical_formula_sum "Si O2"
_cell_formula_units_Z 40
_cell_length_a 10.094606
_cell_length_b 22.654337
_cell_length_c 9.125304
_cell_angle_alpha 90.000000
_cell_angle_beta 90.000000
_cell_angle_gamma 90.000000
_cell_volume 2086.834802
_symmetry_space_group_name_H-M "P M N A"
_symmetry_group_IT_number 53
_symmetry_cell_setting 'orthorhombic'
loop_
_space_group_symop_operation_xyz
x,y,z
1/2-x,-y,1/2+z
x,-y,-z
1/2-x,y,1/2-z
-x,-y,-z
1/2+x,y,1/2-z
-x,y,z
1/2+x,-y,1/2+z
loop_
_atom_site_type_symbol
_atom_site_label
_atom_site_fract_x
_atom_site_fract_y
_atom_site_fract_z
Si Si1 0.234731 0.941563 0.918915
Si Si2 0.652767 0.551966 0.113509
Si Si3 0.000000 0.734583 0.041911
Si Si4 0.733806 0.677266 0.077809
Si Si5 0.500000 0.241109 0.886199
Si Si6 0.500000 0.856700 0.619081
Si Si7 0.000000 0.879745 0.541894
O O1 0.250000 0.958202 0.750000
O O2 0.372687 0.920207 0.988082
O O3 0.129067 0.889690 0.941529
O O4 0.184360 0.000000 0.000000
O O5 0.750000 0.541956 0.250000
O O6 0.500000 0.553830 0.168803
O O7 0.685655 0.612736 0.025852
O O8 0.676823 0.500000 0.000000
O O9 0.872214 0.695028 0.002886
O O10 0.000000 0.754340 0.210789
O O11 0.000000 0.790653 0.937778
O O12 0.750000 0.671901 0.250000
O O13 0.627548 0.727918 0.041496
O O14 0.500000 0.172644 0.925170
O O15 0.500000 0.853717 0.794607
#
# Coordination Sequence:
#
# PCOD8218205 Si02
#       7
#     8   8   4   8   4   4   4
#     4  10  21  36  54  75 103 136 174 214 262 318
#     4  10  21  38  59  85 117 153 193 239 287 338
#     4  10  20  33  54  79 104 132 183 220 263 320
#     4   9  18  33  54  79 105 139 178 227 270 318
#     4  10  18  33  54  77 100 136 177 218 261 318
#     4  10  21  37  51  77 107 140 166 216 271 322
#     4  10  21  35  53  75 107 138 170 212 273 324
#
# _framework density 19.167783
#
# number of rings (size 3 to 8) (size 9 to 14) (size 15 to 20)
#    0.000    2.200    1.000    1.800    4.200    2.000 
#    0.000    2.000    0.000    0.000    0.000    0.000 
#    0.000    0.000    0.000    0.000    0.000    0.000 
#
# Total GULP energy -496070.251523 kJ/mol
# GULP energy per Si atom -12401.756288 kJ/mol
# Density = 1.912416 g / cm^3
# Si number density = 19.167783 Si / 1000 Ang^3
#
#
#
# Elastic Constant Matrix: (Units=GPa)
#
#
# Indices 1 2 3 4 5 6 
#
# 1 129.5975 31.8025 23.6490 0.0000 0.0000 0.0000
# 2 31.8025 111.6775 32.3604 0.0000 0.0000 0.0000
# 3 23.6490 32.3604 32.9799 0.0000 0.0000 0.0000
# 4 0.0000 0.0000 0.0000 31.3181 0.0000 0.0000
# 5 0.0000 0.0000 0.0000 0.0000 12.7185 0.0000
# 6 0.0000 0.0000 0.0000 0.0000 0.0000 13.2419
#
#
#
# Elastic Compliance Matrix: (Units=1/GPa)
#
#
# Indices 1 2 3 4 5 6 
#
# 1 0.008951 -0.000963 -0.005474 0.000000 0.000000 0.000000
# 2 -0.000963 0.012615 -0.011688 0.000000 0.000000 0.000000
# 3 -0.005474 -0.011688 0.045715 0.000000 0.000000 0.000000
# 4 0.000000 0.000000 0.000000 0.031930 0.000000 0.000000
# 5 0.000000 0.000000 0.000000 0.000000 0.078626 0.000000
# 6 0.000000 0.000000 0.000000 0.000000 0.000000 0.075518
#
#
# Mechanical properties :
#
#
# Convention : Reuss Voigt Hill
#
# Bulk Modulus (GPa) = 32.22452 49.98651 41.10551
# Shear Modulus (GPa) = 16.66947 23.88522 20.27735
#
# Velocity S-wave (km/s) = 2.95220 3.53386 3.25605
# Velocity P-wave (km/s) = 5.33563 6.54109 5.96887
#
# Compressibility (1/GPa) = 0.03103227
#
# Stress axis : x y z
#
# Youngs Moduli (GPa) = 111.71453 79.26870 21.87462
#
# Poissons Ratio (x) = 0.07633 0.11974
# Poissons Ratio (y) = 0.10757 0.25567
# Poissons Ratio (z) = 0.61152 0.92648
#
# Static dielectric constant tensor:
#      x y z
#    x 3.920290 0.000000 0.000000 
#    y 0.000000 3.591800 0.000000 
#    z 0.000000 0.000000 3.087100 
# 
# 
# High freq. dielectric constant tensor:
#      x y z
#    x 1.767290 0.000000 0.000000 
#    y 0.000000 1.757000 0.000000 
#    z 0.000000 0.000000 1.705770 
# 
# From -- ./inp_files/6399.got.cif
#   From: 2010.03.12/outbox.cif.g09.slc.cpg/sg53_4_cif.got.tgz:6399.got - 2010.04.16 14:36:59.
