data_PCOD8218945
_publ_section_title
;
Structure prediction by ZEFSAII (Michael W. Deem and Ramdas Pophale) SiO2 
 PCOD8218945
Probable space group: P M N A
;
_chemical_formula_sum "Si O2"
_cell_formula_units_Z 64
_cell_length_a 9.083597
_cell_length_b 14.361282
_cell_length_c 25.867747
_cell_angle_alpha 90.000000
_cell_angle_beta 90.000000
_cell_angle_gamma 90.000000
_cell_volume 3374.501869
_symmetry_space_group_name_H-M "P M N A"
_symmetry_group_IT_number 53
_symmetry_cell_setting 'orthorhombic'
loop_
_space_group_symop_operation_xyz
x,y,z
1/2-x,-y,1/2+z
x,-y,-z
1/2-x,y,1/2-z
-x,-y,-z
1/2+x,y,1/2-z
-x,y,z
1/2+x,-y,1/2+z
loop_
_atom_site_type_symbol
_atom_site_label
_atom_site_fract_x
_atom_site_fract_y
_atom_site_fract_z
Si Si1 0.826703 0.763910 0.696163
Si Si2 0.672909 0.594243 0.976863
Si Si3 0.327686 0.206584 0.696913
Si Si4 0.670588 0.575272 0.859193
Si Si5 0.325929 0.113185 0.101364
Si Si6 0.170957 0.579377 0.197584
Si Si7 0.674185 0.101269 0.895006
Si Si8 0.675411 0.793980 0.002682
O O1 0.750000 0.788406 0.750000
O O2 0.787921 0.658684 0.679487
O O3 0.765152 0.834183 0.652255
O O4 0.000000 0.776672 0.703392
O O5 0.500000 0.588123 0.986021
O O6 0.710197 0.606973 0.916811
O O7 0.732553 0.686908 0.005743
O O8 0.746761 0.500000 0.000000
O O9 0.250000 0.177828 0.750000
O O10 0.500000 0.186461 0.702335
O O11 0.295550 0.314032 0.683447
O O12 0.259376 0.144889 0.652455
O O13 0.500000 0.548030 0.854477
O O14 0.766365 0.484103 0.848004
O O15 0.500000 0.125364 0.100243
O O16 0.259640 0.158060 0.049050
O O17 0.279495 0.005997 0.102681
O O18 0.250000 0.549049 0.250000
O O19 0.000000 0.560184 0.205120
O O20 0.500000 0.114403 0.887365
O O21 0.731146 0.150651 0.947206
O O22 0.500000 0.797131 0.000200
#
# Coordination Sequence:
#
# PCOD8218945 Si02
#       8
#     8   8   8   8   8   8   8   8
#     4  10  20  34  52  75 107 145 182 223 273 325
#     4   9  17  28  46  78 113 143 176 219 269 317
#     4  10  22  40  58  78 110 145 178 222 274 328
#     4  10  19  32  53  78 108 143 177 220 268 317
#     4   9  17  33  52  77 112 144 180 228 276 318
#     4  10  21  36  54  76 103 137 175 216 264 319
#     4  10  20  32  57  88 108 138 183 229 276 326
#     4   9  16  30  52  80 112 144 182 224 267 322
#
# _framework density 18.965762000000002
#
# number of rings (size 3 to 8) (size 9 to 14) (size 15 to 20)
#    0.000    2.375    1.250    1.500    1.750    5.000 
#    0.000    1.875    0.000    3.375    0.000    0.000 
#    0.000    0.000    0.000    0.000    0.000    0.000 
#
# Total GULP energy -793606.530183 kJ/mol
# GULP energy per Si atom -12400.102034 kJ/mol
# Density = 1.892260 g / cm^3
# Si number density = 18.965762 Si / 1000 Ang^3
#
#
#
# Elastic Constant Matrix: (Units=GPa)
#
#
# Indices 1 2 3 4 5 6 
#
# 1 39.9117 38.2582 38.1504 0.0000 0.0000 0.0000
# 2 38.2582 139.3253 88.3021 0.0000 0.0000 0.0000
# 3 38.1504 88.3021 144.6032 0.0000 0.0000 0.0000
# 4 0.0000 0.0000 0.0000 33.9429 0.0000 0.0000
# 5 0.0000 0.0000 0.0000 0.0000 24.7185 0.0000
# 6 0.0000 0.0000 0.0000 0.0000 0.0000 17.7406
#
#
#
# Elastic Compliance Matrix: (Units=1/GPa)
#
#
# Indices 1 2 3 4 5 6 
#
# 1 0.036730 -0.006435 -0.005761 0.000000 0.000000 0.000000
# 2 -0.006435 0.012836 -0.006141 0.000000 0.000000 0.000000
# 3 -0.005761 -0.006141 0.012185 0.000000 0.000000 0.000000
# 4 0.000000 0.000000 0.000000 0.029461 0.000000 0.000000
# 5 0.000000 0.000000 0.000000 0.000000 0.040456 0.000000
# 6 0.000000 0.000000 0.000000 0.000000 0.000000 0.056368
#
#
# Mechanical properties :
#
#
# Convention : Reuss Voigt Hill
#
# Bulk Modulus (GPa) = 39.87464 72.58464 56.22964
# Shear Modulus (GPa) = 21.45280 25.88902 23.67091
#
# Velocity S-wave (km/s) = 3.36688 3.69865 3.53666
# Velocity P-wave (km/s) = 6.01537 7.52293 6.81099
#
# Compressibility (1/GPa) = 0.02507860
#
# Stress axis : x y z
#
# Youngs Moduli (GPa) = 27.22548 77.90346 82.06550
#
# Poissons Ratio (x) = 0.50128 0.47279
# Poissons Ratio (y) = 0.17519 0.50396
# Poissons Ratio (z) = 0.15685 0.47840
#
# Static dielectric constant tensor:
#      x y z
#    x 3.026460 0.000000 0.000000 
#    y 0.000000 3.683100 0.000000 
#    z 0.000000 0.000000 3.556050 
# 
# 
# High freq. dielectric constant tensor:
#      x y z
#    x 1.687800 0.000000 0.000000 
#    y 0.000000 1.750380 0.000000 
#    z 0.000000 0.000000 1.746130 
# 
# From -- ./inp_files/34288.got.cif
#   From: 2010.03.12/outbox.cif.g09.slc.cpg/sg53_18_cif.got.tgz:34288.got - 2010.04.16 14:36:59.
