data_PCOD8218402
_publ_section_title
;
Structure prediction by ZEFSAII (Michael W. Deem and Ramdas Pophale) SiO2 
 PCOD8218402
Probable space group: P M N A
;
_chemical_formula_sum "Si O2"
_cell_formula_units_Z 64
_cell_length_a 9.056780
_cell_length_b 16.918720
_cell_length_c 23.801499
_cell_angle_alpha 90.000000
_cell_angle_beta 90.000000
_cell_angle_gamma 90.000000
_cell_volume 3647.082864
_symmetry_space_group_name_H-M "P M N A"
_symmetry_group_IT_number 53
_symmetry_cell_setting 'orthorhombic'
loop_
_space_group_symop_operation_xyz
x,y,z
1/2-x,-y,1/2+z
x,-y,-z
1/2-x,y,1/2-z
-x,-y,-z
1/2+x,y,1/2-z
-x,y,z
1/2+x,-y,1/2+z
loop_
_atom_site_type_symbol
_atom_site_label
_atom_site_fract_x
_atom_site_fract_y
_atom_site_fract_z
Si Si1 0.174598 0.366875 0.091464
Si Si2 0.826662 0.685684 0.027398
Si Si3 0.833798 0.640200 0.305662
Si Si4 0.333933 0.213128 0.888092
Si Si5 0.672575 0.901082 0.809476
Si Si6 0.327781 0.075886 0.809893
Si Si7 0.324010 0.251037 0.310761
Si Si8 0.673842 0.456985 0.607855
O O1 0.222725 0.322350 0.148238
O O2 0.234455 0.456483 0.091620
O O3 0.000000 0.369376 0.086243
O O4 0.235312 0.321868 0.036103
O O5 0.756384 0.763161 0.056313
O O6 0.783208 0.604415 0.058920
O O7 0.000000 0.699128 0.029140
O O8 0.750000 0.665401 0.250000
O O9 0.828720 0.715185 0.345342
O O10 0.752802 0.566317 0.334292
O O11 0.000000 0.614872 0.291274
O O12 0.500000 0.194000 0.907379
O O13 0.264585 0.136798 0.856412
O O14 0.750000 0.905872 0.750000
O O15 0.500000 0.880248 0.803651
O O16 0.757737 0.828902 0.840206
O O17 0.695421 0.987945 0.836456
O O18 0.250000 0.087514 0.750000
O O19 0.500000 0.093046 0.799027
O O20 0.250000 0.266132 0.250000
O O21 0.500000 0.243901 0.304372
O O22 0.500000 0.457692 0.618886
#
# Coordination Sequence:
#
# PCOD8218402 Si02
#       8
#     8   8   8   8   8   8   8   8
#     4   9  18  32  51  72  91 116 152 192 230 271
#     4   9  17  31  51  71  90 117 155 193 228 269
#     4  10  19  30  44  64  94 127 156 186 224 272
#     4   9  18  31  45  66  96 125 152 187 229 267
#     4   9  16  28  46  68  93 120 151 185 224 269
#     4   9  17  28  45  69  96 124 154 188 224 268
#     4  10  19  32  49  69  95 121 147 183 228 275
#     4   9  17  31  50  69  90 118 153 193 234 272
#
# _framework density 17.548272000000001
#
# number of rings (size 3 to 8) (size 9 to 14) (size 15 to 20)
#    0.000    2.750    0.000    2.625    0.000    3.500 
#    0.000    4.375    0.000    3.750    0.000    5.250 
#    0.000    0.000    0.000    0.000    0.000    0.000 
#
# Total GULP energy -793178.430896 kJ/mol
# GULP energy per Si atom -12393.412983 kJ/mol
# Density = 1.750833 g / cm^3
# Si number density = 17.548272 Si / 1000 Ang^3
#
#
#
# Elastic Constant Matrix: (Units=GPa)
#
#
# Indices 1 2 3 4 5 6 
#
# 1 59.8437 30.9846 32.2414 0.0000 0.0000 0.0000
# 2 30.9846 101.4619 37.9321 0.0000 0.0000 0.0000
# 3 32.2414 37.9321 72.2072 0.0000 0.0000 0.0000
# 4 0.0000 0.0000 0.0000 19.6688 0.0000 0.0000
# 5 0.0000 0.0000 0.0000 0.0000 21.9006 0.0000
# 6 0.0000 0.0000 0.0000 0.0000 0.0000 18.8434
#
#
#
# Elastic Compliance Matrix: (Units=1/GPa)
#
#
# Indices 1 2 3 4 5 6 
#
# 1 0.023241 -0.004004 -0.008274 0.000000 0.000000 0.000000
# 2 -0.004004 0.012954 -0.005017 0.000000 0.000000 0.000000
# 3 -0.008274 -0.005017 0.020179 0.000000 0.000000 0.000000
# 4 0.000000 0.000000 0.000000 0.050842 0.000000 0.000000
# 5 0.000000 0.000000 0.000000 0.000000 0.045661 0.000000
# 6 0.000000 0.000000 0.000000 0.000000 0.000000 0.053069
#
#
# Mechanical properties :
#
#
# Convention : Reuss Voigt Hill
#
# Bulk Modulus (GPa) = 45.90568 48.42543 47.16555
# Shear Modulus (GPa) = 20.17767 20.90621 20.54194
#
# Velocity S-wave (km/s) = 3.39460 3.45534 3.42511
# Velocity P-wave (km/s) = 6.44833 6.60111 6.52517
#
# Compressibility (1/GPa) = 0.02178380
#
# Stress axis : x y z
#
# Youngs Moduli (GPa) = 43.02736 77.19333 49.55592
#
# Poissons Ratio (x) = 0.30909 0.41002
# Poissons Ratio (y) = 0.17229 0.24864
# Poissons Ratio (z) = 0.35601 0.38731
#
# Static dielectric constant tensor:
#      x y z
#    x 3.271810 0.000000 0.000000 
#    y 0.000000 3.778440 0.000000 
#    z 0.000000 0.000000 3.189210 
# 
# 
# High freq. dielectric constant tensor:
#      x y z
#    x 1.669050 0.000000 0.000000 
#    y 0.000000 1.680980 0.000000 
#    z 0.000000 0.000000 1.654170 
# 
# From -- ./inp_files/34445.got.cif
#   From: 2010.03.12/outbox.cif.g09.slc.cpg/sg53_18_cif.got.tgz:34445.got - 2010.04.16 14:36:59.
