data_PCOD8218328
_publ_section_title
;
Structure prediction by ZEFSAII (Michael W. Deem and Ramdas Pophale) SiO2 
 PCOD8218328
Probable space group: P M N A
;
_chemical_formula_sum "Si O2"
_cell_formula_units_Z 64
_cell_length_a 8.870058
_cell_length_b 12.421461
_cell_length_c 31.738034
_cell_angle_alpha 90.000000
_cell_angle_beta 90.000000
_cell_angle_gamma 90.000000
_cell_volume 3496.867372
_symmetry_space_group_name_H-M "P M N A"
_symmetry_group_IT_number 53
_symmetry_cell_setting 'orthorhombic'
loop_
_space_group_symop_operation_xyz
x,y,z
1/2-x,-y,1/2+z
x,-y,-z
1/2-x,y,1/2-z
-x,-y,-z
1/2+x,y,1/2-z
-x,y,z
1/2+x,-y,1/2+z
loop_
_atom_site_type_symbol
_atom_site_label
_atom_site_fract_x
_atom_site_fract_y
_atom_site_fract_z
Si Si1 0.178117 0.062949 0.885405
Si Si2 0.677380 0.696768 0.393020
Si Si3 0.826054 0.144345 0.363127
Si Si4 0.176282 0.322575 0.294605
Si Si5 0.322066 0.671928 0.925971
Si Si6 0.323641 0.706776 0.487348
Si Si7 0.336415 0.910611 0.032366
Si Si8 0.178361 0.524345 0.857365
O O1 0.232552 0.186410 0.874935
O O2 0.259294 0.030899 0.928424
O O3 0.000000 0.058245 0.889098
O O4 0.232994 0.966477 0.854874
O O5 0.500000 0.703516 0.397807
O O6 0.735659 0.670082 0.440767
O O7 0.724882 0.601908 0.361239
O O8 0.787574 0.220686 0.323806
O O9 0.783729 0.210114 0.406087
O O10 0.000000 0.112025 0.363839
O O11 0.250000 0.299504 0.250000
O O12 0.246096 0.430204 0.315133
O O13 0.000000 0.342045 0.289279
O O14 0.500000 0.651750 0.923119
O O15 0.266995 0.653885 0.973921
O O16 0.237901 0.582376 0.898911
O O17 0.500000 0.684490 0.494316
O O18 0.285836 0.832514 0.488698
O O19 0.500000 0.855632 0.043937
O O20 0.378370 0.000000 0.000000
O O21 0.000000 0.539334 0.854399
#
# Coordination Sequence:
#
# PCOD8218328 Si02
#       8
#     8   8   8   8   8   8   8   8
#     4  10  19  31  49  72  98 131 172 210 246 295
#     4   8  18  34  49  70 101 137 177 220 259 298
#     4   9  19  34  51  74 106 136 162 202 254 305
#     4  10  21  38  60  87 113 132 158 199 250 306
#     4  10  20  33  47  70 104 136 173 222 271 312
#     4  10  19  31  46  66  94 132 180 224 262 305
#     4  10  19  29  41  60  91 130 170 215 263 301
#     4  10  19  35  57  76 100 136 174 211 257 307
#
# _framework density 18.302095000000001
#
# number of rings (size 3 to 8) (size 9 to 14) (size 15 to 20)
#    0.000    2.375    0.000    4.500    0.000    7.500 
#    0.000   10.000    0.000    0.750    0.000    1.750 
#    0.000    0.000    0.000    0.000    0.000    0.000 
#
# Total GULP energy -792915.017739 kJ/mol
# GULP energy per Si atom -12389.297152 kJ/mol
# Density = 1.826044 g / cm^3
# Si number density = 18.302095 Si / 1000 Ang^3
#
#
#
# Elastic Constant Matrix: (Units=GPa)
#
#
# Indices 1 2 3 4 5 6 
#
# 1 82.5363 44.2727 39.2124 0.0000 0.0000 0.0000
# 2 44.2727 114.4460 43.5081 0.0000 0.0000 0.0000
# 3 39.2124 43.5081 75.3337 0.0000 0.0000 0.0000
# 4 0.0000 0.0000 0.0000 14.4547 0.0000 0.0000
# 5 0.0000 0.0000 0.0000 0.0000 9.9621 0.0000
# 6 0.0000 0.0000 0.0000 0.0000 0.0000 47.0445
#
#
#
# Elastic Compliance Matrix: (Units=1/GPa)
#
#
# Indices 1 2 3 4 5 6 
#
# 1 0.017578 -0.004256 -0.006692 0.000000 0.000000 0.000000
# 2 -0.004256 0.012226 -0.004846 0.000000 0.000000 0.000000
# 3 -0.006692 -0.004846 0.019556 0.000000 0.000000 0.000000
# 4 0.000000 0.000000 0.000000 0.069182 0.000000 0.000000
# 5 0.000000 0.000000 0.000000 0.000000 0.100381 0.000000
# 6 0.000000 0.000000 0.000000 0.000000 0.000000 0.021256
#
#
# Mechanical properties :
#
#
# Convention : Reuss Voigt Hill
#
# Bulk Modulus (GPa) = 56.26389 58.47803 57.37096
# Shear Modulus (GPa) = 18.00565 23.98043 20.99304
#
# Velocity S-wave (km/s) = 3.13997 3.62367 3.39046
# Velocity P-wave (km/s) = 6.62981 7.03768 6.83679
#
# Compressibility (1/GPa) = 0.01777339
#
# Stress axis : x y z
#
# Youngs Moduli (GPa) = 56.88937 81.79029 51.13512
#
# Poissons Ratio (x) = 0.34810 0.34218
# Poissons Ratio (y) = 0.24212 0.24779
# Poissons Ratio (z) = 0.38068 0.39634
#
# Static dielectric constant tensor:
#      x y z
#    x 3.364540 0.000000 0.000000 
#    y 0.000000 3.551280 0.000000 
#    z 0.000000 0.000000 3.232100 
# 
# 
# High freq. dielectric constant tensor:
#      x y z
#    x 1.715610 0.000000 0.000000 
#    y 0.000000 1.706740 0.000000 
#    z 0.000000 0.000000 1.676450 
# 
# From -- ./inp_files/38120.got.cif
#   From: 2010.03.12/outbox.cif.g09.slc.cpg/sg53_20_cif.got.tgz:38120.got - 2010.04.16 14:36:59.
