data_PCOD8219696
_publ_section_title
;
Structure prediction by ZEFSAII (Michael W. Deem and Ramdas Pophale) SiO2 
 PCOD8219696
Probable space group: P M N A
;
_chemical_formula_sum "Si O2"
_cell_formula_units_Z 40
_cell_length_a 31.047343
_cell_length_b 14.518749
_cell_length_c 5.153970
_cell_angle_alpha 90.000000
_cell_angle_beta 90.000000
_cell_angle_gamma 90.000000
_cell_volume 2323.247739
_symmetry_space_group_name_H-M "P M N A"
_symmetry_group_IT_number 53
_symmetry_cell_setting 'orthorhombic'
loop_
_space_group_symop_operation_xyz
x,y,z
1/2-x,-y,1/2+z
x,-y,-z
1/2-x,y,1/2-z
-x,-y,-z
1/2+x,y,1/2-z
-x,y,z
1/2+x,-y,1/2+z
loop_
_atom_site_type_symbol
_atom_site_label
_atom_site_fract_x
_atom_site_fract_y
_atom_site_fract_z
Si Si1 0.830719 0.756237 0.846806
Si Si2 0.813406 0.000000 0.500000
Si Si3 0.750000 0.858329 0.750000
Si Si4 0.047877 0.060693 0.754407
Si Si5 0.699813 0.441240 0.251084
Si Si6 0.632403 0.844808 0.167235
O O1 0.782276 0.792581 0.908940
O O2 0.828927 0.650450 0.760385
O O3 0.856226 0.811271 0.622851
O O4 0.854183 0.769327 0.120951
O O5 0.781469 0.079234 0.413533
O O6 0.844188 0.054175 0.706418
O O7 0.081342 0.143398 0.706333
O O8 0.000000 0.102170 0.804111
O O9 0.047568 0.000000 0.500000
O O10 0.062545 0.000000 0.000000
O O11 0.687590 0.500000 0.500000
O O12 0.750000 0.414582 0.250000
O O13 0.686986 0.500000 0.000000
#
# Coordination Sequence:
#
# PCOD8219696 Si02
#       6
#     8   4   4   8   8   8
#     4  11  22  35  51  76 102 134 177 222 253 300
#     4  10  20  32  47  68 100 152 177 216 238 292
#     4  10  20  32  44  68  98 142 180 210 242 282
#     4  10  20  35  54  75 102 138 178 212 259 308
#     4  10  20  36  55  73 100 134 173 215 270 320
#     4  11  22  33  53  73 106 135 178 219 250 296
#
# _framework density 17.217278
#
# number of rings (size 3 to 8) (size 9 to 14) (size 15 to 20)
#    0.000    1.600    2.000    3.600    2.800    2.400 
#    0.000    0.000    0.000    0.000    0.000    0.000 
#    0.000   16.000    0.000    0.000    0.000    0.000 
#
# Total GULP energy -495670.130636 kJ/mol
# GULP energy per Si atom -12391.753266 kJ/mol
# Density = 1.717809 g / cm^3
# Si number density = 17.217278 Si / 1000 Ang^3
#
#
#
# Elastic Constant Matrix: (Units=GPa)
#
#
# Indices 1 2 3 4 5 6 
#
# 1 96.1961 38.7527 21.0158 0.0000 0.0000 0.0000
# 2 38.7527 92.5781 26.7802 0.0000 0.0000 0.0000
# 3 21.0158 26.7802 97.6449 0.0000 0.0000 0.0000
# 4 0.0000 0.0000 0.0000 20.4341 0.0000 0.0000
# 5 0.0000 0.0000 0.0000 0.0000 26.4577 0.0000
# 6 0.0000 0.0000 0.0000 0.0000 0.0000 11.4110
#
#
#
# Elastic Compliance Matrix: (Units=1/GPa)
#
#
# Indices 1 2 3 4 5 6 
#
# 1 0.012673 -0.004905 -0.001382 0.000000 0.000000 0.000000
# 2 -0.004905 0.013631 -0.002683 0.000000 0.000000 0.000000
# 3 -0.001382 -0.002683 0.011274 0.000000 0.000000 0.000000
# 4 0.000000 0.000000 0.000000 0.048938 0.000000 0.000000
# 5 0.000000 0.000000 0.000000 0.000000 0.037796 0.000000
# 6 0.000000 0.000000 0.000000 0.000000 0.000000 0.087635
#
#
# Mechanical properties :
#
#
# Convention : Reuss Voigt Hill
#
# Bulk Modulus (GPa) = 50.92060 51.05739 50.98899
# Shear Modulus (GPa) = 21.14748 24.98524 23.06636
#
# Velocity S-wave (km/s) = 3.50847 3.81356 3.66419
# Velocity P-wave (km/s) = 6.78616 7.00786 6.89790
#
# Compressibility (1/GPa) = 0.01963842
#
# Stress axis : x y z
#
# Youngs Moduli (GPa) = 78.90483 73.36209 88.69588
#
# Poissons Ratio (x) = 0.35985 0.12261
# Poissons Ratio (y) = 0.38704 0.23795
# Poissons Ratio (z) = 0.10908 0.19681
#
# Static dielectric constant tensor:
#      x y z
#    x 3.484370 0.000000 0.000000 
#    y 0.000000 3.184390 0.000000 
#    z 0.000000 0.000000 3.246650 
# 
# 
# High freq. dielectric constant tensor:
#      x y z
#    x 1.648730 0.000000 0.000000 
#    y 0.000000 1.644140 0.000000 
#    z 0.000000 0.000000 1.671480 
# 
# From -- ./inp_files/4391.got.cif
#   From: 2010.03.12/outbox.cif.g09.slc.cpg/sg53_3_cif.got.tgz:4391.got - 2010.04.16 14:36:59.
