data_PCOD8219077
_publ_section_title
;
Structure prediction by ZEFSAII (Michael W. Deem and Ramdas Pophale) SiO2 
 PCOD8219077
Probable space group: P M N A
;
_chemical_formula_sum "Si O2"
_cell_formula_units_Z 64
_cell_length_a 9.502463
_cell_length_b 14.839345
_cell_length_c 22.391422
_cell_angle_alpha 90.000000
_cell_angle_beta 90.000000
_cell_angle_gamma 90.000000
_cell_volume 3157.421734
_symmetry_space_group_name_H-M "P M N A"
_symmetry_group_IT_number 53
_symmetry_cell_setting 'orthorhombic'
loop_
_space_group_symop_operation_xyz
x,y,z
1/2-x,-y,1/2+z
x,-y,-z
1/2-x,y,1/2-z
-x,-y,-z
1/2+x,y,1/2-z
-x,y,z
1/2+x,-y,1/2+z
loop_
_atom_site_type_symbol
_atom_site_label
_atom_site_fract_x
_atom_site_fract_y
_atom_site_fract_z
Si Si1 0.833711 0.007300 0.807622
Si Si2 0.333895 0.434802 0.055479
Si Si3 0.659605 0.199481 0.303598
Si Si4 0.157198 0.704697 0.302157
Si Si5 0.839016 0.135074 0.612379
Si Si6 0.342440 0.731456 0.571527
Si Si7 0.166125 0.500768 0.689617
Si Si8 0.341595 0.895632 0.491939
O O1 0.750000 0.042913 0.750000
O O2 0.799174 0.903040 0.818983
O O3 0.000000 0.026702 0.800959
O O4 0.768674 0.061320 0.862322
O O5 0.500000 0.423770 0.053911
O O6 0.264163 0.338112 0.040660
O O7 0.286694 0.461741 0.123772
O O8 0.287452 0.500000 0.000000
O O9 0.750000 0.239493 0.250000
O O10 0.500000 0.202632 0.282265
O O11 0.689948 0.265575 0.358208
O O12 0.250000 0.747530 0.250000
O O13 0.174514 0.766725 0.359464
O O14 0.203898 0.604176 0.318275
O O15 0.000000 0.705311 0.277318
O O16 0.781480 0.149832 0.546404
O O17 0.000000 0.099865 0.614394
O O18 0.500000 0.695622 0.559186
O O19 0.331149 0.836072 0.551683
O O20 0.250000 0.536517 0.750000
O O21 0.000000 0.518273 0.700305
O O22 0.500000 0.887724 0.464766
O O23 0.304055 0.000000 0.500000
#
# Coordination Sequence:
#
# PCOD8219077 Si02
#       8
#     8   8   8   8   8   8   8   8
#     4  10  19  33  53  78 113 154 195 241 293 349
#     4  10  23  41  64  89 119 160 201 245 303 363
#     4   9  19  36  58  83 112 149 188 232 286 345
#     4   9  19  34  53  79 112 147 186 235 287 346
#     4  11  22  33  52  81 111 148 195 246 296 350
#     4  10  22  40  61  87 117 150 192 241 291 348
#     4   9  19  38  61  86 116 155 198 241 296 357
#     4  10  22  41  61  81 112 156 199 240 294 356
#
# _framework density 20.269704000000001
#
# number of rings (size 3 to 8) (size 9 to 14) (size 15 to 20)
#    0.000    2.250    0.000    1.875    1.750    7.000 
#    0.000    3.750    0.000    0.000    0.000    0.000 
#    0.000    0.000    0.000    0.000    0.000    0.000 
#
# Total GULP energy -793095.769624 kJ/mol
# GULP energy per Si atom -12392.121400 kJ/mol
# Density = 2.022357 g / cm^3
# Si number density = 20.269704 Si / 1000 Ang^3
#
#
#
# Elastic Constant Matrix: (Units=GPa)
#
#
# Indices 1 2 3 4 5 6 
#
# 1 77.8768 39.6489 45.1103 0.0000 0.0000 0.0000
# 2 39.6489 86.5858 34.8901 0.0000 0.0000 0.0000
# 3 45.1103 34.8901 105.5875 0.0000 0.0000 0.0000
# 4 0.0000 0.0000 0.0000 20.8702 0.0000 0.0000
# 5 0.0000 0.0000 0.0000 0.0000 36.0955 0.0000
# 6 0.0000 0.0000 0.0000 0.0000 0.0000 29.1443
#
#
#
# Elastic Compliance Matrix: (Units=1/GPa)
#
#
# Indices 1 2 3 4 5 6 
#
# 1 0.019822 -0.006535 -0.006310 0.000000 0.000000 0.000000
# 2 -0.006535 0.015477 -0.002323 0.000000 0.000000 0.000000
# 3 -0.006310 -0.002323 0.012934 0.000000 0.000000 0.000000
# 4 0.000000 0.000000 0.000000 0.047915 0.000000 0.000000
# 5 0.000000 0.000000 0.000000 0.000000 0.027704 0.000000
# 6 0.000000 0.000000 0.000000 0.000000 0.000000 0.034312
#
#
# Mechanical properties :
#
#
# Convention : Reuss Voigt Hill
#
# Bulk Modulus (GPa) = 55.86429 56.59430 56.22930
# Shear Modulus (GPa) = 25.71153 27.24873 26.48013
#
# Velocity S-wave (km/s) = 3.56542 3.67046 3.61832
# Velocity P-wave (km/s) = 6.67608 6.77822 6.72734
#
# Compressibility (1/GPa) = 0.01790052
#
# Stress axis : x y z
#
# Youngs Moduli (GPa) = 50.44777 64.61040 77.31622
#
# Poissons Ratio (x) = 0.42220 0.48783
# Poissons Ratio (y) = 0.32965 0.17957
# Poissons Ratio (z) = 0.31830 0.15006
#
# Static dielectric constant tensor:
#      x y z
#    x 3.715530 0.000000 0.000000 
#    y 0.000000 3.572600 0.000000 
#    z 0.000000 0.000000 3.861770 
# 
# 
# High freq. dielectric constant tensor:
#      x y z
#    x 1.789190 0.000000 0.000000 
#    y 0.000000 1.789070 0.000000 
#    z 0.000000 0.000000 1.792130 
# 
# From -- ./inp_files/34278.got.cif
#   From: 2010.03.12/outbox.cif.g09.slc.cpg/sg53_18_cif.got.tgz:34278.got - 2010.04.16 14:36:59.
