data_PCOD8219499
_publ_section_title
;
Structure prediction by ZEFSAII (Michael W. Deem and Ramdas Pophale) SiO2 
 PCOD8219499
Probable space group: P M N A
;
_chemical_formula_sum "Si O2"
_cell_formula_units_Z 48
_cell_length_a 8.675138
_cell_length_b 10.200291
_cell_length_c 27.933892
_cell_angle_alpha 90.000000
_cell_angle_beta 90.000000
_cell_angle_gamma 90.000000
_cell_volume 2471.840272
_symmetry_space_group_name_H-M "P M N A"
_symmetry_group_IT_number 53
_symmetry_cell_setting 'orthorhombic'
loop_
_space_group_symop_operation_xyz
x,y,z
1/2-x,-y,1/2+z
x,-y,-z
1/2-x,y,1/2-z
-x,-y,-z
1/2+x,y,1/2-z
-x,y,z
1/2+x,-y,1/2+z
loop_
_atom_site_type_symbol
_atom_site_label
_atom_site_fract_x
_atom_site_fract_y
_atom_site_fract_z
Si Si1 0.323910 0.506439 0.897524
Si Si2 0.178955 0.244874 0.544103
Si Si3 0.321952 0.754113 0.558173
Si Si4 0.818705 0.896297 0.200053
Si Si5 0.179912 0.999618 0.607648
Si Si6 0.179187 0.385298 0.701327
O O1 0.500000 0.549513 0.907476
O O2 0.288253 0.370017 0.923269
O O3 0.208870 0.615341 0.916878
O O4 0.293887 0.489146 0.840954
O O5 0.282548 0.256886 0.497415
O O6 0.000000 0.235162 0.529270
O O7 0.232776 0.116543 0.572755
O O8 0.500000 0.791457 0.564365
O O9 0.216583 0.862960 0.582683
O O10 0.750000 0.948610 0.250000
O O11 0.759125 0.751185 0.188040
O O12 0.000000 0.893756 0.204648
O O13 0.769261 0.993782 0.157799
O O14 0.000000 0.010570 0.618616
O O15 0.250000 0.445435 0.750000
O O16 0.000000 0.355165 0.708829
#
# Coordination Sequence:
#
# PCOD8219499 Si02
#       6
#     8   8   8   8   8   8
#     4  10  21  40  62  85 116 157 202 240 289 354
#     4  10  21  40  64  86 112 154 204 245 290 352
#     4  12  26  39  55  87 124 156 195 244 301 355
#     4  11  21  35  59  90 122 153 191 241 292 345
#     4  11  22  41  64  87 116 156 201 244 292 349
#     4  10  19  35  59  89 118 151 195 241 289 345
#
# _framework density 19.418731000000001
#
# number of rings (size 3 to 8) (size 9 to 14) (size 15 to 20)
#    0.000    1.333    1.667    6.000    0.000    7.333 
#    0.000    0.833    0.000    2.000    0.000    0.000 
#    0.000    0.000    0.000    0.000    0.000    0.000 
#
# Total GULP energy -595481.297475 kJ/mol
# GULP energy per Si atom -12405.860364 kJ/mol
# Density = 1.937453 g / cm^3
# Si number density = 19.418731 Si / 1000 Ang^3
#
#
#
# Elastic Constant Matrix: (Units=GPa)
#
#
# Indices 1 2 3 4 5 6 
#
# 1 104.5053 24.5471 49.5138 0.0000 0.0000 0.0000
# 2 24.5471 50.1773 21.0900 0.0000 0.0000 0.0000
# 3 49.5138 21.0900 123.6889 0.0000 0.0000 0.0000
# 4 0.0000 0.0000 0.0000 61.8545 0.0000 0.0000
# 5 0.0000 0.0000 0.0000 0.0000 10.2826 0.0000
# 6 0.0000 0.0000 0.0000 0.0000 0.0000 13.7726
#
#
#
# Elastic Compliance Matrix: (Units=1/GPa)
#
#
# Indices 1 2 3 4 5 6 
#
# 1 0.012640 -0.004370 -0.004315 0.000000 0.000000 0.000000
# 2 -0.004370 0.022979 -0.002169 0.000000 0.000000 0.000000
# 3 -0.004315 -0.002169 0.010182 0.000000 0.000000 0.000000
# 4 0.000000 0.000000 0.000000 0.016167 0.000000 0.000000
# 5 0.000000 0.000000 0.000000 0.000000 0.097252 0.000000
# 6 0.000000 0.000000 0.000000 0.000000 0.000000 0.072608
#
#
# Mechanical properties :
#
#
# Convention : Reuss Voigt Hill
#
# Bulk Modulus (GPa) = 41.50504 52.07482 46.78993
# Shear Modulus (GPa) = 19.11577 29.39666 24.25621
#
# Velocity S-wave (km/s) = 3.14092 3.89502 3.53812
# Velocity P-wave (km/s) = 5.87996 6.86318 6.39051
#
# Compressibility (1/GPa) = 0.02409346
#
# Stress axis : x y z
#
# Youngs Moduli (GPa) = 79.11667 43.51871 98.21470
#
# Poissons Ratio (x) = 0.19017 0.42376
# Poissons Ratio (y) = 0.34573 0.21300
# Poissons Ratio (z) = 0.34136 0.09438
#
# Static dielectric constant tensor:
#      x y z
#    x 3.530020 0.000000 0.000000 
#    y 0.000000 3.345430 0.000000 
#    z 0.000000 0.000000 3.760400 
# 
# 
# High freq. dielectric constant tensor:
#      x y z
#    x 1.760390 0.000000 0.000000 
#    y 0.000000 1.738900 0.000000 
#    z 0.000000 0.000000 1.773020 
# 
# From -- ./inp_files/37710.got.cif
#   From: 2010.03.12/outbox.cif.g09.slc.cpg/sg53_19_cif.got.tgz:37710.got - 2010.04.16 14:36:59.
