data_PCOD8219055
_publ_section_title
;
Structure prediction by ZEFSAII (Michael W. Deem and Ramdas Pophale) SiO2 
 PCOD8219055
Probable space group: P M N A
;
_chemical_formula_sum "Si O2"
_cell_formula_units_Z 60
_cell_length_a 24.182096
_cell_length_b 13.701917
_cell_length_c 9.176957
_cell_angle_alpha 90.000000
_cell_angle_beta 90.000000
_cell_angle_gamma 90.000000
_cell_volume 3040.702773
_symmetry_space_group_name_H-M "P M N A"
_symmetry_group_IT_number 53
_symmetry_cell_setting 'orthorhombic'
loop_
_space_group_symop_operation_xyz
x,y,z
1/2-x,-y,1/2+z
x,-y,-z
1/2-x,y,1/2-z
-x,-y,-z
1/2+x,y,1/2-z
-x,y,z
1/2+x,-y,1/2+z
loop_
_atom_site_type_symbol
_atom_site_label
_atom_site_fract_x
_atom_site_fract_y
_atom_site_fract_z
Si Si1 0.370191 0.551847 0.714743
Si Si2 0.938698 0.055973 0.650983
Si Si3 0.622403 0.221727 0.989167
Si Si4 0.563215 0.696105 0.516659
Si Si5 0.435975 0.140638 0.268511
Si Si6 0.212956 0.671479 0.612177
Si Si7 0.282757 0.500000 0.500000
Si Si8 0.063835 0.370235 0.699329
O O1 0.398062 0.615369 0.588384
O O2 0.343853 0.620568 0.836559
O O3 0.319828 0.489715 0.644690
O O4 0.414901 0.480391 0.783810
O O5 0.891769 0.138942 0.632453
O O6 0.000000 0.100859 0.689014
O O7 0.944018 0.000000 0.500000
O O8 0.920449 0.975395 0.773204
O O9 0.596091 0.322123 0.933572
O O10 0.597253 0.196476 0.144902
O O11 0.688996 0.237880 0.015011
O O12 0.500000 0.667748 0.552707
O O13 0.576546 0.805316 0.577789
O O14 0.573922 0.694488 0.344597
O O15 0.500000 0.148842 0.225740
O O16 0.250000 0.707105 0.750000
O O17 0.246422 0.598057 0.508903
O O18 0.000000 0.376027 0.658266
#
# Coordination Sequence:
#
# PCOD8219055 Si02
#       8
#     8   8   8   8   8   8   4   8
#     4  11  19  36  54  70 108 150 186 228 277 335
#     4   8  15  29  52  82 113 142 172 210 270 340
#     4  11  19  34  53  78 112 140 176 234 283 327
#     4  10  19  33  52  78 112 153 188 214 263 344
#     4   9  17  32  56  83 111 144 181 217 263 343
#     4  10  22  35  53  78 100 137 196 242 280 326
#     4  10  20  36  53  70 101 138 186 240 276 314
#     4  11  22  32  49  81 117 150 180 219 277 342
#
# _framework density 19.732279999999999
#
# number of rings (size 3 to 8) (size 9 to 14) (size 15 to 20)
#    0.000    2.000    2.667    3.200    0.000    1.067 
#    0.000    1.333    0.000    3.200    0.000   16.800 
#    0.000    0.000    0.000    0.000    0.000    0.000 
#
# Total GULP energy -743617.392885 kJ/mol
# GULP energy per Si atom -12393.623215 kJ/mol
# Density = 1.968737 g / cm^3
# Si number density = 19.732280 Si / 1000 Ang^3
#
#
#
# Elastic Constant Matrix: (Units=GPa)
#
#
# Indices 1 2 3 4 5 6 
#
# 1 95.7988 54.0736 32.0995 0.0000 0.0000 0.0000
# 2 54.0736 91.0791 22.9996 0.0000 0.0000 0.0000
# 3 32.0995 22.9996 36.8555 0.0000 0.0000 0.0000
# 4 0.0000 0.0000 0.0000 22.6294 0.0000 0.0000
# 5 0.0000 0.0000 0.0000 0.0000 24.9103 0.0000
# 6 0.0000 0.0000 0.0000 0.0000 0.0000 11.8966
#
#
#
# Elastic Compliance Matrix: (Units=1/GPa)
#
#
# Indices 1 2 3 4 5 6 
#
# 1 0.018962 -0.008413 -0.011265 0.000000 0.000000 0.000000
# 2 -0.008413 0.016766 -0.003135 0.000000 0.000000 0.000000
# 3 -0.011265 -0.003135 0.038901 0.000000 0.000000 0.000000
# 4 0.000000 0.000000 0.000000 0.044190 0.000000 0.000000
# 5 0.000000 0.000000 0.000000 0.000000 0.040144 0.000000
# 6 0.000000 0.000000 0.000000 0.000000 0.000000 0.084058
#
#
# Mechanical properties :
#
#
# Convention : Reuss Voigt Hill
#
# Bulk Modulus (GPa) = 34.48022 49.11986 41.80004
# Shear Modulus (GPa) = 16.76085 19.52463 18.14274
#
# Velocity S-wave (km/s) = 2.91763 3.14901 3.03552
# Velocity P-wave (km/s) = 5.37234 6.17809 5.78925
#
# Compressibility (1/GPa) = 0.02900213
#
# Stress axis : x y z
#
# Youngs Moduli (GPa) = 52.73781 59.64444 25.70649
#
# Poissons Ratio (x) = 0.50179 0.28958
# Poissons Ratio (y) = 0.44368 0.08060
# Poissons Ratio (z) = 0.59408 0.18701
#
# Static dielectric constant tensor:
#      x y z
#    x 3.592450 0.000000 0.000000 
#    y 0.000000 3.872500 0.000000 
#    z 0.000000 0.000000 3.577990 
# 
# 
# High freq. dielectric constant tensor:
#      x y z
#    x 1.753170 0.000000 0.000000 
#    y 0.000000 1.756830 0.000000 
#    z 0.000000 0.000000 1.758470 
# 
# From -- ./inp_files/11899.got.cif
#   From: 2010.03.12/outbox.cif.g09.slc.cpg/sg53_6_cif.got.tgz:11899.got - 2010.04.16 14:36:59.
