data_PCOD8219517
_publ_section_title
;
Structure prediction by ZEFSAII (Michael W. Deem and Ramdas Pophale) SiO2 
 PCOD8219517
Probable space group: P M N A
;
_chemical_formula_sum "Si O2"
_cell_formula_units_Z 40
_cell_length_a 10.110565
_cell_length_b 10.617586
_cell_length_c 18.152389
_cell_angle_alpha 90.000000
_cell_angle_beta 90.000000
_cell_angle_gamma 90.000000
_cell_volume 1948.655209
_symmetry_space_group_name_H-M "P M N A"
_symmetry_group_IT_number 53
_symmetry_cell_setting 'orthorhombic'
loop_
_space_group_symop_operation_xyz
x,y,z
1/2-x,-y,1/2+z
x,-y,-z
1/2-x,y,1/2-z
-x,-y,-z
1/2+x,y,1/2-z
-x,y,z
1/2+x,-y,1/2+z
loop_
_atom_site_type_symbol
_atom_site_label
_atom_site_fract_x
_atom_site_fract_y
_atom_site_fract_z
Si Si1 0.500000 0.989985 0.203264
Si Si2 0.235016 0.728997 0.599750
Si Si3 0.000000 0.360128 0.861007
Si Si4 0.000000 0.348584 0.017383
Si Si5 0.500000 0.878984 0.948204
Si Si6 0.750000 0.884985 0.750000
Si Si7 0.500000 0.292097 0.803026
Si Si8 0.728301 0.520331 0.167661
O O1 0.500000 0.085485 0.136397
O O2 0.627234 0.019201 0.252290
O O3 0.500000 0.849992 0.168661
O O4 0.373291 0.702941 0.560283
O O5 0.258822 0.803366 0.675787
O O6 0.168471 0.594618 0.620683
O O7 0.134823 0.797516 0.542252
O O8 0.129259 0.447266 0.865292
O O9 0.000000 0.279753 0.786081
O O10 0.000000 0.279582 0.936575
O O11 0.000000 0.500000 0.000000
O O12 0.500000 0.000000 0.000000
O O13 0.629794 0.360993 0.833668
O O14 0.750000 0.471105 0.250000
#
# Coordination Sequence:
#
# PCOD8219517 Si02
#       8
#     4   8   4   4   4   4   4   8
#     4  10  23  41  63  87 122 158 216 255 303 377
#     4  11  21  41  68  88 127 158 215 262 307 383
#     4  10  22  37  55  92 133 159 191 243 329 379
#     4  12  23  39  61  98 130 164 196 256 329 397
#     4  10  25  46  60  88 121 174 212 262 304 364
#     4  10  22  40  66  92 112 168 214 262 300 348
#     4  10  23  37  61  95 127 159 205 264 317 367
#     4  10  19  35  61  95 123 159 198 260 323 363
#
# _framework density 20.526976000000001
#
# number of rings (size 3 to 8) (size 9 to 14) (size 15 to 20)
#    0.000    1.600    3.000    1.200    4.200    1.600 
#    3.600    1.000    0.000    0.000    0.000    0.000 
#    0.000    0.000    0.000    0.000    0.000    0.000 
#
# Total GULP energy -495732.907911 kJ/mol
# GULP energy per Si atom -12393.322698 kJ/mol
# Density = 2.048026 g / cm^3
# Si number density = 20.526976 Si / 1000 Ang^3
#
#
#
# Elastic Constant Matrix: (Units=GPa)
#
#
# Indices 1 2 3 4 5 6 
#
# 1 181.5079 78.2454 53.0473 0.0000 0.0000 0.0000
# 2 78.2454 116.0053 27.3361 0.0000 0.0000 0.0000
# 3 53.0473 27.3361 82.6520 0.0000 0.0000 0.0000
# 4 0.0000 0.0000 0.0000 26.6778 0.0000 0.0000
# 5 0.0000 0.0000 0.0000 0.0000 14.6391 0.0000
# 6 0.0000 0.0000 0.0000 0.0000 0.0000 23.4914
#
#
#
# Elastic Compliance Matrix: (Units=1/GPa)
#
#
# Indices 1 2 3 4 5 6 
#
# 1 0.008848 -0.005021 -0.004018 0.000000 0.000000 0.000000
# 2 -0.005021 0.012198 -0.000812 0.000000 0.000000 0.000000
# 3 -0.004018 -0.000812 0.014946 0.000000 0.000000 0.000000
# 4 0.000000 0.000000 0.000000 0.037484 0.000000 0.000000
# 5 0.000000 0.000000 0.000000 0.000000 0.068310 0.000000
# 6 0.000000 0.000000 0.000000 0.000000 0.000000 0.042569
#
#
# Mechanical properties :
#
#
# Convention : Reuss Voigt Hill
#
# Bulk Modulus (GPa) = 61.38527 77.49143 69.43835
# Shear Modulus (GPa) = 23.86754 27.73076 25.79915
#
# Velocity S-wave (km/s) = 3.41360 3.67950 3.54904
# Velocity P-wave (km/s) = 6.74585 7.47560 7.12008
#
# Compressibility (1/GPa) = 0.01629055
#
# Stress axis : x y z
#
# Youngs Moduli (GPa) = 113.01461 81.97751 66.90577
#
# Poissons Ratio (x) = 0.41164 0.26885
# Poissons Ratio (y) = 0.56749 0.05431
# Poissons Ratio (z) = 0.45413 0.06654
#
# Static dielectric constant tensor:
#      x y z
#    x 3.804650 0.000000 0.000000 
#    y 0.000000 3.561290 0.000000 
#    z 0.000000 0.000000 3.853080 
# 
# 
# High freq. dielectric constant tensor:
#      x y z
#    x 1.815900 0.000000 0.000000 
#    y 0.000000 1.790360 0.000000 
#    z 0.000000 0.000000 1.799650 
# 
# From -- ./inp_files/25934.got.cif
#   From: 2010.03.12/outbox.cif.g09.slc.cpg/sg53_13_cif.got.tgz:25934.got - 2010.04.16 14:36:59.
