data_PCOD8219865
_publ_section_title
;
Structure prediction by ZEFSAII (Michael W. Deem and Ramdas Pophale) SiO2 
 PCOD8219865
Probable space group: P M N A
;
_chemical_formula_sum "Si O2"
_cell_formula_units_Z 64
_cell_length_a 8.930678
_cell_length_b 23.116603
_cell_length_c 15.190771
_cell_angle_alpha 90.000000
_cell_angle_beta 90.000000
_cell_angle_gamma 90.000000
_cell_volume 3136.088156
_symmetry_space_group_name_H-M "P M N A"
_symmetry_group_IT_number 53
_symmetry_cell_setting 'orthorhombic'
loop_
_space_group_symop_operation_xyz
x,y,z
1/2-x,-y,1/2+z
x,-y,-z
1/2-x,y,1/2-z
-x,-y,-z
1/2+x,y,1/2-z
-x,y,z
1/2+x,-y,1/2+z
loop_
_atom_site_type_symbol
_atom_site_label
_atom_site_fract_x
_atom_site_fract_y
_atom_site_fract_z
Si Si1 0.671041 0.129867 0.493154
Si Si2 0.171401 0.259700 0.015275
Si Si3 0.176088 0.354365 0.154455
Si Si4 0.822463 0.705849 0.341448
Si Si5 0.178349 0.957771 0.840317
Si Si6 0.341404 0.480902 0.406458
Si Si7 0.830059 0.422603 0.665546
Si Si8 0.178960 0.081294 0.658386
O O1 0.500000 0.117335 0.521691
O O2 0.685443 0.193865 0.451016
O O3 0.722611 0.085851 0.417687
O O4 0.775647 0.123844 0.579048
O O5 0.236473 0.303602 0.089353
O O6 0.000000 0.276782 0.994699
O O7 0.263908 0.259230 0.924745
O O8 0.250000 0.348560 0.250000
O O9 0.218634 0.415692 0.109005
O O10 0.000000 0.347326 0.167438
O O11 0.750000 0.728327 0.250000
O O12 0.765829 0.640111 0.360656
O O13 0.000000 0.712741 0.334033
O O14 0.250000 0.933786 0.750000
O O15 0.000000 0.964791 0.829709
O O16 0.252826 0.018793 0.864223
O O17 0.399251 0.500000 0.500000
O O18 0.500000 0.487993 0.350471
O O19 0.203444 0.525577 0.399726
O O20 0.750000 0.448035 0.750000
O O21 0.000000 0.413094 0.685461
O O22 0.250000 0.104394 0.750000
O O23 0.000000 0.078360 0.667417
#
# Coordination Sequence:
#
# PCOD8219865 Si02
#       8
#     8   8   8   8   8   8   8   8
#     4  10  22  39  59  84 115 152 193 239 288 336
#     4  10  22  41  61  81 110 151 198 242 285 337
#     4  10  22  39  59  83 113 153 197 242 292 343
#     4  10  21  37  58  84 113 147 186 233 291 351
#     4  10  20  36  59  87 120 154 190 234 284 338
#     4  10  20  34  54  80 109 141 179 226 282 341
#     4  10  20  33  51  76 104 133 169 214 268 330
#     4  11  22  37  60  89 121 155 190 230 281 342
#
# _framework density 20.407589999999999
#
# number of rings (size 3 to 8) (size 9 to 14) (size 15 to 20)
#    0.000    1.875    0.000    4.500    0.000    8.750 
#    0.000    0.000    0.000    0.000    0.000    0.000 
#    0.000    0.000    0.000    0.000    0.000    0.000 
#
# Total GULP energy -792966.020031 kJ/mol
# GULP energy per Si atom -12390.094063 kJ/mol
# Density = 2.036114 g / cm^3
# Si number density = 20.407590 Si / 1000 Ang^3
#
#
#
# Elastic Constant Matrix: (Units=GPa)
#
#
# Indices 1 2 3 4 5 6 
#
# 1 84.9905 22.8688 35.1044 0.0000 0.0000 0.0000
# 2 22.8688 78.9680 43.3363 0.0000 0.0000 0.0000
# 3 35.1044 43.3363 114.4301 0.0000 0.0000 0.0000
# 4 0.0000 0.0000 0.0000 22.5907 0.0000 0.0000
# 5 0.0000 0.0000 0.0000 0.0000 34.9198 0.0000
# 6 0.0000 0.0000 0.0000 0.0000 0.0000 26.7479
#
#
#
# Elastic Compliance Matrix: (Units=1/GPa)
#
#
# Indices 1 2 3 4 5 6 
#
# 1 0.013745 -0.002104 -0.003420 0.000000 0.000000 0.000000
# 2 -0.002104 0.016308 -0.005531 0.000000 0.000000 0.000000
# 3 -0.003420 -0.005531 0.011883 0.000000 0.000000 0.000000
# 4 0.000000 0.000000 0.000000 0.044266 0.000000 0.000000
# 5 0.000000 0.000000 0.000000 0.000000 0.028637 0.000000
# 6 0.000000 0.000000 0.000000 0.000000 0.000000 0.037386
#
#
# Mechanical properties :
#
#
# Convention : Reuss Voigt Hill
#
# Bulk Modulus (GPa) = 50.43700 53.44530 51.94115
# Shear Modulus (GPa) = 27.63333 28.65697 28.14515
#
# Velocity S-wave (km/s) = 3.68376 3.75137 3.71772
# Velocity P-wave (km/s) = 6.54690 6.70891 6.62840
#
# Compressibility (1/GPa) = 0.01982672
#
# Stress axis : x y z
#
# Youngs Moduli (GPa) = 72.75597 61.32089 84.15669
#
# Poissons Ratio (x) = 0.12900 0.28780
# Poissons Ratio (y) = 0.15305 0.46544
# Poissons Ratio (z) = 0.24881 0.33914
#
# Static dielectric constant tensor:
#      x y z
#    x 3.338990 0.000000 0.000000 
#    y 0.000000 3.721940 0.000000 
#    z 0.000000 0.000000 3.498890 
# 
# 
# High freq. dielectric constant tensor:
#      x y z
#    x 1.798750 0.000000 0.000000 
#    y 0.000000 1.797810 0.000000 
#    z 0.000000 0.000000 1.792690 
# 
# From -- ./inp_files/20968.got.cif
#   From: 2010.03.12/outbox.cif.g09.slc.cpg/sg53_11_cif.got.tgz:20968.got - 2010.04.16 14:36:59.
