data_PCOD8219179
_publ_section_title
;
Structure prediction by ZEFSAII (Michael W. Deem and Ramdas Pophale) SiO2 
 PCOD8219179
Probable space group: P M N A
;
_chemical_formula_sum "Si O2"
_cell_formula_units_Z 48
_cell_length_a 17.848818
_cell_length_b 12.754282
_cell_length_c 11.643878
_cell_angle_alpha 90.000000
_cell_angle_beta 90.000000
_cell_angle_gamma 90.000000
_cell_volume 2650.715531
_symmetry_space_group_name_H-M "P M N A"
_symmetry_group_IT_number 53
_symmetry_cell_setting 'orthorhombic'
loop_
_space_group_symop_operation_xyz
x,y,z
1/2-x,-y,1/2+z
x,-y,-z
1/2-x,y,1/2-z
-x,-y,-z
1/2+x,y,1/2-z
-x,y,z
1/2+x,-y,1/2+z
loop_
_atom_site_type_symbol
_atom_site_label
_atom_site_fract_x
_atom_site_fract_y
_atom_site_fract_z
Si Si1 0.911608 0.816183 0.736709
Si Si2 0.338175 0.203252 0.759864
Si Si3 0.911342 0.610807 0.139852
Si Si4 0.412851 0.122017 0.985582
Si Si5 0.586676 0.018828 0.633190
Si Si6 0.911180 0.623536 0.880453
O O1 0.891885 0.816714 0.602300
O O2 0.876590 0.712760 0.796910
O O3 0.000000 0.816975 0.756612
O O4 0.879191 0.920555 0.796962
O O5 0.250000 0.205599 0.750000
O O6 0.370036 0.318246 0.733221
O O7 0.362001 0.171220 0.887476
O O8 0.369540 0.122768 0.666532
O O9 0.884872 0.491085 0.161691
O O10 0.000000 0.623116 0.155354
O O11 0.886324 0.644961 0.011513
O O12 0.500000 0.136231 0.953400
O O13 0.393815 0.000000 0.000000
O O14 0.500000 0.036417 0.664927
O O15 0.598563 0.000000 0.500000
O O16 0.000000 0.626167 0.875774
#
# Coordination Sequence:
#
# PCOD8219179 Si02
#       6
#     8   8   8   8   8   8
#     4   9  16  29  54  84 107 128 168 222 270 321
#     4  12  24  35  51  75 113 149 182 221 262 327
#     4   9  17  33  58  81 105 137 180 227 275 318
#     4  10  19  35  57  77 106 147 181 213 265 328
#     4  10  19  33  56  83 106 133 177 231 276 313
#     4   8  15  30  58  89 105 125 169 233 285 317
#
# _framework density 18.108319000000002
#
# number of rings (size 3 to 8) (size 9 to 14) (size 15 to 20)
#    0.000    2.333    1.667    3.500    0.000    3.333 
#    0.000    0.833    7.333    4.000    0.000    0.000 
#    0.000    0.000    0.000    0.000    0.000    0.000 
#
# Total GULP energy -595169.432808 kJ/mol
# GULP energy per Si atom -12399.363184 kJ/mol
# Density = 1.806710 g / cm^3
# Si number density = 18.108319 Si / 1000 Ang^3
#
#
#
# Elastic Constant Matrix: (Units=GPa)
#
#
# Indices 1 2 3 4 5 6 
#
# 1 58.2015 33.2660 37.0763 0.0000 0.0000 0.0000
# 2 33.2660 110.5229 50.3112 0.0000 0.0000 0.0000
# 3 37.0763 50.3112 95.0848 0.0000 0.0000 0.0000
# 4 0.0000 0.0000 0.0000 35.0232 0.0000 0.0000
# 5 0.0000 0.0000 0.0000 0.0000 13.0893 0.0000
# 6 0.0000 0.0000 0.0000 0.0000 0.0000 2.2311
#
#
#
# Elastic Compliance Matrix: (Units=1/GPa)
#
#
# Indices 1 2 3 4 5 6 
#
# 1 0.024082 -0.003917 -0.007318 0.000000 0.000000 0.000000
# 2 -0.003917 0.012556 -0.005116 0.000000 0.000000 0.000000
# 3 -0.007318 -0.005116 0.016077 0.000000 0.000000 0.000000
# 4 0.000000 0.000000 0.000000 0.028553 0.000000 0.000000
# 5 0.000000 0.000000 0.000000 0.000000 0.076398 0.000000
# 6 0.000000 0.000000 0.000000 0.000000 0.000000 0.448204
#
#
# Mechanical properties :
#
#
# Convention : Reuss Voigt Hill
#
# Bulk Modulus (GPa) = 49.96670 56.12402 53.04536
# Shear Modulus (GPa) = 7.74900 19.61242 13.68071
#
# Velocity S-wave (km/s) = 2.07088 3.29456 2.75161
# Velocity P-wave (km/s) = 5.77678 6.74781 6.28109
#
# Compressibility (1/GPa) = 0.02001333
#
# Stress axis : x y z
#
# Youngs Moduli (GPa) = 41.52421 79.64399 62.19958
#
# Poissons Ratio (x) = 0.31200 0.45515
# Poissons Ratio (y) = 0.16267 0.31822
# Poissons Ratio (z) = 0.30386 0.40746
#
# Static dielectric constant tensor:
#      x y z
#    x 2.880450 0.000000 0.000000 
#    y 0.000000 3.669630 0.000000 
#    z 0.000000 0.000000 3.422830 
# 
# 
# High freq. dielectric constant tensor:
#      x y z
#    x 1.649700 0.000000 0.000000 
#    y 0.000000 1.710630 0.000000 
#    z 0.000000 0.000000 1.707200 
# 
# From -- ./inp_files/16939.got.cif
#   From: 2010.03.12/outbox.cif.g09.slc.cpg/sg53_9_cif.got.tgz:16939.got - 2010.04.16 14:36:59.
