data_PCOD8219606
_publ_section_title
;
Structure prediction by ZEFSAII (Michael W. Deem and Ramdas Pophale) SiO2 
 PCOD8219606
Probable space group: P M N A
;
_chemical_formula_sum "Si O2"
_cell_formula_units_Z 48
_cell_length_a 17.076187
_cell_length_b 14.299761
_cell_length_c 10.726349
_cell_angle_alpha 90.000000
_cell_angle_beta 90.000000
_cell_angle_gamma 90.000000
_cell_volume 2619.217745
_symmetry_space_group_name_H-M "P M N A"
_symmetry_group_IT_number 53
_symmetry_cell_setting 'orthorhombic'
loop_
_space_group_symop_operation_xyz
x,y,z
1/2-x,-y,1/2+z
x,-y,-z
1/2-x,y,1/2-z
-x,-y,-z
1/2+x,y,1/2-z
-x,y,z
1/2+x,-y,1/2+z
loop_
_atom_site_type_symbol
_atom_site_label
_atom_site_fract_x
_atom_site_fract_y
_atom_site_fract_z
Si Si1 0.588592 0.199274 0.330206
Si Si2 0.909103 0.596333 0.436183
Si Si3 0.162012 0.640291 0.937229
Si Si4 0.682484 0.260067 0.094666
Si Si5 0.772268 0.074732 0.110348
Si Si6 0.333307 0.452542 0.690670
O O1 0.500000 0.165414 0.309106
O O2 0.593640 0.281623 0.433135
O O3 0.622814 0.250641 0.208351
O O4 0.638783 0.110902 0.375920
O O5 0.877924 0.500000 0.500000
O O6 0.863269 0.688035 0.483482
O O7 0.895199 0.587866 0.288885
O O8 0.000000 0.610736 0.465332
O O9 0.240861 0.679468 0.871459
O O10 0.132610 0.548592 0.864885
O O11 0.179313 0.622362 0.081874
O O12 0.712975 0.155667 0.063174
O O13 0.750000 0.036869 0.250000
O O14 0.768654 0.000000 0.000000
O O15 0.250000 0.472996 0.750000
#
# Coordination Sequence:
#
# PCOD8219606 Si02
#       6
#     8   8   8   8   8   8
#     4  10  20  35  58  83 112 144 180 226 285 343
#     4  11  22  34  52  81 115 150 191 232 277 328
#     4  10  20  33  53  75 107 150 197 232 270 324
#     4  10  19  37  58  82 108 147 194 234 273 330
#     4   9  20  40  64  89 111 143 191 240 288 351
#     4  11  20  32  50  74 109 152 193 236 270 316
#
# _framework density 18.326082
#
# number of rings (size 3 to 8) (size 9 to 14) (size 15 to 20)
#    0.000    1.833    1.667    5.000    0.000    3.000 
#    6.000    1.667    0.000   12.500    0.000    0.000 
#    0.000    0.000    0.000    0.000    0.000    0.000 
#
# Total GULP energy -594938.630719 kJ/mol
# GULP energy per Si atom -12394.554807 kJ/mol
# Density = 1.828437 g / cm^3
# Si number density = 18.326082 Si / 1000 Ang^3
#
#
#
# Elastic Constant Matrix: (Units=GPa)
#
#
# Indices 1 2 3 4 5 6 
#
# 1 97.0162 40.2590 35.2231 0.0000 0.0000 0.0000
# 2 40.2590 98.1734 68.3789 0.0000 0.0000 0.0000
# 3 35.2231 68.3789 120.4551 0.0000 0.0000 0.0000
# 4 0.0000 0.0000 0.0000 32.4541 0.0000 0.0000
# 5 0.0000 0.0000 0.0000 0.0000 24.0901 0.0000
# 6 0.0000 0.0000 0.0000 0.0000 0.0000 15.8520
#
#
#
# Elastic Compliance Matrix: (Units=1/GPa)
#
#
# Indices 1 2 3 4 5 6 
#
# 1 0.012532 -0.004278 -0.001236 0.000000 0.000000 0.000000
# 2 -0.004278 0.018308 -0.009142 0.000000 0.000000 0.000000
# 3 -0.001236 -0.009142 0.013853 0.000000 0.000000 0.000000
# 4 0.000000 0.000000 0.000000 0.030813 0.000000 0.000000
# 5 0.000000 0.000000 0.000000 0.000000 0.041511 0.000000
# 6 0.000000 0.000000 0.000000 0.000000 0.000000 0.063084
#
#
# Mechanical properties :
#
#
# Convention : Reuss Voigt Hill
#
# Bulk Modulus (GPa) = 65.01737 67.04075 66.02906
# Shear Modulus (GPa) = 23.30589 25.93146 24.61867
#
# Velocity S-wave (km/s) = 3.57001 3.76573 3.66917
# Velocity P-wave (km/s) = 7.24902 7.45448 7.35247
#
# Compressibility (1/GPa) = 0.01538050
#
# Stress axis : x y z
#
# Youngs Moduli (GPa) = 79.79840 54.62130 72.18761
#
# Poissons Ratio (x) = 0.23368 0.08921
# Poissons Ratio (y) = 0.34139 0.65993
# Poissons Ratio (z) = 0.09862 0.49934
#
# Static dielectric constant tensor:
#      x y z
#    x 3.339660 0.000000 0.000000 
#    y 0.000000 3.253450 0.000000 
#    z 0.000000 0.000000 3.439690 
# 
# 
# High freq. dielectric constant tensor:
#      x y z
#    x 1.703350 0.000000 0.000000 
#    y 0.000000 1.691750 0.000000 
#    z 0.000000 0.000000 1.710920 
# 
# From -- ./inp_files/16956.got.cif
#   From: 2010.03.12/outbox.cif.g09.slc.cpg/sg53_9_cif.got.tgz:16956.got - 2010.04.16 14:36:59.
