data_PCOD8219164
_publ_section_title
;
Structure prediction by ZEFSAII (Michael W. Deem and Ramdas Pophale) SiO2 
 PCOD8219164
Probable space group: P M N A
;
_chemical_formula_sum "Si O2"
_cell_formula_units_Z 64
_cell_length_a 8.772924
_cell_length_b 20.958364
_cell_length_c 18.374131
_cell_angle_alpha 90.000000
_cell_angle_beta 90.000000
_cell_angle_gamma 90.000000
_cell_volume 3378.380442
_symmetry_space_group_name_H-M "P M N A"
_symmetry_group_IT_number 53
_symmetry_cell_setting 'orthorhombic'
loop_
_space_group_symop_operation_xyz
x,y,z
1/2-x,-y,1/2+z
x,-y,-z
1/2-x,y,1/2-z
-x,-y,-z
1/2+x,y,1/2-z
-x,y,z
1/2+x,-y,1/2+z
loop_
_atom_site_type_symbol
_atom_site_label
_atom_site_fract_x
_atom_site_fract_y
_atom_site_fract_z
Si Si1 0.180529 0.618619 0.829547
Si Si2 0.823874 0.809552 0.461443
Si Si3 0.677998 0.748825 0.324048
Si Si4 0.174923 0.503038 0.585697
Si Si5 0.177333 0.871759 0.823052
Si Si6 0.319686 0.396720 0.675054
Si Si7 0.678882 0.747681 0.887327
Si Si8 0.676107 0.069909 0.474559
O O1 0.250000 0.609295 0.750000
O O2 0.229907 0.561148 0.881460
O O3 0.235048 0.683808 0.865985
O O4 0.000000 0.619391 0.822536
O O5 0.726849 0.790707 0.391958
O O6 0.785194 0.762422 0.528258
O O7 0.781442 0.881517 0.481726
O O8 0.000000 0.806167 0.440840
O O9 0.750000 0.776309 0.250000
O O10 0.500000 0.753369 0.314279
O O11 0.730848 0.676207 0.337119
O O12 0.190732 0.500000 0.500000
O O13 0.244597 0.436194 0.610711
O O14 0.000000 0.510061 0.610498
O O15 0.250000 0.901814 0.750000
O O16 0.260767 0.805038 0.837945
O O17 0.204796 0.922087 0.888167
O O18 0.000000 0.857863 0.811617
O O19 0.250000 0.423173 0.750000
O O20 0.500000 0.405866 0.675721
O O21 0.500000 0.739262 0.873225
O O22 0.500000 0.083822 0.493461
O O23 0.725671 0.000000 0.500000
#
# Coordination Sequence:
#
# PCOD8219164 Si02
#       8
#     8   8   8   8   8   8   8   8
#     4  12  25  41  61  83 113 148 187 232 282 338
#     4  10  21  36  58  86 117 151 186 232 284 336
#     4  10  21  37  59  86 115 148 189 236 285 338
#     4  11  25  42  59  81 111 147 186 232 283 336
#     4  10  19  33  55  83 114 148 188 232 280 332
#     4  10  21  38  60  84 109 144 186 232 283 338
#     4  10  21  37  57  84 116 149 187 229 280 336
#     4   9  19  37  59  82 112 153 196 235 278 331
#
# _framework density 18.943988000000001
#
# number of rings (size 3 to 8) (size 9 to 14) (size 15 to 20)
#    0.000    1.750    0.000    4.125    1.750    4.750 
#    0.000    0.625    0.000    1.500    0.000    0.000 
#    0.000    0.000    0.000    0.000    0.000    0.000 
#
# Total GULP energy -793890.115425 kJ/mol
# GULP energy per Si atom -12404.533054 kJ/mol
# Density = 1.890087 g / cm^3
# Si number density = 18.943988 Si / 1000 Ang^3
#
#
#
# Elastic Constant Matrix: (Units=GPa)
#
#
# Indices 1 2 3 4 5 6 
#
# 1 104.0492 39.6681 49.9651 0.0000 0.0000 0.0000
# 2 39.6681 89.2548 51.5815 0.0000 0.0000 0.0000
# 3 49.9651 51.5815 109.6222 0.0000 0.0000 0.0000
# 4 0.0000 0.0000 0.0000 26.0055 0.0000 0.0000
# 5 0.0000 0.0000 0.0000 0.0000 34.8617 0.0000
# 6 0.0000 0.0000 0.0000 0.0000 0.0000 27.8675
#
#
#
# Elastic Compliance Matrix: (Units=1/GPa)
#
#
# Indices 1 2 3 4 5 6 
#
# 1 0.012944 -0.003218 -0.004385 0.000000 0.000000 0.000000
# 2 -0.003218 0.016189 -0.006151 0.000000 0.000000 0.000000
# 3 -0.004385 -0.006151 0.014015 0.000000 0.000000 0.000000
# 4 0.000000 0.000000 0.000000 0.038453 0.000000 0.000000
# 5 0.000000 0.000000 0.000000 0.000000 0.028685 0.000000
# 6 0.000000 0.000000 0.000000 0.000000 0.000000 0.035884
#
#
# Mechanical properties :
#
#
# Convention : Reuss Voigt Hill
#
# Bulk Modulus (GPa) = 63.94201 65.03951 64.49076
# Shear Modulus (GPa) = 27.94997 28.52769 28.23883
#
# Velocity S-wave (km/s) = 3.84526 3.88480 3.86508
# Velocity P-wave (km/s) = 7.31718 7.38439 7.35087
#
# Compressibility (1/GPa) = 0.01563917
#
# Stress axis : x y z
#
# Youngs Moduli (GPa) = 77.25803 61.77150 71.35171
#
# Poissons Ratio (x) = 0.19880 0.31290
# Poissons Ratio (y) = 0.24864 0.43885
# Poissons Ratio (z) = 0.33880 0.37993
#
# Static dielectric constant tensor:
#      x y z
#    x 3.606320 0.000000 0.000000 
#    y 0.000000 3.394790 0.000000 
#    z 0.000000 0.000000 3.561090 
# 
# 
# High freq. dielectric constant tensor:
#      x y z
#    x 1.752250 0.000000 0.000000 
#    y 0.000000 1.725470 0.000000 
#    z 0.000000 0.000000 1.745830 
# 
# From -- ./inp_files/26906.got.cif
#   From: 2010.03.12/outbox.cif.g09.slc.cpg/sg53_14_cif.got.tgz:26906.got - 2010.04.16 14:36:59.
