data_PCOD8219774
_publ_section_title
;
Structure prediction by ZEFSAII (Michael W. Deem and Ramdas Pophale) SiO2 
 PCOD8219774
Probable space group: P M N A
;
_chemical_formula_sum "Si O2"
_cell_formula_units_Z 48
_cell_length_a 9.398738
_cell_length_b 9.474331
_cell_length_c 30.350858
_cell_angle_alpha 90.000000
_cell_angle_beta 90.000000
_cell_angle_gamma 90.000000
_cell_volume 2702.645410
_symmetry_space_group_name_H-M "P M N A"
_symmetry_group_IT_number 53
_symmetry_cell_setting 'orthorhombic'
loop_
_space_group_symop_operation_xyz
x,y,z
1/2-x,-y,1/2+z
x,-y,-z
1/2-x,y,1/2-z
-x,-y,-z
1/2+x,y,1/2-z
-x,y,z
1/2+x,-y,1/2+z
loop_
_atom_site_type_symbol
_atom_site_label
_atom_site_fract_x
_atom_site_fract_y
_atom_site_fract_z
Si Si1 0.168070 0.794341 0.387072
Si Si2 0.834473 0.940340 0.861381
Si Si3 0.836084 0.278365 0.063324
Si Si4 0.833431 0.843522 0.487894
Si Si5 0.664532 0.518099 0.369403
Si Si6 0.335907 0.702078 0.705701
O O1 0.209438 0.809114 0.438133
O O2 0.231880 0.650696 0.368293
O O3 0.000000 0.796178 0.379564
O O4 0.236595 0.922050 0.359723
O O5 0.794177 0.848739 0.904132
O O6 0.799706 0.850190 0.817791
O O7 0.000000 0.983368 0.862742
O O8 0.805064 0.427229 0.086730
O O9 0.000000 0.266910 0.049858
O O10 0.743319 0.269655 0.019191
O O11 0.000000 0.828991 0.496172
O O12 0.779559 0.000000 0.500000
O O13 0.500000 0.566286 0.368542
O O14 0.702223 0.425958 0.326734
O O15 0.250000 0.684686 0.750000
O O16 0.500000 0.697068 0.718298
#
# Coordination Sequence:
#
# PCOD8219774 Si02
#       6
#     8   8   8   8   8   8
#     4  11  22  34  51  78 108 142 181 217 261 313
#     4   9  18  34  55  78 105 135 170 215 261 305
#     4   9  18  33  54  76  98 137 187 220 252 307
#     4  10  20  33  48  72 109 144 177 224 270 302
#     4   9  20  38  55  76 109 142 173 217 268 313
#     4   9  19  37  61  85 106 132 169 212 263 320
#
# _framework density 17.760376999999998
#
# number of rings (size 3 to 8) (size 9 to 14) (size 15 to 20)
#    0.000    2.500    1.667    2.500    0.000    4.333 
#    0.000    7.500    0.000    0.000    0.000    0.000 
#    0.000    0.000    0.000    0.000    0.000    0.000 
#
# Total GULP energy -595290.756774 kJ/mol
# GULP energy per Si atom -12401.890766 kJ/mol
# Density = 1.771995 g / cm^3
# Si number density = 17.760377 Si / 1000 Ang^3
#
#
#
# Elastic Constant Matrix: (Units=GPa)
#
#
# Indices 1 2 3 4 5 6 
#
# 1 75.8043 62.9641 55.3251 0.0000 0.0000 0.0000
# 2 62.9641 120.8188 47.3361 0.0000 0.0000 0.0000
# 3 55.3251 47.3361 102.6771 0.0000 0.0000 0.0000
# 4 0.0000 0.0000 0.0000 15.9739 0.0000 0.0000
# 5 0.0000 0.0000 0.0000 0.0000 35.4974 0.0000
# 6 0.0000 0.0000 0.0000 0.0000 0.0000 20.5140
#
#
#
# Elastic Compliance Matrix: (Units=1/GPa)
#
#
# Indices 1 2 3 4 5 6 
#
# 1 0.031427 -0.011891 -0.011451 0.000000 0.000000 0.000000
# 2 -0.011891 0.014601 -0.000324 0.000000 0.000000 0.000000
# 3 -0.011451 -0.000324 0.016059 0.000000 0.000000 0.000000
# 4 0.000000 0.000000 0.000000 0.062602 0.000000 0.000000
# 5 0.000000 0.000000 0.000000 0.000000 0.028171 0.000000
# 6 0.000000 0.000000 0.000000 0.000000 0.000000 0.048747
#
#
# Mechanical properties :
#
#
# Convention : Reuss Voigt Hill
#
# Bulk Modulus (GPa) = 67.78186 70.06119 68.92152
# Shear Modulus (GPa) = 19.69608 23.30871 21.50240
#
# Velocity S-wave (km/s) = 3.33376 3.62664 3.48328
# Velocity P-wave (km/s) = 7.28465 7.55449 7.42080
#
# Compressibility (1/GPa) = 0.01475321
#
# Stress axis : x y z
#
# Youngs Moduli (GPa) = 31.82020 68.48916 62.27071
#
# Poissons Ratio (x) = 0.81442 0.71308
# Poissons Ratio (y) = 0.37838 0.02017
# Poissons Ratio (z) = 0.36438 0.02219
#
# Static dielectric constant tensor:
#      x y z
#    x 3.162010 0.000000 0.000000 
#    y 0.000000 3.217860 0.000000 
#    z 0.000000 0.000000 3.132260 
# 
# 
# High freq. dielectric constant tensor:
#      x y z
#    x 1.685100 0.000000 0.000000 
#    y 0.000000 1.685670 0.000000 
#    z 0.000000 0.000000 1.676220 
# 
# From -- ./inp_files/37662.got.cif
#   From: 2010.03.12/outbox.cif.g09.slc.cpg/sg53_19_cif.got.tgz:37662.got - 2010.04.16 14:36:59.
