data_PCOD8219278
_publ_section_title
;
Structure prediction by ZEFSAII (Michael W. Deem and Ramdas Pophale) SiO2 
 PCOD8219278
Probable space group: P M N A
;
_chemical_formula_sum "Si O2"
_cell_formula_units_Z 56
_cell_length_a 8.473692
_cell_length_b 15.411078
_cell_length_c 23.054191
_cell_angle_alpha 90.000000
_cell_angle_beta 90.000000
_cell_angle_gamma 90.000000
_cell_volume 3010.617486
_symmetry_space_group_name_H-M "P M N A"
_symmetry_group_IT_number 53
_symmetry_cell_setting 'orthorhombic'
loop_
_space_group_symop_operation_xyz
x,y,z
1/2-x,-y,1/2+z
x,-y,-z
1/2-x,y,1/2-z
-x,-y,-z
1/2+x,y,1/2-z
-x,y,z
1/2+x,-y,1/2+z
loop_
_atom_site_type_symbol
_atom_site_label
_atom_site_fract_x
_atom_site_fract_y
_atom_site_fract_z
Si Si1 0.183246 0.988744 0.687179
Si Si2 0.815628 0.496308 0.312784
Si Si3 0.686276 0.800717 0.815169
Si Si4 0.817299 0.657678 0.128906
Si Si5 0.312591 0.176666 0.815125
Si Si6 0.183632 0.649666 0.892779
Si Si7 0.816615 0.599202 0.490010
O O1 0.250000 0.979026 0.750000
O O2 0.224060 0.896578 0.656437
O O3 0.000000 0.997432 0.695088
O O4 0.239682 0.080696 0.659808
O O5 0.750000 0.472539 0.250000
O O6 0.783304 0.596124 0.328470
O O7 0.727707 0.438133 0.359770
O O8 0.000000 0.475877 0.314814
O O9 0.750000 0.791699 0.750000
O O10 0.500000 0.781456 0.814828
O O11 0.775347 0.732905 0.854994
O O12 0.769079 0.756121 0.141825
O O13 0.784432 0.638503 0.061974
O O14 0.000000 0.642827 0.142760
O O15 0.250000 0.189619 0.750000
O O16 0.500000 0.190253 0.815874
O O17 0.000000 0.648394 0.907417
O O18 0.280472 0.654543 0.952567
O O19 0.765212 0.500000 0.500000
O O20 0.000000 0.605785 0.473648
#
# Coordination Sequence:
#
# PCOD8219278 Si02
#       7
#     8   8   8   8   8   8   8
#     4   8  16  30  52  79 110 147 184 224 270 324
#     4  12  24  39  56  79 110 146 182 224 274 326
#     4  10  19  34  55  83 116 149 186 227 275 329
#     4  12  24  38  57  82 111 145 183 227 275 327
#     4  10  19  34  55  83 116 149 186 227 275 329
#     4  12  24  38  57  82 111 145 183 227 275 327
#     4  11  23  41  63  82 104 141 188 232 275 323
#
# _framework density 18.600835
#
# number of rings (size 3 to 8) (size 9 to 14) (size 15 to 20)
#    0.000    1.286    1.429    6.000    0.000    1.714 
#    0.000    0.000    0.000    0.857    0.000    6.000 
#    0.000    0.000    0.000    0.000    0.000    0.000 
#
# Total GULP energy -694241.952921 kJ/mol
# GULP energy per Si atom -12397.177731 kJ/mol
# Density = 1.855850 g / cm^3
# Si number density = 18.600835 Si / 1000 Ang^3
#
#
#
# Elastic Constant Matrix: (Units=GPa)
#
#
# Indices 1 2 3 4 5 6 
#
# 1 60.7466 29.2211 17.7923 0.0000 0.0000 0.0000
# 2 29.2211 112.2443 24.9139 0.0000 0.0000 0.0000
# 3 17.7923 24.9139 72.0587 0.0000 0.0000 0.0000
# 4 0.0000 0.0000 0.0000 12.6841 0.0000 0.0000
# 5 0.0000 0.0000 0.0000 0.0000 29.1207 0.0000
# 6 0.0000 0.0000 0.0000 0.0000 0.0000 23.2862
#
#
#
# Elastic Compliance Matrix: (Units=1/GPa)
#
#
# Indices 1 2 3 4 5 6 
#
# 1 0.019524 -0.004346 -0.003318 0.000000 0.000000 0.000000
# 2 -0.004346 0.010617 -0.002598 0.000000 0.000000 0.000000
# 3 -0.003318 -0.002598 0.015595 0.000000 0.000000 0.000000
# 4 0.000000 0.000000 0.000000 0.078839 0.000000 0.000000
# 5 0.000000 0.000000 0.000000 0.000000 0.034340 0.000000
# 6 0.000000 0.000000 0.000000 0.000000 0.000000 0.042944
#
#
# Mechanical properties :
#
#
# Convention : Reuss Voigt Hill
#
# Bulk Modulus (GPa) = 39.66316 43.21158 41.43737
# Shear Modulus (GPa) = 21.66491 24.55966 23.11229
#
# Velocity S-wave (km/s) = 3.41651 3.63761 3.52879
# Velocity P-wave (km/s) = 6.07726 6.39721 6.23929
#
# Compressibility (1/GPa) = 0.02521231
#
# Stress axis : x y z
#
# Youngs Moduli (GPa) = 51.21789 94.18638 64.12314
#
# Poissons Ratio (x) = 0.40937 0.21277
# Poissons Ratio (y) = 0.22261 0.16657
# Poissons Ratio (z) = 0.16995 0.24466
#
# Static dielectric constant tensor:
#      x y z
#    x -5.210980 0.000000 0.000000 
#    y 0.000000 3.927450 0.000000 
#    z 0.000000 0.000000 3.209880 
# 
# 
# High freq. dielectric constant tensor:
#      x y z
#    x 1.737470 0.000000 0.000000 
#    y 0.000000 1.735930 0.000000 
#    z 0.000000 0.000000 1.693060 
# 
# From -- ./inp_files/30806.got.cif
#   From: 2010.03.12/outbox.cif.g09.slc.cpg/sg53_16_cif.got.tgz:30806.got - 2010.04.16 14:36:59.
