data_PCOD8219711
_publ_section_title
;
Structure prediction by ZEFSAII (Michael W. Deem and Ramdas Pophale) SiO2 
 PCOD8219711
Probable space group: P M N A
;
_chemical_formula_sum "Si O2"
_cell_formula_units_Z 64
_cell_length_a 9.210502
_cell_length_b 19.579395
_cell_length_c 20.709828
_cell_angle_alpha 90.000000
_cell_angle_beta 90.000000
_cell_angle_gamma 90.000000
_cell_volume 3734.728719
_symmetry_space_group_name_H-M "P M N A"
_symmetry_group_IT_number 53
_symmetry_cell_setting 'orthorhombic'
loop_
_space_group_symop_operation_xyz
x,y,z
1/2-x,-y,1/2+z
x,-y,-z
1/2-x,y,1/2-z
-x,-y,-z
1/2+x,y,1/2-z
-x,y,z
1/2+x,-y,1/2+z
loop_
_atom_site_type_symbol
_atom_site_label
_atom_site_fract_x
_atom_site_fract_y
_atom_site_fract_z
Si Si1 0.659278 0.199830 0.191190
Si Si2 0.830867 0.949231 0.940460
Si Si3 0.326246 0.808495 0.950461
Si Si4 0.665021 0.962459 0.812266
Si Si5 0.840325 0.451407 0.808469
Si Si6 0.172828 0.446241 0.948960
Si Si7 0.172391 0.708623 0.047233
Si Si8 0.341478 0.289750 0.691591
O O1 0.750000 0.231906 0.250000
O O2 0.500000 0.230173 0.200770
O O3 0.718432 0.220465 0.120406
O O4 0.658072 0.118469 0.194667
O O5 0.752433 0.880087 0.962616
O O6 0.752716 0.981647 0.877452
O O7 0.000000 0.935188 0.924032
O O8 0.814764 0.000000 0.000000
O O9 0.500000 0.818647 0.955262
O O10 0.269222 0.755092 0.001996
O O11 0.750000 0.993225 0.750000
O O12 0.500000 0.991837 0.815358
O O13 0.750000 0.484641 0.750000
O O14 0.766075 0.466485 0.878006
O O15 0.851572 0.370563 0.799862
O O16 0.000000 0.484291 0.805062
O O17 0.216455 0.369489 0.968500
O O18 0.000000 0.450505 0.944933
O O19 0.238050 0.500000 0.000000
O O20 0.220077 0.727229 0.120481
O O21 0.000000 0.720353 0.037088
O O22 0.250000 0.256750 0.750000
O O23 0.500000 0.256869 0.697773
#
# Coordination Sequence:
#
# PCOD8219711 Si02
#       8
#     8   8   8   8   8   8   8   8
#     4   8  15  26  41  63  87 112 145 184 222 260
#     4  10  20  33  50  72  97 125 157 194 236 280
#     4  10  20  32  47  69  96 124 153 187 230 279
#     4   9  16  27  45  69  96 124 156 194 233 274
#     4   8  13  22  38  60  84 109 141 182 222 261
#     4   8  14  26  45  67  89 116 152 189 224 268
#     4   9  17  29  46  68  92 119 153 191 228 271
#     4   8  14  24  39  61  86 111 143 184 226 266
#
# _framework density 17.136451999999998
#
# number of rings (size 3 to 8) (size 9 to 14) (size 15 to 20)
#    0.000    3.250    0.000    3.375    0.000    5.000 
#    0.000    1.875    0.000    3.000    0.000    7.000 
#    0.000    0.000    0.000    0.000    0.000    0.000 
#
# Total GULP energy -793007.525731 kJ/mol
# GULP energy per Si atom -12390.742590 kJ/mol
# Density = 1.709745 g / cm^3
# Si number density = 17.136452 Si / 1000 Ang^3
#
#
#
# Elastic Constant Matrix: (Units=GPa)
#
#
# Indices 1 2 3 4 5 6 
#
# 1 93.3737 32.3753 71.7027 0.0000 0.0000 0.0000
# 2 32.3753 43.1025 50.6664 0.0000 0.0000 0.0000
# 3 71.7027 50.6664 160.5807 0.0000 0.0000 0.0000
# 4 0.0000 0.0000 0.0000 22.4144 0.0000 0.0000
# 5 0.0000 0.0000 0.0000 0.0000 34.0894 0.0000
# 6 0.0000 0.0000 0.0000 0.0000 0.0000 5.6910
#
#
#
# Elastic Compliance Matrix: (Units=1/GPa)
#
#
# Indices 1 2 3 4 5 6 
#
# 1 0.017286 -0.006216 -0.005757 0.000000 0.000000 0.000000
# 2 -0.006216 0.039114 -0.009565 0.000000 0.000000 0.000000
# 3 -0.005757 -0.009565 0.011816 0.000000 0.000000 0.000000
# 4 0.000000 0.000000 0.000000 0.044614 0.000000 0.000000
# 5 0.000000 0.000000 0.000000 0.000000 0.029335 0.000000
# 6 0.000000 0.000000 0.000000 0.000000 0.000000 0.175716
#
#
# Mechanical properties :
#
#
# Convention : Reuss Voigt Hill
#
# Bulk Modulus (GPa) = 39.78050 67.39396 53.58723
# Shear Modulus (GPa) = 13.53772 21.92646 17.73209
#
# Velocity S-wave (km/s) = 2.81374 3.58092 3.22026
# Velocity P-wave (km/s) = 5.81554 7.51735 6.72053
#
# Compressibility (1/GPa) = 0.02513795
#
# Stress axis : x y z
#
# Youngs Moduli (GPa) = 57.85000 25.56644 84.62982
#
# Poissons Ratio (x) = 0.15893 0.48723
# Poissons Ratio (y) = 0.35962 0.80952
# Poissons Ratio (z) = 0.33305 0.24455
#
# Static dielectric constant tensor:
#      x y z
#    x 3.370880 0.000000 0.000000 
#    y 0.000000 2.693930 0.000000 
#    z 0.000000 0.000000 3.568970 
# 
# 
# High freq. dielectric constant tensor:
#      x y z
#    x 1.654780 0.000000 0.000000 
#    y 0.000000 1.597130 0.000000 
#    z 0.000000 0.000000 1.681140 
# 
# From -- ./inp_files/31173.got.cif
#   From: 2010.03.12/outbox.cif.g09.slc.cpg/sg53_16_cif.got.tgz:31173.got - 2010.04.16 14:36:59.
