data_PCOD8219455
_publ_section_title
;
Structure prediction by ZEFSAII (Michael W. Deem and Ramdas Pophale) SiO2 
 PCOD8219455
Probable space group: P M N A
;
_chemical_formula_sum "Si O2"
_cell_formula_units_Z 52
_cell_length_a 9.633183
_cell_length_b 11.565064
_cell_length_c 25.132735
_cell_angle_alpha 90.000000
_cell_angle_beta 90.000000
_cell_angle_gamma 90.000000
_cell_volume 2799.997239
_symmetry_space_group_name_H-M "P M N A"
_symmetry_group_IT_number 53
_symmetry_cell_setting 'orthorhombic'
loop_
_space_group_symop_operation_xyz
x,y,z
1/2-x,-y,1/2+z
x,-y,-z
1/2-x,y,1/2-z
-x,-y,-z
1/2+x,y,1/2-z
-x,y,z
1/2+x,-y,1/2+z
loop_
_atom_site_type_symbol
_atom_site_label
_atom_site_fract_x
_atom_site_fract_y
_atom_site_fract_z
Si Si1 0.250000 0.191347 0.250000
Si Si2 0.157195 0.642708 0.661237
Si Si3 0.838891 0.866250 0.488520
Si Si4 0.162971 0.220038 0.081588
Si Si5 0.840715 0.171222 0.632091
Si Si6 0.660058 0.608808 0.199685
Si Si7 0.152310 0.025196 0.163814
O O1 0.342349 0.271416 0.211687
O O2 0.152690 0.109299 0.214686
O O3 0.264698 0.679089 0.615626
O O4 0.206645 0.516287 0.679132
O O5 0.000000 0.640567 0.638595
O O6 0.740251 0.787838 0.525221
O O7 0.792423 0.835925 0.428821
O O8 0.000000 0.834354 0.498954
O O9 0.811584 0.000000 0.500000
O O10 0.000000 0.248890 0.074277
O O11 0.186165 0.098400 0.111047
O O12 0.812840 0.300149 0.652590
O O13 0.759846 0.079400 0.668713
O O14 0.000000 0.134857 0.637224
O O15 0.750000 0.646553 0.250000
O O16 0.500000 0.607888 0.217363
O O17 0.000000 0.970087 0.159628
#
# Coordination Sequence:
#
# PCOD8219455 Si02
#       7
#     4   8   8   8   8   8   8
#     4  10  20  34  54  82 110 142 186 232 276 328
#     4  10  20  37  60  82 109 147 189 230 278 332
#     4  10  19  35  58  82 110 151 191 229 281 340
#     4  10  21  35  56  86 115 142 182 235 284 332
#     4  10  22  38  56  81 114 148 188 228 272 337
#     4  10  22  40  60  83 111 149 189 229 273 328
#     4  10  21  34  51  80 113 143 178 224 279 329
#
# _framework density 18.571448
#
# number of rings (size 3 to 8) (size 9 to 14) (size 15 to 20)
#    0.000    2.000    2.308    0.923    1.077    5.846 
#    0.000    0.769    0.000    4.615    0.000    0.000 
#    0.000    0.000    0.000    0.000    0.000    0.000 
#
# Total GULP energy -644902.920261 kJ/mol
# GULP energy per Si atom -12401.979236 kJ/mol
# Density = 1.852918 g / cm^3
# Si number density = 18.571448 Si / 1000 Ang^3
#
#
#
# Elastic Constant Matrix: (Units=GPa)
#
#
# Indices 1 2 3 4 5 6 
#
# 1 88.8539 47.3963 52.3590 0.0000 0.0000 0.0000
# 2 47.3963 99.2571 64.2582 0.0000 0.0000 0.0000
# 3 52.3590 64.2582 113.7795 0.0000 0.0000 0.0000
# 4 0.0000 0.0000 0.0000 24.9028 0.0000 0.0000
# 5 0.0000 0.0000 0.0000 0.0000 27.2996 0.0000
# 6 0.0000 0.0000 0.0000 0.0000 0.0000 25.5868
#
#
#
# Elastic Compliance Matrix: (Units=1/GPa)
#
#
# Indices 1 2 3 4 5 6 
#
# 1 0.016747 -0.004741 -0.005029 0.000000 0.000000 0.000000
# 2 -0.004741 0.017224 -0.007545 0.000000 0.000000 0.000000
# 3 -0.005029 -0.007545 0.015365 0.000000 0.000000 0.000000
# 4 0.000000 0.000000 0.000000 0.040156 0.000000 0.000000
# 5 0.000000 0.000000 0.000000 0.000000 0.036631 0.000000
# 6 0.000000 0.000000 0.000000 0.000000 0.000000 0.039083
#
#
# Mechanical properties :
#
#
# Convention : Reuss Voigt Hill
#
# Bulk Modulus (GPa) = 68.00890 69.99081 68.99986
# Shear Modulus (GPa) = 24.42160 24.74965 24.58562
#
# Velocity S-wave (km/s) = 3.63024 3.65454 3.64241
# Velocity P-wave (km/s) = 7.36690 7.45498 7.41107
#
# Compressibility (1/GPa) = 0.01470396
#
# Stress axis : x y z
#
# Youngs Moduli (GPa) = 59.71281 58.05979 65.08492
#
# Poissons Ratio (x) = 0.27527 0.32731
# Poissons Ratio (y) = 0.28310 0.49110
# Poissons Ratio (z) = 0.30029 0.43809
#
# Static dielectric constant tensor:
#      x y z
#    x 3.344670 0.000000 0.000000 
#    y 0.000000 3.300570 0.000000 
#    z 0.000000 0.000000 3.417420 
# 
# 
# High freq. dielectric constant tensor:
#      x y z
#    x 1.722370 0.000000 0.000000 
#    y 0.000000 1.709380 0.000000 
#    z 0.000000 0.000000 1.717650 
# 
# From -- ./inp_files/36244.got.cif
#   From: 2010.03.12/outbox.cif.g09.slc.cpg/sg53_19_cif.got.tgz:36244.got - 2010.04.16 14:36:59.
