data_PCOD8219546
_publ_section_title
;
Structure prediction by ZEFSAII (Michael W. Deem and Ramdas Pophale) SiO2 
 PCOD8219546
Probable space group: P M N A
;
_chemical_formula_sum "Si O2"
_cell_formula_units_Z 48
_cell_length_a 8.724414
_cell_length_b 9.881082
_cell_length_c 28.931137
_cell_angle_alpha 90.000000
_cell_angle_beta 90.000000
_cell_angle_gamma 90.000000
_cell_volume 2494.056405
_symmetry_space_group_name_H-M "P M N A"
_symmetry_group_IT_number 53
_symmetry_cell_setting 'orthorhombic'
loop_
_space_group_symop_operation_xyz
x,y,z
1/2-x,-y,1/2+z
x,-y,-z
1/2-x,y,1/2-z
-x,-y,-z
1/2+x,y,1/2-z
-x,y,z
1/2+x,-y,1/2+z
loop_
_atom_site_type_symbol
_atom_site_label
_atom_site_fract_x
_atom_site_fract_y
_atom_site_fract_z
Si Si1 0.182476 0.639475 0.520719
Si Si2 0.819596 0.788624 0.202118
Si Si3 0.679229 0.999317 0.626100
Si Si4 0.681542 0.291490 0.123136
Si Si5 0.318583 0.481559 0.298882
Si Si6 0.670626 0.887404 0.038237
O O1 0.247171 0.500000 0.500000
O O2 0.244551 0.665117 0.572541
O O3 0.241167 0.754491 0.485761
O O4 0.000000 0.641477 0.522274
O O5 0.750000 0.839739 0.250000
O O6 0.765483 0.635653 0.190603
O O7 0.000000 0.792558 0.206553
O O8 0.761495 0.891292 0.163122
O O9 0.500000 0.967944 0.631191
O O10 0.772831 0.862277 0.633704
O O11 0.710961 0.064318 0.576536
O O12 0.500000 0.305106 0.125853
O O13 0.756030 0.388830 0.160518
O O14 0.250000 0.432641 0.250000
O O15 0.500000 0.467650 0.296402
O O16 0.500000 0.860424 0.059274
O O17 0.654092 0.000000 0.000000
#
# Coordination Sequence:
#
# PCOD8219546 Si02
#       6
#     8   8   8   8   8   8
#     4   9  19  35  55  82 114 148 190 238 284 337
#     4   9  21  40  61  85 115 147 188 235 284 342
#     4  11  23  38  57  85 119 154 191 238 291 344
#     4  11  22  38  59  86 117 152 194 238 286 340
#     4  10  21  40  62  86 115 148 187 234 287 343
#     4  10  19  36  58  81 112 150 193 237 280 336
#
# _framework density 19.245754999999999
#
# number of rings (size 3 to 8) (size 9 to 14) (size 15 to 20)
#    0.000    2.000    1.667    1.500    2.333    3.000 
#    0.000    1.667    0.000    2.500    0.000    0.000 
#    0.000    0.000    0.000    0.000    0.000    0.000 
#
# Total GULP energy -595269.513239 kJ/mol
# GULP energy per Si atom -12401.448192 kJ/mol
# Density = 1.920195 g / cm^3
# Si number density = 19.245755 Si / 1000 Ang^3
#
#
#
# Elastic Constant Matrix: (Units=GPa)
#
#
# Indices 1 2 3 4 5 6 
#
# 1 43.4471 25.3356 32.1431 0.0000 0.0000 0.0000
# 2 25.3356 138.1404 72.5203 0.0000 0.0000 0.0000
# 3 32.1431 72.5203 127.8595 0.0000 0.0000 0.0000
# 4 0.0000 0.0000 0.0000 57.3511 0.0000 0.0000
# 5 0.0000 0.0000 0.0000 0.0000 37.6742 0.0000
# 6 0.0000 0.0000 0.0000 0.0000 0.0000 27.4396
#
#
#
# Elastic Compliance Matrix: (Units=1/GPa)
#
#
# Indices 1 2 3 4 5 6 
#
# 1 0.028698 -0.002102 -0.006022 0.000000 0.000000 0.000000
# 2 -0.002102 0.010462 -0.005406 0.000000 0.000000 0.000000
# 3 -0.006022 -0.005406 0.012401 0.000000 0.000000 0.000000
# 4 0.000000 0.000000 0.000000 0.017436 0.000000 0.000000
# 5 0.000000 0.000000 0.000000 0.000000 0.026543 0.000000
# 6 0.000000 0.000000 0.000000 0.000000 0.000000 0.036444
#
#
# Mechanical properties :
#
#
# Convention : Reuss Voigt Hill
#
# Bulk Modulus (GPa) = 40.81388 63.27166 52.04277
# Shear Modulus (GPa) = 29.90228 36.45617 33.17922
#
# Velocity S-wave (km/s) = 3.94599 4.35701 4.15658
# Velocity P-wave (km/s) = 6.48181 7.63272 7.08069
#
# Compressibility (1/GPa) = 0.02450147
#
# Stress axis : x y z
#
# Youngs Moduli (GPa) = 34.84618 95.58059 80.63767
#
# Poissons Ratio (x) = 0.20088 0.48563
# Poissons Ratio (y) = 0.07324 0.43591
# Poissons Ratio (z) = 0.20986 0.51669
#
# Static dielectric constant tensor:
#      x y z
#    x 3.362200 0.000000 0.000000 
#    y 0.000000 3.637950 0.000000 
#    z 0.000000 0.000000 3.574520 
# 
# 
# High freq. dielectric constant tensor:
#      x y z
#    x 1.733130 0.000000 0.000000 
#    y 0.000000 1.760430 0.000000 
#    z 0.000000 0.000000 1.754990 
# 
# From -- ./inp_files/37670.got.cif
#   From: 2010.03.12/outbox.cif.g09.slc.cpg/sg53_19_cif.got.tgz:37670.got - 2010.04.16 14:36:59.
