data_PCOD8219609
_publ_section_title
;
Structure prediction by ZEFSAII (Michael W. Deem and Ramdas Pophale) SiO2 
 PCOD8219609
Probable space group: P M N A
;
_chemical_formula_sum "Si O2"
_cell_formula_units_Z 64
_cell_length_a 8.857344
_cell_length_b 24.510038
_cell_length_c 14.617151
_cell_angle_alpha 90.000000
_cell_angle_beta 90.000000
_cell_angle_gamma 90.000000
_cell_volume 3173.293411
_symmetry_space_group_name_H-M "P M N A"
_symmetry_group_IT_number 53
_symmetry_cell_setting 'orthorhombic'
loop_
_space_group_symop_operation_xyz
x,y,z
1/2-x,-y,1/2+z
x,-y,-z
1/2-x,y,1/2-z
-x,-y,-z
1/2+x,y,1/2-z
-x,y,z
1/2+x,-y,1/2+z
loop_
_atom_site_type_symbol
_atom_site_label
_atom_site_fract_x
_atom_site_fract_y
_atom_site_fract_z
Si Si1 0.831801 0.908818 0.837014
Si Si2 0.673334 0.975566 0.404704
Si Si3 0.320812 0.134836 0.846584
Si Si4 0.180725 0.730672 0.649013
Si Si5 0.678122 0.404356 0.843112
Si Si6 0.821662 0.177354 0.022058
Si Si7 0.821127 0.626208 0.537165
Si Si8 0.678180 0.471666 0.157421
O O1 0.750000 0.882828 0.750000
O O2 0.782164 0.881872 0.933297
O O3 0.000000 0.889584 0.820622
O O4 0.814679 0.974014 0.835028
O O5 0.500000 0.954201 0.413889
O O6 0.778441 0.927617 0.368610
O O7 0.732017 0.000000 0.500000
O O8 0.250000 0.152240 0.750000
O O9 0.500000 0.140342 0.842081
O O10 0.254362 0.176329 0.922126
O O11 0.250000 0.733638 0.750000
O O12 0.243868 0.778724 0.586552
O O13 0.238953 0.675526 0.599428
O O14 0.000000 0.734039 0.655173
O O15 0.750000 0.380522 0.750000
O O16 0.500000 0.401267 0.831495
O O17 0.731995 0.466559 0.860874
O O18 0.734115 0.369442 0.931242
O O19 0.000000 0.188493 0.012519
O O20 0.764852 0.568140 0.576837
O O21 0.000000 0.627379 0.537438
O O22 0.750000 0.448747 0.250000
O O23 0.500000 0.469009 0.167211
#
# Coordination Sequence:
#
# PCOD8219609 Si02
#       8
#     8   8   8   8   8   8   8   8
#     4  10  21  35  56  82 112 148 185 228 278 334
#     4  10  19  37  59  84 120 159 193 232 283 337
#     4  12  25  41  63  91 121 156 196 239 289 346
#     4  11  23  40  61  87 115 147 187 235 292 349
#     4   9  17  31  51  77 109 147 189 232 278 334
#     4  11  23  43  64  84 112 150 193 241 292 342
#     4   9  18  33  54  78 109 149 191 233 280 341
#     4   9  16  28  49  77 109 147 188 230 280 337
#
# _framework density 20.168322
#
# number of rings (size 3 to 8) (size 9 to 14) (size 15 to 20)
#    0.000    1.875    1.250    3.375    0.000    5.250 
#    0.000    3.125    0.000    4.500    0.000    0.000 
#    0.000    0.000    0.000    0.000    0.000    0.000 
#
# Total GULP energy -793365.516119 kJ/mol
# GULP energy per Si atom -12396.336189 kJ/mol
# Density = 2.012242 g / cm^3
# Si number density = 20.168322 Si / 1000 Ang^3
#
#
#
# Elastic Constant Matrix: (Units=GPa)
#
#
# Indices 1 2 3 4 5 6 
#
# 1 81.3395 32.3779 58.1610 0.0000 0.0000 0.0000
# 2 32.3779 72.9497 52.5070 0.0000 0.0000 0.0000
# 3 58.1610 52.5070 186.2025 0.0000 0.0000 0.0000
# 4 0.0000 0.0000 0.0000 31.4291 0.0000 0.0000
# 5 0.0000 0.0000 0.0000 0.0000 35.4970 0.0000
# 6 0.0000 0.0000 0.0000 0.0000 0.0000 19.6307
#
#
#
# Elastic Compliance Matrix: (Units=1/GPa)
#
#
# Indices 1 2 3 4 5 6 
#
# 1 0.017012 -0.004675 -0.003996 0.000000 0.000000 0.000000
# 2 -0.004675 0.018483 -0.003752 0.000000 0.000000 0.000000
# 3 -0.003996 -0.003752 0.007677 0.000000 0.000000 0.000000
# 4 0.000000 0.000000 0.000000 0.031818 0.000000 0.000000
# 5 0.000000 0.000000 0.000000 0.000000 0.028171 0.000000
# 6 0.000000 0.000000 0.000000 0.000000 0.000000 0.050941
#
#
# Mechanical properties :
#
#
# Convention : Reuss Voigt Hill
#
# Bulk Modulus (GPa) = 54.56275 69.62039 62.09157
# Shear Modulus (GPa) = 27.01900 30.47442 28.74671
#
# Velocity S-wave (km/s) = 3.66413 3.89138 3.77946
# Velocity P-wave (km/s) = 6.70921 7.40169 7.06394
#
# Compressibility (1/GPa) = 0.01832752
#
# Stress axis : x y z
#
# Youngs Moduli (GPa) = 58.78240 54.10246 130.26727
#
# Poissons Ratio (x) = 0.25291 0.52048
# Poissons Ratio (y) = 0.27479 0.48876
# Poissons Ratio (z) = 0.23487 0.20299
#
# Static dielectric constant tensor:
#      x y z
#    x 3.491660 0.000000 0.000000 
#    y 0.000000 3.654960 0.000000 
#    z 0.000000 0.000000 3.868490 
# 
# 
# High freq. dielectric constant tensor:
#      x y z
#    x 1.768350 0.000000 0.000000 
#    y 0.000000 1.769990 0.000000 
#    z 0.000000 0.000000 1.806190 
# 
# From -- ./inp_files/20978.got.cif
#   From: 2010.03.12/outbox.cif.g09.slc.cpg/sg53_11_cif.got.tgz:20978.got - 2010.04.16 14:36:59.
