data_PCOD8219256
_publ_section_title
;
Structure prediction by ZEFSAII (Michael W. Deem and Ramdas Pophale) SiO2 
 PCOD8219256
Probable space group: P M N A
;
_chemical_formula_sum "Si O2"
_cell_formula_units_Z 52
_cell_length_a 17.697341
_cell_length_b 9.655757
_cell_length_c 16.909713
_cell_angle_alpha 90.000000
_cell_angle_beta 90.000000
_cell_angle_gamma 90.000000
_cell_volume 2889.552459
_symmetry_space_group_name_H-M "P M N A"
_symmetry_group_IT_number 53
_symmetry_cell_setting 'orthorhombic'
loop_
_space_group_symop_operation_xyz
x,y,z
1/2-x,-y,1/2+z
x,-y,-z
1/2-x,y,1/2-z
-x,-y,-z
1/2+x,y,1/2-z
-x,y,z
1/2+x,-y,1/2+z
loop_
_atom_site_type_symbol
_atom_site_label
_atom_site_fract_x
_atom_site_fract_y
_atom_site_fract_z
Si Si1 0.415417 0.931110 0.272002
Si Si2 0.133149 0.632411 0.249192
Si Si3 0.190714 0.880865 0.681613
Si Si4 0.745557 0.325787 0.622747
Si Si5 0.168445 0.500000 0.500000
Si Si6 0.413583 0.620454 0.851565
Si Si7 0.188865 0.024377 0.912138
O O1 0.500000 0.989009 0.263373
O O2 0.420090 0.763402 0.271078
O O3 0.381265 0.995206 0.352777
O O4 0.363898 0.989734 0.200939
O O5 0.187480 0.694051 0.315709
O O6 0.178871 0.589748 0.169124
O O7 0.090078 0.499289 0.284371
O O8 0.250000 0.849078 0.750000
O O9 0.140761 0.745283 0.670899
O O10 0.240632 0.920660 0.604830
O O11 0.773918 0.398747 0.543855
O O12 0.716555 0.178972 0.596850
O O13 0.112877 0.429030 0.437488
O O14 0.500000 0.670906 0.857331
O O15 0.158451 0.000000 0.000000
#
# Coordination Sequence:
#
# PCOD8219256 Si02
#       7
#     8   8   8   8   4   8   8
#     4  10  19  35  56  79 105 137 176 219 266 314
#     4   9  18  33  57  77 100 138 184 216 253 305
#     4  10  21  35  56  79 104 139 181 219 259 308
#     4   9  17  33  54  79 102 137 181 221 248 306
#     4  10  21  32  54  78 109 142 172 212 267 318
#     4  11  22  35  52  79 112 140 171 219 271 317
#     4  10  19  34  54  79 107 137 175 220 262 311
#
# _framework density 17.995865999999999
#
# number of rings (size 3 to 8) (size 9 to 14) (size 15 to 20)
#    0.000    2.154    1.538    2.077    4.308    0.308 
#    0.000    0.000    0.000    1.846    0.000    2.692 
#    0.000    0.000    0.000    0.000    0.000    0.000 
#
# Total GULP energy -644455.628703 kJ/mol
# GULP energy per Si atom -12393.377475 kJ/mol
# Density = 1.795491 g / cm^3
# Si number density = 17.995866 Si / 1000 Ang^3
#
#
#
# Elastic Constant Matrix: (Units=GPa)
#
#
# Indices 1 2 3 4 5 6 
#
# 1 107.1220 35.0458 30.8066 0.0000 0.0000 0.0000
# 2 35.0458 74.1152 23.0674 0.0000 0.0000 0.0000
# 3 30.8066 23.0674 75.5222 0.0000 0.0000 0.0000
# 4 0.0000 0.0000 0.0000 13.0665 0.0000 0.0000
# 5 0.0000 0.0000 0.0000 0.0000 2.3788 0.0000
# 6 0.0000 0.0000 0.0000 0.0000 0.0000 28.5191
#
#
#
# Elastic Compliance Matrix: (Units=1/GPa)
#
#
# Indices 1 2 3 4 5 6 
#
# 1 0.011799 -0.004510 -0.003435 0.000000 0.000000 0.000000
# 2 -0.004510 0.016634 -0.003241 0.000000 0.000000 0.000000
# 3 -0.003435 -0.003241 0.015632 0.000000 0.000000 0.000000
# 4 0.000000 0.000000 0.000000 0.076532 0.000000 0.000000
# 5 0.000000 0.000000 0.000000 0.000000 0.420387 0.000000
# 6 0.000000 0.000000 0.000000 0.000000 0.000000 0.035064
#
#
# Mechanical properties :
#
#
# Convention : Reuss Voigt Hill
#
# Bulk Modulus (GPa) = 46.09906 48.28879 47.19392
# Shear Modulus (GPa) = 8.25558 19.98217 14.11888
#
# Velocity S-wave (km/s) = 2.14417 3.33585 2.80404
# Velocity P-wave (km/s) = 5.63933 6.45977 6.06344
#
# Compressibility (1/GPa) = 0.02169242
#
# Stress axis : x y z
#
# Youngs Moduli (GPa) = 84.75648 60.11897 63.96984
#
# Poissons Ratio (x) = 0.27112 0.21976
# Poissons Ratio (y) = 0.38223 0.20732
# Poissons Ratio (z) = 0.29117 0.19484
#
# Static dielectric constant tensor:
#      x y z
#    x 3.314600 0.000000 0.000000 
#    y 0.000000 3.260510 0.000000 
#    z 0.000000 0.000000 3.604980 
# 
# 
# High freq. dielectric constant tensor:
#      x y z
#    x 1.693940 0.000000 0.000000 
#    y 0.000000 1.692260 0.000000 
#    z 0.000000 0.000000 1.691450 
# 
# From -- ./inp_files/28960.got.cif
#   From: 2010.03.12/outbox.cif.g09.slc.cpg/sg53_15_cif.got.tgz:28960.got - 2010.04.16 14:36:59.
