data_PCOD8219165
_publ_section_title
;
Structure prediction by ZEFSAII (Michael W. Deem and Ramdas Pophale) SiO2 
 PCOD8219165
Probable space group: P M N A
;
_chemical_formula_sum "Si O2"
_cell_formula_units_Z 64
_cell_length_a 8.912840
_cell_length_b 20.681147
_cell_length_c 18.476419
_cell_angle_alpha 90.000000
_cell_angle_beta 90.000000
_cell_angle_gamma 90.000000
_cell_volume 3405.716820
_symmetry_space_group_name_H-M "P M N A"
_symmetry_group_IT_number 53
_symmetry_cell_setting 'orthorhombic'
loop_
_space_group_symop_operation_xyz
x,y,z
1/2-x,-y,1/2+z
x,-y,-z
1/2-x,y,1/2-z
-x,-y,-z
1/2+x,y,1/2-z
-x,y,z
1/2+x,-y,1/2+z
loop_
_atom_site_type_symbol
_atom_site_label
_atom_site_fract_x
_atom_site_fract_y
_atom_site_fract_z
Si Si1 0.672624 0.500012 0.085352
Si Si2 0.173888 0.936488 0.458545
Si Si3 0.175416 0.604945 0.824465
Si Si4 0.322256 0.613478 0.327775
Si Si5 0.674632 0.244816 0.324348
Si Si6 0.674041 0.802423 0.965458
Si Si7 0.675893 0.747456 0.399706
Si Si8 0.324127 0.120273 0.674389
O O1 0.500000 0.504230 0.110180
O O2 0.745621 0.433112 0.111004
O O3 0.763770 0.559806 0.117425
O O4 0.688372 0.500000 0.000000
O O5 0.204568 0.875311 0.509486
O O6 0.267315 0.930832 0.384810
O O7 0.000000 0.942007 0.437536
O O8 0.230638 0.000000 0.500000
O O9 0.250000 0.581408 0.750000
O O10 0.207123 0.679963 0.838509
O O11 0.000000 0.588768 0.821612
O O12 0.250000 0.602499 0.250000
O O13 0.500000 0.607950 0.320480
O O14 0.272855 0.682959 0.358747
O O15 0.750000 0.221709 0.250000
O O16 0.500000 0.229831 0.318983
O O17 0.744172 0.204207 0.389253
O O18 0.500000 0.786870 0.955572
O O19 0.739560 0.751863 0.023728
O O20 0.500000 0.747868 0.416633
O O21 0.723215 0.807351 0.348987
O O22 0.250000 0.102728 0.750000
O O23 0.500000 0.113438 0.682804
#
# Coordination Sequence:
#
# PCOD8219165 Si02
#       8
#     8   8   8   8   8   8   8   8
#     4  11  25  41  56  78 108 142 182 228 274 324
#     4   9  19  37  58  81 112 150 190 228 270 323
#     4  10  21  38  60  81 104 139 179 224 275 329
#     4  11  23  39  59  81 110 145 182 223 273 328
#     4  10  21  37  58  84 112 143 182 229 278 330
#     4  10  20  34  57  85 113 146 181 225 276 324
#     4   9  20  36  55  82 113 147 182 223 272 327
#     4  10  19  33  55  83 115 147 186 229 273 324
#
# _framework density 18.791931999999999
#
# number of rings (size 3 to 8) (size 9 to 14) (size 15 to 20)
#    0.000    2.000    0.000    3.000    1.750    4.750 
#    0.000    0.625    0.000    0.000    0.000    0.000 
#    0.000    0.000    0.000    0.000    0.000    0.000 
#
# Total GULP energy -793959.103541 kJ/mol
# GULP energy per Si atom -12405.610993 kJ/mol
# Density = 1.874916 g / cm^3
# Si number density = 18.791932 Si / 1000 Ang^3
#
#
#
# Elastic Constant Matrix: (Units=GPa)
#
#
# Indices 1 2 3 4 5 6 
#
# 1 91.8623 36.9665 65.5867 0.0000 0.0000 0.0000
# 2 36.9665 75.4173 52.3324 0.0000 0.0000 0.0000
# 3 65.5867 52.3324 140.3954 0.0000 0.0000 0.0000
# 4 0.0000 0.0000 0.0000 26.9188 0.0000 0.0000
# 5 0.0000 0.0000 0.0000 0.0000 38.6449 0.0000
# 6 0.0000 0.0000 0.0000 0.0000 0.0000 25.8717
#
#
#
# Elastic Compliance Matrix: (Units=1/GPa)
#
#
# Indices 1 2 3 4 5 6 
#
# 1 0.017117 -0.003833 -0.006568 0.000000 0.000000 0.000000
# 2 -0.003833 0.018744 -0.005196 0.000000 0.000000 0.000000
# 3 -0.006568 -0.005196 0.012128 0.000000 0.000000 0.000000
# 4 0.000000 0.000000 0.000000 0.037149 0.000000 0.000000
# 5 0.000000 0.000000 0.000000 0.000000 0.025877 0.000000
# 6 0.000000 0.000000 0.000000 0.000000 0.000000 0.038652
#
#
# Mechanical properties :
#
#
# Convention : Reuss Voigt Hill
#
# Bulk Modulus (GPa) = 59.54014 68.60513 64.07264
# Shear Modulus (GPa) = 26.81549 28.47305 27.64427
#
# Velocity S-wave (km/s) = 3.78162 3.89675 3.83962
# Velocity P-wave (km/s) = 7.12883 7.53878 7.33667
#
# Compressibility (1/GPa) = 0.01679539
#
# Stress axis : x y z
#
# Youngs Moduli (GPa) = 58.41983 53.35048 82.45461
#
# Poissons Ratio (x) = 0.20448 0.54155
# Poissons Ratio (y) = 0.22391 0.42846
# Poissons Ratio (z) = 0.38369 0.27722
#
# Static dielectric constant tensor:
#      x y z
#    x 3.550560 0.000000 0.000000 
#    y 0.000000 3.405860 0.000000 
#    z 0.000000 0.000000 3.445000 
# 
# 
# High freq. dielectric constant tensor:
#      x y z
#    x 1.742030 0.000000 0.000000 
#    y 0.000000 1.720610 0.000000 
#    z 0.000000 0.000000 1.738190 
# 
# From -- ./inp_files/26797.got.cif
#   From: 2010.03.12/outbox.cif.g09.slc.cpg/sg53_14_cif.got.tgz:26797.got - 2010.04.16 14:36:59.
