data_PCOD8219062
_publ_section_title
;
Structure prediction by ZEFSAII (Michael W. Deem and Ramdas Pophale) SiO2 
 PCOD8219062
Probable space group: P M N A
;
_chemical_formula_sum "Si O2"
_cell_formula_units_Z 64
_cell_length_a 18.577586
_cell_length_b 20.928993
_cell_length_c 9.011132
_cell_angle_alpha 90.000000
_cell_angle_beta 90.000000
_cell_angle_gamma 90.000000
_cell_volume 3503.619741
_symmetry_space_group_name_H-M "P M N A"
_symmetry_group_IT_number 53
_symmetry_cell_setting 'orthorhombic'
loop_
_space_group_symop_operation_xyz
x,y,z
1/2-x,-y,1/2+z
x,-y,-z
1/2-x,y,1/2-z
-x,-y,-z
1/2+x,y,1/2-z
-x,y,z
1/2+x,-y,1/2+z
loop_
_atom_site_type_symbol
_atom_site_label
_atom_site_fract_x
_atom_site_fract_y
_atom_site_fract_z
Si Si1 0.085735 0.625638 0.667651
Si Si2 0.914698 0.752391 0.830232
Si Si3 0.914698 0.247609 0.830232
Si Si4 0.414126 0.500000 0.667794
Si Si5 0.672224 0.138564 0.825198
Si Si6 0.914265 0.625638 0.332349
Si Si7 0.324050 0.000000 0.169608
Si Si8 0.827776 0.861436 0.674802
O O1 0.114316 0.687445 0.755455
O O2 0.115799 0.562518 0.748564
O O3 0.115521 0.627457 0.500000
O O4 0.000000 0.624513 0.667788
O O5 0.883112 0.812138 0.743591
O O6 0.000000 0.756547 0.818245
O O7 0.888717 0.753177 0.000000
O O8 0.883112 0.187862 0.743591
O O9 0.885684 0.312555 0.755455
O O10 0.000000 0.243453 0.818245
O O11 0.384782 0.500000 0.500000
O O12 0.500000 0.500000 0.668353
O O13 0.384201 0.437482 0.751436
O O14 0.750000 0.145874 0.750000
O O15 0.637013 0.067617 0.793142
O O16 0.680335 0.151506 0.000000
O O17 0.000000 0.624513 0.332212
O O18 0.250000 1.000000 0.250000
O O19 0.362987 0.067617 0.206858
O O20 0.302628 0.000000 0.000000
O O21 0.750000 0.854126 0.750000
#
# Coordination Sequence:
#
# PCOD8219062 Si02
#       8
#     8   8   8   8   8   8   8   8
#     4   9  16  26  41  62  89 122 159 198 240 285
#     4  10  20  33  48  69  99 132 164 200 244 291
#     4  10  20  33  48  69  99 132 164 200 244 291
#     4   9  15  23  37  59  88 121 156 195 238 283
#     4  10  19  33  53  75  98 125 160 200 242 289
#     4   9  16  26  41  62  89 122 159 198 240 285
#     4   8  16  30  49  72  95 121 155 197 241 284
#     4  10  19  33  53  75  98 125 160 200 242 289
#
# _framework density 18.266822000000001
#
# number of rings (size 3 to 8) (size 9 to 14) (size 15 to 20)
#    0.000    2.625    0.000    2.625    0.000    7.000 
#    0.000    0.625    0.000    3.750    0.000    0.875 
#    0.000    0.000    0.000    0.000    0.000    0.000 
#
# Total GULP energy -793145.136240 kJ/mol
# GULP energy per Si atom -12392.892754 kJ/mol
# Density = 1.822525 g / cm^3
# Si number density = 18.266822 Si / 1000 Ang^3
#
#
#
# Elastic Constant Matrix: (Units=GPa)
#
#
# Indices 1 2 3 4 5 6 
#
# 1 12.2550 23.7359 20.5780 0.0000 0.0000 0.0000
# 2 23.7359 197.0240 95.9701 0.0000 0.0000 0.0000
# 3 20.5780 95.9701 155.7608 0.0000 0.0000 0.0000
# 4 0.0000 0.0000 0.0000 35.5017 0.0000 0.0000
# 5 0.0000 0.0000 0.0000 0.0000 21.3803 0.0000
# 6 0.0000 0.0000 0.0000 0.0000 0.0000 -6.7112
#
#
#
# Elastic Compliance Matrix: (Units=1/GPa)
#
#
# Indices 1 2 3 4 5 6 
#
# 1 0.115611 -0.009270 -0.009562 0.000000 0.000000 0.000000
# 2 -0.009270 0.007995 -0.003701 0.000000 0.000000 0.000000
# 3 -0.009562 -0.003701 0.009964 0.000000 0.000000 0.000000
# 4 0.000000 0.000000 0.000000 0.028168 0.000000 0.000000
# 5 0.000000 0.000000 0.000000 0.000000 0.046772 0.000000
# 6 0.000000 0.000000 0.000000 0.000000 0.000000 -0.149005
#
#
# Mechanical properties :
#
#
# Convention : Reuss Voigt Hill
#
# Bulk Modulus (GPa) = 11.29911 71.73422 41.51666
# Shear Modulus (GPa) = 37.29302 25.01786 31.15544
#
# Velocity S-wave (km/s) = 4.52328 3.70480 4.13434
# Velocity P-wave (km/s) = 5.78611 7.59317 6.75038
#
# Compressibility (1/GPa) = 0.08850255
#
# Stress axis : x y z
#
# Youngs Moduli (GPa) = 8.64973 125.07300 100.36151
#
# Poissons Ratio (x) = 1.15946 0.95965
# Poissons Ratio (y) = 0.08019 0.37149
# Poissons Ratio (z) = 0.08271 0.46296
#
# Static dielectric constant tensor:
#      x y z
#    x 2.674290 0.000000 0.000000 
#    y 0.000000 4.028730 0.000000 
#    z 0.000000 0.000000 3.630190 
# 
# 
# High freq. dielectric constant tensor:
#      x y z
#    x 1.633520 0.000000 0.000000 
#    y 0.000000 1.734940 0.000000 
#    z 0.000000 0.000000 1.729690 
# 
# From -- ./inp_files/11244.got.cif
#   From: 2010.03.12/outbox.cif.g09.slc.cpg/sg53_6_cif.got.tgz:11244.got - 2010.04.16 14:36:59.
