data_PCOD8219359
_publ_section_title
;
Structure prediction by ZEFSAII (Michael W. Deem and Ramdas Pophale) SiO2 
 PCOD8219359
Probable space group: P M N A
;
_chemical_formula_sum "Si O2"
_cell_formula_units_Z 56
_cell_length_a 14.862274
_cell_length_b 8.630354
_cell_length_c 22.456742
_cell_angle_alpha 90.000000
_cell_angle_beta 90.000000
_cell_angle_gamma 90.000000
_cell_volume 2880.451872
_symmetry_space_group_name_H-M "P M N A"
_symmetry_group_IT_number 53
_symmetry_cell_setting 'orthorhombic'
loop_
_space_group_symop_operation_xyz
x,y,z
1/2-x,-y,1/2+z
x,-y,-z
1/2-x,y,1/2-z
-x,-y,-z
1/2+x,y,1/2-z
-x,y,z
1/2+x,-y,1/2+z
loop_
_atom_site_type_symbol
_atom_site_label
_atom_site_fract_x
_atom_site_fract_y
_atom_site_fract_z
Si Si1 0.307072 0.285210 0.860911
Si Si2 0.742805 0.400677 0.318827
Si Si3 0.895906 0.870677 0.835249
Si Si4 0.858811 0.168217 0.375410
Si Si5 0.399377 0.066498 0.778439
Si Si6 0.207267 0.976399 0.070532
Si Si7 0.000000 0.634640 0.413947
Si Si8 0.000000 0.286569 0.458376
O O1 0.241876 0.432597 0.851702
O O2 0.324519 0.193319 0.798505
O O3 0.408778 0.329423 0.878996
O O4 0.253665 0.187251 0.911743
O O5 0.750000 0.435663 0.250000
O O6 0.657080 0.293912 0.335811
O O7 0.836803 0.320394 0.337034
O O8 0.884897 0.982110 0.893821
O O9 0.000000 0.826584 0.828508
O O10 0.862056 0.974053 0.778969
O O11 0.765818 0.110588 0.401094
O O12 0.913104 0.202252 0.434296
O O13 0.911261 0.048682 0.334117
O O14 0.500000 0.135071 0.765477
O O15 0.193666 0.000000 0.000000
O O16 0.000000 0.461066 0.436474
O O17 0.000000 0.743058 0.471757
#
# Coordination Sequence:
#
# PCOD8219359 Si02
#       8
#     8   8   8   8   8   8   4   4
#     4  11  23  37  60  92 129 159 199 241 305 354
#     4  11  22  38  60  88 124 158 195 250 301 363
#     4  10  23  43  65  88 114 157 209 253 311 362
#     4  10  19  34  58  83 118 163 207 231 291 354
#     4  10  19  35  59  87 120 152 188 244 290 358
#     4  10  23  40  60  86 117 162 206 258 303 356
#     4  11  22  35  51  89 135 169 197 238 281 358
#     4  11  20  33  55  85 127 175 203 232 274 357
#
# _framework density 19.441393999999999
#
# number of rings (size 3 to 8) (size 9 to 14) (size 15 to 20)
#    0.000    1.571    4.286    0.857    2.000    0.286 
#    1.286    2.857    0.000    0.857    0.000    0.000 
#    0.000    0.000    0.000    0.000    0.000    0.000 
#
# Total GULP energy -693808.694728 kJ/mol
# GULP energy per Si atom -12389.440977 kJ/mol
# Density = 1.939714 g / cm^3
# Si number density = 19.441394 Si / 1000 Ang^3
#
#
#
# Elastic Constant Matrix: (Units=GPa)
#
#
# Indices 1 2 3 4 5 6 
#
# 1 68.0398 34.3454 25.5307 0.0000 0.0000 0.0000
# 2 34.3454 102.2260 39.6475 0.0000 0.0000 0.0000
# 3 25.5307 39.6475 121.6564 0.0000 0.0000 0.0000
# 4 0.0000 0.0000 0.0000 26.4077 0.0000 0.0000
# 5 0.0000 0.0000 0.0000 0.0000 -22.8779 0.0000
# 6 0.0000 0.0000 0.0000 0.0000 0.0000 -76.5032
#
#
#
# Elastic Compliance Matrix: (Units=1/GPa)
#
#
# Indices 1 2 3 4 5 6 
#
# 1 0.018150 -0.005289 -0.002085 0.000000 0.000000 0.000000
# 2 -0.005289 0.012739 -0.003042 0.000000 0.000000 0.000000
# 3 -0.002085 -0.003042 0.009649 0.000000 0.000000 0.000000
# 4 0.000000 0.000000 0.000000 0.037868 0.000000 0.000000
# 5 0.000000 0.000000 0.000000 0.000000 -0.043710 0.000000
# 6 0.000000 0.000000 0.000000 0.000000 0.000000 -0.013071
#
#
# Mechanical properties :
#
#
# Convention : Reuss Voigt Hill
#
# Bulk Modulus (GPa) = 50.74736 54.55216 52.64976
# Shear Modulus (GPa) = 101.99193 -1.76811 50.11191
#
# Velocity S-wave (km/s) = 7.25087 -0.95469 5.08250
# Velocity P-wave (km/s) = 9.81120 5.18705 7.84745
#
# Compressibility (1/GPa) = 0.01970546
#
# Stress axis : x y z
#
# Youngs Moduli (GPa) = 55.09783 78.49960 103.64072
#
# Poissons Ratio (x) = 0.41519 0.21611
# Poissons Ratio (y) = 0.29142 0.31523
# Poissons Ratio (z) = 0.11489 0.23877
#
# Static dielectric constant tensor:
#      x y z
#    x 3.327800 0.000000 0.000000 
#    y 0.000000 3.624940 0.000000 
#    z 0.000000 0.000000 3.785680 
# 
# 
# High freq. dielectric constant tensor:
#      x y z
#    x 1.748490 0.000000 0.000000 
#    y 0.000000 1.755150 0.000000 
#    z 0.000000 0.000000 1.755230 
# 
# From -- ./inp_files/32510.got.cif
#   From: 2010.03.12/outbox.cif.g09.slc.cpg/sg53_17_cif.got.tgz:32510.got - 2010.04.16 14:36:59.
