data_PCOD8219550
_publ_section_title
;
Structure prediction by ZEFSAII (Michael W. Deem and Ramdas Pophale) SiO2 
 PCOD8219550
Probable space group: P M N A
;
_chemical_formula_sum "Si O2"
_cell_formula_units_Z 48
_cell_length_a 7.698406
_cell_length_b 9.690219
_cell_length_c 33.776792
_cell_angle_alpha 90.000000
_cell_angle_beta 90.000000
_cell_angle_gamma 90.000000
_cell_volume 2519.723016
_symmetry_space_group_name_H-M "P M N A"
_symmetry_group_IT_number 53
_symmetry_cell_setting 'orthorhombic'
loop_
_space_group_symop_operation_xyz
x,y,z
1/2-x,-y,1/2+z
x,-y,-z
1/2-x,y,1/2-z
-x,-y,-z
1/2+x,y,1/2-z
-x,y,z
1/2+x,-y,1/2+z
loop_
_atom_site_type_symbol
_atom_site_label
_atom_site_fract_x
_atom_site_fract_y
_atom_site_fract_z
Si Si1 0.700537 0.667621 0.883234
Si Si2 0.198706 0.038016 0.136829
Si Si3 0.500000 0.300464 0.531643
Si Si4 0.304758 0.197687 0.919627
Si Si5 0.000000 0.385238 0.056821
Si Si6 0.799839 0.393675 0.652469
Si Si7 0.704283 0.155756 0.795338
O O1 0.500000 0.636392 0.895853
O O2 0.770010 0.550137 0.852144
O O3 0.824566 0.663649 0.921348
O O4 0.708913 0.813859 0.861351
O O5 0.288827 0.948028 0.102691
O O6 0.212940 0.969304 0.180025
O O7 0.000000 0.058666 0.125121
O O8 0.329815 0.214166 0.544555
O O9 0.500000 0.450994 0.551233
O O10 0.500000 0.306471 0.484653
O O11 0.500000 0.210956 0.936542
O O12 0.261616 0.318497 0.888813
O O13 0.716648 0.301809 0.688079
O O14 0.000000 0.401360 0.662531
O O15 0.750000 0.136875 0.750000
O O16 0.500000 0.150055 0.802684
#
# Coordination Sequence:
#
# PCOD8219550 Si02
#       7
#     8   8   4   8   4   8   8
#     4  11  21  39  59  84 117 156 199 242 291 356
#     4  11  21  36  61  87 114 155 198 245 293 351
#     4  11  22  37  59  89 121 153 193 261 303 345
#     4  10  19  36  58  84 112 152 202 241 290 351
#     4  11  24  37  57  91 123 149 199 255 303 349
#     4   8  17  33  58  80 109 150 192 236 279 341
#     4  10  20  37  57  88 119 149 190 237 291 344
#
# _framework density 19.049712
#
# number of rings (size 3 to 8) (size 9 to 14) (size 15 to 20)
#    0.000    1.833    3.333    3.000    0.000    0.667 
#    1.500    4.167    0.000    4.000    0.000    0.000 
#    0.000    0.000    0.000    0.000    0.000    0.000 
#
# Total GULP energy -595012.364121 kJ/mol
# GULP energy per Si atom -12396.090919 kJ/mol
# Density = 1.900635 g / cm^3
# Si number density = 19.049712 Si / 1000 Ang^3
#
#
#
# Elastic Constant Matrix: (Units=GPa)
#
#
# Indices 1 2 3 4 5 6 
#
# 1 89.3617 12.9613 36.2848 0.0000 0.0000 0.0000
# 2 12.9613 142.1701 51.7837 0.0000 0.0000 0.0000
# 3 36.2848 51.7837 96.4292 0.0000 0.0000 0.0000
# 4 0.0000 0.0000 0.0000 18.3103 0.0000 0.0000
# 5 0.0000 0.0000 0.0000 0.0000 23.1601 0.0000
# 6 0.0000 0.0000 0.0000 0.0000 0.0000 24.5616
#
#
#
# Elastic Compliance Matrix: (Units=1/GPa)
#
#
# Indices 1 2 3 4 5 6 
#
# 1 0.013274 0.000757 -0.005401 0.000000 0.000000 0.000000
# 2 0.000757 0.008787 -0.005004 0.000000 0.000000 0.000000
# 3 -0.005401 -0.005004 0.015090 0.000000 0.000000 0.000000
# 4 0.000000 0.000000 0.000000 0.054614 0.000000 0.000000
# 5 0.000000 0.000000 0.000000 0.000000 0.043178 0.000000
# 6 0.000000 0.000000 0.000000 0.000000 0.000000 0.040714
#
#
# Mechanical properties :
#
#
# Convention : Reuss Voigt Hill
#
# Bulk Modulus (GPa) = 56.00641 58.89116 57.44879
# Shear Modulus (GPa) = 24.88743 28.33514 26.61128
#
# Velocity S-wave (km/s) = 3.61840 3.86091 3.74162
# Velocity P-wave (km/s) = 6.84989 7.13141 6.99207
#
# Compressibility (1/GPa) = 0.01785510
#
# Stress axis : x y z
#
# Youngs Moduli (GPa) = 75.33610 113.79937 66.26944
#
# Poissons Ratio (x) = -0.08617 0.35795
# Poissons Ratio (y) = -0.05705 0.33160
# Poissons Ratio (z) = 0.40692 0.56944
#
# Static dielectric constant tensor:
#      x y z
#    x 3.628860 0.000000 0.000000 
#    y 0.000000 3.765970 0.000000 
#    z 0.000000 0.000000 3.085610 
# 
# 
# High freq. dielectric constant tensor:
#      x y z
#    x 1.749560 0.000000 0.000000 
#    y 0.000000 1.746530 0.000000 
#    z 0.000000 0.000000 1.707980 
# 
# From -- ./inp_files/37817.got.cif
#   From: 2010.03.12/outbox.cif.g09.slc.cpg/sg53_19_cif.got.tgz:37817.got - 2010.04.16 14:36:59.
