data_PCOD8219365
_publ_section_title
;
Structure prediction by ZEFSAII (Michael W. Deem and Ramdas Pophale) SiO2 
 PCOD8219365
Probable space group: P M N A
;
_chemical_formula_sum "Si O2"
_cell_formula_units_Z 56
_cell_length_a 8.751271
_cell_length_b 13.716883
_cell_length_c 23.883269
_cell_angle_alpha 90.000000
_cell_angle_beta 90.000000
_cell_angle_gamma 90.000000
_cell_volume 2866.951442
_symmetry_space_group_name_H-M "P M N A"
_symmetry_group_IT_number 53
_symmetry_cell_setting 'orthorhombic'
loop_
_space_group_symop_operation_xyz
x,y,z
1/2-x,-y,1/2+z
x,-y,-z
1/2-x,y,1/2-z
-x,-y,-z
1/2+x,y,1/2-z
-x,y,z
1/2+x,-y,1/2+z
loop_
_atom_site_type_symbol
_atom_site_label
_atom_site_fract_x
_atom_site_fract_y
_atom_site_fract_z
Si Si1 0.821260 0.671187 0.587497
Si Si2 0.319800 0.979204 0.808683
Si Si3 0.179716 0.164721 0.620834
Si Si4 0.678837 0.727760 0.477291
Si Si5 0.818884 0.227337 0.190436
Si Si6 0.326127 0.448571 0.916884
Si Si7 0.672927 0.342055 0.807127
O O1 0.762082 0.738929 0.537082
O O2 0.731383 0.695111 0.644138
O O3 0.784213 0.559838 0.570503
O O4 0.000000 0.688297 0.597695
O O5 0.250000 0.015910 0.750000
O O6 0.500000 0.964931 0.800854
O O7 0.244279 0.878314 0.827556
O O8 0.282089 0.057219 0.857003
O O9 0.263568 0.183801 0.561969
O O10 0.242559 0.243307 0.665921
O O11 0.000000 0.181196 0.611201
O O12 0.500000 0.737830 0.486858
O O13 0.715293 0.622450 0.450733
O O14 0.750000 0.259473 0.250000
O O15 0.000000 0.223389 0.195334
O O16 0.500000 0.424949 0.935778
O O17 0.308262 0.430975 0.850463
O O18 0.750000 0.373899 0.750000
O O19 0.500000 0.320221 0.791726
#
# Coordination Sequence:
#
# PCOD8219365 Si02
#       7
#     8   8   8   8   8   8   8
#     4  11  22  39  61  80 105 145 187 227 275 325
#     4  10  19  34  58  85 112 145 184 224 270 323
#     4   9  19  35  54  77 109 147 183 220 266 325
#     4  11  22  35  55  84 114 142 179 227 273 324
#     4  11  23  40  60  84 114 144 181 227 272 322
#     4   9  20  37  55  76 106 146 186 225 272 327
#     4   9  17  30  47  73 107 139 174 215 264 317
#
# _framework density 19.532943
#
# number of rings (size 3 to 8) (size 9 to 14) (size 15 to 20)
#    0.000    2.000    0.000    6.000    0.000    6.857 
#    0.000    2.143    0.000    4.286    0.000    0.000 
#    0.000    0.000    0.000    0.000    0.000    0.000 
#
# Total GULP energy -694502.116539 kJ/mol
# GULP energy per Si atom -12401.823510 kJ/mol
# Density = 1.948849 g / cm^3
# Si number density = 19.532943 Si / 1000 Ang^3
#
#
#
# Elastic Constant Matrix: (Units=GPa)
#
#
# Indices 1 2 3 4 5 6 
#
# 1 102.6003 26.7158 33.5495 0.0000 0.0000 0.0000
# 2 26.7158 44.2380 13.8688 0.0000 0.0000 0.0000
# 3 33.5495 13.8688 91.8675 0.0000 0.0000 0.0000
# 4 0.0000 0.0000 0.0000 24.8983 0.0000 0.0000
# 5 0.0000 0.0000 0.0000 0.0000 33.4311 0.0000
# 6 0.0000 0.0000 0.0000 0.0000 0.0000 17.7343
#
#
#
# Elastic Compliance Matrix: (Units=1/GPa)
#
#
# Indices 1 2 3 4 5 6 
#
# 1 0.012622 -0.006484 -0.003631 0.000000 0.000000 0.000000
# 2 -0.006484 0.027059 -0.001717 0.000000 0.000000 0.000000
# 3 -0.003631 -0.001717 0.012470 0.000000 0.000000 0.000000
# 4 0.000000 0.000000 0.000000 0.040163 0.000000 0.000000
# 5 0.000000 0.000000 0.000000 0.000000 0.029912 0.000000
# 6 0.000000 0.000000 0.000000 0.000000 0.000000 0.056388
#
#
# Mechanical properties :
#
#
# Convention : Reuss Voigt Hill
#
# Bulk Modulus (GPa) = 35.10277 42.99712 39.04994
# Shear Modulus (GPa) = 23.60994 26.18421 24.89708
#
# Velocity S-wave (km/s) = 3.48044 3.66528 3.57405
# Velocity P-wave (km/s) = 5.84477 6.32240 6.08827
#
# Compressibility (1/GPa) = 0.02848778
#
# Stress axis : x y z
#
# Youngs Moduli (GPa) = 79.22533 36.95587 80.19041
#
# Poissons Ratio (x) = 0.23964 0.29114
# Poissons Ratio (y) = 0.51374 0.13768
# Poissons Ratio (z) = 0.28764 0.06345
#
# Static dielectric constant tensor:
#      x y z
#    x 3.509110 0.000000 0.000000 
#    y 0.000000 3.415780 0.000000 
#    z 0.000000 0.000000 3.602970 
# 
# 
# High freq. dielectric constant tensor:
#      x y z
#    x 1.760530 0.000000 0.000000 
#    y 0.000000 1.745140 0.000000 
#    z 0.000000 0.000000 1.765380 
# 
# From -- ./inp_files/30770.got.cif
#   From: 2010.03.12/outbox.cif.g09.slc.cpg/sg53_16_cif.got.tgz:30770.got - 2010.04.16 14:36:59.
