data_PCOD8219912
_publ_section_title
;
Structure prediction by ZEFSAII (Michael W. Deem and Ramdas Pophale) SiO2 
 PCOD8219912
Probable space group: P M N A
;
_chemical_formula_sum "Si O2"
_cell_formula_units_Z 56
_cell_length_a 9.153272
_cell_length_b 19.239967
_cell_length_c 17.854348
_cell_angle_alpha 90.000000
_cell_angle_beta 90.000000
_cell_angle_gamma 90.000000
_cell_volume 3144.305145
_symmetry_space_group_name_H-M "P M N A"
_symmetry_group_IT_number 53
_symmetry_cell_setting 'orthorhombic'
loop_
_space_group_symop_operation_xyz
x,y,z
1/2-x,-y,1/2+z
x,-y,-z
1/2-x,y,1/2-z
-x,-y,-z
1/2+x,y,1/2-z
-x,y,z
1/2+x,-y,1/2+z
loop_
_atom_site_type_symbol
_atom_site_label
_atom_site_fract_x
_atom_site_fract_y
_atom_site_fract_z
Si Si1 0.828238 0.543464 0.566909
Si Si2 0.172379 0.163891 0.327250
Si Si3 0.671991 0.206408 0.470723
Si Si4 0.829850 0.666462 0.469273
Si Si5 0.168655 0.004298 0.324076
Si Si6 0.338920 0.934191 0.447471
Si Si7 0.170721 0.430405 0.673138
O O1 0.754395 0.500000 0.500000
O O2 0.793391 0.623615 0.546903
O O3 0.776333 0.508461 0.645711
O O4 0.000000 0.530150 0.564367
O O5 0.250000 0.185046 0.250000
O O6 0.242381 0.211187 0.392058
O O7 0.206511 0.083453 0.346643
O O8 0.000000 0.178389 0.320921
O O9 0.500000 0.214794 0.456355
O O10 0.729389 0.265578 0.527164
O O11 0.711996 0.133160 0.507648
O O12 0.791632 0.624046 0.393534
O O13 0.000000 0.687310 0.468644
O O14 0.250000 0.982015 0.250000
O O15 0.000000 0.995052 0.308944
O O16 0.217886 0.949250 0.385702
O O17 0.500000 0.921895 0.411791
O O18 0.346992 0.000000 0.500000
O O19 0.250000 0.409776 0.750000
O O20 0.000000 0.428958 0.690812
#
# Coordination Sequence:
#
# PCOD8219912 Si02
#       7
#     8   8   8   8   8   8   8
#     4   7  12  27  51  74  96 128 170 208 244 294
#     4  10  20  34  53  76 101 130 167 213 265 321
#     4  11  22  35  53  77 106 141 179 221 268 318
#     4   9  18  34  54  75 104 143 181 215 257 314
#     4  10  20  33  53  77 101 128 165 216 271 324
#     4  10  20  35  53  73 101 136 176 223 271 317
#     4   9  17  31  54  82 108 137 174 215 259 308
#
# _framework density 17.809977
#
# number of rings (size 3 to 8) (size 9 to 14) (size 15 to 20)
#    0.000    2.571    1.429    3.000    0.000    3.143 
#    0.000    2.143    0.000    6.000    0.000    0.000 
#    0.000    0.000    0.000    0.000    0.000    0.000 
#
# Total GULP energy -693875.253993 kJ/mol
# GULP energy per Si atom -12390.629536 kJ/mol
# Density = 1.776944 g / cm^3
# Si number density = 17.809977 Si / 1000 Ang^3
#
#
#
# Elastic Constant Matrix: (Units=GPa)
#
#
# Indices 1 2 3 4 5 6 
#
# 1 69.3594 33.6516 53.2797 0.0000 0.0000 0.0000
# 2 33.6516 83.4515 44.4272 0.0000 0.0000 0.0000
# 3 53.2797 44.4272 108.9902 0.0000 0.0000 0.0000
# 4 0.0000 0.0000 0.0000 20.1547 0.0000 0.0000
# 5 0.0000 0.0000 0.0000 0.0000 34.3977 0.0000
# 6 0.0000 0.0000 0.0000 0.0000 0.0000 12.7879
#
#
#
# Elastic Compliance Matrix: (Units=1/GPa)
#
#
# Indices 1 2 3 4 5 6 
#
# 1 0.024311 -0.004440 -0.010074 0.000000 0.000000 0.000000
# 2 -0.004440 0.016115 -0.004398 0.000000 0.000000 0.000000
# 3 -0.010074 -0.004398 0.015893 0.000000 0.000000 0.000000
# 4 0.000000 0.000000 0.000000 0.049616 0.000000 0.000000
# 5 0.000000 0.000000 0.000000 0.000000 0.029072 0.000000
# 6 0.000000 0.000000 0.000000 0.000000 0.000000 0.078199
#
#
# Mechanical properties :
#
#
# Convention : Reuss Voigt Hill
#
# Bulk Modulus (GPa) = 54.07430 58.27976 56.17703
# Shear Modulus (GPa) = 19.44048 22.16424 20.80236
#
# Velocity S-wave (km/s) = 3.30745 3.53155 3.42133
# Velocity P-wave (km/s) = 6.70920 7.03017 6.87156
#
# Compressibility (1/GPa) = 0.01849307
#
# Stress axis : x y z
#
# Youngs Moduli (GPa) = 41.13429 62.05403 62.92108
#
# Poissons Ratio (x) = 0.27551 0.63389
# Poissons Ratio (y) = 0.18263 0.27676
# Poissons Ratio (z) = 0.41440 0.27294
#
# Static dielectric constant tensor:
#      x y z
#    x 3.215820 0.000000 0.000000 
#    y 0.000000 3.235790 0.000000 
#    z 0.000000 0.000000 1.537070 
# 
# 
# High freq. dielectric constant tensor:
#      x y z
#    x 1.679980 0.000000 0.000000 
#    y 0.000000 1.672820 0.000000 
#    z 0.000000 0.000000 1.682210 
# 
# From -- ./inp_files/26714.got.cif
#   From: 2010.03.12/outbox.cif.g09.slc.cpg/sg53_14_cif.got.tgz:26714.got - 2010.04.16 14:36:59.
