data_PCOD8219485
_publ_section_title
;
Structure prediction by ZEFSAII (Michael W. Deem and Ramdas Pophale) SiO2 
 PCOD8219485
Probable space group: P M N A
;
_chemical_formula_sum "Si O2"
_cell_formula_units_Z 48
_cell_length_a 8.742627
_cell_length_b 15.141656
_cell_length_c 19.131539
_cell_angle_alpha 90.000000
_cell_angle_beta 90.000000
_cell_angle_gamma 90.000000
_cell_volume 2532.592011
_symmetry_space_group_name_H-M "P M N A"
_symmetry_group_IT_number 53
_symmetry_cell_setting 'orthorhombic'
loop_
_space_group_symop_operation_xyz
x,y,z
1/2-x,-y,1/2+z
x,-y,-z
1/2-x,y,1/2-z
-x,-y,-z
1/2+x,y,1/2-z
-x,y,z
1/2+x,-y,1/2+z
loop_
_atom_site_type_symbol
_atom_site_label
_atom_site_fract_x
_atom_site_fract_y
_atom_site_fract_z
Si Si1 0.679919 0.126717 0.325841
Si Si2 0.818912 0.379201 0.826255
Si Si3 0.317584 0.972661 0.424033
Si Si4 0.820306 0.473860 0.421922
Si Si5 0.819470 0.287019 0.074797
Si Si6 0.818517 0.223788 0.923801
O O1 0.750000 0.132284 0.250000
O O2 0.500000 0.118263 0.318799
O O3 0.724800 0.214208 0.368121
O O4 0.745849 0.040892 0.366315
O O5 0.750000 0.380125 0.750000
O O6 0.767855 0.465408 0.867525
O O7 0.756608 0.292012 0.866010
O O8 0.000000 0.378449 0.821161
O O9 0.500000 0.975911 0.425674
O O10 0.257463 0.874309 0.405720
O O11 0.254105 0.000000 0.500000
O O12 0.768952 0.500000 0.500000
O O13 0.772088 0.374423 0.404966
O O14 0.000000 0.486074 0.411188
O O15 0.000000 0.306698 0.073477
O O16 0.759660 0.253249 0.999847
O O17 0.000000 0.223050 0.925187
#
# Coordination Sequence:
#
# PCOD8219485 Si02
#       6
#     8   8   8   8   8   8
#     4  10  21  35  56  84 117 150 184 232 283 334
#     4  11  23  39  59  84 117 151 188 237 288 342
#     4   9  15  29  55  85 111 142 190 236 269 319
#     4  11  23  38  59  87 116 148 188 237 289 341
#     4  10  19  35  59  85 109 147 197 236 276 332
#     4   9  17  31  56  85 110 143 191 236 277 329
#
# _framework density 18.952914
#
# number of rings (size 3 to 8) (size 9 to 14) (size 15 to 20)
#    0.000    2.000    3.333    1.000    0.000    2.667 
#    0.000    1.667    0.000    2.500    0.000    0.000 
#    0.000    0.000    0.000    0.000    0.000    0.000 
#
# Total GULP energy -595262.258096 kJ/mol
# GULP energy per Si atom -12401.297044 kJ/mol
# Density = 1.890978 g / cm^3
# Si number density = 18.952914 Si / 1000 Ang^3
#
#
#
# Elastic Constant Matrix: (Units=GPa)
#
#
# Indices 1 2 3 4 5 6 
#
# 1 33.1208 32.2202 36.0685 0.0000 0.0000 0.0000
# 2 32.2202 175.9972 88.6020 0.0000 0.0000 0.0000
# 3 36.0685 88.6020 176.8434 0.0000 0.0000 0.0000
# 4 0.0000 0.0000 0.0000 -24.3741 0.0000 0.0000
# 5 0.0000 0.0000 0.0000 0.0000 17.9879 0.0000
# 6 0.0000 0.0000 0.0000 0.0000 0.0000 6.9044
#
#
#
# Elastic Compliance Matrix: (Units=1/GPa)
#
#
# Indices 1 2 3 4 5 6 
#
# 1 0.041249 -0.004435 -0.006191 0.000000 0.000000 0.000000
# 2 -0.004435 0.008075 -0.003141 0.000000 0.000000 0.000000
# 3 -0.006191 -0.003141 0.008491 0.000000 0.000000 0.000000
# 4 0.000000 0.000000 0.000000 -0.041027 0.000000 0.000000
# 5 0.000000 0.000000 0.000000 0.000000 0.055593 0.000000
# 6 0.000000 0.000000 0.000000 0.000000 0.000000 0.144835
#
#
# Mechanical properties :
#
#
# Convention : Reuss Voigt Hill
#
# Bulk Modulus (GPa) = 33.02407 77.74920 55.38663
# Shear Modulus (GPa) = 19.61987 15.37503 17.49745
#
# Velocity S-wave (km/s) = 3.22093 2.85129 3.04173
# Velocity P-wave (km/s) = 5.59416 7.20771 6.45158
#
# Compressibility (1/GPa) = 0.03028095
#
# Stress axis : x y z
#
# Youngs Moduli (GPa) = 24.24317 123.83544 117.76737
#
# Poissons Ratio (x) = 0.54918 0.72911
# Poissons Ratio (y) = 0.10751 0.36995
# Poissons Ratio (z) = 0.15009 0.38901
#
# Static dielectric constant tensor:
#      x y z
#    x 3.092140 0.000000 0.000000 
#    y 0.000000 3.904480 0.000000 
#    z 0.000000 0.000000 2.181620 
# 
# 
# High freq. dielectric constant tensor:
#      x y z
#    x 1.700340 0.000000 0.000000 
#    y 0.000000 1.756640 0.000000 
#    z 0.000000 0.000000 1.738910 
# 
# From -- ./inp_files/26251.got.cif
#   From: 2010.03.12/outbox.cif.g09.slc.cpg/sg53_14_cif.got.tgz:26251.got - 2010.04.16 14:36:59.
