data_PCOD8219447
_publ_section_title
;
Structure prediction by ZEFSAII (Michael W. Deem and Ramdas Pophale) SiO2 
 PCOD8219447
Probable space group: P M N A
;
_chemical_formula_sum "Si O2"
_cell_formula_units_Z 60
_cell_length_a 9.081123
_cell_length_b 19.281502
_cell_length_c 16.629779
_cell_angle_alpha 90.000000
_cell_angle_beta 90.000000
_cell_angle_gamma 90.000000
_cell_volume 2911.835910
_symmetry_space_group_name_H-M "P M N A"
_symmetry_group_IT_number 53
_symmetry_cell_setting 'orthorhombic'
loop_
_space_group_symop_operation_xyz
x,y,z
1/2-x,-y,1/2+z
x,-y,-z
1/2-x,y,1/2-z
-x,-y,-z
1/2+x,y,1/2-z
-x,y,z
1/2+x,-y,1/2+z
loop_
_atom_site_type_symbol
_atom_site_label
_atom_site_fract_x
_atom_site_fract_y
_atom_site_fract_z
Si Si1 0.250000 0.136894 0.750000
Si Si2 0.338778 0.747019 0.363728
Si Si3 0.828294 0.764045 0.952343
Si Si4 0.174100 0.899323 0.559089
Si Si5 0.168746 0.374408 0.442473
Si Si6 0.835330 0.044488 0.607014
Si Si7 0.175546 0.477685 0.170632
Si Si8 0.667174 0.615535 0.132670
O O1 0.150217 0.186525 0.805021
O O2 0.337234 0.086059 0.809463
O O3 0.500000 0.712062 0.366210
O O4 0.294712 0.771230 0.452800
O O5 0.220813 0.690143 0.333308
O O6 0.761527 0.831994 0.909271
O O7 0.744716 0.697371 0.916358
O O8 0.000000 0.757069 0.932439
O O9 0.233640 0.913348 0.467605
O O10 0.000000 0.883021 0.564087
O O11 0.226823 0.965521 0.613534
O O12 0.260368 0.437709 0.405816
O O13 0.176947 0.384431 0.537225
O O14 0.000000 0.375893 0.412261
O O15 0.000000 0.032018 0.577954
O O16 0.250000 0.444285 0.250000
O O17 0.224202 0.557733 0.166958
O O18 0.000000 0.471687 0.173531
O O19 0.500000 0.602259 0.162111
#
# Coordination Sequence:
#
# PCOD8219447 Si02
#       8
#     4   8   8   8   8   8   8   8
#     4  12  20  34  54  82 120 152 190 236 292 350
#     4  10  22  35  51  81 119 153 186 232 291 350
#     4  10  19  35  57  86 114 144 188 240 296 349
#     4   9  17  35  57  79 106 147 197 240 283 342
#     4  10  21  39  64  92 119 155 201 247 296 353
#     4   9  19  33  54  79 109 150 194 235 284 347
#     4  12  25  41  62  88 122 160 199 249 301 352
#     4  10  22  40  62  87 119 161 204 241 286 352
#
# _framework density 20.605557000000001
#
# number of rings (size 3 to 8) (size 9 to 14) (size 15 to 20)
#    0.000    1.867    1.333    4.000    0.933    4.800 
#    0.000    2.667    1.467    0.000    0.000    0.000 
#    0.000    0.000    0.000    0.000    0.000    0.000 
#
# Total GULP energy -743691.250926 kJ/mol
# GULP energy per Si atom -12394.854182 kJ/mol
# Density = 2.055866 g / cm^3
# Si number density = 20.605557 Si / 1000 Ang^3
#
#
#
# Elastic Constant Matrix: (Units=GPa)
#
#
# Indices 1 2 3 4 5 6 
#
# 1 132.4545 52.4506 23.1541 0.0000 0.0000 0.0000
# 2 52.4506 127.5419 31.4819 0.0000 0.0000 0.0000
# 3 23.1541 31.4819 53.5762 0.0000 0.0000 0.0000
# 4 0.0000 0.0000 0.0000 33.7116 0.0000 0.0000
# 5 0.0000 0.0000 0.0000 0.0000 22.5474 0.0000
# 6 0.0000 0.0000 0.0000 0.0000 0.0000 32.4012
#
#
#
# Elastic Compliance Matrix: (Units=1/GPa)
#
#
# Indices 1 2 3 4 5 6 
#
# 1 0.009207 -0.003280 -0.002052 0.000000 0.000000 0.000000
# 2 -0.003280 0.010339 -0.004658 0.000000 0.000000 0.000000
# 3 -0.002052 -0.004658 0.022289 0.000000 0.000000 0.000000
# 4 0.000000 0.000000 0.000000 0.029663 0.000000 0.000000
# 5 0.000000 0.000000 0.000000 0.000000 0.044351 0.000000
# 6 0.000000 0.000000 0.000000 0.000000 0.000000 0.030863
#
#
# Mechanical properties :
#
#
# Convention : Reuss Voigt Hill
#
# Bulk Modulus (GPa) = 45.75422 58.63844 52.19633
# Shear Modulus (GPa) = 28.73941 31.49778 30.11860
#
# Velocity S-wave (km/s) = 3.73867 3.91398 3.82733
# Velocity P-wave (km/s) = 6.39452 6.99607 6.70205
#
# Compressibility (1/GPa) = 0.02185591
#
# Stress axis : x y z
#
# Youngs Moduli (GPa) = 108.60992 96.71975 44.86569
#
# Poissons Ratio (x) = 0.31724 0.09205
# Poissons Ratio (y) = 0.35624 0.20898
# Poissons Ratio (z) = 0.22284 0.45051
#
# Static dielectric constant tensor:
#      x y z
#    x 3.604570 0.000000 0.000000 
#    y 0.000000 3.832120 0.000000 
#    z 0.000000 0.000000 3.504680 
# 
# 
# High freq. dielectric constant tensor:
#      x y z
#    x 1.797790 0.000000 0.000000 
#    y 0.000000 1.817100 0.000000 
#    z 0.000000 0.000000 1.779680 
# 
# From -- ./inp_files/26588.got.cif
#   From: 2010.03.12/outbox.cif.g09.slc.cpg/sg53_14_cif.got.tgz:26588.got - 2010.04.16 14:36:59.
