data_PCOD8219533
_publ_section_title
;
Structure prediction by ZEFSAII (Michael W. Deem and Ramdas Pophale) SiO2 
 PCOD8219533
Probable space group: P M N A
;
_chemical_formula_sum "Si O2"
_cell_formula_units_Z 56
_cell_length_a 8.829055
_cell_length_b 15.492559
_cell_length_c 23.296043
_cell_angle_alpha 90.000000
_cell_angle_beta 90.000000
_cell_angle_gamma 90.000000
_cell_volume 3186.541216
_symmetry_space_group_name_H-M "P M N A"
_symmetry_group_IT_number 53
_symmetry_cell_setting 'orthorhombic'
loop_
_space_group_symop_operation_xyz
x,y,z
1/2-x,-y,1/2+z
x,-y,-z
1/2-x,y,1/2-z
-x,-y,-z
1/2+x,y,1/2-z
-x,y,z
1/2+x,-y,1/2+z
loop_
_atom_site_type_symbol
_atom_site_label
_atom_site_fract_x
_atom_site_fract_y
_atom_site_fract_z
Si Si1 0.321489 0.898870 0.499451
Si Si2 0.322206 0.311832 0.187558
Si Si3 0.320436 0.164833 0.622958
Si Si4 0.322477 0.480744 0.312099
Si Si5 0.821386 0.000561 0.189434
Si Si6 0.322476 0.854432 0.885751
Si Si7 0.177555 0.330089 0.812030
O O1 0.500000 0.884376 0.508252
O O2 0.259599 0.857454 0.440299
O O3 0.229998 0.848444 0.548512
O O4 0.281859 0.000000 0.500000
O O5 0.250000 0.295192 0.250000
O O6 0.500000 0.321629 0.195856
O O7 0.256559 0.399084 0.156831
O O8 0.279217 0.234171 0.145633
O O9 0.500000 0.163072 0.620127
O O10 0.264800 0.093297 0.668616
O O11 0.259040 0.257976 0.644004
O O12 0.250000 0.483591 0.250000
O O13 0.500000 0.462945 0.308150
O O14 0.288484 0.575067 0.339775
O O15 0.750000 0.024477 0.250000
O O16 0.000000 0.004762 0.195611
O O17 0.770870 0.068872 0.142472
O O18 0.500000 0.873816 0.881312
O O19 0.250000 0.317645 0.750000
O O20 0.000000 0.317675 0.802699
#
# Coordination Sequence:
#
# PCOD8219533 Si02
#       7
#     8   8   8   8   8   8   8
#     4  10  19  36  57  74  94 132 177 212 253 298
#     4  10  20  33  50  73 102 132 164 202 251 301
#     4   9  18  33  52  73 101 133 167 206 248 297
#     4   9  16  27  47  73 100 130 163 198 243 295
#     4  11  21  34  51  74 104 136 167 202 249 303
#     4  11  23  36  51  74 101 132 169 213 255 296
#     4   9  17  30  49  75 105 133 162 201 246 298
#
# _framework density 17.573913000000001
#
# number of rings (size 3 to 8) (size 9 to 14) (size 15 to 20)
#    0.000    2.143    1.429    3.429    0.000    4.286 
#    0.000    1.429    0.000    0.857    0.000    6.000 
#    0.000    0.000    0.000    0.000    0.000    0.000 
#
# Total GULP energy -694191.805756 kJ/mol
# GULP energy per Si atom -12396.282246 kJ/mol
# Density = 1.753391 g / cm^3
# Si number density = 17.573913 Si / 1000 Ang^3
#
#
#
# Elastic Constant Matrix: (Units=GPa)
#
#
# Indices 1 2 3 4 5 6 
#
# 1 60.7755 45.4401 26.5506 0.0000 0.0000 0.0000
# 2 45.4401 141.0469 45.5245 0.0000 0.0000 0.0000
# 3 26.5506 45.5245 89.9633 0.0000 0.0000 0.0000
# 4 0.0000 0.0000 0.0000 13.3092 0.0000 0.0000
# 5 0.0000 0.0000 0.0000 0.0000 24.5536 0.0000
# 6 0.0000 0.0000 0.0000 0.0000 0.0000 -14.8218
#
#
#
# Elastic Compliance Matrix: (Units=1/GPa)
#
#
# Indices 1 2 3 4 5 6 
#
# 1 0.022594 -0.006127 -0.003567 0.000000 0.000000 0.000000
# 2 -0.006127 0.010136 -0.003321 0.000000 0.000000 0.000000
# 3 -0.003567 -0.003321 0.013849 0.000000 0.000000 0.000000
# 4 0.000000 0.000000 0.000000 0.075136 0.000000 0.000000
# 5 0.000000 0.000000 0.000000 0.000000 0.040727 0.000000
# 6 0.000000 0.000000 0.000000 0.000000 0.000000 -0.067468
#
#
# Mechanical properties :
#
#
# Convention : Reuss Voigt Hill
#
# Bulk Modulus (GPa) = 48.66791 58.53511 53.60151
# Shear Modulus (GPa) = 39.10743 16.22624 27.66683
#
# Velocity S-wave (km/s) = 4.72244 3.04190 3.97207
# Velocity P-wave (km/s) = 7.58212 6.76150 7.18354
#
# Compressibility (1/GPa) = 0.02054742
#
# Stress axis : x y z
#
# Youngs Moduli (GPa) = 44.25998 98.66166 72.20852
#
# Poissons Ratio (x) = 0.60455 0.25759
# Poissons Ratio (y) = 0.27120 0.23978
# Poissons Ratio (z) = 0.15789 0.32762
#
# Static dielectric constant tensor:
#      x y z
#    x 3.193030 0.000000 0.000000 
#    y 0.000000 3.932920 0.000000 
#    z 0.000000 0.000000 3.196550 
# 
# 
# High freq. dielectric constant tensor:
#      x y z
#    x 1.675210 0.000000 0.000000 
#    y 0.000000 1.692590 0.000000 
#    z 0.000000 0.000000 1.653480 
# 
# From -- ./inp_files/30736.got.cif
#   From: 2010.03.12/outbox.cif.g09.slc.cpg/sg53_16_cif.got.tgz:30736.got - 2010.04.16 14:36:59.
