data_PCOD8219054
_publ_section_title
;
Structure prediction by ZEFSAII (Michael W. Deem and Ramdas Pophale) SiO2 
 PCOD8219054
Probable space group: P M N A
;
_chemical_formula_sum "Si O2"
_cell_formula_units_Z 56
_cell_length_a 9.180539
_cell_length_b 17.182832
_cell_length_c 19.856163
_cell_angle_alpha 90.000000
_cell_angle_beta 90.000000
_cell_angle_gamma 90.000000
_cell_volume 3132.263236
_symmetry_space_group_name_H-M "P M N A"
_symmetry_group_IT_number 53
_symmetry_cell_setting 'orthorhombic'
loop_
_space_group_symop_operation_xyz
x,y,z
1/2-x,-y,1/2+z
x,-y,-z
1/2-x,y,1/2-z
-x,-y,-z
1/2+x,y,1/2-z
-x,y,z
1/2+x,-y,1/2+z
loop_
_atom_site_type_symbol
_atom_site_label
_atom_site_fract_x
_atom_site_fract_y
_atom_site_fract_z
Si Si1 0.171120 0.443237 0.681986
Si Si2 0.827835 0.828242 0.318624
Si Si3 0.331555 0.946879 0.402062
Si Si4 0.332007 0.113777 0.451536
Si Si5 0.170561 0.621043 0.682213
Si Si6 0.328117 0.689180 0.084638
Si Si7 0.173035 0.730408 0.561639
O O1 0.250000 0.416309 0.750000
O O2 0.210100 0.532064 0.664103
O O3 0.229012 0.389483 0.620708
O O4 0.000000 0.431300 0.693595
O O5 0.750000 0.804546 0.250000
O O6 0.769727 0.911715 0.343802
O O7 0.779653 0.763995 0.372870
O O8 0.000000 0.831994 0.307630
O O9 0.500000 0.929599 0.385767
O O10 0.286898 0.907977 0.472687
O O11 0.303345 0.039271 0.404136
O O12 0.500000 0.138563 0.448635
O O13 0.234829 0.184017 0.424179
O O14 0.250000 0.648396 0.750000
O O15 0.226811 0.673489 0.620691
O O16 0.000000 0.631388 0.694286
O O17 0.500000 0.685092 0.079791
O O18 0.264456 0.696688 0.009084
O O19 0.000000 0.736257 0.559813
#
# Coordination Sequence:
#
# PCOD8219054 Si02
#       7
#     8   8   8   8   8   8   8
#     4   9  17  32  51  72 100 137 174 209 252 301
#     4  11  21  33  50  75 107 142 174 213 258 304
#     4   9  18  34  53  74 100 132 171 209 251 306
#     4   9  18  33  54  77 101 130 165 209 257 304
#     4   9  19  34  54  75  99 133 171 212 259 308
#     4   9  18  31  49  75 105 133 171 213 252 301
#     4  10  19  33  52  78 106 132 169 215 257 306
#
# _framework density 17.878446
#
# number of rings (size 3 to 8) (size 9 to 14) (size 15 to 20)
#    0.000    2.571    1.429    1.714    0.000    1.714 
#    0.000    6.429    0.000    1.714    0.000    5.000 
#    0.000    0.000    0.000    0.000    0.000    0.000 
#
# Total GULP energy -694407.999225 kJ/mol
# GULP energy per Si atom -12400.142843 kJ/mol
# Density = 1.783775 g / cm^3
# Si number density = 17.878446 Si / 1000 Ang^3
#
#
#
# Elastic Constant Matrix: (Units=GPa)
#
#
# Indices 1 2 3 4 5 6 
#
# 1 42.5912 36.3574 41.1061 0.0000 0.0000 0.0000
# 2 36.3574 118.7689 74.5053 0.0000 0.0000 0.0000
# 3 41.1061 74.5053 132.1546 0.0000 0.0000 0.0000
# 4 0.0000 0.0000 0.0000 25.3617 0.0000 0.0000
# 5 0.0000 0.0000 0.0000 0.0000 27.3604 0.0000
# 6 0.0000 0.0000 0.0000 0.0000 0.0000 25.2154
#
#
#
# Elastic Compliance Matrix: (Units=1/GPa)
#
#
# Indices 1 2 3 4 5 6 
#
# 1 0.036309 -0.006235 -0.007778 0.000000 0.000000 0.000000
# 2 -0.006235 0.014098 -0.006008 0.000000 0.000000 0.000000
# 3 -0.007778 -0.006008 0.013374 0.000000 0.000000 0.000000
# 4 0.000000 0.000000 0.000000 0.039429 0.000000 0.000000
# 5 0.000000 0.000000 0.000000 0.000000 0.036549 0.000000
# 6 0.000000 0.000000 0.000000 0.000000 0.000000 0.039658
#
#
# Mechanical properties :
#
#
# Convention : Reuss Voigt Hill
#
# Bulk Modulus (GPa) = 42.13014 66.38360 54.25687
# Shear Modulus (GPa) = 21.99024 25.02390 23.50707
#
# Velocity S-wave (km/s) = 3.51092 3.74527 3.62999
# Velocity P-wave (km/s) = 6.32861 7.47756 6.92695
#
# Compressibility (1/GPa) = 0.02373597
#
# Stress axis : x y z
#
# Youngs Moduli (GPa) = 27.54139 70.93399 74.77364
#
# Poissons Ratio (x) = 0.44230 0.58162
# Poissons Ratio (y) = 0.17173 0.44927
# Poissons Ratio (z) = 0.21423 0.42620
#
# Static dielectric constant tensor:
#      x y z
#    x 3.084720 0.000000 0.000000 
#    y 0.000000 3.367880 0.000000 
#    z 0.000000 0.000000 3.387420 
# 
# 
# High freq. dielectric constant tensor:
#      x y z
#    x 1.673570 0.000000 0.000000 
#    y 0.000000 1.696280 0.000000 
#    z 0.000000 0.000000 1.684560 
# 
# From -- ./inp_files/31030.got.cif
#   From: 2010.03.12/outbox.cif.g09.slc.cpg/sg53_16_cif.got.tgz:31030.got - 2010.04.16 14:36:59.
