data_PCOD8219675
_publ_section_title
;
Structure prediction by ZEFSAII (Michael W. Deem and Ramdas Pophale) SiO2 
 PCOD8219675
Probable space group: P M N A
;
_chemical_formula_sum "Si O2"
_cell_formula_units_Z 48
_cell_length_a 8.479140
_cell_length_b 15.028345
_cell_length_c 19.142905
_cell_angle_alpha 90.000000
_cell_angle_beta 90.000000
_cell_angle_gamma 90.000000
_cell_volume 2439.331402
_symmetry_space_group_name_H-M "P M N A"
_symmetry_group_IT_number 53
_symmetry_cell_setting 'orthorhombic'
loop_
_space_group_symop_operation_xyz
x,y,z
1/2-x,-y,1/2+z
x,-y,-z
1/2-x,y,1/2-z
-x,-y,-z
1/2+x,y,1/2-z
-x,y,z
1/2+x,-y,1/2+z
loop_
_atom_site_type_symbol
_atom_site_label
_atom_site_fract_x
_atom_site_fract_y
_atom_site_fract_z
Si Si1 0.316416 0.386588 0.174132
Si Si2 0.181613 0.532506 0.078547
Si Si3 0.184617 0.062876 0.324510
Si Si4 0.313603 0.128730 0.674482
Si Si5 0.812694 0.731613 0.061711
Si Si6 0.814584 0.777514 0.907798
O O1 0.250000 0.407748 0.250000
O O2 0.500000 0.361973 0.177105
O O3 0.291687 0.474275 0.128031
O O4 0.220425 0.304346 0.142824
O O5 0.244128 0.633536 0.083849
O O6 0.000000 0.523578 0.102873
O O7 0.200112 0.500000 0.000000
O O8 0.250000 0.095898 0.250000
O O9 0.224459 0.134745 0.382949
O O10 0.000000 0.048898 0.317286
O O11 0.260434 0.969627 0.347198
O O12 0.250000 0.156738 0.750000
O O13 0.500000 0.132347 0.676328
O O14 0.245961 0.197814 0.617534
O O15 0.000000 0.732685 0.058607
O O16 0.748593 0.755804 0.984870
O O17 0.000000 0.796720 0.907560
#
# Coordination Sequence:
#
# PCOD8219675 Si02
#       6
#     8   8   8   8   8   8
#     4  12  25  40  59  89 122 157 199 248 296 351
#     4  10  19  39  65  87 117 158 198 240 294 355
#     4  11  22  38  58  85 117 155 195 241 295 349
#     4  10  20  38  60  85 115 152 197 242 289 347
#     4   9  20  37  62  89 116 154 197 237 292 354
#     4  11  21  39  62  87 117 156 196 240 294 356
#
# _framework density 19.677523999999998
#
# number of rings (size 3 to 8) (size 9 to 14) (size 15 to 20)
#    0.000    1.500    1.667    5.500    0.000    1.667 
#    0.000   10.000    0.000    0.000    0.000    0.000 
#    0.000    0.000    0.000    0.000    0.000    0.000 
#
# Total GULP energy -595426.703979 kJ/mol
# GULP energy per Si atom -12404.723000 kJ/mol
# Density = 1.963274 g / cm^3
# Si number density = 19.677524 Si / 1000 Ang^3
#
#
#
# Elastic Constant Matrix: (Units=GPa)
#
#
# Indices 1 2 3 4 5 6 
#
# 1 56.7694 12.9313 23.5384 0.0000 0.0000 0.0000
# 2 12.9313 130.5443 56.1430 0.0000 0.0000 0.0000
# 3 23.5384 56.1430 91.8352 0.0000 0.0000 0.0000
# 4 0.0000 0.0000 0.0000 34.2582 0.0000 0.0000
# 5 0.0000 0.0000 0.0000 0.0000 27.5720 0.0000
# 6 0.0000 0.0000 0.0000 0.0000 0.0000 -10.2177
#
#
#
# Elastic Compliance Matrix: (Units=1/GPa)
#
#
# Indices 1 2 3 4 5 6 
#
# 1 0.019718 0.000299 -0.005237 0.000000 0.000000 0.000000
# 2 0.000299 0.010397 -0.006433 0.000000 0.000000 0.000000
# 3 -0.005237 -0.006433 0.016164 0.000000 0.000000 0.000000
# 4 0.000000 0.000000 0.000000 0.029190 0.000000 0.000000
# 5 0.000000 0.000000 0.000000 0.000000 0.036269 0.000000
# 6 0.000000 0.000000 0.000000 0.000000 0.000000 -0.097869
#
#
# Mechanical properties :
#
#
# Convention : Reuss Voigt Hill
#
# Bulk Modulus (GPa) = 42.48430 51.59715 47.04072
# Shear Modulus (GPa) = 112.46890 22.75824 67.61357
#
# Velocity S-wave (km/s) = 7.56836 3.40451 5.86817
# Velocity P-wave (km/s) = 9.90003 6.46007 8.35892
#
# Compressibility (1/GPa) = 0.02353811
#
# Stress axis : x y z
#
# Youngs Moduli (GPa) = 50.71412 96.17968 61.86574
#
# Poissons Ratio (x) = -0.02875 0.32398
# Poissons Ratio (y) = -0.01516 0.39798
# Poissons Ratio (z) = 0.26558 0.61871
#
# Static dielectric constant tensor:
#      x y z
#    x 3.449290 0.000000 0.000000 
#    y 0.000000 3.773880 0.000000 
#    z 0.000000 0.000000 3.744000 
# 
# 
# High freq. dielectric constant tensor:
#      x y z
#    x 1.758230 0.000000 0.000000 
#    y 0.000000 1.778750 0.000000 
#    z 0.000000 0.000000 1.770350 
# 
# From -- ./inp_files/26206.got.cif
#   From: 2010.03.12/outbox.cif.g09.slc.cpg/sg53_14_cif.got.tgz:26206.got - 2010.04.16 14:36:59.
