data_PCOD8219642
_publ_section_title
;
Structure prediction by ZEFSAII (Michael W. Deem and Ramdas Pophale) SiO2 
 PCOD8219642
Probable space group: P M N A
;
_chemical_formula_sum "Si O2"
_cell_formula_units_Z 64
_cell_length_a 8.926361
_cell_length_b 23.851142
_cell_length_c 15.223629
_cell_angle_alpha 90.000000
_cell_angle_beta 90.000000
_cell_angle_gamma 90.000000
_cell_volume 3241.170043
_symmetry_space_group_name_H-M "P M N A"
_symmetry_group_IT_number 53
_symmetry_cell_setting 'orthorhombic'
loop_
_space_group_symop_operation_xyz
x,y,z
1/2-x,-y,1/2+z
x,-y,-z
1/2-x,y,1/2-z
-x,-y,-z
1/2+x,y,1/2-z
-x,y,z
1/2+x,-y,1/2+z
loop_
_atom_site_type_symbol
_atom_site_label
_atom_site_fract_x
_atom_site_fract_y
_atom_site_fract_z
Si Si1 0.174812 0.386796 0.662200
Si Si2 0.823412 0.620943 0.840111
Si Si3 0.322361 0.126704 0.345961
Si Si4 0.173114 0.508850 0.601437
Si Si5 0.327559 0.812940 0.003795
Si Si6 0.171318 0.995245 0.840554
Si Si7 0.323771 0.883140 0.345985
Si Si8 0.672212 0.681719 0.995980
O O1 0.250000 0.363144 0.750000
O O2 0.214773 0.452096 0.651827
O O3 0.236403 0.351911 0.579589
O O4 0.000000 0.376611 0.670526
O O5 0.750000 0.641499 0.750000
O O6 0.776020 0.557504 0.860759
O O7 0.000000 0.623374 0.830800
O O8 0.771277 0.664543 0.913440
O O9 0.250000 0.135123 0.250000
O O10 0.500000 0.136862 0.339422
O O11 0.252382 0.170485 0.413244
O O12 0.282333 0.064014 0.385055
O O13 0.209507 0.500000 0.500000
O O14 0.000000 0.525694 0.614883
O O15 0.500000 0.831958 0.000279
O O16 0.249130 0.839394 0.088238
O O17 0.311482 0.746911 0.014974
O O18 0.250000 0.002298 0.750000
O O19 0.202234 0.054341 0.890253
O O20 0.000000 0.989935 0.816299
O O21 0.250000 0.877197 0.250000
O O22 0.500000 0.870676 0.336918
O O23 0.500000 0.664491 0.977572
#
# Coordination Sequence:
#
# PCOD8219642 Si02
#       8
#     8   8   8   8   8   8   8   8
#     4  10  21  38  62  88 116 152 191 234 286 340
#     4  12  25  40  63  92 122 155 196 241 292 351
#     4  10  20  37  60  86 118 152 192 239 295 355
#     4  10  19  37  64  90 123 160 191 231 288 344
#     4  11  24  40  60  85 114 153 202 248 294 350
#     4   8  16  31  54  83 114 151 188 232 288 349
#     4  10  20  37  60  86 119 154 194 241 292 350
#     4  10  23  45  63  80 113 156 201 247 294 342
#
# _framework density 19.745954000000001
#
# number of rings (size 3 to 8) (size 9 to 14) (size 15 to 20)
#    0.000    1.875    1.250    2.625    0.000    5.750 
#    0.000    3.750    0.000    0.000    0.000    0.000 
#    0.000    0.000    0.000    0.000    0.000    0.000 
#
# Total GULP energy -793370.770442 kJ/mol
# GULP energy per Si atom -12396.418288 kJ/mol
# Density = 1.970101 g / cm^3
# Si number density = 19.745954 Si / 1000 Ang^3
#
#
#
# Elastic Constant Matrix: (Units=GPa)
#
#
# Indices 1 2 3 4 5 6 
#
# 1 95.2445 25.4414 43.0666 0.0000 0.0000 0.0000
# 2 25.4414 51.9793 20.9868 0.0000 0.0000 0.0000
# 3 43.0666 20.9868 107.1393 0.0000 0.0000 0.0000
# 4 0.0000 0.0000 0.0000 16.6540 0.0000 0.0000
# 5 0.0000 0.0000 0.0000 0.0000 35.6605 0.0000
# 6 0.0000 0.0000 0.0000 0.0000 0.0000 13.4448
#
#
#
# Elastic Compliance Matrix: (Units=1/GPa)
#
#
# Indices 1 2 3 4 5 6 
#
# 1 0.013910 -0.004941 -0.004623 0.000000 0.000000 0.000000
# 2 -0.004941 0.022646 -0.002450 0.000000 0.000000 0.000000
# 3 -0.004623 -0.002450 0.011672 0.000000 0.000000 0.000000
# 4 0.000000 0.000000 0.000000 0.060045 0.000000 0.000000
# 5 0.000000 0.000000 0.000000 0.000000 0.028042 0.000000
# 6 0.000000 0.000000 0.000000 0.000000 0.000000 0.074378
#
#
# Mechanical properties :
#
#
# Convention : Reuss Voigt Hill
#
# Bulk Modulus (GPa) = 41.32435 48.15032 44.73733
# Shear Modulus (GPa) = 20.59399 24.14308 22.36854
#
# Velocity S-wave (km/s) = 3.23297 3.50048 3.36938
# Velocity P-wave (km/s) = 5.90843 6.38558 6.15164
#
# Compressibility (1/GPa) = 0.02419881
#
# Stress axis : x y z
#
# Youngs Moduli (GPa) = 71.89189 44.15769 85.67567
#
# Poissons Ratio (x) = 0.21820 0.39611
# Poissons Ratio (y) = 0.35525 0.20988
# Poissons Ratio (z) = 0.33238 0.10817
#
# Static dielectric constant tensor:
#      x y z
#    x 3.557590 0.000000 0.000000 
#    y 0.000000 3.841850 0.000000 
#    z 0.000000 0.000000 3.613630 
# 
# 
# High freq. dielectric constant tensor:
#      x y z
#    x 1.770980 0.000000 0.000000 
#    y 0.000000 1.776140 0.000000 
#    z 0.000000 0.000000 1.768650 
# 
# From -- ./inp_files/21018.got.cif
#   From: 2010.03.12/outbox.cif.g09.slc.cpg/sg53_11_cif.got.tgz:21018.got - 2010.04.16 14:36:59.
