data_PCOD8219397
_publ_section_title
;
Structure prediction by ZEFSAII (Michael W. Deem and Ramdas Pophale) SiO2 
 PCOD8219397
Probable space group: P M N A
;
_chemical_formula_sum "Si O2"
_cell_formula_units_Z 60
_cell_length_a 13.121877
_cell_length_b 11.523388
_cell_length_c 18.955208
_cell_angle_alpha 90.000000
_cell_angle_beta 90.000000
_cell_angle_gamma 90.000000
_cell_volume 2866.188189
_symmetry_space_group_name_H-M "P M N A"
_symmetry_group_IT_number 53
_symmetry_cell_setting 'orthorhombic'
loop_
_space_group_symop_operation_xyz
x,y,z
1/2-x,-y,1/2+z
x,-y,-z
1/2-x,y,1/2-z
-x,-y,-z
1/2+x,y,1/2-z
-x,y,z
1/2+x,-y,1/2+z
loop_
_atom_site_type_symbol
_atom_site_label
_atom_site_fract_x
_atom_site_fract_y
_atom_site_fract_z
Si Si1 0.750000 0.401963 0.250000
Si Si2 0.885610 0.781709 0.223492
Si Si3 0.380888 0.976996 0.779866
Si Si4 0.248546 0.260026 0.591995
Si Si5 0.618104 0.866174 0.518755
Si Si6 0.619011 0.956882 0.073169
Si Si7 0.616902 0.578996 0.163714
Si Si8 0.380311 0.217379 0.324107
O O1 0.668188 0.472889 0.204574
O O2 0.813963 0.331304 0.191071
O O3 0.821272 0.735231 0.158932
O O4 0.881207 0.690116 0.285984
O O5 0.000000 0.799632 0.195816
O O6 0.836714 0.901723 0.251153
O O7 0.500000 0.983784 0.769283
O O8 0.337203 0.873696 0.733152
O O9 0.355654 0.954240 0.862803
O O10 0.316752 0.230675 0.523560
O O11 0.160966 0.165166 0.597309
O O12 0.185357 0.383011 0.594549
O O13 0.500000 0.846647 0.499853
O O14 0.640444 0.840354 0.600249
O O15 0.648326 0.000000 0.500000
O O16 0.500000 0.939605 0.062082
O O17 0.669734 0.000000 0.000000
O O18 0.500000 0.546498 0.142713
O O19 0.500000 0.246405 0.314664
#
# Coordination Sequence:
#
# PCOD8219397 Si02
#       8
#     4   8   8   8   8   8   8   8
#     4  12  24  44  66  92 120 174 228 276 318 384
#     4  10  19  34  60  94 126 154 200 263 326 387
#     4   9  18  35  58  86 121 160 202 258 325 391
#     4  12  20  34  58  93 124 162 210 260 321 379
#     4  10  22  41  63  96 141 178 209 259 329 401
#     4  10  21  34  51  83 130 171 203 250 322 394
#     4  11  23  41  64  92 125 162 213 279 331 377
#     4  10  23  42  64  91 128 172 217 266 321 394
#
# _framework density 20.933727000000001
#
# number of rings (size 3 to 8) (size 9 to 14) (size 15 to 20)
#    0.000    1.600    2.667    2.400    0.000    5.333 
#    0.000    0.667    0.000    4.800    0.000    0.000 
#    0.000    0.000    0.000    0.000    0.000    0.000 
#
# Total GULP energy -743479.372161 kJ/mol
# GULP energy per Si atom -12391.322869 kJ/mol
# Density = 2.088608 g / cm^3
# Si number density = 20.933727 Si / 1000 Ang^3
#
#
#
# Elastic Constant Matrix: (Units=GPa)
#
#
# Indices 1 2 3 4 5 6 
#
# 1 126.2125 46.7399 61.3521 0.0000 0.0000 0.0000
# 2 46.7399 95.4237 33.7140 0.0000 0.0000 0.0000
# 3 61.3521 33.7140 101.5008 0.0000 0.0000 0.0000
# 4 0.0000 0.0000 0.0000 32.4730 0.0000 0.0000
# 5 0.0000 0.0000 0.0000 0.0000 29.2221 0.0000
# 6 0.0000 0.0000 0.0000 0.0000 0.0000 33.3783
#
#
#
# Elastic Compliance Matrix: (Units=1/GPa)
#
#
# Indices 1 2 3 4 5 6 
#
# 1 0.012364 -0.003870 -0.006188 0.000000 0.000000 0.000000
# 2 -0.003870 0.013084 -0.002007 0.000000 0.000000 0.000000
# 3 -0.006188 -0.002007 0.014259 0.000000 0.000000 0.000000
# 4 0.000000 0.000000 0.000000 0.030795 0.000000 0.000000
# 5 0.000000 0.000000 0.000000 0.000000 0.034221 0.000000
# 6 0.000000 0.000000 0.000000 0.000000 0.000000 0.029960
#
#
# Mechanical properties :
#
#
# Convention : Reuss Voigt Hill
#
# Bulk Modulus (GPa) = 64.19383 67.41657 65.80520
# Shear Modulus (GPa) = 30.48682 31.10341 30.79512
#
# Velocity S-wave (km/s) = 3.82035 3.85879 3.83962
# Velocity P-wave (km/s) = 7.08463 7.22000 7.15264
#
# Compressibility (1/GPa) = 0.01557782
#
# Stress axis : x y z
#
# Youngs Moduli (GPa) = 80.87746 76.42848 70.13019
#
# Poissons Ratio (x) = 0.29577 0.43398
# Poissons Ratio (y) = 0.31299 0.14074
# Poissons Ratio (z) = 0.50049 0.15338
#
# Static dielectric constant tensor:
#      x y z
#    x 4.310420 0.000000 0.000000 
#    y 0.000000 3.647060 0.000000 
#    z 0.000000 0.000000 4.387760 
# 
# 
# High freq. dielectric constant tensor:
#      x y z
#    x 1.858470 0.000000 0.000000 
#    y 0.000000 1.785410 0.000000 
#    z 0.000000 0.000000 1.810560 
# 
# From -- ./inp_files/28465.got.cif
#   From: 2010.03.12/outbox.cif.g09.slc.cpg/sg53_15_cif.got.tgz:28465.got - 2010.04.16 14:36:59.
