data_PCOD8219363
_publ_section_title
;
Structure prediction by ZEFSAII (Michael W. Deem and Ramdas Pophale) SiO2 
 PCOD8219363
Probable space group: P M N A
;
_chemical_formula_sum "Si O2"
_cell_formula_units_Z 64
_cell_length_a 9.384274
_cell_length_b 12.569772
_cell_length_c 29.015704
_cell_angle_alpha 90.000000
_cell_angle_beta 90.000000
_cell_angle_gamma 90.000000
_cell_volume 3422.639768
_symmetry_space_group_name_H-M "P M N A"
_symmetry_group_IT_number 53
_symmetry_cell_setting 'orthorhombic'
loop_
_space_group_symop_operation_xyz
x,y,z
1/2-x,-y,1/2+z
x,-y,-z
1/2-x,y,1/2-z
-x,-y,-z
1/2+x,y,1/2-z
-x,y,z
1/2+x,-y,1/2+z
loop_
_atom_site_type_symbol
_atom_site_label
_atom_site_fract_x
_atom_site_fract_y
_atom_site_fract_z
Si Si1 0.662109 0.387398 0.078273
Si Si2 0.668953 0.618962 0.106012
Si Si3 0.330978 0.878211 0.706167
Si Si4 0.836437 0.790576 0.961536
Si Si5 0.836021 0.436975 0.706911
Si Si6 0.168454 0.033409 0.108196
Si Si7 0.839485 0.323514 0.318031
Si Si8 0.335916 0.815277 0.433274
O O1 0.500000 0.385165 0.060925
O O2 0.715937 0.509026 0.081467
O O3 0.755669 0.322104 0.041815
O O4 0.677408 0.330727 0.127347
O O5 0.500000 0.631766 0.102823
O O6 0.716640 0.617394 0.159568
O O7 0.744754 0.714043 0.080340
O O8 0.250000 0.930714 0.750000
O O9 0.500000 0.878885 0.713895
O O10 0.286360 0.944143 0.660794
O O11 0.277639 0.757023 0.701558
O O12 0.769211 0.876065 0.925837
O O13 0.000000 0.767762 0.949198
O O14 0.819545 0.837613 0.012533
O O15 0.750000 0.388599 0.750000
O O16 0.809726 0.562823 0.704480
O O17 0.000000 0.410552 0.715261
O O18 0.000000 0.033838 0.101960
O O19 0.226620 0.917782 0.093529
O O20 0.000000 0.284462 0.305766
O O21 0.500000 0.793825 0.420113
#
# Coordination Sequence:
#
# PCOD8219363 Si02
#       8
#     8   8   8   8   8   8   8   8
#     4   9  18  33  54  79 112 147 173 209 263 323
#     4   9  20  38  54  74 110 148 179 215 267 323
#     4  11  21  33  52  78 108 141 175 212 263 322
#     4  10  19  34  58  85 108 134 176 226 274 322
#     4   9  18  32  51  75 103 138 177 218 263 313
#     4   9  19  37  57  78 107 141 176 219 271 318
#     4   9  17  31  50  76 109 140 172 211 258 314
#     4  10  21  37  58  80 103 138 185 230 267 313
#
# _framework density 18.699017000000001
#
# number of rings (size 3 to 8) (size 9 to 14) (size 15 to 20)
#    0.000    2.500    1.250    2.625    0.000    5.000 
#    0.000    7.500    0.000    4.500    0.000    0.000 
#    0.000    0.000    0.000    0.000    0.000    0.000 
#
# Total GULP energy -793556.210668 kJ/mol
# GULP energy per Si atom -12399.315792 kJ/mol
# Density = 1.865646 g / cm^3
# Si number density = 18.699017 Si / 1000 Ang^3
#
#
#
# Elastic Constant Matrix: (Units=GPa)
#
#
# Indices 1 2 3 4 5 6 
#
# 1 53.4540 36.4152 37.8034 0.0000 0.0000 0.0000
# 2 36.4152 104.4049 52.1159 0.0000 0.0000 0.0000
# 3 37.8034 52.1159 99.3957 0.0000 0.0000 0.0000
# 4 0.0000 0.0000 0.0000 17.0414 0.0000 0.0000
# 5 0.0000 0.0000 0.0000 0.0000 31.5487 0.0000
# 6 0.0000 0.0000 0.0000 0.0000 0.0000 18.1476
#
#
#
# Elastic Compliance Matrix: (Units=1/GPa)
#
#
# Indices 1 2 3 4 5 6 
#
# 1 0.028166 -0.006064 -0.007533 0.000000 0.000000 0.000000
# 2 -0.006064 0.014279 -0.005181 0.000000 0.000000 0.000000
# 3 -0.007533 -0.005181 0.015642 0.000000 0.000000 0.000000
# 4 0.000000 0.000000 0.000000 0.058681 0.000000 0.000000
# 5 0.000000 0.000000 0.000000 0.000000 0.031697 0.000000
# 6 0.000000 0.000000 0.000000 0.000000 0.000000 0.055104
#
#
# Mechanical properties :
#
#
# Convention : Reuss Voigt Hill
#
# Bulk Modulus (GPa) = 48.70348 56.65818 52.68083
# Shear Modulus (GPa) = 20.16392 22.07556 21.11974
#
# Velocity S-wave (km/s) = 3.28737 3.43967 3.36439
# Velocity P-wave (km/s) = 6.36488 6.79272 6.58227
#
# Compressibility (1/GPa) = 0.02053242
#
# Stress axis : x y z
#
# Youngs Moduli (GPa) = 35.50384 70.03241 63.92938
#
# Poissons Ratio (x) = 0.42465 0.48158
# Poissons Ratio (y) = 0.21528 0.33120
# Poissons Ratio (z) = 0.26745 0.36282
#
# Static dielectric constant tensor:
#      x y z
#    x 3.229980 0.000000 0.000000 
#    y 0.000000 3.299120 0.000000 
#    z 0.000000 0.000000 3.549930 
# 
# 
# High freq. dielectric constant tensor:
#      x y z
#    x 1.707110 0.000000 0.000000 
#    y 0.000000 1.708300 0.000000 
#    z 0.000000 0.000000 1.735580 
# 
# From -- ./inp_files/38151.got.cif
#   From: 2010.03.12/outbox.cif.g09.slc.cpg/sg53_20_cif.got.tgz:38151.got - 2010.04.16 14:36:59.
