data_PCOD8219169
_publ_section_title
;
Structure prediction by ZEFSAII (Michael W. Deem and Ramdas Pophale) SiO2 
 PCOD8219169
Probable space group: P M N A
;
_chemical_formula_sum "Si O2"
_cell_formula_units_Z 64
_cell_length_a 8.829598
_cell_length_b 15.399325
_cell_length_c 23.665476
_cell_angle_alpha 90.000000
_cell_angle_beta 90.000000
_cell_angle_gamma 90.000000
_cell_volume 3217.791203
_symmetry_space_group_name_H-M "P M N A"
_symmetry_group_IT_number 53
_symmetry_cell_setting 'orthorhombic'
loop_
_space_group_symop_operation_xyz
x,y,z
1/2-x,-y,1/2+z
x,-y,-z
1/2-x,y,1/2-z
-x,-y,-z
1/2+x,y,1/2-z
-x,y,z
1/2+x,-y,1/2+z
loop_
_atom_site_type_symbol
_atom_site_label
_atom_site_fract_x
_atom_site_fract_y
_atom_site_fract_z
Si Si1 0.679934 0.184777 0.380837
Si Si2 0.825947 0.172565 0.495868
Si Si3 0.824543 0.124270 0.617579
Si Si4 0.178187 0.040269 0.309383
Si Si5 0.171954 0.622611 0.889858
Si Si6 0.679025 0.270393 0.690646
Si Si7 0.179756 0.439031 0.871200
Si Si8 0.172696 0.348721 0.983685
O O1 0.500000 0.182746 0.376632
O O2 0.726522 0.144822 0.441719
O O3 0.751830 0.130780 0.330132
O O4 0.746663 0.283749 0.375528
O O5 0.793792 0.111836 0.550502
O O6 0.787147 0.268842 0.516051
O O7 0.000000 0.166360 0.477099
O O8 0.726175 0.202755 0.642503
O O9 0.000000 0.146209 0.629099
O O10 0.777003 0.034447 0.646564
O O11 0.250000 0.013936 0.250000
O O12 0.000000 0.051194 0.302565
O O13 0.246127 0.536970 0.859514
O O14 0.000000 0.630760 0.869632
O O15 0.180840 0.602140 0.956626
O O16 0.750000 0.242633 0.750000
O O17 0.500000 0.268447 0.696272
O O18 0.737674 0.367260 0.673655
O O19 0.228849 0.411582 0.934159
O O20 0.000000 0.444952 0.868555
O O21 0.000000 0.315676 0.972871
#
# Coordination Sequence:
#
# PCOD8219169 Si02
#       8
#     8   8   8   8   8   8   8   8
#     4  10  21  38  60  86 116 151 190 235 281 333
#     4  10  19  33  55  84 120 154 183 224 281 340
#     4  10  22  39  60  85 114 148 185 227 282 341
#     4  11  24  43  64  85 109 142 187 236 286 340
#     4   8  15  28  51  80 110 141 181 228 272 324
#     4  11  22  35  54  78 110 148 188 232 278 332
#     4   9  16  28  49  78 107 142 185 228 273 324
#     4   9  15  27  49  79 110 143 185 226 270 326
#
# _framework density 19.889420999999999
#
# number of rings (size 3 to 8) (size 9 to 14) (size 15 to 20)
#    0.000    2.250    1.250    3.000    0.000    4.500 
#    0.000    3.125    0.000   15.750    0.000    0.000 
#    0.000    0.000    0.000    0.000    0.000    0.000 
#
# Total GULP energy -793240.233675 kJ/mol
# GULP energy per Si atom -12394.378651 kJ/mol
# Density = 1.984415 g / cm^3
# Si number density = 19.889421 Si / 1000 Ang^3
#
#
#
# Elastic Constant Matrix: (Units=GPa)
#
#
# Indices 1 2 3 4 5 6 
#
# 1 55.9124 25.1235 19.1826 0.0000 0.0000 0.0000
# 2 25.1235 85.6898 21.8636 0.0000 0.0000 0.0000
# 3 19.1826 21.8636 45.5181 0.0000 0.0000 0.0000
# 4 0.0000 0.0000 0.0000 25.1714 0.0000 0.0000
# 5 0.0000 0.0000 0.0000 0.0000 27.2143 0.0000
# 6 0.0000 0.0000 0.0000 0.0000 0.0000 20.5833
#
#
#
# Elastic Compliance Matrix: (Units=1/GPa)
#
#
# Indices 1 2 3 4 5 6 
#
# 1 0.022491 -0.004759 -0.007193 0.000000 0.000000 0.000000
# 2 -0.004759 0.014307 -0.004866 0.000000 0.000000 0.000000
# 3 -0.007193 -0.004866 0.027338 0.000000 0.000000 0.000000
# 4 0.000000 0.000000 0.000000 0.039728 0.000000 0.000000
# 5 0.000000 0.000000 0.000000 0.000000 0.036745 0.000000
# 6 0.000000 0.000000 0.000000 0.000000 0.000000 0.048583
#
#
# Mechanical properties :
#
#
# Convention : Reuss Voigt Hill
#
# Bulk Modulus (GPa) = 32.78685 35.49553 34.14119
# Shear Modulus (GPa) = 21.45969 22.65716 22.05843
#
# Velocity S-wave (km/s) = 3.28830 3.37880 3.33386
# Velocity P-wave (km/s) = 5.56216 5.75386 5.65882
#
# Compressibility (1/GPa) = 0.03050003
#
# Stress axis : x y z
#
# Youngs Moduli (GPa) = 44.46187 69.89598 36.57919
#
# Poissons Ratio (x) = 0.33264 0.26310
# Poissons Ratio (y) = 0.21160 0.17801
# Poissons Ratio (z) = 0.31979 0.34015
#
# Static dielectric constant tensor:
#      x y z
#    x 3.346110 0.000000 0.000000 
#    y 0.000000 3.847390 0.000000 
#    z 0.000000 0.000000 3.609440 
# 
# 
# High freq. dielectric constant tensor:
#      x y z
#    x 1.748350 0.000000 0.000000 
#    y 0.000000 1.778890 0.000000 
#    z 0.000000 0.000000 1.765930 
# 
# From -- ./inp_files/34327.got.cif
#   From: 2010.03.12/outbox.cif.g09.slc.cpg/sg53_18_cif.got.tgz:34327.got - 2010.04.16 14:36:59.
