data_PCOD8219787
_publ_section_title
;
Structure prediction by ZEFSAII (Michael W. Deem and Ramdas Pophale) SiO2 
 PCOD8219787
Probable space group: P M N A
;
_chemical_formula_sum "Si O2"
_cell_formula_units_Z 64
_cell_length_a 9.227514
_cell_length_b 23.073310
_cell_length_c 16.139632
_cell_angle_alpha 90.000000
_cell_angle_beta 90.000000
_cell_angle_gamma 90.000000
_cell_volume 3436.277607
_symmetry_space_group_name_H-M "P M N A"
_symmetry_group_IT_number 53
_symmetry_cell_setting 'orthorhombic'
loop_
_space_group_symop_operation_xyz
x,y,z
1/2-x,-y,1/2+z
x,-y,-z
1/2-x,y,1/2-z
-x,-y,-z
1/2+x,y,1/2-z
-x,y,z
1/2+x,-y,1/2+z
loop_
_atom_site_type_symbol
_atom_site_label
_atom_site_fract_x
_atom_site_fract_y
_atom_site_fract_z
Si Si1 0.170853 0.872931 0.495746
Si Si2 0.165710 0.570180 0.913367
Si Si3 0.831485 0.927139 0.667269
Si Si4 0.661812 0.373603 0.946539
Si Si5 0.664468 0.472733 0.832222
Si Si6 0.831338 0.062773 0.667485
Si Si7 0.167357 0.688256 0.831757
Si Si8 0.334092 0.743241 0.982287
O O1 0.231600 0.896525 0.583991
O O2 0.233271 0.906344 0.415139
O O3 0.215395 0.805761 0.484877
O O4 0.000000 0.883032 0.496804
O O5 0.266027 0.514304 0.901016
O O6 0.185833 0.618932 0.842551
O O7 0.000000 0.549700 0.920136
O O8 0.212482 0.599396 0.998542
O O9 0.750000 0.904351 0.750000
O O10 0.000000 0.912537 0.679547
O O11 0.803979 0.994977 0.655098
O O12 0.500000 0.387060 0.982905
O O13 0.675614 0.404887 0.857547
O O14 0.682371 0.303846 0.942742
O O15 0.750000 0.484160 0.750000
O O16 0.500000 0.491973 0.817816
O O17 0.750000 0.085423 0.750000
O O18 0.000000 0.077423 0.679114
O O19 0.250000 0.708153 0.750000
O O20 0.234316 0.723980 0.906993
O O21 0.000000 0.705483 0.824356
O O22 0.500000 0.746147 0.950895
#
# Coordination Sequence:
#
# PCOD8219787 Si02
#       8
#     8   8   8   8   8   8   8   8
#     4   9  17  31  53  76  98 132 174 210 247 295
#     4  10  20  33  52  76  98 122 154 193 238 291
#     4   9  17  30  49  75 106 137 167 202 247 298
#     4   9  19  35  52  69  93 126 159 194 238 287
#     4  11  22  34  49  71  97 123 154 194 241 290
#     4   9  17  31  51  75 103 133 168 209 252 299
#     4  10  20  33  49  71  99 129 160 196 241 291
#     4   9  18  34  53  70  92 126 168 206 240 285
#
# _framework density 18.624804999999999
#
# number of rings (size 3 to 8) (size 9 to 14) (size 15 to 20)
#    0.000    2.500    0.000    2.250    0.000    7.000 
#    0.000    3.750    0.000    3.000    0.000    0.000 
#    0.000    0.000    0.000    0.000    0.000    0.000 
#
# Total GULP energy -793313.709086 kJ/mol
# GULP energy per Si atom -12395.526704 kJ/mol
# Density = 1.858241 g / cm^3
# Si number density = 18.624805 Si / 1000 Ang^3
#
#
#
# Elastic Constant Matrix: (Units=GPa)
#
#
# Indices 1 2 3 4 5 6 
#
# 1 81.2930 33.0909 31.0810 0.0000 0.0000 0.0000
# 2 33.0909 97.5556 46.6594 0.0000 0.0000 0.0000
# 3 31.0810 46.6594 91.1157 0.0000 0.0000 0.0000
# 4 0.0000 0.0000 0.0000 19.2715 0.0000 0.0000
# 5 0.0000 0.0000 0.0000 0.0000 26.3150 0.0000
# 6 0.0000 0.0000 0.0000 0.0000 0.0000 17.8970
#
#
#
# Elastic Compliance Matrix: (Units=1/GPa)
#
#
# Indices 1 2 3 4 5 6 
#
# 1 0.014996 -0.003496 -0.003325 0.000000 0.000000 0.000000
# 2 -0.003496 0.014391 -0.006177 0.000000 0.000000 0.000000
# 3 -0.003325 -0.006177 0.015272 0.000000 0.000000 0.000000
# 4 0.000000 0.000000 0.000000 0.051890 0.000000 0.000000
# 5 0.000000 0.000000 0.000000 0.000000 0.038001 0.000000
# 6 0.000000 0.000000 0.000000 0.000000 0.000000 0.055875
#
#
# Mechanical properties :
#
#
# Convention : Reuss Voigt Hill
#
# Bulk Modulus (GPa) = 53.58222 54.62522 54.10372
# Shear Modulus (GPa) = 22.45764 23.30558 22.88161
#
# Velocity S-wave (km/s) = 3.47622 3.54124 3.50888
# Velocity P-wave (km/s) = 6.70402 6.79069 6.74749
#
# Compressibility (1/GPa) = 0.01866291
#
# Stress axis : x y z
#
# Youngs Moduli (GPa) = 66.68640 69.48921 65.47833
#
# Poissons Ratio (x) = 0.24295 0.21770
# Poissons Ratio (y) = 0.23316 0.40444
# Poissons Ratio (z) = 0.22172 0.42921
#
# Static dielectric constant tensor:
#      x y z
#    x 3.360560 0.000000 0.000000 
#    y 0.000000 3.514780 0.000000 
#    z 0.000000 0.000000 3.374350 
# 
# 
# High freq. dielectric constant tensor:
#      x y z
#    x 1.711890 0.000000 0.000000 
#    y 0.000000 1.718470 0.000000 
#    z 0.000000 0.000000 1.709820 
# 
# From -- ./inp_files/20886.got.cif
#   From: 2010.03.12/outbox.cif.g09.slc.cpg/sg53_11_cif.got.tgz:20886.got - 2010.04.16 14:36:59.
