data_PCOD8219844
_publ_section_title
;
Structure prediction by ZEFSAII (Michael W. Deem and Ramdas Pophale) SiO2 
 PCOD8219844
Probable space group: P M N A
;
_chemical_formula_sum "Si O2"
_cell_formula_units_Z 64
_cell_length_a 9.332404
_cell_length_b 14.197170
_cell_length_c 24.826228
_cell_angle_alpha 90.000000
_cell_angle_beta 90.000000
_cell_angle_gamma 90.000000
_cell_volume 3289.319453
_symmetry_space_group_name_H-M "P M N A"
_symmetry_group_IT_number 53
_symmetry_cell_setting 'orthorhombic'
loop_
_space_group_symop_operation_xyz
x,y,z
1/2-x,-y,1/2+z
x,-y,-z
1/2-x,y,1/2-z
-x,-y,-z
1/2+x,y,1/2-z
-x,y,z
1/2+x,-y,1/2+z
loop_
_atom_site_type_symbol
_atom_site_label
_atom_site_fract_x
_atom_site_fract_y
_atom_site_fract_z
Si Si1 0.667616 0.781469 0.902669
Si Si2 0.166947 0.690824 0.802929
Si Si3 0.161587 0.158893 0.901570
Si Si4 0.336526 0.961257 0.558970
Si Si5 0.662860 0.466411 0.944317
Si Si6 0.162692 0.487332 0.842375
Si Si7 0.830359 0.283434 0.803141
Si Si8 0.341250 0.262868 0.981156
O O1 0.500000 0.788548 0.886027
O O2 0.759633 0.738193 0.854484
O O3 0.688889 0.715357 0.955625
O O4 0.726187 0.883791 0.919608
O O5 0.250000 0.727121 0.750000
O O6 0.179788 0.577215 0.803729
O O7 0.000000 0.721223 0.800653
O O8 0.173477 0.046155 0.897128
O O9 0.226614 0.213279 0.849981
O O10 0.000000 0.193879 0.907205
O O11 0.234624 0.185726 0.958013
O O12 0.500000 0.922000 0.557351
O O13 0.293243 0.000000 0.500000
O O14 0.500000 0.503273 0.940410
O O15 0.746398 0.510852 0.894987
O O16 0.733690 0.500000 0.000000
O O17 0.673212 0.354051 0.943661
O O18 0.217218 0.391528 0.814371
O O19 0.000000 0.472744 0.860985
O O20 0.750000 0.248831 0.750000
O O21 0.000000 0.275101 0.794241
O O22 0.500000 0.220186 0.976274
#
# Coordination Sequence:
#
# PCOD8219844 Si02
#       8
#     8   8   8   8   8   8   8   8
#     4  11  23  39  61  89 121 156 195 244 297 354
#     4  11  24  42  63  87 117 155 200 248 295 346
#     4  10  20  36  58  83 116 151 189 240 292 346
#     4  10  20  36  61  90 118 155 195 238 298 357
#     4  10  20  33  50  77 116 157 194 235 286 344
#     4  10  21  37  58  85 114 149 196 243 287 340
#     4  10  21  37  57  83 115 151 193 238 284 340
#     4  10  20  33  53  83 117 153 191 235 291 349
#
# _framework density 19.456911000000002
#
# number of rings (size 3 to 8) (size 9 to 14) (size 15 to 20)
#    0.000    1.750    2.500    1.875    0.000    4.500 
#    0.000    0.625    0.000    1.500    0.000    0.000 
#    0.000    0.000    0.000    0.000    0.000    0.000 
#
# Total GULP energy -793498.740499 kJ/mol
# GULP energy per Si atom -12398.417820 kJ/mol
# Density = 1.941263 g / cm^3
# Si number density = 19.456911 Si / 1000 Ang^3
#
#
#
# Elastic Constant Matrix: (Units=GPa)
#
#
# Indices 1 2 3 4 5 6 
#
# 1 86.6663 25.8425 54.3379 0.0000 0.0000 0.0000
# 2 25.8425 58.4597 24.0898 0.0000 0.0000 0.0000
# 3 54.3379 24.0898 113.4136 0.0000 0.0000 0.0000
# 4 0.0000 0.0000 0.0000 22.7540 0.0000 0.0000
# 5 0.0000 0.0000 0.0000 0.0000 37.3605 0.0000
# 6 0.0000 0.0000 0.0000 0.0000 0.0000 22.0230
#
#
#
# Elastic Compliance Matrix: (Units=1/GPa)
#
#
# Indices 1 2 3 4 5 6 
#
# 1 0.017606 -0.004720 -0.007433 0.000000 0.000000 0.000000
# 2 -0.004720 0.020012 -0.001989 0.000000 0.000000 0.000000
# 3 -0.007433 -0.001989 0.012801 0.000000 0.000000 0.000000
# 4 0.000000 0.000000 0.000000 0.043948 0.000000 0.000000
# 5 0.000000 0.000000 0.000000 0.000000 0.026766 0.000000
# 6 0.000000 0.000000 0.000000 0.000000 0.000000 0.045407
#
#
# Mechanical properties :
#
#
# Convention : Reuss Voigt Hill
#
# Bulk Modulus (GPa) = 45.17733 51.89780 48.53756
# Shear Modulus (GPa) = 24.72761 26.71213 25.71987
#
# Velocity S-wave (km/s) = 3.56882 3.70927 3.63972
# Velocity P-wave (km/s) = 6.34441 6.71387 6.53175
#
# Compressibility (1/GPa) = 0.02213500
#
# Stress axis : x y z
#
# Youngs Moduli (GPa) = 56.79844 49.96992 78.11920
#
# Poissons Ratio (x) = 0.23586 0.58064
# Poissons Ratio (y) = 0.26809 0.15540
# Poissons Ratio (z) = 0.42217 0.09940
#
# Static dielectric constant tensor:
#      x y z
#    x 3.517920 0.000000 0.000000 
#    y 0.000000 3.511350 0.000000 
#    z 0.000000 0.000000 3.481900 
# 
# 
# High freq. dielectric constant tensor:
#      x y z
#    x 1.755400 0.000000 0.000000 
#    y 0.000000 1.751680 0.000000 
#    z 0.000000 0.000000 1.752200 
# 
# From -- ./inp_files/34262.got.cif
#   From: 2010.03.12/outbox.cif.g09.slc.cpg/sg53_18_cif.got.tgz:34262.got - 2010.04.16 14:36:59.
