data_PCOD8219926
_publ_section_title
;
Structure prediction by ZEFSAII (Michael W. Deem and Ramdas Pophale) SiO2 
 PCOD8219926
Probable space group: P M N A
;
_chemical_formula_sum "Si O2"
_cell_formula_units_Z 64
_cell_length_a 8.943885
_cell_length_b 20.372143
_cell_length_c 17.706180
_cell_angle_alpha 90.000000
_cell_angle_beta 90.000000
_cell_angle_gamma 90.000000
_cell_volume 3226.174078
_symmetry_space_group_name_H-M "P M N A"
_symmetry_group_IT_number 53
_symmetry_cell_setting 'orthorhombic'
loop_
_space_group_symop_operation_xyz
x,y,z
1/2-x,-y,1/2+z
x,-y,-z
1/2-x,y,1/2-z
-x,-y,-z
1/2+x,y,1/2-z
-x,y,z
1/2+x,-y,1/2+z
loop_
_atom_site_type_symbol
_atom_site_label
_atom_site_fract_x
_atom_site_fract_y
_atom_site_fract_z
Si Si1 0.677418 0.142049 0.423639
Si Si2 0.671052 0.871933 0.081484
Si Si3 0.324450 0.734027 0.669672
Si Si4 0.335067 0.000606 0.589811
Si Si5 0.672143 0.604485 0.579127
Si Si6 0.826623 0.742964 0.329646
Si Si7 0.325839 0.626648 0.404114
Si Si8 0.677223 0.505371 0.171691
O O1 0.500000 0.145457 0.433067
O O2 0.742597 0.150761 0.507010
O O3 0.737641 0.199894 0.369849
O O4 0.724609 0.071859 0.386235
O O5 0.500000 0.880592 0.058409
O O6 0.694575 0.818161 0.146109
O O7 0.727825 0.940892 0.116878
O O8 0.250000 0.723675 0.750000
O O9 0.500000 0.739333 0.682110
O O10 0.281832 0.673286 0.616416
O O11 0.500000 0.013309 0.623921
O O12 0.343363 0.000000 0.500000
O O13 0.500000 0.586849 0.597543
O O14 0.699347 0.607747 0.490424
O O15 0.779156 0.547572 0.608786
O O16 0.750000 0.730915 0.250000
O O17 0.745072 0.697964 0.391480
O O18 0.000000 0.723565 0.324470
O O19 0.500000 0.627265 0.382798
O O20 0.241158 0.576087 0.350055
O O21 0.750000 0.482010 0.250000
O O22 0.500000 0.509167 0.179842
#
# Coordination Sequence:
#
# PCOD8219926 Si02
#       8
#     8   8   8   8   8   8   8   8
#     4   9  18  34  55  79 108 145 187 226 272 334
#     4  10  20  33  53  82 111 139 179 232 281 328
#     4  10  21  37  56  80 111 146 185 228 275 327
#     4   8  15  29  51  77 106 142 182 224 272 330
#     4  10  22  40  62  88 116 149 189 231 277 331
#     4  11  24  40  57  81 113 148 188 232 282 338
#     4  11  23  41  65  89 115 148 187 232 280 332
#     4  12  25  41  62  88 121 156 189 229 276 328
#
# _framework density 19.837738999999999
#
# number of rings (size 3 to 8) (size 9 to 14) (size 15 to 20)
#    0.000    1.875    0.000    4.875    0.000    9.750 
#    0.000    0.625    0.000    3.000    0.000    0.000 
#    0.000    0.000    0.000    0.000    0.000    0.000 
#
# Total GULP energy -793763.784337 kJ/mol
# GULP energy per Si atom -12402.559130 kJ/mol
# Density = 1.979259 g / cm^3
# Si number density = 19.837739 Si / 1000 Ang^3
#
#
#
# Elastic Constant Matrix: (Units=GPa)
#
#
# Indices 1 2 3 4 5 6 
#
# 1 105.5298 50.8642 41.5474 0.0000 0.0000 0.0000
# 2 50.8642 111.0286 22.6244 0.0000 0.0000 0.0000
# 3 41.5474 22.6244 67.9959 0.0000 0.0000 0.0000
# 4 0.0000 0.0000 0.0000 20.5930 0.0000 0.0000
# 5 0.0000 0.0000 0.0000 0.0000 20.7436 0.0000
# 6 0.0000 0.0000 0.0000 0.0000 0.0000 31.6576
#
#
#
# Elastic Compliance Matrix: (Units=1/GPa)
#
#
# Indices 1 2 3 4 5 6 
#
# 1 0.014950 -0.005350 -0.007355 0.000000 0.000000 0.000000
# 2 -0.005350 0.011577 -0.000583 0.000000 0.000000 0.000000
# 3 -0.007355 -0.000583 0.019395 0.000000 0.000000 0.000000
# 4 0.000000 0.000000 0.000000 0.048560 0.000000 0.000000
# 5 0.000000 0.000000 0.000000 0.000000 0.048208 0.000000
# 6 0.000000 0.000000 0.000000 0.000000 0.000000 0.031588
#
#
# Mechanical properties :
#
#
# Convention : Reuss Voigt Hill
#
# Bulk Modulus (GPa) = 51.69075 57.18068 54.43572
# Shear Modulus (GPa) = 24.11943 25.90008 25.00975
#
# Velocity S-wave (km/s) = 3.49067 3.61722 3.55451
# Velocity P-wave (km/s) = 6.50843 6.80680 6.65929
#
# Compressibility (1/GPa) = 0.01934582
#
# Stress axis : x y z
#
# Youngs Moduli (GPa) = 66.88760 86.38183 51.56046
#
# Poissons Ratio (x) = 0.46217 0.37922
# Poissons Ratio (y) = 0.35787 0.03004
# Poissons Ratio (z) = 0.49195 0.05033
#
# Static dielectric constant tensor:
#      x y z
#    x 3.613070 0.000000 0.000000 
#    y 0.000000 4.002070 0.000000 
#    z 0.000000 0.000000 3.376050 
# 
# 
# High freq. dielectric constant tensor:
#      x y z
#    x 1.772460 0.000000 0.000000 
#    y 0.000000 1.793280 0.000000 
#    z 0.000000 0.000000 1.758070 
# 
# From -- ./inp_files/27017.got.cif
#   From: 2010.03.12/outbox.cif.g09.slc.cpg/sg53_14_cif.got.tgz:27017.got - 2010.04.16 14:36:59.
