data_PCOD8219259
_publ_section_title
;
Structure prediction by ZEFSAII (Michael W. Deem and Ramdas Pophale) SiO2 
 PCOD8219259
Probable space group: P M N A
;
_chemical_formula_sum "Si O2"
_cell_formula_units_Z 56
_cell_length_a 9.001167
_cell_length_b 19.354560
_cell_length_c 16.014372
_cell_angle_alpha 90.000000
_cell_angle_beta 90.000000
_cell_angle_gamma 90.000000
_cell_volume 2789.921827
_symmetry_space_group_name_H-M "P M N A"
_symmetry_group_IT_number 53
_symmetry_cell_setting 'orthorhombic'
loop_
_space_group_symop_operation_xyz
x,y,z
1/2-x,-y,1/2+z
x,-y,-z
1/2-x,y,1/2-z
-x,-y,-z
1/2+x,y,1/2-z
-x,y,z
1/2+x,-y,1/2+z
loop_
_atom_site_type_symbol
_atom_site_label
_atom_site_fract_x
_atom_site_fract_y
_atom_site_fract_z
Si Si1 0.674219 0.786473 0.412902
Si Si2 0.325446 0.779765 0.595207
Si Si3 0.825317 0.925476 0.161551
Si Si4 0.324361 0.653921 0.833734
Si Si5 0.674818 0.646288 0.335607
Si Si6 0.829442 0.418648 0.504980
Si Si7 0.328407 0.924493 0.663152
O O1 0.500000 0.796870 0.422872
O O2 0.732330 0.760443 0.502589
O O3 0.743849 0.861214 0.390008
O O4 0.712938 0.727881 0.345044
O O5 0.500000 0.765351 0.609571
O O6 0.232386 0.732935 0.658983
O O7 0.285450 0.860852 0.603974
O O8 0.750000 0.924388 0.250000
O O9 0.000000 0.914352 0.173167
O O10 0.789970 0.000866 0.120223
O O11 0.250000 0.621418 0.750000
O O12 0.500000 0.651390 0.822503
O O13 0.272405 0.612425 0.916553
O O14 0.750000 0.619481 0.250000
O O15 0.500000 0.633041 0.329153
O O16 0.733624 0.606566 0.416654
O O17 0.810619 0.500000 0.500000
O O18 0.000000 0.396962 0.520271
O O19 0.250000 0.913852 0.750000
O O20 0.500000 0.922904 0.684879
#
# Coordination Sequence:
#
# PCOD8219259 Si02
#       7
#     8   8   8   8   8   8   8
#     4   9  18  32  53  79 110 146 190 241 287 338
#     4  10  19  34  54  79 111 146 190 241 289 341
#     4   9  17  31  48  71 102 141 187 234 287 338
#     4  11  23  39  62  89 118 154 193 237 288 345
#     4  11  22  38  62  91 123 160 199 242 291 347
#     4  10  23  44  66  91 123 154 191 240 290 347
#     4   9  18  30  48  71 101 141 185 236 285 338
#
# _framework density 20.072247999999998
#
# number of rings (size 3 to 8) (size 9 to 14) (size 15 to 20)
#    0.000    2.143    1.429    1.714    0.000    3.714 
#    0.000    5.714    0.000    0.000    0.000    5.000 
#    0.000    0.000    0.000    0.000    0.000    0.000 
#
# Total GULP energy -694056.859369 kJ/mol
# GULP energy per Si atom -12393.872489 kJ/mol
# Density = 2.002656 g / cm^3
# Si number density = 20.072248 Si / 1000 Ang^3
#
#
#
# Elastic Constant Matrix: (Units=GPa)
#
#
# Indices 1 2 3 4 5 6 
#
# 1 58.5951 35.9078 48.9743 0.0000 0.0000 0.0000
# 2 35.9078 90.6483 44.9018 0.0000 0.0000 0.0000
# 3 48.9743 44.9018 135.5195 0.0000 0.0000 0.0000
# 4 0.0000 0.0000 0.0000 24.7304 0.0000 0.0000
# 5 0.0000 0.0000 0.0000 0.0000 29.4117 0.0000
# 6 0.0000 0.0000 0.0000 0.0000 0.0000 24.0349
#
#
#
# Elastic Compliance Matrix: (Units=1/GPa)
#
#
# Indices 1 2 3 4 5 6 
#
# 1 0.027945 -0.007259 -0.007694 0.000000 0.000000 0.000000
# 2 -0.007259 0.015083 -0.002374 0.000000 0.000000 0.000000
# 3 -0.007694 -0.002374 0.010946 0.000000 0.000000 0.000000
# 4 0.000000 0.000000 0.000000 0.040436 0.000000 0.000000
# 5 0.000000 0.000000 0.000000 0.000000 0.034000 0.000000
# 6 0.000000 0.000000 0.000000 0.000000 0.000000 0.041606
#
#
# Mechanical properties :
#
#
# Convention : Reuss Voigt Hill
#
# Bulk Modulus (GPa) = 51.75812 60.48118 56.11965
# Shear Modulus (GPa) = 23.68431 25.96733 24.82582
#
# Velocity S-wave (km/s) = 3.43877 3.60070 3.52066
# Velocity P-wave (km/s) = 6.45048 6.89085 6.67430
#
# Compressibility (1/GPa) = 0.01932064
#
# Stress axis : x y z
#
# Youngs Moduli (GPa) = 35.78457 66.29963 91.35652
#
# Poissons Ratio (x) = 0.48124 0.70288
# Poissons Ratio (y) = 0.25974 0.21691
# Poissons Ratio (z) = 0.27532 0.15742
#
# Static dielectric constant tensor:
#      x y z
#    x 3.419900 0.000000 0.000000 
#    y 0.000000 3.983810 0.000000 
#    z 0.000000 0.000000 3.589600 
# 
# 
# High freq. dielectric constant tensor:
#      x y z
#    x 1.761400 0.000000 0.000000 
#    y 0.000000 1.792840 0.000000 
#    z 0.000000 0.000000 1.782940 
# 
# From -- ./inp_files/20535.got.cif
#   From: 2010.03.12/outbox.cif.g09.slc.cpg/sg53_11_cif.got.tgz:20535.got - 2010.04.16 14:36:59.
