data_PCOD8219177
_publ_section_title
;
Structure prediction by ZEFSAII (Michael W. Deem and Ramdas Pophale) SiO2 
 PCOD8219177
Probable space group: P M N A
;
_chemical_formula_sum "Si O2"
_cell_formula_units_Z 48
_cell_length_a 8.760644
_cell_length_b 31.392516
_cell_length_c 9.437524
_cell_angle_alpha 90.000000
_cell_angle_beta 90.000000
_cell_angle_gamma 90.000000
_cell_volume 2595.495175
_symmetry_space_group_name_H-M "P M N A"
_symmetry_group_IT_number 53
_symmetry_cell_setting 'orthorhombic'
loop_
_space_group_symop_operation_xyz
x,y,z
1/2-x,-y,1/2+z
x,-y,-z
1/2-x,y,1/2-z
-x,-y,-z
1/2+x,y,1/2-z
-x,y,z
1/2+x,-y,1/2+z
loop_
_atom_site_type_symbol
_atom_site_label
_atom_site_fract_x
_atom_site_fract_y
_atom_site_fract_z
Si Si1 0.318312 0.626300 0.403974
Si Si2 0.820108 0.460514 0.597801
Si Si3 0.820358 0.959658 0.404452
Si Si4 0.677264 0.794363 0.599368
Si Si5 0.319084 0.887155 0.593389
Si Si6 0.679748 0.702844 0.595833
O O1 0.250000 0.633135 0.250000
O O2 0.500000 0.624766 0.396703
O O3 0.254955 0.582073 0.468791
O O4 0.255914 0.665411 0.497460
O O5 0.776944 0.500000 0.500000
O O6 0.750000 0.470254 0.750000
O O7 0.000000 0.453625 0.611807
O O8 0.750000 0.966332 0.250000
O O9 0.751413 0.918441 0.478973
O O10 0.000000 0.953798 0.388675
O O11 0.777161 0.000000 0.500000
O O12 0.750000 0.791539 0.750000
O O13 0.500000 0.795966 0.625870
O O14 0.724760 0.839811 0.530865
O O15 0.721063 0.749364 0.523031
O O16 0.250000 0.894698 0.750000
O O17 0.500000 0.894380 0.603655
O O18 0.750000 0.697865 0.750000
O O19 0.500000 0.698050 0.612330
#
# Coordination Sequence:
#
# PCOD8219177 Si02
#       6
#     8   8   8   8   8   8
#     4  10  20  34  52  73 100 134 168 205 250 300
#     4  10  21  36  54  75  99 129 165 205 250 301
#     4  11  24  40  58  80 107 139 175 216 262 312
#     4   8  15  29  49  74 104 136 170 209 252 298
#     4  10  19  33  56  82 109 141 176 216 260 308
#     4   9  18  32  51  76 104 134 171 212 252 296
#
# _framework density 18.493580999999999
#
# number of rings (size 3 to 8) (size 9 to 14) (size 15 to 20)
#    0.000    2.333    0.000    3.500    0.000    6.667 
#    0.000    4.167    0.000    2.000    0.000    0.000 
#    0.000    0.000    0.000    0.000    0.000    0.000 
#
# Total GULP energy -594724.675292 kJ/mol
# GULP energy per Si atom -12390.097402 kJ/mol
# Density = 1.845149 g / cm^3
# Si number density = 18.493581 Si / 1000 Ang^3
#
#
#
# Elastic Constant Matrix: (Units=GPa)
#
#
# Indices 1 2 3 4 5 6 
#
# 1 65.7845 65.0014 42.1224 0.0000 0.0000 0.0000
# 2 65.0014 203.7512 87.5354 0.0000 0.0000 0.0000
# 3 42.1224 87.5354 91.4823 0.0000 0.0000 0.0000
# 4 0.0000 0.0000 0.0000 33.2501 0.0000 0.0000
# 5 0.0000 0.0000 0.0000 0.0000 26.0148 0.0000
# 6 0.0000 0.0000 0.0000 0.0000 0.0000 13.6430
#
#
#
# Elastic Compliance Matrix: (Units=1/GPa)
#
#
# Indices 1 2 3 4 5 6 
#
# 1 0.024209 -0.004983 -0.006379 0.000000 0.000000 0.000000
# 2 -0.004983 0.009359 -0.006661 0.000000 0.000000 0.000000
# 3 -0.006379 -0.006661 0.020242 0.000000 0.000000 0.000000
# 4 0.000000 0.000000 0.000000 0.030075 0.000000 0.000000
# 5 0.000000 0.000000 0.000000 0.000000 0.038440 0.000000
# 6 0.000000 0.000000 0.000000 0.000000 0.000000 0.073297
#
#
# Mechanical properties :
#
#
# Convention : Reuss Voigt Hill
#
# Bulk Modulus (GPa) = 56.29255 83.37070 69.83163
# Shear Modulus (GPa) = 21.04457 25.67219 23.35838
#
# Velocity S-wave (km/s) = 3.37700 3.72985 3.55780
# Velocity P-wave (km/s) = 6.76095 7.98297 7.39724
#
# Compressibility (1/GPa) = 0.01776434
#
# Stress axis : x y z
#
# Youngs Moduli (GPa) = 41.30660 106.84486 49.40148
#
# Poissons Ratio (x) = 0.53237 0.31515
# Poissons Ratio (y) = 0.20582 0.32908
# Poissons Ratio (z) = 0.26351 0.71173
#
# Static dielectric constant tensor:
#      x y z
#    x 3.446640 0.000000 0.000000 
#    y 0.000000 4.312950 0.000000 
#    z 0.000000 0.000000 3.168290 
# 
# 
# High freq. dielectric constant tensor:
#      x y z
#    x 1.727450 0.000000 0.000000 
#    y 0.000000 1.748020 0.000000 
#    z 0.000000 0.000000 1.685400 
# 
# From -- ./inp_files/6715.got.cif
#   From: 2010.03.12/outbox.cif.g09.slc.cpg/sg53_4_cif.got.tgz:6715.got - 2010.04.16 14:36:59.
