data_PCOD8219232
_publ_section_title
;
Structure prediction by ZEFSAII (Michael W. Deem and Ramdas Pophale) SiO2 
 PCOD8219232
Probable space group: P M N A
;
_chemical_formula_sum "Si O2"
_cell_formula_units_Z 56
_cell_length_a 8.850017
_cell_length_b 20.663812
_cell_length_c 19.336483
_cell_angle_alpha 90.000000
_cell_angle_beta 90.000000
_cell_angle_gamma 90.000000
_cell_volume 3536.161020
_symmetry_space_group_name_H-M "P M N A"
_symmetry_group_IT_number 53
_symmetry_cell_setting 'orthorhombic'
loop_
_space_group_symop_operation_xyz
x,y,z
1/2-x,-y,1/2+z
x,-y,-z
1/2-x,y,1/2-z
-x,-y,-z
1/2+x,y,1/2-z
-x,y,z
1/2+x,-y,1/2+z
loop_
_atom_site_type_symbol
_atom_site_label
_atom_site_fract_x
_atom_site_fract_y
_atom_site_fract_z
Si Si1 0.679126 0.975091 0.320597
Si Si2 0.821388 0.063234 0.541894
Si Si3 0.323453 0.179469 0.461422
Si Si4 0.172944 0.313014 0.450319
Si Si5 0.179004 0.559399 0.952038
Si Si6 0.674107 0.878713 0.682697
Si Si7 0.172831 0.606187 0.675865
O O1 0.750000 0.947170 0.250000
O O2 0.500000 0.968302 0.318587
O O3 0.744030 0.933792 0.383541
O O4 0.735719 0.048931 0.331514
O O5 0.771939 0.128440 0.504485
O O6 0.000000 0.061741 0.550380
O O7 0.763867 0.000000 0.500000
O O8 0.500000 0.172357 0.479359
O O9 0.266431 0.251408 0.476260
O O10 0.289767 0.167032 0.381168
O O11 0.248996 0.375894 0.486660
O O12 0.181888 0.325390 0.366637
O O13 0.000000 0.305427 0.474460
O O14 0.244046 0.552329 0.873106
O O15 0.000000 0.565951 0.948222
O O16 0.229986 0.500000 0.000000
O O17 0.750000 0.847345 0.750000
O O18 0.500000 0.883947 0.699224
O O19 0.250000 0.613846 0.750000
O O20 0.000000 0.584744 0.686970
#
# Coordination Sequence:
#
# PCOD8219232 Si02
#       7
#     8   8   8   8   8   8   8
#     4  10  19  34  52  71  95 123 162 208 259 309
#     4  11  22  34  51  73  97 128 166 212 259 305
#     4  11  21  34  50  70  98 133 170 211 254 301
#     4   9  20  33  47  70 100 134 168 205 246 294
#     4   9  17  31  52  75 100 132 169 207 246 290
#     4   9  19  31  45  65  91 126 164 203 247 298
#     4   9  18  30  48  72 104 140 173 210 246 289
#
# _framework density 15.836382
#
# number of rings (size 3 to 8) (size 9 to 14) (size 15 to 20)
#    0.857    1.429    1.429    2.143    0.000    4.000 
#    0.000    2.857    0.000    0.000    0.000    1.000 
#    0.000    4.571    0.000    0.000    0.000    0.000 
#
# Total GULP energy -694059.781914 kJ/mol
# GULP energy per Si atom -12393.924677 kJ/mol
# Density = 1.580034 g / cm^3
# Si number density = 15.836382 Si / 1000 Ang^3
#
#
#
# Elastic Constant Matrix: (Units=GPa)
#
#
# Indices 1 2 3 4 5 6 
#
# 1 76.5241 29.3158 39.8868 0.0000 0.0000 0.0000
# 2 29.3158 84.7486 35.3936 0.0000 0.0000 0.0000
# 3 39.8868 35.3936 59.2907 0.0000 0.0000 0.0000
# 4 0.0000 0.0000 0.0000 19.3076 0.0000 0.0000
# 5 0.0000 0.0000 0.0000 0.0000 29.1708 0.0000
# 6 0.0000 0.0000 0.0000 0.0000 0.0000 17.7537
#
#
#
# Elastic Compliance Matrix: (Units=1/GPa)
#
#
# Indices 1 2 3 4 5 6 
#
# 1 0.020319 -0.001758 -0.012620 0.000000 0.000000 0.000000
# 2 -0.001758 0.015870 -0.008291 0.000000 0.000000 0.000000
# 3 -0.012620 -0.008291 0.030305 0.000000 0.000000 0.000000
# 4 0.000000 0.000000 0.000000 0.051793 0.000000 0.000000
# 5 0.000000 0.000000 0.000000 0.000000 0.034281 0.000000
# 6 0.000000 0.000000 0.000000 0.000000 0.000000 0.056326
#
#
# Mechanical properties :
#
#
# Convention : Reuss Voigt Hill
#
# Bulk Modulus (GPa) = 47.26660 47.75063 47.50861
# Shear Modulus (GPa) = 19.13617 20.97756 20.05686
#
# Velocity S-wave (km/s) = 3.47993 3.64351 3.56266
# Velocity P-wave (km/s) = 6.78662 6.92230 6.85479
#
# Compressibility (1/GPa) = 0.02115659
#
# Stress axis : x y z
#
# Youngs Moduli (GPa) = 49.21449 63.01041 32.99773
#
# Poissons Ratio (x) = 0.11079 0.41642
# Poissons Ratio (y) = 0.08653 0.27358
# Poissons Ratio (z) = 0.62108 0.52242
#
# Static dielectric constant tensor:
#      x y z
#    x 3.064510 0.000000 0.000000 
#    y 0.000000 2.770960 0.000000 
#    z 0.000000 0.000000 2.862590 
# 
# 
# High freq. dielectric constant tensor:
#      x y z
#    x 1.626480 0.000000 0.000000 
#    y 0.000000 1.577830 0.000000 
#    z 0.000000 0.000000 1.591220 
# 
# From -- ./inp_files/26660.got.cif
#   From: 2010.03.12/outbox.cif.g09.slc.cpg/sg53_14_cif.got.tgz:26660.got - 2010.04.16 14:36:59.
