data_PCOD8219390
_publ_section_title
;
Structure prediction by ZEFSAII (Michael W. Deem and Ramdas Pophale) SiO2 
 PCOD8219390
Probable space group: P M N A
;
_chemical_formula_sum "Si O2"
_cell_formula_units_Z 48
_cell_length_a 9.131286
_cell_length_b 15.025271
_cell_length_c 18.982016
_cell_angle_alpha 90.000000
_cell_angle_beta 90.000000
_cell_angle_gamma 90.000000
_cell_volume 2604.333482
_symmetry_space_group_name_H-M "P M N A"
_symmetry_group_IT_number 53
_symmetry_cell_setting 'orthorhombic'
loop_
_space_group_symop_operation_xyz
x,y,z
1/2-x,-y,1/2+z
x,-y,-z
1/2-x,y,1/2-z
-x,-y,-z
1/2+x,y,1/2-z
-x,y,z
1/2+x,-y,1/2+z
loop_
_atom_site_type_symbol
_atom_site_label
_atom_site_fract_x
_atom_site_fract_y
_atom_site_fract_z
Si Si1 0.328338 0.713134 0.425041
Si Si2 0.829494 0.533554 0.425069
Si Si3 0.327649 0.230725 0.418507
Si Si4 0.171610 0.371122 0.323529
Si Si5 0.326861 0.971809 0.575378
Si Si6 0.826926 0.873779 0.175666
O O1 0.500000 0.696978 0.421926
O O2 0.250486 0.622944 0.401066
O O3 0.279483 0.740574 0.503391
O O4 0.279952 0.790015 0.371639
O O5 0.767142 0.500000 0.500000
O O6 0.794979 0.459109 0.367833
O O7 0.000000 0.555128 0.431720
O O8 0.500000 0.245880 0.406780
O O9 0.236760 0.285683 0.362099
O O10 0.282435 0.128548 0.406073
O O11 0.250000 0.384570 0.250000
O O12 0.000000 0.355791 0.312287
O O13 0.500000 0.982048 0.569465
O O14 0.258207 0.000000 0.500000
O O15 0.269325 0.037172 0.636619
O O16 0.750000 0.865345 0.250000
O O17 0.000000 0.876576 0.187175
#
# Coordination Sequence:
#
# PCOD8219390 Si02
#       6
#     8   8   8   8   8   8
#     4  10  20  34  58  87 112 145 192 234 274 332
#     4  10  21  38  59  83 112 147 185 230 285 334
#     4  10  19  34  60  89 112 145 191 236 279 329
#     4  11  24  41  59  82 116 151 185 231 286 340
#     4   9  16  32  59  85 111 147 191 233 274 329
#     4  10  21  37  56  83 117 151 187 230 282 334
#
# _framework density 18.430819
#
# number of rings (size 3 to 8) (size 9 to 14) (size 15 to 20)
#    0.000    2.000    3.333    0.500    0.000    3.667 
#    0.000    5.833    0.000    1.000    0.000    0.000 
#    0.000    0.000    0.000    0.000    0.000    0.000 
#
# Total GULP energy -595332.012119 kJ/mol
# GULP energy per Si atom -12402.750252 kJ/mol
# Density = 1.838887 g / cm^3
# Si number density = 18.430819 Si / 1000 Ang^3
#
#
#
# Elastic Constant Matrix: (Units=GPa)
#
#
# Indices 1 2 3 4 5 6 
#
# 1 47.2161 55.6177 52.5602 0.0000 0.0000 0.0000
# 2 55.6177 160.1961 74.5331 0.0000 0.0000 0.0000
# 3 52.5602 74.5331 149.0793 0.0000 0.0000 0.0000
# 4 0.0000 0.0000 0.0000 25.6007 0.0000 0.0000
# 5 0.0000 0.0000 0.0000 0.0000 29.9373 0.0000
# 6 0.0000 0.0000 0.0000 0.0000 0.0000 12.7254
#
#
#
# Elastic Compliance Matrix: (Units=1/GPa)
#
#
# Indices 1 2 3 4 5 6 
#
# 1 0.046120 -0.011007 -0.010757 0.000000 0.000000 0.000000
# 2 -0.011007 0.010762 -0.001500 0.000000 0.000000 0.000000
# 3 -0.010757 -0.001500 0.011250 0.000000 0.000000 0.000000
# 4 0.000000 0.000000 0.000000 0.039061 0.000000 0.000000
# 5 0.000000 0.000000 0.000000 0.000000 0.033403 0.000000
# 6 0.000000 0.000000 0.000000 0.000000 0.000000 0.078583
#
#
# Mechanical properties :
#
#
# Convention : Reuss Voigt Hill
#
# Bulk Modulus (GPa) = 46.28840 80.21261 63.25050
# Shear Modulus (GPa) = 18.32120 25.23804 21.77962
#
# Velocity S-wave (km/s) = 3.15628 3.70447 3.44131
# Velocity P-wave (km/s) = 6.20097 7.86847 7.08396
#
# Compressibility (1/GPa) = 0.02160368
#
# Stress axis : x y z
#
# Youngs Moduli (GPa) = 21.68272 92.92323 88.88792
#
# Poissons Ratio (x) = 1.02283 0.95617
# Poissons Ratio (y) = 0.23867 0.13329
# Poissons Ratio (z) = 0.23324 0.13934
#
# Static dielectric constant tensor:
#      x y z
#    x 3.144150 0.000000 0.000000 
#    y 0.000000 3.595450 0.000000 
#    z 0.000000 0.000000 2.548460 
# 
# 
# High freq. dielectric constant tensor:
#      x y z
#    x 1.691080 0.000000 0.000000 
#    y 0.000000 1.731300 0.000000 
#    z 0.000000 0.000000 1.718880 
# 
# From -- ./inp_files/26188.got.cif
#   From: 2010.03.12/outbox.cif.g09.slc.cpg/sg53_14_cif.got.tgz:26188.got - 2010.04.16 14:36:59.
