data_PCOD8219246
_publ_section_title
;
Structure prediction by ZEFSAII (Michael W. Deem and Ramdas Pophale) SiO2 
 PCOD8219246
Probable space group: P M N A
;
_chemical_formula_sum "Si O2"
_cell_formula_units_Z 56
_cell_length_a 9.147101
_cell_length_b 19.048313
_cell_length_c 17.993733
_cell_angle_alpha 90.000000
_cell_angle_beta 90.000000
_cell_angle_gamma 90.000000
_cell_volume 3135.171230
_symmetry_space_group_name_H-M "P M N A"
_symmetry_group_IT_number 53
_symmetry_cell_setting 'orthorhombic'
loop_
_space_group_symop_operation_xyz
x,y,z
1/2-x,-y,1/2+z
x,-y,-z
1/2-x,y,1/2-z
-x,-y,-z
1/2+x,y,1/2-z
-x,y,z
1/2+x,-y,1/2+z
loop_
_atom_site_type_symbol
_atom_site_label
_atom_site_fract_x
_atom_site_fract_y
_atom_site_fract_z
Si Si1 0.828242 0.044239 0.066083
Si Si2 0.829887 0.167398 0.967474
Si Si3 0.332663 0.660804 0.821912
Si Si4 0.672134 0.498984 0.176151
Si Si5 0.829251 0.068411 0.826634
Si Si6 0.336095 0.568939 0.451553
Si Si7 0.329348 0.698726 0.982628
O O1 0.000000 0.030127 0.064049
O O2 0.775847 0.009958 0.144781
O O3 0.794077 0.124963 0.044952
O O4 0.754065 0.000000 0.000000
O O5 0.792642 0.124002 0.892492
O O6 0.000000 0.188977 0.967015
O O7 0.728480 0.235531 0.970224
O O8 0.250000 0.691557 0.750000
O O9 0.500000 0.659841 0.798273
O O10 0.282024 0.581410 0.841595
O O11 0.305547 0.709729 0.893878
O O12 0.750000 0.524404 0.250000
O O13 0.500000 0.507505 0.183068
O O14 0.730271 0.553385 0.116342
O O15 0.750000 0.088411 0.750000
O O16 0.000000 0.069430 0.808750
O O17 0.345409 0.500000 0.500000
O O18 0.500000 0.590465 0.425922
O O19 0.263494 0.631200 0.496917
O O20 0.500000 0.686670 0.000446
#
# Coordination Sequence:
#
# PCOD8219246 Si02
#       7
#     8   8   8   8   8   8   8
#     4   7  12  27  51  74  97 129 169 208 246 295
#     4   9  18  34  54  76 104 142 183 219 258 317
#     4   9  19  33  51  73  98 129 166 210 263 321
#     4  10  19  34  54  76 103 132 167 216 273 324
#     4   9  17  31  54  82 109 139 177 217 261 311
#     4  11  22  35  54  79 103 134 180 227 271 325
#     4  11  22  36  53  77 108 142 178 222 276 323
#
# _framework density 17.861864000000001
#
# number of rings (size 3 to 8) (size 9 to 14) (size 15 to 20)
#    0.000    2.571    1.429    3.000    0.000    2.857 
#    0.000    2.143    0.000    7.714    0.000    0.000 
#    0.000    0.000    0.000    0.000    0.000    0.000 
#
# Total GULP energy -693760.044477 kJ/mol
# GULP energy per Si atom -12388.572223 kJ/mol
# Density = 1.782121 g / cm^3
# Si number density = 17.861864 Si / 1000 Ang^3
#
#
#
# Elastic Constant Matrix: (Units=GPa)
#
#
# Indices 1 2 3 4 5 6 
#
# 1 83.7568 37.3990 46.1886 0.0000 0.0000 0.0000
# 2 37.3990 68.2372 34.8450 0.0000 0.0000 0.0000
# 3 46.1886 34.8450 103.4638 0.0000 0.0000 0.0000
# 4 0.0000 0.0000 0.0000 23.2512 0.0000 0.0000
# 5 0.0000 0.0000 0.0000 0.0000 31.8479 0.0000
# 6 0.0000 0.0000 0.0000 0.0000 0.0000 -136.8354
#
#
#
# Elastic Compliance Matrix: (Units=1/GPa)
#
#
# Indices 1 2 3 4 5 6 
#
# 1 0.018284 -0.007068 -0.005782 0.000000 0.000000 0.000000
# 2 -0.007068 0.020431 -0.003725 0.000000 0.000000 0.000000
# 3 -0.005782 -0.003725 0.013501 0.000000 0.000000 0.000000
# 4 0.000000 0.000000 0.000000 0.043008 0.000000 0.000000
# 5 0.000000 0.000000 0.000000 0.000000 0.031399 0.000000
# 6 0.000000 0.000000 0.000000 0.000000 0.000000 -0.007308
#
#
# Mechanical properties :
#
#
# Convention : Reuss Voigt Hill
#
# Bulk Modulus (GPa) = 52.45278 54.70256 53.57767
# Shear Modulus (GPa) = 31.48178 -7.21222 12.13478
#
# Velocity S-wave (km/s) = 4.20278 -2.01160 2.60930
# Velocity P-wave (km/s) = 7.27879 5.02956 6.25608
#
# Compressibility (1/GPa) = 0.01906477
#
# Stress axis : x y z
#
# Youngs Moduli (GPa) = 54.69267 48.94488 74.06864
#
# Poissons Ratio (x) = 0.34597 0.42825
# Poissons Ratio (y) = 0.38660 0.27593
# Poissons Ratio (z) = 0.31622 0.18234
#
# Static dielectric constant tensor:
#      x y z
#    x 3.210700 0.000000 0.000000 
#    y 0.000000 3.336720 0.000000 
#    z 0.000000 0.000000 3.242940 
# 
# 
# High freq. dielectric constant tensor:
#      x y z
#    x 1.683020 0.000000 0.000000 
#    y 0.000000 1.669310 0.000000 
#    z 0.000000 0.000000 1.687930 
# 
# From -- ./inp_files/26686.got.cif
#   From: 2010.03.12/outbox.cif.g09.slc.cpg/sg53_14_cif.got.tgz:26686.got - 2010.04.16 14:36:59.
