data_PCOD8219814
_publ_section_title
;
Structure prediction by ZEFSAII (Michael W. Deem and Ramdas Pophale) SiO2 
 PCOD8219814
Probable space group: P M N A
;
_chemical_formula_sum "Si O2"
_cell_formula_units_Z 48
_cell_length_a 9.122349
_cell_length_b 20.583324
_cell_length_c 13.794882
_cell_angle_alpha 90.000000
_cell_angle_beta 90.000000
_cell_angle_gamma 90.000000
_cell_volume 2590.241061
_symmetry_space_group_name_H-M "P M N A"
_symmetry_group_IT_number 53
_symmetry_cell_setting 'orthorhombic'
loop_
_space_group_symop_operation_xyz
x,y,z
1/2-x,-y,1/2+z
x,-y,-z
1/2-x,y,1/2-z
-x,-y,-z
1/2+x,y,1/2-z
-x,y,z
1/2+x,-y,1/2+z
loop_
_atom_site_type_symbol
_atom_site_label
_atom_site_fract_x
_atom_site_fract_y
_atom_site_fract_z
Si Si1 0.171159 0.643172 0.040322
Si Si2 0.326453 0.095584 0.545387
Si Si3 0.327221 0.612733 0.843074
Si Si4 0.171871 0.224204 0.852125
Si Si5 0.173607 0.966763 0.849804
Si Si6 0.159548 0.473124 0.607093
O O1 0.209319 0.710369 0.091282
O O2 0.222729 0.585046 0.112281
O O3 0.000000 0.634431 0.019140
O O4 0.258195 0.642431 0.939858
O O5 0.500000 0.094705 0.544214
O O6 0.266189 0.164364 0.583811
O O7 0.274138 0.082803 0.434786
O O8 0.273413 0.038668 0.617913
O O9 0.250000 0.646301 0.750000
O O10 0.500000 0.627102 0.843878
O O11 0.292514 0.535710 0.831236
O O12 0.250000 0.224919 0.750000
O O13 0.000000 0.216693 0.833712
O O14 0.250000 0.946221 0.750000
O O15 0.000000 0.964024 0.834535
O O16 0.144299 0.500000 0.500000
O O17 0.000000 0.446434 0.641081
#
# Coordination Sequence:
#
# PCOD8219814 Si02
#       6
#     8   8   8   8   8   8
#     4  10  20  33  50  73 101 133 167 204 247 297
#     4   8  16  32  51  72 102 137 167 199 245 296
#     4  10  20  34  53  75  99 129 165 207 254 301
#     4  10  21  36  53  73  99 132 168 205 247 297
#     4   9  16  29  52  77 101 132 167 204 247 290
#     4   8  16  31  49  69  94 124 158 201 249 291
#
# _framework density 18.531092999999998
#
# number of rings (size 3 to 8) (size 9 to 14) (size 15 to 20)
#    0.000    2.833    0.000    3.500    0.000    5.667 
#    0.000    6.667    0.000    2.000    0.000    0.000 
#    0.000    0.000    0.000    0.000    0.000    0.000 
#
# Total GULP energy -594907.221553 kJ/mol
# GULP energy per Si atom -12393.900449 kJ/mol
# Density = 1.848892 g / cm^3
# Si number density = 18.531093 Si / 1000 Ang^3
#
#
#
# Elastic Constant Matrix: (Units=GPa)
#
#
# Indices 1 2 3 4 5 6 
#
# 1 63.6500 54.4372 62.5858 0.0000 0.0000 0.0000
# 2 54.4372 119.0832 58.6263 0.0000 0.0000 0.0000
# 3 62.5858 58.6263 134.4594 0.0000 0.0000 0.0000
# 4 0.0000 0.0000 0.0000 18.3207 0.0000 0.0000
# 5 0.0000 0.0000 0.0000 0.0000 30.4982 0.0000
# 6 0.0000 0.0000 0.0000 0.0000 0.0000 19.9809
#
#
#
# Elastic Compliance Matrix: (Units=1/GPa)
#
#
# Indices 1 2 3 4 5 6 
#
# 1 0.037541 -0.010898 -0.012722 0.000000 0.000000 0.000000
# 2 -0.010898 0.013856 -0.000969 0.000000 0.000000 0.000000
# 3 -0.012722 -0.000969 0.013781 0.000000 0.000000 0.000000
# 4 0.000000 0.000000 0.000000 0.054583 0.000000 0.000000
# 5 0.000000 0.000000 0.000000 0.000000 0.032789 0.000000
# 6 0.000000 0.000000 0.000000 0.000000 0.000000 0.050048
#
#
# Mechanical properties :
#
#
# Convention : Reuss Voigt Hill
#
# Bulk Modulus (GPa) = 62.49851 74.27680 68.38765
# Shear Modulus (GPa) = 19.44689 23.19618 21.32153
#
# Velocity S-wave (km/s) = 3.24299 3.54184 3.39570
# Velocity P-wave (km/s) = 6.91536 7.54291 7.23594
#
# Compressibility (1/GPa) = 0.01600038
#
# Stress axis : x y z
#
# Youngs Moduli (GPa) = 26.63748 72.16879 72.56151
#
# Poissons Ratio (x) = 0.78650 0.92315
# Poissons Ratio (y) = 0.29030 0.07031
# Poissons Ratio (z) = 0.33889 0.06993
#
# Static dielectric constant tensor:
#      x y z
#    x 3.254120 0.000000 0.000000 
#    y 0.000000 3.606780 0.000000 
#    z 0.000000 0.000000 3.567350 
# 
# 
# High freq. dielectric constant tensor:
#      x y z
#    x 1.704590 0.000000 0.000000 
#    y 0.000000 1.702450 0.000000 
#    z 0.000000 0.000000 1.725090 
# 
# From -- ./inp_files/20349.got.cif
#   From: 2010.03.12/outbox.cif.g09.slc.cpg/sg53_11_cif.got.tgz:20349.got - 2010.04.16 14:36:59.
