data_PCOD8219974
_publ_section_title
;
Structure prediction by ZEFSAII (Michael W. Deem and Ramdas Pophale) SiO2 
 PCOD8219974
Probable space group: P M N A
;
_chemical_formula_sum "Si O2"
_cell_formula_units_Z 48
_cell_length_a 8.813407
_cell_length_b 31.442570
_cell_length_c 9.517784
_cell_angle_alpha 90.000000
_cell_angle_beta 90.000000
_cell_angle_gamma 90.000000
_cell_volume 2637.531816
_symmetry_space_group_name_H-M "P M N A"
_symmetry_group_IT_number 53
_symmetry_cell_setting 'orthorhombic'
loop_
_space_group_symop_operation_xyz
x,y,z
1/2-x,-y,1/2+z
x,-y,-z
1/2-x,y,1/2-z
-x,-y,-z
1/2+x,y,1/2-z
-x,y,z
1/2+x,-y,1/2+z
loop_
_atom_site_type_symbol
_atom_site_label
_atom_site_fract_x
_atom_site_fract_y
_atom_site_fract_z
Si Si1 0.179232 0.462892 0.902534
Si Si2 0.820389 0.116324 0.400000
Si Si3 0.319041 0.795242 0.600132
Si Si4 0.823287 0.371270 0.899780
Si Si5 0.678232 0.038372 0.903550
Si Si6 0.178752 0.720287 0.097958
O O1 0.250000 0.467671 0.750000
O O2 0.221414 0.416408 0.973101
O O3 0.000000 0.468239 0.887233
O O4 0.247734 0.500000 0.000000
O O5 0.750000 0.102862 0.250000
O O6 0.747604 0.160178 0.455078
O O7 0.778592 0.081811 0.517411
O O8 0.000000 0.121474 0.380288
O O9 0.250000 0.784405 0.750000
O O10 0.500000 0.797993 0.608605
O O11 0.259486 0.757808 0.499701
O O12 0.750000 0.371416 0.750000
O O13 0.777304 0.326120 0.972523
O O14 0.000000 0.371151 0.873556
O O15 0.750000 0.037317 0.750000
O O16 0.500000 0.033513 0.883092
O O17 0.741196 0.000000 0.000000
O O18 0.250000 0.725700 0.250000
O O19 0.000000 0.724533 0.114828
#
# Coordination Sequence:
#
# PCOD8219974 Si02
#       6
#     8   8   8   8   8   8
#     4   9  17  29  46  67  91 120 153 191 235 282
#     4  10  20  35  55  77 101 131 167 203 241 286
#     4  10  20  34  51  72  99 131 164 197 240 289
#     4   8  14  27  45  64  88 118 153 191 232 279
#     4  10  22  38  56  80 107 135 168 204 243 288
#     4   9  18  31  49  71  93 121 158 199 239 281
#
# _framework density 18.198831999999999
#
# number of rings (size 3 to 8) (size 9 to 14) (size 15 to 20)
#    0.000    2.667    0.000    2.500    0.000    4.000 
#    0.000    4.167    0.000    0.000    0.000    0.000 
#    0.000    0.000    0.000    0.000    0.000    0.000 
#
# Total GULP energy -594648.248468 kJ/mol
# GULP energy per Si atom -12388.505176 kJ/mol
# Density = 1.815741 g / cm^3
# Si number density = 18.198832 Si / 1000 Ang^3
#
#
#
# Elastic Constant Matrix: (Units=GPa)
#
#
# Indices 1 2 3 4 5 6 
#
# 1 41.8278 46.8621 30.8268 0.0000 0.0000 0.0000
# 2 46.8621 203.0864 101.4100 0.0000 0.0000 0.0000
# 3 30.8268 101.4100 102.2933 0.0000 0.0000 0.0000
# 4 0.0000 0.0000 0.0000 38.1255 0.0000 0.0000
# 5 0.0000 0.0000 0.0000 0.0000 25.9856 0.0000
# 6 0.0000 0.0000 0.0000 0.0000 0.0000 30.0327
#
#
#
# Elastic Compliance Matrix: (Units=1/GPa)
#
#
# Indices 1 2 3 4 5 6 
#
# 1 0.033393 -0.005308 -0.004801 0.000000 0.000000 0.000000
# 2 -0.005308 0.010595 -0.008904 0.000000 0.000000 0.000000
# 3 -0.004801 -0.008904 0.020050 0.000000 0.000000 0.000000
# 4 0.000000 0.000000 0.000000 0.026229 0.000000 0.000000
# 5 0.000000 0.000000 0.000000 0.000000 0.038483 0.000000
# 6 0.000000 0.000000 0.000000 0.000000 0.000000 0.033297
#
#
# Mechanical properties :
#
#
# Convention : Reuss Voigt Hill
#
# Bulk Modulus (GPa) = 38.44438 78.37836 58.41137
# Shear Modulus (GPa) = 23.95299 30.03601 26.99450
#
# Velocity S-wave (km/s) = 3.63186 4.06696 3.85555
# Velocity P-wave (km/s) = 6.22557 8.07557 7.21015
#
# Compressibility (1/GPa) = 0.02601161
#
# Stress axis : x y z
#
# Youngs Moduli (GPa) = 29.94665 94.38509 49.87652
#
# Poissons Ratio (x) = 0.50100 0.23945
# Poissons Ratio (y) = 0.15896 0.44409
# Poissons Ratio (z) = 0.14377 0.84039
#
# Static dielectric constant tensor:
#      x y z
#    x 3.430690 0.000000 0.000000 
#    y 0.000000 4.211590 0.000000 
#    z 0.000000 0.000000 3.112600 
# 
# 
# High freq. dielectric constant tensor:
#      x y z
#    x 1.703650 0.000000 0.000000 
#    y 0.000000 1.735560 0.000000 
#    z 0.000000 0.000000 1.673590 
# 
# From -- ./inp_files/6747.got.cif
#   From: 2010.03.12/outbox.cif.g09.slc.cpg/sg53_4_cif.got.tgz:6747.got - 2010.04.16 14:36:59.
