data_PCOD8219843
_publ_section_title
;
Structure prediction by ZEFSAII (Michael W. Deem and Ramdas Pophale) SiO2 
 PCOD8219843
Probable space group: P M N A
;
_chemical_formula_sum "Si O2"
_cell_formula_units_Z 64
_cell_length_a 9.233397
_cell_length_b 14.379790
_cell_length_c 24.849916
_cell_angle_alpha 90.000000
_cell_angle_beta 90.000000
_cell_angle_gamma 90.000000
_cell_volume 3299.430447
_symmetry_space_group_name_H-M "P M N A"
_symmetry_group_IT_number 53
_symmetry_cell_setting 'orthorhombic'
loop_
_space_group_symop_operation_xyz
x,y,z
1/2-x,-y,1/2+z
x,-y,-z
1/2-x,y,1/2-z
-x,-y,-z
1/2+x,y,1/2-z
-x,y,z
1/2+x,-y,1/2+z
loop_
_atom_site_type_symbol
_atom_site_label
_atom_site_fract_x
_atom_site_fract_y
_atom_site_fract_z
Si Si1 0.665093 0.977883 0.658757
Si Si2 0.160915 0.229696 0.488298
Si Si3 0.163621 0.964191 0.555447
Si Si4 0.831277 0.269791 0.911379
Si Si5 0.173903 0.774112 0.804990
Si Si6 0.328796 0.354341 0.107731
Si Si7 0.833181 0.178291 0.801858
Si Si8 0.669390 0.481622 0.561938
O O1 0.500000 0.964984 0.641740
O O2 0.749911 0.004309 0.605159
O O3 0.720052 0.881858 0.685268
O O4 0.687273 0.066353 0.697285
O O5 0.171735 0.147012 0.444914
O O6 0.264661 0.213139 0.538788
O O7 0.199885 0.319242 0.453056
O O8 0.000000 0.236968 0.512386
O O9 0.000000 0.001759 0.560543
O O10 0.233538 0.000000 0.500000
O O11 0.769974 0.229572 0.855040
O O12 0.792581 0.377348 0.919925
O O13 0.000000 0.250073 0.913730
O O14 0.250000 0.742277 0.750000
O O15 0.238891 0.707978 0.850705
O O16 0.000000 0.762367 0.801766
O O17 0.500000 0.354782 0.122519
O O18 0.261915 0.457430 0.104486
O O19 0.750000 0.217610 0.750000
O O20 0.000000 0.205143 0.795019
O O21 0.715111 0.500000 0.500000
O O22 0.500000 0.504025 0.569529
#
# Coordination Sequence:
#
# PCOD8219843 Si02
#       8
#     8   8   8   8   8   8   8   8
#     4  10  21  36  56  83 113 148 192 237 281 334
#     4  10  20  33  52  82 117 149 185 231 284 341
#     4  10  20  33  50  77 115 156 193 232 282 338
#     4  10  21  37  59  85 114 149 191 239 289 344
#     4  11  23  39  60  85 115 153 195 238 286 340
#     4  11  22  37  58  85 118 152 188 236 287 341
#     4  10  22  40  59  83 113 148 192 238 283 333
#     4  10  20  36  59  86 116 152 191 234 291 350
#
# _framework density 19.397286999999999
#
# number of rings (size 3 to 8) (size 9 to 14) (size 15 to 20)
#    0.000    1.750    2.500    1.875    0.000    3.500 
#    0.000    0.625    0.000    1.500    0.000    0.000 
#    0.000    0.000    0.000    0.000    0.000    0.000 
#
# Total GULP energy -793497.989737 kJ/mol
# GULP energy per Si atom -12398.406090 kJ/mol
# Density = 1.935314 g / cm^3
# Si number density = 19.397287 Si / 1000 Ang^3
#
#
#
# Elastic Constant Matrix: (Units=GPa)
#
#
# Indices 1 2 3 4 5 6 
#
# 1 65.0067 26.1162 51.8177 0.0000 0.0000 0.0000
# 2 26.1162 65.1993 30.9674 0.0000 0.0000 0.0000
# 3 51.8177 30.9674 108.6150 0.0000 0.0000 0.0000
# 4 0.0000 0.0000 0.0000 21.3620 0.0000 0.0000
# 5 0.0000 0.0000 0.0000 0.0000 38.4943 0.0000
# 6 0.0000 0.0000 0.0000 0.0000 0.0000 18.9941
#
#
#
# Elastic Compliance Matrix: (Units=1/GPa)
#
#
# Indices 1 2 3 4 5 6 
#
# 1 0.026313 -0.005295 -0.011044 0.000000 0.000000 0.000000
# 2 -0.005295 0.018805 -0.002836 0.000000 0.000000 0.000000
# 3 -0.011044 -0.002836 0.015284 0.000000 0.000000 0.000000
# 4 0.000000 0.000000 0.000000 0.046812 0.000000 0.000000
# 5 0.000000 0.000000 0.000000 0.000000 0.025978 0.000000
# 6 0.000000 0.000000 0.000000 0.000000 0.000000 0.052648
#
#
# Mechanical properties :
#
#
# Convention : Reuss Voigt Hill
#
# Bulk Modulus (GPa) = 45.34257 50.73594 48.03926
# Shear Modulus (GPa) = 21.59448 24.43137 23.01292
#
# Velocity S-wave (km/s) = 3.34019 3.55283 3.44815
# Velocity P-wave (km/s) = 6.18889 6.56073 6.37752
#
# Compressibility (1/GPa) = 0.02205433
#
# Stress axis : x y z
#
# Youngs Moduli (GPa) = 38.00345 53.17675 65.42736
#
# Poissons Ratio (x) = 0.28155 0.72258
# Poissons Ratio (y) = 0.20121 0.18553
# Poissons Ratio (z) = 0.41971 0.15079
#
# Static dielectric constant tensor:
#      x y z
#    x 3.464420 0.000000 0.000000 
#    y 0.000000 3.571010 0.000000 
#    z 0.000000 0.000000 3.407170 
# 
# 
# High freq. dielectric constant tensor:
#      x y z
#    x 1.750500 0.000000 0.000000 
#    y 0.000000 1.754790 0.000000 
#    z 0.000000 0.000000 1.748500 
# 
# From -- ./inp_files/34154.got.cif
#   From: 2010.03.12/outbox.cif.g09.slc.cpg/sg53_18_cif.got.tgz:34154.got - 2010.04.16 14:36:59.
