data_PCOD8219409
_publ_section_title
;
Structure prediction by ZEFSAII (Michael W. Deem and Ramdas Pophale) SiO2 
 PCOD8219409
Probable space group: P M N A
;
_chemical_formula_sum "Si O2"
_cell_formula_units_Z 64
_cell_length_a 18.552061
_cell_length_b 19.212243
_cell_length_c 9.741779
_cell_angle_alpha 90.000000
_cell_angle_beta 90.000000
_cell_angle_gamma 90.000000
_cell_volume 3472.230181
_symmetry_space_group_name_H-M "P M N A"
_symmetry_group_IT_number 53
_symmetry_cell_setting 'orthorhombic'
loop_
_space_group_symop_operation_xyz
x,y,z
1/2-x,-y,1/2+z
x,-y,-z
1/2-x,y,1/2-z
-x,-y,-z
1/2+x,y,1/2-z
-x,y,z
1/2+x,-y,1/2+z
loop_
_atom_site_type_symbol
_atom_site_label
_atom_site_fract_x
_atom_site_fract_y
_atom_site_fract_z
Si Si1 0.336002 0.786807 0.765931
Si Si2 0.082652 0.445037 0.102715
Si Si3 0.821317 0.920538 0.160677
Si Si4 0.585680 0.564584 0.910092
Si Si5 0.917892 0.709179 0.954987
Si Si6 0.820096 0.926541 0.842936
Si Si7 0.084052 0.717998 0.500101
Si Si8 0.583270 0.208319 0.718003
O O1 0.250000 0.785639 0.750000
O O2 0.368778 0.726464 0.673650
O O3 0.367114 0.862494 0.717608
O O4 0.364289 0.770913 0.917680
O O5 0.117788 0.441962 0.255218
O O6 0.000000 0.467581 0.124183
O O7 0.121259 0.500000 0.000000
O O8 0.088744 0.372742 0.022050
O O9 0.750000 0.915588 0.250000
O O10 0.875745 0.864789 0.224217
O O11 0.858032 0.997768 0.170628
O O12 0.801453 0.907640 0.001072
O O13 0.500000 0.562493 0.905600
O O14 0.609468 0.638152 0.977628
O O15 0.615829 0.500000 0.000000
O O16 0.888570 0.748718 0.087784
O O17 0.000000 0.730351 0.921681
O O18 0.750000 0.931094 0.750000
O O19 0.097426 0.740345 0.344314
O O20 0.000000 0.727114 0.542828
O O21 0.500000 0.188985 0.705509
#
# Coordination Sequence:
#
# PCOD8219409 Si02
#       8
#     8   8   8   8   8   8   8   8
#     4  11  21  35  57  82 104 137 186 225 261 319
#     4   9  17  28  48  77 105 135 175 221 263 308
#     4  10  20  37  59  79 108 141 180 227 267 316
#     4   9  17  29  48  75 105 137 177 219 262 311
#     4  10  19  35  54  78 112 143 176 221 273 320
#     4   9  20  36  55  84 104 138 184 225 271 308
#     4  10  21  37  54  78 112 146 176 219 274 322
#     4  10  22  35  52  80 114 144 174 218 277 328
#
# _framework density 18.431957000000001
#
# number of rings (size 3 to 8) (size 9 to 14) (size 15 to 20)
#    0.000    2.250    2.500    0.375    5.250    0.000 
#    0.000    2.500    0.000    2.250    0.000    0.000 
#    0.000    0.000    0.000    0.000    0.000    0.000 
#
# Total GULP energy -793157.298113 kJ/mol
# GULP energy per Si atom -12393.082783 kJ/mol
# Density = 1.839000 g / cm^3
# Si number density = 18.431957 Si / 1000 Ang^3
#
#
#
# Elastic Constant Matrix: (Units=GPa)
#
#
# Indices 1 2 3 4 5 6 
#
# 1 34.8722 25.6439 19.8340 0.0000 0.0000 0.0000
# 2 25.6439 133.0283 48.7467 0.0000 0.0000 0.0000
# 3 19.8340 48.7467 87.0341 0.0000 0.0000 0.0000
# 4 0.0000 0.0000 0.0000 36.8940 0.0000 0.0000
# 5 0.0000 0.0000 0.0000 0.0000 23.4662 0.0000
# 6 0.0000 0.0000 0.0000 0.0000 0.0000 2.4812
#
#
#
# Elastic Compliance Matrix: (Units=1/GPa)
#
#
# Indices 1 2 3 4 5 6 
#
# 1 0.035268 -0.004849 -0.005322 0.000000 0.000000 0.000000
# 2 -0.004849 0.010125 -0.004566 0.000000 0.000000 0.000000
# 3 -0.005322 -0.004566 0.015260 0.000000 0.000000 0.000000
# 4 0.000000 0.000000 0.000000 0.027105 0.000000 0.000000
# 5 0.000000 0.000000 0.000000 0.000000 0.042615 0.000000
# 6 0.000000 0.000000 0.000000 0.000000 0.000000 0.403025
#
#
# Mechanical properties :
#
#
# Convention : Reuss Voigt Hill
#
# Bulk Modulus (GPa) = 32.07097 49.26488 40.66793
# Shear Modulus (GPa) = 8.72199 23.28227 16.00213
#
# Velocity S-wave (km/s) = 2.17767 3.55793 2.94967
# Velocity P-wave (km/s) = 4.87447 6.60791 5.80625
#
# Compressibility (1/GPa) = 0.03118085
#
# Stress axis : x y z
#
# Youngs Moduli (GPa) = 28.35403 98.76526 65.53173
#
# Poissons Ratio (x) = 0.47888 0.34873
# Poissons Ratio (y) = 0.13748 0.29921
# Poissons Ratio (z) = 0.15089 0.45096
#
# Static dielectric constant tensor:
#      x y z
#    x 2.947530 0.000000 0.000000 
#    y 0.000000 3.839590 0.000000 
#    z 0.000000 0.000000 3.628680 
# 
# 
# High freq. dielectric constant tensor:
#      x y z
#    x 1.656720 0.000000 0.000000 
#    y 0.000000 1.733780 0.000000 
#    z 0.000000 0.000000 1.729510 
# 
# From -- ./inp_files/11188.got.cif
#   From: 2010.03.12/outbox.cif.g09.slc.cpg/sg53_6_cif.got.tgz:11188.got - 2010.04.16 14:36:59.
