data_PCOD8219669
_publ_section_title
;
Structure prediction by ZEFSAII (Michael W. Deem and Ramdas Pophale) SiO2 
 PCOD8219669
Probable space group: P M N A
;
_chemical_formula_sum "Si O2"
_cell_formula_units_Z 64
_cell_length_a 16.795796
_cell_length_b 20.367289
_cell_length_c 9.284774
_cell_angle_alpha 90.000000
_cell_angle_beta 90.000000
_cell_angle_gamma 90.000000
_cell_volume 3176.180346
_symmetry_space_group_name_H-M "P M N A"
_symmetry_group_IT_number 53
_symmetry_cell_setting 'orthorhombic'
loop_
_space_group_symop_operation_xyz
x,y,z
1/2-x,-y,1/2+z
x,-y,-z
1/2-x,y,1/2-z
-x,-y,-z
1/2+x,y,1/2-z
-x,y,z
1/2+x,-y,1/2+z
loop_
_atom_site_type_symbol
_atom_site_label
_atom_site_fract_x
_atom_site_fract_y
_atom_site_fract_z
Si Si1 0.366822 0.716304 0.511691
Si Si2 0.591782 0.482978 0.655859
Si Si3 0.732445 0.930423 0.423927
Si Si4 0.179125 0.288133 0.446979
Si Si5 0.588037 0.624804 0.745462
Si Si6 0.656625 0.348624 0.764758
Si Si7 0.325598 0.148940 0.149886
Si Si8 0.089747 0.138123 0.072153
O O1 0.272752 0.720606 0.537978
O O2 0.407777 0.652612 0.583199
O O3 0.383487 0.703034 0.344181
O O4 0.407396 0.783072 0.563766
O O5 0.630605 0.500000 0.500000
O O6 0.500000 0.465012 0.633037
O O7 0.603473 0.547265 0.754013
O O8 0.632272 0.423675 0.740214
O O9 0.750000 0.934175 0.250000
O O10 0.805146 0.896307 0.511273
O O11 0.649965 0.891442 0.452265
O O12 0.721272 0.000000 0.500000
O O13 0.160370 0.337693 0.319411
O O14 0.132965 0.320979 0.580273
O O15 0.140840 0.217175 0.412963
O O16 0.500000 0.639931 0.809435
O O17 0.750000 0.345690 0.750000
O O18 0.250000 0.164097 0.250000
O O19 0.388741 0.116534 0.262294
O O20 0.000000 0.113749 0.038943
#
# Coordination Sequence:
#
# PCOD8219669 Si02
#       8
#     8   8   8   8   8   8   8   8
#     4  11  20  37  60  88 119 162 209 253 312 383
#     4  10  21  40  58  76 109 157 207 257 316 389
#     4  11  24  44  74 103 136 179 224 260 308 381
#     4  11  21  36  58  89 121 156 196 263 320 373
#     4  11  22  36  59  83 111 157 208 255 316 383
#     4  10  24  37  57  86 116 151 206 266 321 373
#     4  10  19  38  65  93 130 170 216 257 313 379
#     4  11  23  39  66 101 138 175 219 270 321 381
#
# _framework density 20.149989999999999
#
# number of rings (size 3 to 8) (size 9 to 14) (size 15 to 20)
#    0.000    1.375    5.000    1.875    1.750    2.750 
#    0.000    1.875    0.000    1.500    0.000    0.000 
#    0.000    0.000    0.000    0.000    0.000    0.000 
#
# Total GULP energy -793128.513463 kJ/mol
# GULP energy per Si atom -12392.633023 kJ/mol
# Density = 2.010413 g / cm^3
# Si number density = 20.149990 Si / 1000 Ang^3
#
#
#
# Elastic Constant Matrix: (Units=GPa)
#
#
# Indices 1 2 3 4 5 6 
#
# 1 58.9763 12.9086 28.7119 0.0000 0.0000 0.0000
# 2 12.9086 84.4389 47.5529 0.0000 0.0000 0.0000
# 3 28.7119 47.5529 99.5128 0.0000 0.0000 0.0000
# 4 0.0000 0.0000 0.0000 37.5152 0.0000 0.0000
# 5 0.0000 0.0000 0.0000 0.0000 18.6608 0.0000
# 6 0.0000 0.0000 0.0000 0.0000 0.0000 14.9677
#
#
#
# Elastic Compliance Matrix: (Units=1/GPa)
#
#
# Indices 1 2 3 4 5 6 
#
# 1 0.019731 0.000259 -0.005817 0.000000 0.000000 0.000000
# 2 0.000259 0.016207 -0.007819 0.000000 0.000000 0.000000
# 3 -0.005817 -0.007819 0.015464 0.000000 0.000000 0.000000
# 4 0.000000 0.000000 0.000000 0.026656 0.000000 0.000000
# 5 0.000000 0.000000 0.000000 0.000000 0.053588 0.000000
# 6 0.000000 0.000000 0.000000 0.000000 0.000000 0.066811
#
#
# Mechanical properties :
#
#
# Convention : Reuss Voigt Hill
#
# Bulk Modulus (GPa) = 40.57113 46.80831 43.68972
# Shear Modulus (GPa) = 21.42004 24.47904 22.94954
#
# Velocity S-wave (km/s) = 3.26395 3.48924 3.37847
# Velocity P-wave (km/s) = 5.86368 6.28597 6.07849
#
# Compressibility (1/GPa) = 0.02464807
#
# Stress axis : x y z
#
# Youngs Moduli (GPa) = 50.68152 61.70247 64.66706
#
# Poissons Ratio (x) = -0.01601 0.37616
# Poissons Ratio (y) = -0.01315 0.50566
# Poissons Ratio (z) = 0.29481 0.48248
#
# Static dielectric constant tensor:
#      x y z
#    x 3.538920 0.000000 0.000000 
#    y 0.000000 3.663470 0.000000 
#    z 0.000000 0.000000 4.136860 
# 
# 
# High freq. dielectric constant tensor:
#      x y z
#    x 1.765160 0.000000 0.000000 
#    y 0.000000 1.787210 0.000000 
#    z 0.000000 0.000000 1.788960 
# 
# From -- ./inp_files/10259.got.cif
#   From: 2010.03.12/outbox.cif.g09.slc.cpg/sg53_6_cif.got.tgz:10259.got - 2010.04.16 14:36:59.
