data_PCOD8219155
_publ_section_title
;
Structure prediction by ZEFSAII (Michael W. Deem and Ramdas Pophale) SiO2 
 PCOD8219155
Probable space group: P M N A
;
_chemical_formula_sum "Si O2"
_cell_formula_units_Z 48
_cell_length_a 8.834993
_cell_length_b 14.741150
_cell_length_c 18.832367
_cell_angle_alpha 90.000000
_cell_angle_beta 90.000000
_cell_angle_gamma 90.000000
_cell_volume 2452.689005
_symmetry_space_group_name_H-M "P M N A"
_symmetry_group_IT_number 53
_symmetry_cell_setting 'orthorhombic'
loop_
_space_group_symop_operation_xyz
x,y,z
1/2-x,-y,1/2+z
x,-y,-z
1/2-x,y,1/2-z
-x,-y,-z
1/2+x,y,1/2-z
-x,y,z
1/2+x,-y,1/2+z
loop_
_atom_site_type_symbol
_atom_site_label
_atom_site_fract_x
_atom_site_fract_y
_atom_site_fract_z
Si Si1 0.822035 0.538417 0.326006
Si Si2 0.324053 0.217627 0.176889
Si Si3 0.823076 0.045610 0.405610
Si Si4 0.322914 0.878397 0.454595
Si Si5 0.677830 0.628255 0.926848
Si Si6 0.822621 0.327811 0.927987
O O1 0.750000 0.517813 0.250000
O O2 0.778178 0.457793 0.379436
O O3 0.756798 0.631265 0.358496
O O4 0.000000 0.547672 0.316076
O O5 0.250000 0.247046 0.250000
O O6 0.500000 0.236092 0.185306
O O7 0.287389 0.112689 0.159826
O O8 0.263533 0.281934 0.113895
O O9 0.774801 0.098749 0.476372
O O10 0.000000 0.022716 0.410161
O O11 0.727499 0.952780 0.395296
O O12 0.500000 0.888185 0.471776
O O13 0.281516 0.778588 0.427854
O O14 0.500000 0.631445 0.943071
O O15 0.763118 0.622347 0.001520
O O16 0.000000 0.344171 0.922396
#
# Coordination Sequence:
#
# PCOD8219155 Si02
#       6
#     8   8   8   8   8   8
#     4  11  24  41  62  85 116 155 193 240 294 348
#     4  10  21  35  54  82 117 153 191 234 288 348
#     4  10  19  33  55  81 111 149 188 232 283 340
#     4  10  20  34  55  83 112 145 186 235 284 333
#     4  10  21  39  60  86 117 151 192 239 292 347
#     4  11  23  38  60  89 118 152 195 242 290 343
#
# _framework density 19.570357999999999
#
# number of rings (size 3 to 8) (size 9 to 14) (size 15 to 20)
#    0.000    1.667    1.667    4.000    0.000    7.333 
#    0.000    0.833    0.000    2.000    0.000    0.000 
#    0.000    0.000    0.000    0.000    0.000    0.000 
#
# Total GULP energy -595297.411932 kJ/mol
# GULP energy per Si atom -12402.029415 kJ/mol
# Density = 1.952582 g / cm^3
# Si number density = 19.570358 Si / 1000 Ang^3
#
#
#
# Elastic Constant Matrix: (Units=GPa)
#
#
# Indices 1 2 3 4 5 6 
#
# 1 64.4496 45.4279 28.7604 0.0000 0.0000 0.0000
# 2 45.4279 115.6851 29.1390 0.0000 0.0000 0.0000
# 3 28.7604 29.1390 64.9660 0.0000 0.0000 0.0000
# 4 0.0000 0.0000 0.0000 18.8334 0.0000 0.0000
# 5 0.0000 0.0000 0.0000 0.0000 34.0969 0.0000
# 6 0.0000 0.0000 0.0000 0.0000 0.0000 43.8877
#
#
#
# Elastic Compliance Matrix: (Units=1/GPa)
#
#
# Indices 1 2 3 4 5 6 
#
# 1 0.024151 -0.007656 -0.007258 0.000000 0.000000 0.000000
# 2 -0.007656 0.012172 -0.002070 0.000000 0.000000 0.000000
# 3 -0.007258 -0.002070 0.019534 0.000000 0.000000 0.000000
# 4 0.000000 0.000000 0.000000 0.053097 0.000000 0.000000
# 5 0.000000 0.000000 0.000000 0.000000 0.029328 0.000000
# 6 0.000000 0.000000 0.000000 0.000000 0.000000 0.022785
#
#
# Mechanical properties :
#
#
# Convention : Reuss Voigt Hill
#
# Bulk Modulus (GPa) = 45.68380 50.19505 47.93942
# Shear Modulus (GPa) = 24.71189 28.81516 26.76352
#
# Velocity S-wave (km/s) = 3.55733 3.84133 3.70206
# Velocity P-wave (km/s) = 6.34562 6.73637 6.54391
#
# Compressibility (1/GPa) = 0.02188960
#
# Stress axis : x y z
#
# Youngs Moduli (GPa) = 41.40629 82.15670 51.19203
#
# Poissons Ratio (x) = 0.62896 0.37154
# Poissons Ratio (y) = 0.31699 0.10598
# Poissons Ratio (z) = 0.30052 0.17009
#
# Static dielectric constant tensor:
#      x y z
#    x 3.546000 0.000000 0.000000 
#    y 0.000000 3.940200 0.000000 
#    z 0.000000 0.000000 3.404070 
# 
# 
# High freq. dielectric constant tensor:
#      x y z
#    x 1.766430 0.000000 0.000000 
#    y 0.000000 1.776690 0.000000 
#    z 0.000000 0.000000 1.743150 
# 
# From -- ./inp_files/26293.got.cif
#   From: 2010.03.12/outbox.cif.g09.slc.cpg/sg53_14_cif.got.tgz:26293.got - 2010.04.16 14:36:59.
