data_PCOD8219002
_publ_section_title
;
Structure prediction by ZEFSAII (Michael W. Deem and Ramdas Pophale) SiO2 
 PCOD8219002
Probable space group: P M N A
;
_chemical_formula_sum "Si O2"
_cell_formula_units_Z 64
_cell_length_a 8.746882
_cell_length_b 19.419224
_cell_length_c 20.752427
_cell_angle_alpha 90.000000
_cell_angle_beta 90.000000
_cell_angle_gamma 90.000000
_cell_volume 3524.958707
_symmetry_space_group_name_H-M "P M N A"
_symmetry_group_IT_number 53
_symmetry_cell_setting 'orthorhombic'
loop_
_space_group_symop_operation_xyz
x,y,z
1/2-x,-y,1/2+z
x,-y,-z
1/2-x,y,1/2-z
-x,-y,-z
1/2+x,y,1/2-z
-x,y,z
1/2+x,-y,1/2+z
loop_
_atom_site_type_symbol
_atom_site_label
_atom_site_fract_x
_atom_site_fract_y
_atom_site_fract_z
Si Si1 0.821809 0.168379 0.507810
Si Si2 0.818360 0.171552 0.130571
Si Si3 0.818964 0.960063 0.683654
Si Si4 0.319911 0.463592 0.316161
Si Si5 0.320604 0.675981 0.627884
Si Si6 0.173495 0.677379 0.494197
Si Si7 0.679883 0.958751 0.435279
Si Si8 0.176299 0.537441 0.434382
O O1 0.727528 0.155583 0.442693
O O2 0.795189 0.246214 0.533818
O O3 0.755424 0.116853 0.561308
O O4 0.000000 0.153421 0.494729
O O5 0.732126 0.119482 0.177677
O O6 0.760790 0.248605 0.149673
O O7 0.000000 0.161961 0.137281
O O8 0.750000 0.989802 0.750000
O O9 0.000000 0.966010 0.684652
O O10 0.752168 0.003108 0.624993
O O11 0.250000 0.492125 0.250000
O O12 0.500000 0.463287 0.309713
O O13 0.254338 0.386042 0.328605
O O14 0.276046 0.513207 0.374557
O O15 0.500000 0.676085 0.633265
O O16 0.280513 0.660950 0.554196
O O17 0.203292 0.619772 0.439948
O O18 0.000000 0.672186 0.519744
O O19 0.500000 0.952143 0.424925
O O20 0.721106 0.000000 0.500000
O O21 0.230342 0.500000 0.500000
O O22 0.000000 0.519357 0.420773
#
# Coordination Sequence:
#
# PCOD8219002 Si02
#       8
#     8   8   8   8   8   8   8   8
#     4  10  19  32  54  84 113 143 183 227 275 324
#     4  10  19  34  53  78 112 148 186 225 269 321
#     4  12  25  40  58  81 112 148 187 229 276 329
#     4  11  23  37  53  77 109 147 188 230 276 326
#     4   9  19  33  51  76 109 146 184 225 268 320
#     4   9  18  32  53  82 112 142 178 224 274 325
#     4  11  22  37  59  84 113 147 185 228 275 324
#     4  10  19  34  57  82 110 144 182 225 275 326
#
# _framework density 18.156241000000001
#
# number of rings (size 3 to 8) (size 9 to 14) (size 15 to 20)
#    0.000    1.750    2.500    2.625    0.000    3.250 
#    0.000    1.250    0.000    0.750    0.000    3.500 
#    0.000    0.000    0.000    0.000    0.000    0.000 
#
# Total GULP energy -793607.490509 kJ/mol
# GULP energy per Si atom -12400.117039 kJ/mol
# Density = 1.811492 g / cm^3
# Si number density = 18.156241 Si / 1000 Ang^3
#
#
#
# Elastic Constant Matrix: (Units=GPa)
#
#
# Indices 1 2 3 4 5 6 
#
# 1 61.6057 36.6728 38.3533 0.0000 0.0000 0.0000
# 2 36.6728 105.5600 52.7796 0.0000 0.0000 0.0000
# 3 38.3533 52.7796 106.5991 0.0000 0.0000 0.0000
# 4 0.0000 0.0000 0.0000 37.6575 0.0000 0.0000
# 5 0.0000 0.0000 0.0000 0.0000 27.7459 0.0000
# 6 0.0000 0.0000 0.0000 0.0000 0.0000 26.7544
#
#
#
# Elastic Compliance Matrix: (Units=1/GPa)
#
#
# Indices 1 2 3 4 5 6 
#
# 1 0.022795 -0.005075 -0.005689 0.000000 0.000000 0.000000
# 2 -0.005075 0.013720 -0.004967 0.000000 0.000000 0.000000
# 3 -0.005689 -0.004967 0.013887 0.000000 0.000000 0.000000
# 4 0.000000 0.000000 0.000000 0.026555 0.000000 0.000000
# 5 0.000000 0.000000 0.000000 0.000000 0.036041 0.000000
# 6 0.000000 0.000000 0.000000 0.000000 0.000000 0.037377
#
#
# Mechanical properties :
#
#
# Convention : Reuss Voigt Hill
#
# Bulk Modulus (GPa) = 52.79731 58.81958 55.80845
# Shear Modulus (GPa) = 26.57454 28.16217 27.36835
#
# Velocity S-wave (km/s) = 3.82993 3.94267 3.88671
# Velocity P-wave (km/s) = 6.97857 7.29335 7.13769
#
# Compressibility (1/GPa) = 0.01894036
#
# Stress axis : x y z
#
# Youngs Moduli (GPa) = 43.86969 72.88672 72.00971
#
# Poissons Ratio (x) = 0.36989 0.40964
# Poissons Ratio (y) = 0.22263 0.35768
# Poissons Ratio (z) = 0.24956 0.36204
#
# Static dielectric constant tensor:
#      x y z
#    x 3.364110 0.000000 0.000000 
#    y 0.000000 3.732710 0.000000 
#    z 0.000000 0.000000 3.183880 
# 
# 
# High freq. dielectric constant tensor:
#      x y z
#    x 1.710610 0.000000 0.000000 
#    y 0.000000 1.710420 0.000000 
#    z 0.000000 0.000000 1.674280 
# 
# From -- ./inp_files/26895.got.cif
#   From: 2010.03.12/outbox.cif.g09.slc.cpg/sg53_14_cif.got.tgz:26895.got - 2010.04.16 14:36:59.
