data_PCOD8219869
_publ_section_title
;
Structure prediction by ZEFSAII (Michael W. Deem and Ramdas Pophale) SiO2 
 PCOD8219869
Probable space group: P M N A
;
_chemical_formula_sum "Si O2"
_cell_formula_units_Z 32
_cell_length_a 8.826235
_cell_length_b 20.731482
_cell_length_c 9.249621
_cell_angle_alpha 90.000000
_cell_angle_beta 90.000000
_cell_angle_gamma 90.000000
_cell_volume 1692.504272
_symmetry_space_group_name_H-M "P M N A"
_symmetry_group_IT_number 53
_symmetry_cell_setting 'orthorhombic'
loop_
_space_group_symop_operation_xyz
x,y,z
1/2-x,-y,1/2+z
x,-y,-z
1/2-x,y,1/2-z
-x,-y,-z
1/2+x,y,1/2-z
-x,y,z
1/2+x,-y,1/2+z
loop_
_atom_site_type_symbol
_atom_site_label
_atom_site_fract_x
_atom_site_fract_y
_atom_site_fract_z
Si Si1 0.676294 0.329083 0.407139
Si Si2 0.820900 0.060996 0.407956
Si Si3 0.177534 0.561894 0.404798
Si Si4 0.675350 0.186116 0.404923
O O1 0.750000 0.337514 0.250000
O O2 0.500000 0.346047 0.390116
O O3 0.753092 0.375263 0.522101
O O4 0.698017 0.256943 0.474426
O O5 0.750000 0.054455 0.250000
O O6 0.759161 0.126701 0.486661
O O7 0.000000 0.064376 0.396367
O O8 0.766215 0.000000 0.500000
O O9 0.217169 0.500000 0.500000
O O10 0.250000 0.550185 0.250000
O O11 0.000000 0.572427 0.386853
O O12 0.750000 0.190901 0.250000
O O13 0.500000 0.168311 0.390336
#
# Coordination Sequence:
#
# PCOD8219869 Si02
#       4
#     8   8   8   8
#     4  10  20  35  57  84 111 141 179 221 267 319
#     4  10  20  33  51  76 104 137 177 219 264 314
#     4  11  24  40  59  83 111 144 180 220 266 316
#     4   9  17  30  51  77 104 137 175 215 261 313
#
# _framework density 18.906894000000001
#
# number of rings (size 3 to 8) (size 9 to 14) (size 15 to 20)
#    0.000    2.000    0.000    5.250    0.000    9.000 
#    0.000    1.250    0.000    3.000    0.000    0.000 
#    0.000    0.000    0.000    0.000    0.000    0.000 
#
# Total GULP energy -396650.113146 kJ/mol
# GULP energy per Si atom -12395.316036 kJ/mol
# Density = 1.886386 g / cm^3
# Si number density = 18.906894 Si / 1000 Ang^3
#
#
#
# Elastic Constant Matrix: (Units=GPa)
#
#
# Indices 1 2 3 4 5 6 
#
# 1 115.6936 82.6931 54.0892 0.0000 0.0000 0.0000
# 2 82.6931 169.6524 64.1215 0.0000 0.0000 0.0000
# 3 54.0892 64.1215 89.7836 0.0000 0.0000 0.0000
# 4 0.0000 0.0000 0.0000 31.8634 0.0000 0.0000
# 5 0.0000 0.0000 0.0000 0.0000 27.2202 0.0000
# 6 0.0000 0.0000 0.0000 0.0000 0.0000 46.8463
#
#
#
# Elastic Compliance Matrix: (Units=1/GPa)
#
#
# Indices 1 2 3 4 5 6 
#
# 1 0.014830 -0.005276 -0.005166 0.000000 0.000000 0.000000
# 2 -0.005276 0.009951 -0.003928 0.000000 0.000000 0.000000
# 3 -0.005166 -0.003928 0.017056 0.000000 0.000000 0.000000
# 4 0.000000 0.000000 0.000000 0.031384 0.000000 0.000000
# 5 0.000000 0.000000 0.000000 0.000000 0.036737 0.000000
# 6 0.000000 0.000000 0.000000 0.000000 0.000000 0.021346
#
#
# Mechanical properties :
#
#
# Convention : Reuss Voigt Hill
#
# Bulk Modulus (GPa) = 76.36090 86.32637 81.34363
# Shear Modulus (GPa) = 30.41187 32.80102 31.60644
#
# Velocity S-wave (km/s) = 4.01497 4.16970 4.09306
# Velocity P-wave (km/s) = 7.87203 8.30299 8.09038
#
# Compressibility (1/GPa) = 0.01309571
#
# Stress axis : x y z
#
# Youngs Moduli (GPa) = 67.43204 100.49566 58.63177
#
# Poissons Ratio (x) = 0.53020 0.30290
# Poissons Ratio (y) = 0.35576 0.23032
# Poissons Ratio (z) = 0.34836 0.39477
#
# Static dielectric constant tensor:
#      x y z
#    x 3.661230 0.000000 0.000000 
#    y 0.000000 4.459080 0.000000 
#    z 0.000000 0.000000 3.061030 
# 
# 
# High freq. dielectric constant tensor:
#      x y z
#    x 1.755620 0.000000 0.000000 
#    y 0.000000 1.763650 0.000000 
#    z 0.000000 0.000000 1.693240 
# 
# From -- ./inp_files/6008.got.cif
#   From: 2010.03.12/outbox.cif.g09.slc.cpg/sg53_4_cif.got.tgz:6008.got - 2010.04.16 14:36:59.
