data_PCOD8219945
_publ_section_title
;
Structure prediction by ZEFSAII (Michael W. Deem and Ramdas Pophale) SiO2 
 PCOD8219945
Probable space group: P M N A
;
_chemical_formula_sum "Si O2"
_cell_formula_units_Z 64
_cell_length_a 8.708953
_cell_length_b 19.929673
_cell_length_c 19.925808
_cell_angle_alpha 90.000000
_cell_angle_beta 90.000000
_cell_angle_gamma 90.000000
_cell_volume 3458.454457
_symmetry_space_group_name_H-M "P M N A"
_symmetry_group_IT_number 53
_symmetry_cell_setting 'orthorhombic'
loop_
_space_group_symop_operation_xyz
x,y,z
1/2-x,-y,1/2+z
x,-y,-z
1/2-x,y,1/2-z
-x,-y,-z
1/2+x,y,1/2-z
-x,y,z
1/2+x,-y,1/2+z
loop_
_atom_site_type_symbol
_atom_site_label
_atom_site_fract_x
_atom_site_fract_y
_atom_site_fract_z
Si Si1 0.679702 0.807308 0.434216
Si Si2 0.181828 0.944680 0.679382
Si Si3 0.181717 0.574071 0.820257
Si Si4 0.818933 0.696236 0.605682
Si Si5 0.680708 0.468190 0.568271
Si Si6 0.820575 0.669584 0.454173
Si Si7 0.817645 0.089194 0.820330
Si Si8 0.180429 0.835180 0.914200
O O1 0.500000 0.793984 0.430896
O O2 0.761260 0.736896 0.418544
O O3 0.734061 0.860059 0.378518
O O4 0.726450 0.835334 0.507321
O O5 0.250000 0.918601 0.750000
O O6 0.228861 0.895637 0.619700
O O7 0.000000 0.948803 0.685740
O O8 0.248202 0.017322 0.661319
O O9 0.250000 0.550395 0.750000
O O10 0.260081 0.644006 0.839663
O O11 0.230813 0.516198 0.871546
O O12 0.000000 0.584004 0.817346
O O13 0.771815 0.669406 0.532257
O O14 0.733788 0.766096 0.620112
O O15 0.000000 0.707279 0.612426
O O16 0.748866 0.500000 0.500000
O O17 0.500000 0.460657 0.562470
O O18 0.748656 0.394833 0.581861
O O19 0.000000 0.666007 0.444840
O O20 0.750000 0.115806 0.750000
O O21 0.000000 0.082983 0.814953
O O22 0.000000 0.845097 0.903369
#
# Coordination Sequence:
#
# PCOD8219945 Si02
#       8
#     8   8   8   8   8   8   8   8
#     4   9  20  37  58  82 113 148 184 226 276 334
#     4  11  22  37  56  80 110 146 186 230 276 331
#     4  11  23  38  56  80 111 147 184 228 275 326
#     4  10  20  35  54  80 111 143 179 222 272 327
#     4  10  20  36  59  82 107 144 187 225 270 331
#     4  10  20  33  56  86 113 139 178 230 275 320
#     4  10  20  37  59  83 109 145 188 230 277 332
#     4  10  20  36  57  82 112 147 185 228 273 325
#
# _framework density 18.505376999999999
#
# number of rings (size 3 to 8) (size 9 to 14) (size 15 to 20)
#    0.000    1.875    1.250    3.750    0.000    4.750 
#    0.000    5.625    0.000    0.000    0.000    0.000 
#    0.000    0.000    0.000    0.000    0.000    0.000 
#
# Total GULP energy -793892.705416 kJ/mol
# GULP energy per Si atom -12404.573522 kJ/mol
# Density = 1.846326 g / cm^3
# Si number density = 18.505377 Si / 1000 Ang^3
#
#
#
# Elastic Constant Matrix: (Units=GPa)
#
#
# Indices 1 2 3 4 5 6 
#
# 1 71.0312 45.7815 40.9582 0.0000 0.0000 0.0000
# 2 45.7815 135.0358 80.7170 0.0000 0.0000 0.0000
# 3 40.9582 80.7170 111.9275 0.0000 0.0000 0.0000
# 4 0.0000 0.0000 0.0000 -404.5128 0.0000 0.0000
# 5 0.0000 0.0000 0.0000 0.0000 29.5515 0.0000
# 6 0.0000 0.0000 0.0000 0.0000 0.0000 31.4677
#
#
#
# Elastic Compliance Matrix: (Units=1/GPa)
#
#
# Indices 1 2 3 4 5 6 
#
# 1 0.019008 -0.004019 -0.004057 0.000000 0.000000 0.000000
# 2 -0.004019 0.013866 -0.008529 0.000000 0.000000 0.000000
# 3 -0.004057 -0.008529 0.016570 0.000000 0.000000 0.000000
# 4 0.000000 0.000000 0.000000 -0.002472 0.000000 0.000000
# 5 0.000000 0.000000 0.000000 0.000000 0.033839 0.000000
# 6 0.000000 0.000000 0.000000 0.000000 0.000000 0.031779
#
#
# Mechanical properties :
#
#
# Convention : Reuss Voigt Hill
#
# Bulk Modulus (GPa) = 61.60145 72.54532 67.07339
# Shear Modulus (GPa) = 33.06616 -58.66285 -12.79835
#
# Velocity S-wave (km/s) = 4.23169 -5.63642 -2.63268
# Velocity P-wave (km/s) = 7.56551 1.75260 5.20410
#
# Compressibility (1/GPa) = 0.01623338
#
# Stress axis : x y z
#
# Youngs Moduli (GPa) = 52.60844 72.11787 60.35100
#
# Poissons Ratio (x) = 0.28985 0.24487
# Poissons Ratio (y) = 0.21144 0.51473
# Poissons Ratio (z) = 0.21345 0.61509
#
# Static dielectric constant tensor:
#      x y z
#    x 3.409460 0.000000 0.000000 
#    y 0.000000 3.456170 0.000000 
#    z 0.000000 0.000000 3.539500 
# 
# 
# High freq. dielectric constant tensor:
#      x y z
#    x 1.728280 0.000000 0.000000 
#    y 0.000000 1.724240 0.000000 
#    z 0.000000 0.000000 1.706510 
# 
# From -- ./inp_files/31241.got.cif
#   From: 2010.03.12/outbox.cif.g09.slc.cpg/sg53_16_cif.got.tgz:31241.got - 2010.04.16 14:36:59.
