data_PCOD8219619
_publ_section_title
;
Structure prediction by ZEFSAII (Michael W. Deem and Ramdas Pophale) SiO2 
 PCOD8219619
Probable space group: P M N A
;
_chemical_formula_sum "Si O2"
_cell_formula_units_Z 48
_cell_length_a 14.315521
_cell_length_b 9.991463
_cell_length_c 17.389203
_cell_angle_alpha 90.000000
_cell_angle_beta 90.000000
_cell_angle_gamma 90.000000
_cell_volume 2487.229845
_symmetry_space_group_name_H-M "P M N A"
_symmetry_group_IT_number 53
_symmetry_cell_setting 'orthorhombic'
loop_
_space_group_symop_operation_xyz
x,y,z
1/2-x,-y,1/2+z
x,-y,-z
1/2-x,y,1/2-z
-x,-y,-z
1/2+x,y,1/2-z
-x,y,z
1/2+x,-y,1/2+z
loop_
_atom_site_type_symbol
_atom_site_label
_atom_site_fract_x
_atom_site_fract_y
_atom_site_fract_z
Si Si1 0.299567 0.462220 0.588466
Si Si2 0.500000 0.109192 0.187768
Si Si3 0.500000 0.248621 0.345994
Si Si4 0.196856 0.997827 0.676897
Si Si5 0.797959 0.760452 0.894972
Si Si6 0.500000 0.465878 0.589704
Si Si7 0.803896 0.780772 0.447448
Si Si8 0.500000 0.841762 0.985307
O O1 0.299379 0.500000 0.500000
O O2 0.283552 0.604603 0.631553
O O3 0.401193 0.393691 0.609182
O O4 0.218622 0.352336 0.603962
O O5 0.500000 0.217735 0.255263
O O6 0.500000 0.186139 0.105912
O O7 0.412415 0.009896 0.195206
O O8 0.594150 0.191670 0.386162
O O9 0.500000 0.405867 0.355955
O O10 0.250000 0.060539 0.750000
O O11 0.213652 0.087996 0.602479
O O12 0.233902 0.848328 0.660996
O O13 0.768942 0.786231 0.982799
O O14 0.500000 0.500000 0.500000
O O15 0.909748 0.772698 0.477415
O O16 0.500000 0.000000 0.000000
#
# Coordination Sequence:
#
# PCOD8219619 Si02
#       8
#     8   4   4   8   8   4   8   4
#     4   8  17  32  56  86 117 143 189 242 296 353
#     4  12  22  38  57  90 120 161 205 254 308 365
#     4  10  20  34  61  93 120 154 201 256 311 363
#     4  12  23  38  60  83 120 160 203 255 306 365
#     4  10  19  37  60  88 114 154 200 251 298 365
#     4   8  14  32  58  84 116 154 180 232 311 370
#     4  11  21  37  59  90 116 159 207 246 307 367
#     4  12  20  36  62  83 118 169 209 251 300 371
#
# _framework density 19.298580000000001
#
# number of rings (size 3 to 8) (size 9 to 14) (size 15 to 20)
#    0.000    1.667    5.000    1.500    0.000    0.000 
#    0.000    9.583    0.000    0.000    0.000    0.000 
#    0.000    0.000    0.000    0.000    0.000    0.000 
#
# Total GULP energy -594796.659378 kJ/mol
# GULP energy per Si atom -12391.597070 kJ/mol
# Density = 1.925466 g / cm^3
# Si number density = 19.298580 Si / 1000 Ang^3
#
#
#
# Elastic Constant Matrix: (Units=GPa)
#
#
# Indices 1 2 3 4 5 6 
#
# 1 168.5042 61.0555 46.7800 0.0000 0.0000 0.0000
# 2 61.0555 83.7087 33.2019 0.0000 0.0000 0.0000
# 3 46.7800 33.2019 90.5317 0.0000 0.0000 0.0000
# 4 0.0000 0.0000 0.0000 25.1881 0.0000 0.0000
# 5 0.0000 0.0000 0.0000 0.0000 21.6573 0.0000
# 6 0.0000 0.0000 0.0000 0.0000 0.0000 23.9732
#
#
#
# Elastic Compliance Matrix: (Units=1/GPa)
#
#
# Indices 1 2 3 4 5 6 
#
# 1 0.008519 -0.005228 -0.002484 0.000000 0.000000 0.000000
# 2 -0.005228 0.017188 -0.003602 0.000000 0.000000 0.000000
# 3 -0.002484 -0.003602 0.013651 0.000000 0.000000 0.000000
# 4 0.000000 0.000000 0.000000 0.039701 0.000000 0.000000
# 5 0.000000 0.000000 0.000000 0.000000 0.046174 0.000000
# 6 0.000000 0.000000 0.000000 0.000000 0.000000 0.041713
#
#
# Mechanical properties :
#
#
# Convention : Reuss Voigt Hill
#
# Bulk Modulus (GPa) = 59.77919 69.42439 64.60179
# Shear Modulus (GPa) = 25.62119 27.61086 26.61603
#
# Velocity S-wave (km/s) = 3.64761 3.78659 3.71775
# Velocity P-wave (km/s) = 6.98450 7.42762 7.20947
#
# Compressibility (1/GPa) = 0.01672823
#
# Stress axis : x y z
#
# Youngs Moduli (GPa) = 117.39083 58.17996 73.25602
#
# Poissons Ratio (x) = 0.30416 0.18200
# Poissons Ratio (y) = 0.61370 0.26389
# Poissons Ratio (z) = 0.29165 0.20958
#
# Static dielectric constant tensor:
#      x y z
#    x 4.021000 0.000000 0.000000 
#    y 0.000000 3.708930 0.000000 
#    z 0.000000 0.000000 3.421610 
# 
# 
# High freq. dielectric constant tensor:
#      x y z
#    x 1.770680 0.000000 0.000000 
#    y 0.000000 1.723210 0.000000 
#    z 0.000000 0.000000 1.730530 
# 
# From -- ./inp_files/28347.got.cif
#   From: 2010.03.12/outbox.cif.g09.slc.cpg/sg53_15_cif.got.tgz:28347.got - 2010.04.16 14:36:59.
