data_PCOD8219206
_publ_section_title
;
Structure prediction by ZEFSAII (Michael W. Deem and Ramdas Pophale) SiO2 
 PCOD8219206
Probable space group: P M N A
;
_chemical_formula_sum "Si O2"
_cell_formula_units_Z 64
_cell_length_a 9.122390
_cell_length_b 15.420224
_cell_length_c 24.111366
_cell_angle_alpha 90.000000
_cell_angle_beta 90.000000
_cell_angle_gamma 90.000000
_cell_volume 3391.728910
_symmetry_space_group_name_H-M "P M N A"
_symmetry_group_IT_number 53
_symmetry_cell_setting 'orthorhombic'
loop_
_space_group_symop_operation_xyz
x,y,z
1/2-x,-y,1/2+z
x,-y,-z
1/2-x,y,1/2-z
-x,-y,-z
1/2+x,y,1/2-z
-x,y,z
1/2+x,-y,1/2+z
loop_
_atom_site_type_symbol
_atom_site_label
_atom_site_fract_x
_atom_site_fract_y
_atom_site_fract_z
Si Si1 0.326729 0.203530 0.808757
Si Si2 0.328627 0.636763 0.364221
Si Si3 0.665639 0.874638 0.605320
Si Si4 0.173610 0.542185 0.808077
Si Si5 0.325405 0.320628 0.396760
Si Si6 0.333390 0.126225 0.523844
Si Si7 0.828687 0.682454 0.017640
Si Si8 0.328451 0.038778 0.881230
O O1 0.250000 0.205771 0.750000
O O2 0.500000 0.213957 0.801510
O O3 0.268292 0.283355 0.844669
O O4 0.283919 0.113282 0.837794
O O5 0.500000 0.658307 0.355273
O O6 0.281021 0.551889 0.330808
O O7 0.296945 0.619363 0.430143
O O8 0.500000 0.880662 0.627386
O O9 0.727574 0.777540 0.616288
O O10 0.672706 0.897795 0.540511
O O11 0.760744 0.946395 0.638188
O O12 0.250000 0.559249 0.750000
O O13 0.236528 0.613748 0.850789
O O14 0.000000 0.549507 0.800816
O O15 0.500000 0.324504 0.396056
O O16 0.265501 0.350147 0.458135
O O17 0.500000 0.118234 0.546165
O O18 0.267385 0.222534 0.532889
O O19 0.232332 0.061449 0.558144
O O20 0.000000 0.695680 0.007384
O O21 0.500000 0.027182 0.885372
#
# Coordination Sequence:
#
# PCOD8219206 Si02
#       8
#     8   8   8   8   8   8   8   8
#     4  11  24  39  54  74 104 143 182 223 269 319
#     4  10  19  33  57  85 109 137 171 214 270 325
#     4   9  18  32  53  77 103 139 178 214 258 309
#     4  10  21  36  56  81 107 138 179 222 266 314
#     4   8  16  33  54  79 109 138 176 224 264 309
#     4   9  16  29  50  76 106 140 175 209 250 312
#     4   8  14  27  51  81 110 137 170 213 261 314
#     4  11  22  33  48  75 107 137 173 218 265 311
#
# _framework density 18.869433000000001
#
# number of rings (size 3 to 8) (size 9 to 14) (size 15 to 20)
#    0.000    2.500    1.250    3.000    0.000    5.500 
#    0.000    3.750    0.000    4.500    0.000    1.750 
#    0.000    0.000    0.000    0.000    0.000    0.000 
#
# Total GULP energy -793274.261268 kJ/mol
# GULP energy per Si atom -12394.910332 kJ/mol
# Density = 1.882649 g / cm^3
# Si number density = 18.869433 Si / 1000 Ang^3
#
#
#
# Elastic Constant Matrix: (Units=GPa)
#
#
# Indices 1 2 3 4 5 6 
#
# 1 48.3791 39.3868 34.8357 0.0000 0.0000 0.0000
# 2 39.3868 96.2299 68.5425 0.0000 0.0000 0.0000
# 3 34.8357 68.5425 112.7159 0.0000 0.0000 0.0000
# 4 0.0000 0.0000 0.0000 25.5232 0.0000 0.0000
# 5 0.0000 0.0000 0.0000 0.0000 21.0731 0.0000
# 6 0.0000 0.0000 0.0000 0.0000 0.0000 7.5035
#
#
#
# Elastic Compliance Matrix: (Units=1/GPa)
#
#
# Indices 1 2 3 4 5 6 
#
# 1 0.031707 -0.010581 -0.003365 0.000000 0.000000 0.000000
# 2 -0.010581 0.021863 -0.010025 0.000000 0.000000 0.000000
# 3 -0.003365 -0.010025 0.016008 0.000000 0.000000 0.000000
# 4 0.000000 0.000000 0.000000 0.039180 0.000000 0.000000
# 5 0.000000 0.000000 0.000000 0.000000 0.047454 0.000000
# 6 0.000000 0.000000 0.000000 0.000000 0.000000 0.133272
#
#
# Mechanical properties :
#
#
# Convention : Reuss Voigt Hill
#
# Bulk Modulus (GPa) = 46.21780 60.31720 53.26750
# Shear Modulus (GPa) = 14.50799 18.45729 16.48264
#
# Velocity S-wave (km/s) = 2.77584 3.13094 2.95873
# Velocity P-wave (km/s) = 5.90088 6.71605 6.32162
#
# Compressibility (1/GPa) = 0.02163669
#
# Stress axis : x y z
#
# Youngs Moduli (GPa) = 31.53840 45.73966 62.46904
#
# Poissons Ratio (x) = 0.48396 0.21022
# Poissons Ratio (y) = 0.33370 0.62623
# Poissons Ratio (z) = 0.10613 0.45853
#
# Static dielectric constant tensor:
#      x y z
#    x 3.146090 0.000000 0.000000 
#    y 0.000000 3.650100 0.000000 
#    z 0.000000 0.000000 3.506680 
# 
# 
# High freq. dielectric constant tensor:
#      x y z
#    x 1.696560 0.000000 0.000000 
#    y 0.000000 1.738470 0.000000 
#    z 0.000000 0.000000 1.725490 
# 
# From -- ./inp_files/34299.got.cif
#   From: 2010.03.12/outbox.cif.g09.slc.cpg/sg53_18_cif.got.tgz:34299.got - 2010.04.16 14:36:59.
