data_PCOD8219013
_publ_section_title
;
Structure prediction by ZEFSAII (Michael W. Deem and Ramdas Pophale) SiO2 
 PCOD8219013
Probable space group: P M N A
;
_chemical_formula_sum "Si O2"
_cell_formula_units_Z 24
_cell_length_a 13.842687
_cell_length_b 8.757300
_cell_length_c 8.996733
_cell_angle_alpha 90.000000
_cell_angle_beta 90.000000
_cell_angle_gamma 90.000000
_cell_volume 1090.625025
_symmetry_space_group_name_H-M "P M N A"
_symmetry_group_IT_number 53
_symmetry_cell_setting 'orthorhombic'
loop_
_space_group_symop_operation_xyz
x,y,z
1/2-x,-y,1/2+z
x,-y,-z
1/2-x,y,1/2-z
-x,-y,-z
1/2+x,y,1/2-z
-x,y,z
1/2+x,-y,1/2+z
loop_
_atom_site_type_symbol
_atom_site_label
_atom_site_fract_x
_atom_site_fract_y
_atom_site_fract_z
Si Si1 0.893356 0.100498 0.647800
Si Si2 0.112853 0.802597 0.801764
Si Si3 0.779049 0.321880 0.476887
O O1 0.819120 0.241047 0.627274
O O2 0.000000 0.168708 0.677905
O O3 0.894913 0.000000 0.500000
O O4 0.864752 0.983851 0.780419
O O5 0.147119 0.707032 0.658311
O O6 0.173023 0.747564 0.944484
O O7 0.000000 0.772218 0.828658
O O8 0.768690 0.500000 0.500000
#
# Coordination Sequence:
#
# PCOD8219013 Si02
#       3
#     8   8   8
#     4   8  15  31  55  77 101 140 181 215 258 320
#     4   9  19  36  55  77 108 144 181 218 263 327
#     4  10  19  32  55  84 110 137 177 229 276 311
#
# _framework density 22.00573
#
# number of rings (size 3 to 8) (size 9 to 14) (size 15 to 20)
#    0.000    3.000    0.000    3.000    0.000    3.333 
#    0.000   20.000    0.000   27.000    0.000    0.000 
#    0.000    0.000    0.000    0.000    0.000    0.000 
#
# Total GULP energy -297482.226904 kJ/mol
# GULP energy per Si atom -12395.092788 kJ/mol
# Density = 2.195564 g / cm^3
# Si number density = 22.005730 Si / 1000 Ang^3
#
#
#
# Elastic Constant Matrix: (Units=GPa)
#
#
# Indices 1 2 3 4 5 6 
#
# 1 189.4851 103.9133 45.0950 0.0000 0.0000 0.0000
# 2 103.9133 178.7137 50.4092 0.0000 0.0000 0.0000
# 3 45.0950 50.4092 27.3589 0.0000 0.0000 0.0000
# 4 0.0000 0.0000 0.0000 22.4347 0.0000 0.0000
# 5 0.0000 0.0000 0.0000 0.0000 14.0432 0.0000
# 6 0.0000 0.0000 0.0000 0.0000 0.0000 16.0365
#
#
#
# Elastic Compliance Matrix: (Units=1/GPa)
#
#
# Indices 1 2 3 4 5 6 
#
# 1 0.009082 -0.002204 -0.010910 0.000000 0.000000 0.000000
# 2 -0.002204 0.012185 -0.018819 0.000000 0.000000 0.000000
# 3 -0.010910 -0.018819 0.089208 0.000000 0.000000 0.000000
# 4 0.000000 0.000000 0.000000 0.044574 0.000000 0.000000
# 5 0.000000 0.000000 0.000000 0.000000 0.071209 0.000000
# 6 0.000000 0.000000 0.000000 0.000000 0.000000 0.062358
#
#
# Mechanical properties :
#
#
# Convention : Reuss Voigt Hill
#
# Bulk Modulus (GPa) = 21.45447 88.26585 54.86016
# Shear Modulus (GPa) = 13.58628 23.57888 18.58258
#
# Velocity S-wave (km/s) = 2.48744 3.27691 2.90908
# Velocity P-wave (km/s) = 4.24506 7.38343 6.02227
#
# Compressibility (1/GPa) = 0.04661033
#
# Stress axis : x y z
#
# Youngs Moduli (GPa) = 110.10358 82.06797 11.20972
#
# Poissons Ratio (x) = 0.18084 0.12230
# Poissons Ratio (y) = 0.24262 0.21096
# Poissons Ratio (z) = 1.20124 1.54444
#
# Static dielectric constant tensor:
#      x y z
#    x 4.125420 0.000000 0.000000 
#    y 0.000000 3.950960 0.000000 
#    z 0.000000 0.000000 3.782770 
# 
# 
# High freq. dielectric constant tensor:
#      x y z
#    x 1.876990 0.000000 0.000000 
#    y 0.000000 1.847960 0.000000 
#    z 0.000000 0.000000 1.829280 
# 
# From -- ./inp_files/7763.got.cif
#   From: 2010.03.12/outbox.cif.g09.slc.cpg/sg53_4_cif.got.tgz:7763.got - 2010.04.16 14:36:59.
