data_PCOD8219361
_publ_section_title
;
Structure prediction by ZEFSAII (Michael W. Deem and Ramdas Pophale) SiO2 
 PCOD8219361
Probable space group: P M N A
;
_chemical_formula_sum "Si O2"
_cell_formula_units_Z 64
_cell_length_a 8.994047
_cell_length_b 21.450561
_cell_length_c 17.542097
_cell_angle_alpha 90.000000
_cell_angle_beta 90.000000
_cell_angle_gamma 90.000000
_cell_volume 3384.350354
_symmetry_space_group_name_H-M "P M N A"
_symmetry_group_IT_number 53
_symmetry_cell_setting 'orthorhombic'
loop_
_space_group_symop_operation_xyz
x,y,z
1/2-x,-y,1/2+z
x,-y,-z
1/2-x,y,1/2-z
-x,-y,-z
1/2+x,y,1/2-z
-x,y,z
1/2+x,-y,1/2+z
loop_
_atom_site_type_symbol
_atom_site_label
_atom_site_fract_x
_atom_site_fract_y
_atom_site_fract_z
Si Si1 0.170053 0.878866 0.417600
Si Si2 0.827778 0.001673 0.329312
Si Si3 0.326805 0.628879 0.325398
Si Si4 0.826000 0.570592 0.015822
Si Si5 0.173471 0.683334 0.556441
Si Si6 0.673707 0.104291 0.426006
Si Si7 0.175415 0.226676 0.168668
Si Si8 0.330495 0.739752 0.105110
O O1 0.282957 0.888042 0.486419
O O2 0.200287 0.812204 0.378405
O O3 0.000000 0.882522 0.448062
O O4 0.200071 0.930359 0.353302
O O5 0.750000 0.016152 0.250000
O O6 0.762368 0.045601 0.394234
O O7 0.000000 0.017101 0.319553
O O8 0.250000 0.601047 0.250000
O O9 0.500000 0.629414 0.310626
O O10 0.282189 0.585985 0.397048
O O11 0.274221 0.699722 0.339907
O O12 0.000000 0.582355 0.001688
O O13 0.779296 0.500000 0.000000
O O14 0.734623 0.613877 0.957979
O O15 0.259215 0.712191 0.628098
O O16 0.206831 0.726206 0.483175
O O17 0.000000 0.679785 0.575863
O O18 0.500000 0.090223 0.419940
O O19 0.717981 0.166135 0.380236
O O20 0.250000 0.218280 0.250000
O O21 0.000000 0.234799 0.178047
O O22 0.500000 0.720849 0.122822
#
# Coordination Sequence:
#
# PCOD8219361 Si02
#       8
#     8   8   8   8   8   8   8   8
#     4  10  21  38  59  83 111 146 185 230 283 340
#     4  11  24  40  57  77 108 147 188 235 289 341
#     4  10  20  34  55  83 115 149 188 232 279 330
#     4   9  19  37  60  84 114 155 196 234 278 329
#     4  10  19  34  58  84 113 146 182 229 277 331
#     4  11  23  38  59  84 110 144 188 235 283 341
#     4  11  23  37  56  83 113 146 186 232 285 340
#     4   9  18  34  56  81 110 144 182 224 275 331
#
# _framework density 18.910572999999999
#
# number of rings (size 3 to 8) (size 9 to 14) (size 15 to 20)
#    0.000    1.875    1.250    2.625    0.000    7.250 
#    0.000    1.875    0.000    1.500    0.000    0.000 
#    0.000    0.000    0.000    0.000    0.000    0.000 
#
# Total GULP energy -793934.623927 kJ/mol
# GULP energy per Si atom -12405.228499 kJ/mol
# Density = 1.886753 g / cm^3
# Si number density = 18.910573 Si / 1000 Ang^3
#
#
#
# Elastic Constant Matrix: (Units=GPa)
#
#
# Indices 1 2 3 4 5 6 
#
# 1 81.7154 39.9784 33.5827 0.0000 0.0000 0.0000
# 2 39.9784 109.1568 19.6481 0.0000 0.0000 0.0000
# 3 33.5827 19.6481 66.3822 0.0000 0.0000 0.0000
# 4 0.0000 0.0000 0.0000 17.7367 0.0000 0.0000
# 5 0.0000 0.0000 0.0000 0.0000 35.8664 0.0000
# 6 0.0000 0.0000 0.0000 0.0000 0.0000 28.7059
#
#
#
# Elastic Compliance Matrix: (Units=1/GPa)
#
#
# Indices 1 2 3 4 5 6 
#
# 1 0.017859 -0.005191 -0.007498 0.000000 0.000000 0.000000
# 2 -0.005191 0.011186 -0.000685 0.000000 0.000000 0.000000
# 3 -0.007498 -0.000685 0.019060 0.000000 0.000000 0.000000
# 4 0.000000 0.000000 0.000000 0.056380 0.000000 0.000000
# 5 0.000000 0.000000 0.000000 0.000000 0.027881 0.000000
# 6 0.000000 0.000000 0.000000 0.000000 0.000000 0.034836
#
#
# Mechanical properties :
#
#
# Convention : Reuss Voigt Hill
#
# Bulk Modulus (GPa) = 46.82352 49.29695 48.06023
# Shear Modulus (GPa) = 24.86705 27.39815 26.13260
#
# Velocity S-wave (km/s) = 3.63020 3.81048 3.72143
# Velocity P-wave (km/s) = 6.51041 6.74423 6.62835
#
# Compressibility (1/GPa) = 0.02135679
#
# Stress axis : x y z
#
# Youngs Moduli (GPa) = 55.99461 89.40087 52.46512
#
# Poissons Ratio (x) = 0.46409 0.39340
# Poissons Ratio (y) = 0.29067 0.03592
# Poissons Ratio (z) = 0.41986 0.06120
#
# Static dielectric constant tensor:
#      x y z
#    x 3.502880 0.000000 0.000000 
#    y 0.000000 3.471790 0.000000 
#    z 0.000000 0.000000 3.360740 
# 
# 
# High freq. dielectric constant tensor:
#      x y z
#    x 1.743070 0.000000 0.000000 
#    y 0.000000 1.732540 0.000000 
#    z 0.000000 0.000000 1.728900 
# 
# From -- ./inp_files/26815.got.cif
#   From: 2010.03.12/outbox.cif.g09.slc.cpg/sg53_14_cif.got.tgz:26815.got - 2010.04.16 14:36:59.
