data_PCOD8219924
_publ_section_title
;
Structure prediction by ZEFSAII (Michael W. Deem and Ramdas Pophale) SiO2 
 PCOD8219924
Probable space group: P M N A
;
_chemical_formula_sum "Si O2"
_cell_formula_units_Z 56
_cell_length_a 15.211845
_cell_length_b 9.838483
_cell_length_c 19.266198
_cell_angle_alpha 90.000000
_cell_angle_beta 90.000000
_cell_angle_gamma 90.000000
_cell_volume 2883.407676
_symmetry_space_group_name_H-M "P M N A"
_symmetry_group_IT_number 53
_symmetry_cell_setting 'orthorhombic'
loop_
_space_group_symop_operation_xyz
x,y,z
1/2-x,-y,1/2+z
x,-y,-z
1/2-x,y,1/2-z
-x,-y,-z
1/2+x,y,1/2-z
-x,y,z
1/2+x,-y,1/2+z
loop_
_atom_site_type_symbol
_atom_site_label
_atom_site_fract_x
_atom_site_fract_y
_atom_site_fract_z
Si Si1 0.165157 0.267410 0.796004
Si Si2 0.599482 0.974670 0.710108
Si Si3 0.739891 0.693225 0.942643
Si Si4 0.395593 0.222569 0.170284
Si Si5 0.602942 0.888289 0.559204
Si Si6 0.097850 0.474699 0.699515
Si Si7 0.231988 0.390522 0.591497
O O1 0.250000 0.242760 0.750000
O O2 0.113154 0.403192 0.773399
O O3 0.191307 0.294749 0.876172
O O4 0.105116 0.136452 0.783502
O O5 0.500000 0.926545 0.711637
O O6 0.641015 0.892899 0.775989
O O7 0.637459 0.938106 0.634600
O O8 0.667244 0.778397 0.898242
O O9 0.833997 0.762308 0.955396
O O10 0.763934 0.546697 0.911301
O O11 0.698700 0.670377 0.018924
O O12 0.500000 0.203074 0.150646
O O13 0.378052 0.366782 0.207577
O O14 0.500000 0.845198 0.559673
O O15 0.619153 0.000000 0.500000
O O16 0.149950 0.388899 0.642735
O O17 0.000000 0.461347 0.672996
#
# Coordination Sequence:
#
# PCOD8219924 Si02
#       7
#     8   8   8   8   8   8   8
#     4  10  20  33  53  80 112 146 188 230 282 340
#     4  10  21  36  54  81 112 144 191 239 282 343
#     4  10  20  37  60  80 117 154 191 241 292 337
#     4   9  20  36  58  89 116 147 195 237 286 355
#     4  10  22  38  56  79 111 151 197 239 284 345
#     4   9  18  35  58  82 113 150 186 238 293 341
#     4   9  20  36  54  86 113 147 196 238 280 360
#
# _framework density 19.421464
#
# number of rings (size 3 to 8) (size 9 to 14) (size 15 to 20)
#    0.000    2.429    0.000    1.286    4.000    0.571 
#    0.000    5.714    0.000    0.429    0.000    0.000 
#    0.000    0.000    0.000    0.000    0.000    0.000 
#
# Total GULP energy -693843.139841 kJ/mol
# GULP energy per Si atom -12390.056069 kJ/mol
# Density = 1.937726 g / cm^3
# Si number density = 19.421464 Si / 1000 Ang^3
#
#
#
# Elastic Constant Matrix: (Units=GPa)
#
#
# Indices 1 2 3 4 5 6 
#
# 1 65.7171 36.9401 35.6498 0.0000 0.0000 0.0000
# 2 36.9401 84.4667 51.3810 0.0000 0.0000 0.0000
# 3 35.6498 51.3810 131.2878 0.0000 0.0000 0.0000
# 4 0.0000 0.0000 0.0000 31.9799 0.0000 0.0000
# 5 0.0000 0.0000 0.0000 0.0000 21.3730 0.0000
# 6 0.0000 0.0000 0.0000 0.0000 0.0000 31.2445
#
#
#
# Elastic Compliance Matrix: (Units=1/GPa)
#
#
# Indices 1 2 3 4 5 6 
#
# 1 0.020909 -0.007469 -0.002755 0.000000 0.000000 0.000000
# 2 -0.007469 0.018206 -0.005097 0.000000 0.000000 0.000000
# 3 -0.002755 -0.005097 0.010360 0.000000 0.000000 0.000000
# 4 0.000000 0.000000 0.000000 0.031270 0.000000 0.000000
# 5 0.000000 0.000000 0.000000 0.000000 0.046788 0.000000
# 6 0.000000 0.000000 0.000000 0.000000 0.000000 0.032006
#
#
# Mechanical properties :
#
#
# Convention : Reuss Voigt Hill
#
# Bulk Modulus (GPa) = 53.09568 58.82372 55.95970
# Shear Modulus (GPa) = 25.45090 27.41954 26.43522
#
# Velocity S-wave (km/s) = 3.62394 3.76149 3.69336
# Velocity P-wave (km/s) = 6.70139 7.01561 6.86030
#
# Compressibility (1/GPa) = 0.01883393
#
# Stress axis : x y z
#
# Youngs Moduli (GPa) = 47.82565 54.92766 96.52824
#
# Poissons Ratio (x) = 0.41023 0.26591
# Poissons Ratio (y) = 0.35719 0.49201
# Poissons Ratio (z) = 0.13175 0.27997
#
# Static dielectric constant tensor:
#      x y z
#    x 3.475360 0.000000 0.000000 
#    y 0.000000 3.561050 0.000000 
#    z 0.000000 0.000000 3.756920 
# 
# 
# High freq. dielectric constant tensor:
#      x y z
#    x 1.745790 0.000000 0.000000 
#    y 0.000000 1.752230 0.000000 
#    z 0.000000 0.000000 1.759970 
# 
# From -- ./inp_files/32437.got.cif
#   From: 2010.03.12/outbox.cif.g09.slc.cpg/sg53_17_cif.got.tgz:32437.got - 2010.04.16 14:36:59.
