data_PCOD8219072
_publ_section_title
;
Structure prediction by ZEFSAII (Michael W. Deem and Ramdas Pophale) SiO2 
 PCOD8219072
Probable space group: P M N A
;
_chemical_formula_sum "Si O2"
_cell_formula_units_Z 64
_cell_length_a 8.927709
_cell_length_b 22.189703
_cell_length_c 17.518333
_cell_angle_alpha 90.000000
_cell_angle_beta 90.000000
_cell_angle_gamma 90.000000
_cell_volume 3470.438022
_symmetry_space_group_name_H-M "P M N A"
_symmetry_group_IT_number 53
_symmetry_cell_setting 'orthorhombic'
loop_
_space_group_symop_operation_xyz
x,y,z
1/2-x,-y,1/2+z
x,-y,-z
1/2-x,y,1/2-z
-x,-y,-z
1/2+x,y,1/2-z
-x,y,z
1/2+x,-y,1/2+z
loop_
_atom_site_type_symbol
_atom_site_label
_atom_site_fract_x
_atom_site_fract_y
_atom_site_fract_z
Si Si1 0.668765 0.456397 0.071676
Si Si2 0.173885 0.247104 0.478774
Si Si3 0.176762 0.551556 0.169719
Si Si4 0.328043 0.114715 0.963017
Si Si5 0.825161 0.948693 0.172869
Si Si6 0.326863 0.076707 0.389696
Si Si7 0.823807 0.636577 0.028555
Si Si8 0.674841 0.793430 0.671592
O O1 0.500000 0.439703 0.097430
O O2 0.754276 0.488000 0.141958
O O3 0.665438 0.500000 0.000000
O O4 0.757362 0.396942 0.045868
O O5 0.198663 0.185139 0.523390
O O6 0.249608 0.297745 0.531580
O O7 0.252510 0.244779 0.396462
O O8 0.000000 0.261523 0.466417
O O9 0.250000 0.570650 0.250000
O O10 0.215620 0.603064 0.107762
O O11 0.000000 0.543658 0.179775
O O12 0.500000 0.099364 0.946914
O O13 0.228836 0.096206 0.891996
O O14 0.275393 0.076518 0.035653
O O15 0.750000 0.926622 0.250000
O O16 0.000000 0.941526 0.181677
O O17 0.779657 0.017923 0.157383
O O18 0.500000 0.074304 0.415439
O O19 0.294103 0.135429 0.338910
O O20 0.000000 0.641757 0.017295
O O21 0.750000 0.772227 0.750000
O O22 0.500000 0.778782 0.674184
#
# Coordination Sequence:
#
# PCOD8219072 Si02
#       8
#     8   8   8   8   8   8   8   8
#     4   9  17  31  53  79 107 139 171 205 250 302
#     4  10  21  37  56  77 103 139 182 221 260 311
#     4  10  20  34  54  82 114 144 177 218 262 307
#     4  10  21  36  54  76 102 135 175 218 263 315
#     4  11  22  35  52  75 104 135 170 214 266 321
#     4   9  19  34  53  77 103 133 168 210 262 321
#     4  10  20  35  56  81 108 141 181 221 261 307
#     4  10  19  33  53  77 106 136 169 212 263 316
#
# _framework density 18.441475000000001
#
# number of rings (size 3 to 8) (size 9 to 14) (size 15 to 20)
#    0.000    2.125    0.000    3.375    0.000    7.500 
#    0.000    1.250    0.000    1.500    0.000    0.000 
#    0.000    0.000    0.000    0.000    0.000    0.000 
#
# Total GULP energy -793826.156454 kJ/mol
# GULP energy per Si atom -12403.533695 kJ/mol
# Density = 1.839950 g / cm^3
# Si number density = 18.441475 Si / 1000 Ang^3
#
#
#
# Elastic Constant Matrix: (Units=GPa)
#
#
# Indices 1 2 3 4 5 6 
#
# 1 118.9107 46.4785 64.3577 0.0000 0.0000 0.0000
# 2 46.4785 59.0404 39.6498 0.0000 0.0000 0.0000
# 3 64.3577 39.6498 107.7590 0.0000 0.0000 0.0000
# 4 0.0000 0.0000 0.0000 23.0859 0.0000 0.0000
# 5 0.0000 0.0000 0.0000 0.0000 37.4188 0.0000
# 6 0.0000 0.0000 0.0000 0.0000 0.0000 35.2985
#
#
#
# Elastic Compliance Matrix: (Units=1/GPa)
#
#
# Indices 1 2 3 4 5 6 
#
# 1 0.014539 -0.007457 -0.005939 0.000000 0.000000 0.000000
# 2 -0.007457 0.026321 -0.005231 0.000000 0.000000 0.000000
# 3 -0.005939 -0.005231 0.014752 0.000000 0.000000 0.000000
# 4 0.000000 0.000000 0.000000 0.043316 0.000000 0.000000
# 5 0.000000 0.000000 0.000000 0.000000 0.026725 0.000000
# 6 0.000000 0.000000 0.000000 0.000000 0.000000 0.028330
#
#
# Mechanical properties :
#
#
# Convention : Reuss Voigt Hill
#
# Bulk Modulus (GPa) = 54.47544 65.18689 59.83117
# Shear Modulus (GPa) = 25.33484 28.17558 26.75521
#
# Velocity S-wave (km/s) = 3.71050 3.91300 3.81309
# Velocity P-wave (km/s) = 6.92538 7.47262 7.20420
#
# Compressibility (1/GPa) = 0.01835690
#
# Stress axis : x y z
#
# Youngs Moduli (GPa) = 68.78120 37.99258 67.78699
#
# Poissons Ratio (x) = 0.28330 0.40262
# Poissons Ratio (y) = 0.51288 0.35462
# Poissons Ratio (z) = 0.40852 0.19875
#
# Static dielectric constant tensor:
#      x y z
#    x 3.535240 0.000000 0.000000 
#    y 0.000000 3.311800 0.000000 
#    z 0.000000 0.000000 3.356710 
# 
# 
# High freq. dielectric constant tensor:
#      x y z
#    x 1.732690 0.000000 0.000000 
#    y 0.000000 1.702720 0.000000 
#    z 0.000000 0.000000 1.706390 
# 
# From -- ./inp_files/26823.got.cif
#   From: 2010.03.12/outbox.cif.g09.slc.cpg/sg53_14_cif.got.tgz:26823.got - 2010.04.16 14:36:59.
