data_PCOD8219160
_publ_section_title
;
Structure prediction by ZEFSAII (Michael W. Deem and Ramdas Pophale) SiO2 
 PCOD8219160
Probable space group: P M N A
;
_chemical_formula_sum "Si O2"
_cell_formula_units_Z 64
_cell_length_a 8.878335
_cell_length_b 11.932269
_cell_length_c 30.121971
_cell_angle_alpha 90.000000
_cell_angle_beta 90.000000
_cell_angle_gamma 90.000000
_cell_volume 3191.081892
_symmetry_space_group_name_H-M "P M N A"
_symmetry_group_IT_number 53
_symmetry_cell_setting 'orthorhombic'
loop_
_space_group_symop_operation_xyz
x,y,z
1/2-x,-y,1/2+z
x,-y,-z
1/2-x,y,1/2-z
-x,-y,-z
1/2+x,y,1/2-z
-x,y,z
1/2+x,-y,1/2+z
loop_
_atom_site_type_symbol
_atom_site_label
_atom_site_fract_x
_atom_site_fract_y
_atom_site_fract_z
Si Si1 0.830382 0.916613 0.207375
Si Si2 0.322122 0.939091 0.935252
Si Si3 0.679972 0.576951 0.040675
Si Si4 0.177718 0.829710 0.472658
Si Si5 0.830753 0.128239 0.151854
Si Si6 0.322053 0.312623 0.795674
Si Si7 0.321317 0.316238 0.202843
Si Si8 0.178223 0.505845 0.363821
O O1 0.750000 0.972829 0.250000
O O2 0.832519 0.999945 0.166561
O O3 0.000000 0.879354 0.220358
O O4 0.732537 0.810970 0.192601
O O5 0.500000 0.935510 0.927461
O O6 0.242865 0.870640 0.896279
O O7 0.267737 0.069788 0.939497
O O8 0.275277 0.867991 0.978287
O O9 0.500000 0.581282 0.040055
O O10 0.744173 0.705405 0.037853
O O11 0.740856 0.518146 0.085946
O O12 0.739130 0.500000 0.000000
O O13 0.000000 0.822709 0.468980
O O14 0.733469 0.194113 0.188274
O O15 0.000000 0.177299 0.149931
O O16 0.250000 0.357070 0.750000
O O17 0.500000 0.317904 0.790747
O O18 0.264993 0.387817 0.836137
O O19 0.250000 0.351537 0.250000
O O20 0.500000 0.319262 0.208649
O O21 0.264527 0.396486 0.162690
O O22 0.000000 0.501932 0.366237
#
# Coordination Sequence:
#
# PCOD8219160 Si02
#       8
#     8   8   8   8   8   8   8   8
#     4  10  21  36  53  76 108 141 179 221 271 329
#     4   9  18  33  56  85 113 146 189 238 285 335
#     4   9  17  29  50  80 118 151 180 229 285 335
#     4   8  16  31  52  83 117 147 187 235 285 339
#     4  11  24  38  55  82 114 149 193 235 284 346
#     4  10  19  33  55  82 114 145 182 225 275 334
#     4  11  23  40  61  84 115 151 193 241 289 342
#     4   9  20  34  52  85 116 146 187 232 281 336
#
# _framework density 20.055893999999999
#
# number of rings (size 3 to 8) (size 9 to 14) (size 15 to 20)
#    0.000    2.375    0.000    3.750    3.500    3.000 
#    0.000    3.125    0.000    0.000    0.000    0.875 
#    0.000    0.000    0.000    0.000    0.000    0.000 
#
# Total GULP energy -793223.723687 kJ/mol
# GULP energy per Si atom -12394.120683 kJ/mol
# Density = 2.001025 g / cm^3
# Si number density = 20.055894 Si / 1000 Ang^3
#
#
#
# Elastic Constant Matrix: (Units=GPa)
#
#
# Indices 1 2 3 4 5 6 
#
# 1 64.5919 22.3494 31.5149 0.0000 0.0000 0.0000
# 2 22.3494 100.7178 59.6006 0.0000 0.0000 0.0000
# 3 31.5149 59.6006 141.9847 0.0000 0.0000 0.0000
# 4 0.0000 0.0000 0.0000 34.5591 0.0000 0.0000
# 5 0.0000 0.0000 0.0000 0.0000 24.5068 0.0000
# 6 0.0000 0.0000 0.0000 0.0000 0.0000 12.1436
#
#
#
# Elastic Compliance Matrix: (Units=1/GPa)
#
#
# Indices 1 2 3 4 5 6 
#
# 1 0.017700 -0.002132 -0.003033 0.000000 0.000000 0.000000
# 2 -0.002132 0.013467 -0.005180 0.000000 0.000000 0.000000
# 3 -0.003033 -0.005180 0.009891 0.000000 0.000000 0.000000
# 4 0.000000 0.000000 0.000000 0.028936 0.000000 0.000000
# 5 0.000000 0.000000 0.000000 0.000000 0.040805 0.000000
# 6 0.000000 0.000000 0.000000 0.000000 0.000000 0.082348
#
#
# Mechanical properties :
#
#
# Convention : Reuss Voigt Hill
#
# Bulk Modulus (GPa) = 49.10139 59.35825 54.22982
# Shear Modulus (GPa) = 22.66273 27.16386 24.91330
#
# Velocity S-wave (km/s) = 3.36516 3.68422 3.52830
# Velocity P-wave (km/s) = 6.29559 6.91076 6.61034
#
# Compressibility (1/GPa) = 0.02036602
#
# Stress axis : x y z
#
# Youngs Moduli (GPa) = 56.49800 74.25518 101.10603
#
# Poissons Ratio (x) = 0.15835 0.30670
# Poissons Ratio (y) = 0.12048 0.52370
# Poissons Ratio (z) = 0.17139 0.38462
#
# Static dielectric constant tensor:
#      x y z
#    x 3.312740 0.000000 0.000000 
#    y 0.000000 3.899480 0.000000 
#    z 0.000000 0.000000 3.808200 
# 
# 
# High freq. dielectric constant tensor:
#      x y z
#    x 1.742750 0.000000 0.000000 
#    y 0.000000 1.789500 0.000000 
#    z 0.000000 0.000000 1.789730 
# 
# From -- ./inp_files/38296.got.cif
#   From: 2010.03.12/outbox.cif.g09.slc.cpg/sg53_20_cif.got.tgz:38296.got - 2010.04.16 14:36:59.
