data_PCOD8219451
_publ_section_title
;
Structure prediction by ZEFSAII (Michael W. Deem and Ramdas Pophale) SiO2 
 PCOD8219451
Probable space group: P M N A
;
_chemical_formula_sum "Si O2"
_cell_formula_units_Z 64
_cell_length_a 9.033380
_cell_length_b 22.018146
_cell_length_c 16.131583
_cell_angle_alpha 90.000000
_cell_angle_beta 90.000000
_cell_angle_gamma 90.000000
_cell_volume 3208.544108
_symmetry_space_group_name_H-M "P M N A"
_symmetry_group_IT_number 53
_symmetry_cell_setting 'orthorhombic'
loop_
_space_group_symop_operation_xyz
x,y,z
1/2-x,-y,1/2+z
x,-y,-z
1/2-x,y,1/2-z
-x,-y,-z
1/2+x,y,1/2-z
-x,y,z
1/2+x,-y,1/2+z
loop_
_atom_site_type_symbol
_atom_site_label
_atom_site_fract_x
_atom_site_fract_y
_atom_site_fract_z
Si Si1 0.162404 0.006572 0.595794
Si Si2 0.824824 0.877788 0.663805
Si Si3 0.824355 0.569239 0.998180
Si Si4 0.827957 0.767327 0.914517
Si Si5 0.826396 0.241458 0.898949
Si Si6 0.825917 0.641386 0.836193
Si Si7 0.174766 0.885311 0.164857
Si Si8 0.675835 0.367388 0.666246
O O1 0.280838 0.060034 0.604851
O O2 0.000000 0.021412 0.635741
O O3 0.137298 0.000000 0.500000
O O4 0.226645 0.944257 0.634105
O O5 0.750000 0.861983 0.750000
O O6 0.770327 0.826512 0.600624
O O7 0.000000 0.873778 0.671496
O O8 0.763992 0.602160 0.914526
O O9 0.000000 0.575150 0.996960
O O10 0.770004 0.500000 0.000000
O O11 0.765212 0.598601 0.083828
O O12 0.790432 0.712370 0.852148
O O13 0.000000 0.785686 0.908348
O O14 0.786035 0.744372 0.006173
O O15 0.755823 0.178118 0.867988
O O16 0.771624 0.297361 0.842805
O O17 0.000000 0.235013 0.889817
O O18 0.750000 0.620928 0.750000
O O19 0.000000 0.630362 0.826544
O O20 0.250000 0.902741 0.250000
O O21 0.000000 0.882248 0.173521
O O22 0.750000 0.394093 0.750000
O O23 0.500000 0.374261 0.674217
#
# Coordination Sequence:
#
# PCOD8219451 Si02
#       8
#     8   8   8   8   8   8   8   8
#     4  10  22  40  58  77 105 139 177 225 281 336
#     4  11  23  37  54  78 107 141 179 223 276 332
#     4   9  18  35  59  84 113 154 197 230 272 339
#     4  10  19  35  58  81 108 143 185 231 279 331
#     4   9  18  34  56  81 109 145 185 228 277 335
#     4  10  20  35  57  84 114 150 190 235 284 334
#     4  11  22  35  54  79 107 140 182 227 276 333
#     4  10  19  35  58  84 116 151 192 236 282 335
#
# _framework density 19.946743000000001
#
# number of rings (size 3 to 8) (size 9 to 14) (size 15 to 20)
#    0.000    2.000    1.250    2.625    0.000    4.250 
#    0.000    2.500    0.000    0.750    0.000    0.000 
#    0.000    0.000    0.000    0.000    0.000    0.000 
#
# Total GULP energy -793463.074691 kJ/mol
# GULP energy per Si atom -12397.860542 kJ/mol
# Density = 1.990134 g / cm^3
# Si number density = 19.946743 Si / 1000 Ang^3
#
#
#
# Elastic Constant Matrix: (Units=GPa)
#
#
# Indices 1 2 3 4 5 6 
#
# 1 48.8173 33.2723 32.2331 0.0000 0.0000 0.0000
# 2 33.2723 124.2778 49.6493 0.0000 0.0000 0.0000
# 3 32.2331 49.6493 127.6678 0.0000 0.0000 0.0000
# 4 0.0000 0.0000 0.0000 28.0351 0.0000 0.0000
# 5 0.0000 0.0000 0.0000 0.0000 26.7393 0.0000
# 6 0.0000 0.0000 0.0000 0.0000 0.0000 16.1567
#
#
#
# Elastic Compliance Matrix: (Units=1/GPa)
#
#
# Indices 1 2 3 4 5 6 
#
# 1 0.027335 -0.005400 -0.004801 0.000000 0.000000 0.000000
# 2 -0.005400 0.010593 -0.002756 0.000000 0.000000 0.000000
# 3 -0.004801 -0.002756 0.010117 0.000000 0.000000 0.000000
# 4 0.000000 0.000000 0.000000 0.035670 0.000000 0.000000
# 5 0.000000 0.000000 0.000000 0.000000 0.037398 0.000000
# 6 0.000000 0.000000 0.000000 0.000000 0.000000 0.061894
#
#
# Mechanical properties :
#
#
# Convention : Reuss Voigt Hill
#
# Bulk Modulus (GPa) = 45.18758 59.00801 52.09779
# Shear Modulus (GPa) = 23.11605 26.56010 24.83808
#
# Velocity S-wave (km/s) = 3.40794 3.65300 3.53260
# Velocity P-wave (km/s) = 6.17970 6.88764 6.54325
#
# Compressibility (1/GPa) = 0.02212998
#
# Stress axis : x y z
#
# Youngs Moduli (GPa) = 36.58253 94.39841 98.84370
#
# Poissons Ratio (x) = 0.50977 0.47459
# Poissons Ratio (y) = 0.19755 0.27244
# Poissons Ratio (z) = 0.17565 0.26019
#
# Static dielectric constant tensor:
#      x y z
#    x 3.293130 0.000000 0.000000 
#    y 0.000000 3.863970 0.000000 
#    z 0.000000 0.000000 3.691340 
# 
# 
# High freq. dielectric constant tensor:
#      x y z
#    x 1.741550 0.000000 0.000000 
#    y 0.000000 1.784270 0.000000 
#    z 0.000000 0.000000 1.790290 
# 
# From -- ./inp_files/20928.got.cif
#   From: 2010.03.12/outbox.cif.g09.slc.cpg/sg53_11_cif.got.tgz:20928.got - 2010.04.16 14:36:59.
