data_PCOD8219916
_publ_section_title
;
Structure prediction by ZEFSAII (Michael W. Deem and Ramdas Pophale) SiO2 
 PCOD8219916
Probable space group: P M N A
;
_chemical_formula_sum "Si O2"
_cell_formula_units_Z 64
_cell_length_a 8.869537
_cell_length_b 20.248238
_cell_length_c 19.694920
_cell_angle_alpha 90.000000
_cell_angle_beta 90.000000
_cell_angle_gamma 90.000000
_cell_volume 3537.059844
_symmetry_space_group_name_H-M "P M N A"
_symmetry_group_IT_number 53
_symmetry_cell_setting 'orthorhombic'
loop_
_space_group_symop_operation_xyz
x,y,z
1/2-x,-y,1/2+z
x,-y,-z
1/2-x,y,1/2-z
-x,-y,-z
1/2+x,y,1/2-z
-x,y,z
1/2+x,-y,1/2+z
loop_
_atom_site_type_symbol
_atom_site_label
_atom_site_fract_x
_atom_site_fract_y
_atom_site_fract_z
Si Si1 0.323990 0.060387 0.545413
Si Si2 0.678056 0.867751 0.820823
Si Si3 0.820775 0.298644 0.541517
Si Si4 0.666958 0.712579 0.315471
Si Si5 0.337478 0.558140 0.311522
Si Si6 0.322329 0.813449 0.545139
Si Si7 0.679846 0.563443 0.457893
Si Si8 0.176177 0.978951 0.319869
O O1 0.500000 0.051017 0.559992
O O2 0.286466 0.126840 0.505576
O O3 0.239893 0.063183 0.617431
O O4 0.262101 0.000000 0.500000
O O5 0.750000 0.843536 0.750000
O O6 0.500000 0.854607 0.819914
O O7 0.755576 0.826986 0.880744
O O8 0.716399 0.944563 0.832309
O O9 0.758823 0.276413 0.615138
O O10 0.760905 0.250251 0.483838
O O11 0.762626 0.370581 0.517617
O O12 0.000000 0.298062 0.544523
O O13 0.750000 0.745482 0.250000
O O14 0.500000 0.744485 0.323842
O O15 0.647356 0.635863 0.299405
O O16 0.250000 0.523726 0.250000
O O17 0.500000 0.523847 0.312490
O O18 0.257223 0.545816 0.383143
O O19 0.500000 0.800625 0.551316
O O20 0.727378 0.500000 0.500000
O O21 0.500000 0.576707 0.457304
O O22 0.250000 0.953621 0.250000
O O23 0.000000 0.966719 0.314226
#
# Coordination Sequence:
#
# PCOD8219916 Si02
#       8
#     8   8   8   8   8   8   8   8
#     4  10  20  35  55  79 106 137 176 221 270 320
#     4  10  20  34  54  81 108 138 178 223 270 321
#     4  11  22  35  52  78 111 143 180 224 270 325
#     4   9  16  29  49  73 101 135 175 215 259 308
#     4   8  14  24  42  69  98 127 160 201 246 296
#     4  11  22  37  57  79 108 144 180 224 274 325
#     4   9  18  34  55  77 103 137 178 221 267 319
#     4  10  20  33  53  78 109 143 179 223 269 321
#
# _framework density 18.094124999999998
#
# number of rings (size 3 to 8) (size 9 to 14) (size 15 to 20)
#    0.000    2.250    1.250    3.375    0.000    5.500 
#    0.000    0.625    0.000    3.750    0.000    3.500 
#    0.000    0.000    0.000    0.000    0.000    0.000 
#
# Total GULP energy -793461.335464 kJ/mol
# GULP energy per Si atom -12397.833367 kJ/mol
# Density = 1.805294 g / cm^3
# Si number density = 18.094125 Si / 1000 Ang^3
#
#
#
# Elastic Constant Matrix: (Units=GPa)
#
#
# Indices 1 2 3 4 5 6 
#
# 1 112.6827 45.4559 67.7845 0.0000 0.0000 0.0000
# 2 45.4559 69.5342 56.0233 0.0000 0.0000 0.0000
# 3 67.7845 56.0233 149.2436 0.0000 0.0000 0.0000
# 4 0.0000 0.0000 0.0000 23.1501 0.0000 0.0000
# 5 0.0000 0.0000 0.0000 0.0000 34.7525 0.0000
# 6 0.0000 0.0000 0.0000 0.0000 0.0000 13.3215
#
#
#
# Elastic Compliance Matrix: (Units=1/GPa)
#
#
# Indices 1 2 3 4 5 6 
#
# 1 0.013580 -0.005602 -0.004065 0.000000 0.000000 0.000000
# 2 -0.005602 0.022928 -0.006062 0.000000 0.000000 0.000000
# 3 -0.004065 -0.006062 0.010822 0.000000 0.000000 0.000000
# 4 0.000000 0.000000 0.000000 0.043196 0.000000 0.000000
# 5 0.000000 0.000000 0.000000 0.000000 0.028775 0.000000
# 6 0.000000 0.000000 0.000000 0.000000 0.000000 0.075067
#
#
# Mechanical properties :
#
#
# Convention : Reuss Voigt Hill
#
# Bulk Modulus (GPa) = 63.00663 74.44311 68.72487
# Shear Modulus (GPa) = 21.63407 25.05795 23.34601
#
# Velocity S-wave (km/s) = 3.46156 3.72542 3.59591
# Velocity P-wave (km/s) = 7.13258 7.72893 7.43674
#
# Compressibility (1/GPa) = 0.01587135
#
# Stress axis : x y z
#
# Youngs Moduli (GPa) = 73.64024 43.61458 92.40258
#
# Poissons Ratio (x) = 0.24435 0.37558
# Poissons Ratio (y) = 0.41256 0.56017
# Poissons Ratio (z) = 0.29932 0.26440
#
# Static dielectric constant tensor:
#      x y z
#    x 3.494010 0.000000 0.000000 
#    y 0.000000 2.995190 0.000000 
#    z 0.000000 0.000000 3.485520 
# 
# 
# High freq. dielectric constant tensor:
#      x y z
#    x 1.708630 0.000000 0.000000 
#    y 0.000000 1.656300 0.000000 
#    z 0.000000 0.000000 1.712310 
# 
# From -- ./inp_files/26792.got.cif
#   From: 2010.03.12/outbox.cif.g09.slc.cpg/sg53_14_cif.got.tgz:26792.got - 2010.04.16 14:36:59.
