data_PCOD8219893
_publ_section_title
;
Structure prediction by ZEFSAII (Michael W. Deem and Ramdas Pophale) SiO2 
 PCOD8219893
Probable space group: P M N A
;
_chemical_formula_sum "Si O2"
_cell_formula_units_Z 64
_cell_length_a 9.141218
_cell_length_b 21.391238
_cell_length_c 17.744692
_cell_angle_alpha 90.000000
_cell_angle_beta 90.000000
_cell_angle_gamma 90.000000
_cell_volume 3469.832028
_symmetry_space_group_name_H-M "P M N A"
_symmetry_group_IT_number 53
_symmetry_cell_setting 'orthorhombic'
loop_
_space_group_symop_operation_xyz
x,y,z
1/2-x,-y,1/2+z
x,-y,-z
1/2-x,y,1/2-z
-x,-y,-z
1/2+x,y,1/2-z
-x,y,z
1/2+x,-y,1/2+z
loop_
_atom_site_type_symbol
_atom_site_label
_atom_site_fract_x
_atom_site_fract_y
_atom_site_fract_z
Si Si1 0.328574 0.065898 0.965734
Si Si2 0.830142 0.506399 0.325193
Si Si3 0.669075 0.608902 0.933392
Si Si4 0.330130 0.722654 0.828464
Si Si5 0.333046 0.246067 0.591166
Si Si6 0.672733 0.123068 0.672859
Si Si7 0.831294 0.809040 0.542623
Si Si8 0.670254 0.613422 0.409339
O O1 0.500000 0.067151 0.944927
O O2 0.234372 0.077069 0.891103
O O3 0.288855 0.118764 0.028141
O O4 0.280742 0.000000 0.000000
O O5 0.750000 0.482307 0.250000
O O6 0.808727 0.456044 0.390509
O O7 0.758393 0.570994 0.351361
O O8 0.000000 0.517677 0.307197
O O9 0.500000 0.618234 0.957301
O O10 0.722693 0.664631 0.879244
O O11 0.769172 0.606446 0.006610
O O12 0.250000 0.723190 0.750000
O O13 0.500000 0.715687 0.810671
O O14 0.293341 0.787562 0.872291
O O15 0.500000 0.233697 0.569818
O O16 0.284068 0.194826 0.653113
O O17 0.246314 0.238071 0.514100
O O18 0.307609 0.315929 0.621434
O O19 0.750000 0.104212 0.750000
O O20 0.500000 0.113242 0.680635
O O21 0.000000 0.797851 0.526428
O O22 0.500000 0.594564 0.409886
#
# Coordination Sequence:
#
# PCOD8219893 Si02
#       8
#     8   8   8   8   8   8   8   8
#     4   9  18  34  57  83 111 146 185 224 268 320
#     4  11  24  40  56  75 105 141 180 225 274 324
#     4  10  21  38  57  78 104 138 179 224 271 325
#     4  10  20  33  52  78 106 136 175 219 269 321
#     4   9  19  34  53  79 107 137 175 221 267 319
#     4  10  20  35  55  81 113 145 184 227 271 319
#     4   9  17  32  54  77 105 140 177 217 263 319
#     4  11  22  36  57  83 109 139 178 222 272 328
#
# _framework density 18.444697000000001
#
# number of rings (size 3 to 8) (size 9 to 14) (size 15 to 20)
#    0.000    2.125    1.250    1.875    0.000    5.250 
#    0.000    1.875    0.000    1.500    0.000    0.000 
#    0.000    0.000    0.000    0.000    0.000    0.000 
#
# Total GULP energy -793658.959457 kJ/mol
# GULP energy per Si atom -12400.921242 kJ/mol
# Density = 1.840272 g / cm^3
# Si number density = 18.444697 Si / 1000 Ang^3
#
#
#
# Elastic Constant Matrix: (Units=GPa)
#
#
# Indices 1 2 3 4 5 6 
#
# 1 76.9449 36.8405 42.7753 0.0000 0.0000 0.0000
# 2 36.8405 98.7858 32.1077 0.0000 0.0000 0.0000
# 3 42.7753 32.1077 84.1025 0.0000 0.0000 0.0000
# 4 0.0000 0.0000 0.0000 18.3591 0.0000 0.0000
# 5 0.0000 0.0000 0.0000 0.0000 35.4830 0.0000
# 6 0.0000 0.0000 0.0000 0.0000 0.0000 24.0484
#
#
#
# Elastic Compliance Matrix: (Units=1/GPa)
#
#
# Indices 1 2 3 4 5 6 
#
# 1 0.019870 -0.004710 -0.008308 0.000000 0.000000 0.000000
# 2 -0.004710 0.012673 -0.002443 0.000000 0.000000 0.000000
# 3 -0.008308 -0.002443 0.017048 0.000000 0.000000 0.000000
# 4 0.000000 0.000000 0.000000 0.054469 0.000000 0.000000
# 5 0.000000 0.000000 0.000000 0.000000 0.028183 0.000000
# 6 0.000000 0.000000 0.000000 0.000000 0.000000 0.041583
#
#
# Mechanical properties :
#
#
# Convention : Reuss Voigt Hill
#
# Bulk Modulus (GPa) = 53.56082 53.69780 53.62931
# Shear Modulus (GPa) = 23.69999 25.45206 24.57603
#
# Velocity S-wave (km/s) = 3.58847 3.71875 3.65419
# Velocity P-wave (km/s) = 6.80229 6.90035 6.85149
#
# Compressibility (1/GPa) = 0.01867036
#
# Stress axis : x y z
#
# Youngs Moduli (GPa) = 50.32738 78.90573 58.65677
#
# Poissons Ratio (x) = 0.37164 0.48732
# Poissons Ratio (y) = 0.23704 0.14329
# Poissons Ratio (z) = 0.41812 0.19275
#
# Static dielectric constant tensor:
#      x y z
#    x 3.424330 0.000000 0.000000 
#    y 0.000000 3.588090 0.000000 
#    z 0.000000 0.000000 3.320660 
# 
# 
# High freq. dielectric constant tensor:
#      x y z
#    x 1.718640 0.000000 0.000000 
#    y 0.000000 1.716550 0.000000 
#    z 0.000000 0.000000 1.708020 
# 
# From -- ./inp_files/20900.got.cif
#   From: 2010.03.12/outbox.cif.g09.slc.cpg/sg53_11_cif.got.tgz:20900.got - 2010.04.16 14:36:59.
