data_PCOD8219121
_publ_section_title
;
Structure prediction by ZEFSAII (Michael W. Deem and Ramdas Pophale) SiO2 
 PCOD8219121
Probable space group: P M N A
;
_chemical_formula_sum "Si O2"
_cell_formula_units_Z 56
_cell_length_a 8.868720
_cell_length_b 20.760291
_cell_length_c 15.428349
_cell_angle_alpha 90.000000
_cell_angle_beta 90.000000
_cell_angle_gamma 90.000000
_cell_volume 2840.624542
_symmetry_space_group_name_H-M "P M N A"
_symmetry_group_IT_number 53
_symmetry_cell_setting 'orthorhombic'
loop_
_space_group_symop_operation_xyz
x,y,z
1/2-x,-y,1/2+z
x,-y,-z
1/2-x,y,1/2-z
-x,-y,-z
1/2+x,y,1/2-z
-x,y,z
1/2+x,-y,1/2+z
loop_
_atom_site_type_symbol
_atom_site_label
_atom_site_fract_x
_atom_site_fract_y
_atom_site_fract_z
Si Si1 0.825360 0.146095 0.485913
Si Si2 0.823186 0.085142 0.664364
Si Si3 0.322798 0.371848 0.338922
Si Si4 0.176867 0.294031 0.494364
Si Si5 0.331173 0.967299 0.593113
Si Si6 0.820162 0.353868 0.840508
Si Si7 0.323724 0.490428 0.595197
O O1 0.770264 0.127883 0.582719
O O2 0.792744 0.220500 0.467849
O O3 0.736776 0.104559 0.414052
O O4 0.000000 0.128399 0.476699
O O5 0.750000 0.116525 0.750000
O O6 0.000000 0.085751 0.675629
O O7 0.767847 0.011221 0.656623
O O8 0.250000 0.346049 0.250000
O O9 0.500000 0.356914 0.339717
O O10 0.246311 0.337860 0.419917
O O11 0.288908 0.447978 0.345475
O O12 0.260061 0.307163 0.584638
O O13 0.000000 0.308433 0.504466
O O14 0.500000 0.962419 0.630305
O O15 0.328217 0.000000 0.500000
O O16 0.750000 0.330507 0.750000
O O17 0.758969 0.426289 0.859726
O O18 0.000000 0.349784 0.836036
O O19 0.249471 0.500000 0.500000
O O20 0.500000 0.479721 0.581985
#
# Coordination Sequence:
#
# PCOD8219121 Si02
#       7
#     8   8   8   8   8   8   8
#     4   9  20  37  56  77 108 148 186 227 274 328
#     4  10  19  33  54  81 112 144 179 223 274 325
#     4  11  22  39  62  86 114 149 191 241 297 350
#     4  11  23  40  59  84 117 155 199 241 287 345
#     4   9  17  31  53  80 106 134 172 215 260 315
#     4  11  22  38  59  84 117 154 193 240 293 350
#     4   9  17  34  59  85 113 146 187 238 294 351
#
# _framework density 19.713975999999999
#
# number of rings (size 3 to 8) (size 9 to 14) (size 15 to 20)
#    0.000    2.000    1.429    2.571    0.000    4.000 
#    0.000    5.000    0.000    3.429    0.000    0.000 
#    0.000    0.000    0.000    0.000    0.000    0.000 
#
# Total GULP energy -694470.222070 kJ/mol
# GULP energy per Si atom -12401.253966 kJ/mol
# Density = 1.966911 g / cm^3
# Si number density = 19.713976 Si / 1000 Ang^3
#
#
#
# Elastic Constant Matrix: (Units=GPa)
#
#
# Indices 1 2 3 4 5 6 
#
# 1 83.2424 25.2552 22.0966 0.0000 0.0000 0.0000
# 2 25.2552 59.2707 -8.2513 0.0000 0.0000 0.0000
# 3 22.0966 -8.2513 71.6167 0.0000 0.0000 0.0000
# 4 0.0000 0.0000 0.0000 97.7453 0.0000 0.0000
# 5 0.0000 0.0000 0.0000 0.0000 34.0064 0.0000
# 6 0.0000 0.0000 0.0000 0.0000 0.0000 26.4268
#
#
#
# Elastic Compliance Matrix: (Units=1/GPa)
#
#
# Indices 1 2 3 4 5 6 
#
# 1 0.015830 -0.007546 -0.005754 0.000000 0.000000 0.000000
# 2 -0.007546 0.020744 0.004718 0.000000 0.000000 0.000000
# 3 -0.005754 0.004718 0.016282 0.000000 0.000000 0.000000
# 4 0.000000 0.000000 0.000000 0.010231 0.000000 0.000000
# 5 0.000000 0.000000 0.000000 0.000000 0.029406 0.000000
# 6 0.000000 0.000000 0.000000 0.000000 0.000000 0.037840
#
#
# Mechanical properties :
#
#
# Convention : Reuss Voigt Hill
#
# Bulk Modulus (GPa) = 28.01660 32.48120 30.24890
# Shear Modulus (GPa) = 31.36894 43.30433 37.33663
#
# Velocity S-wave (km/s) = 3.99332 4.69191 4.35664
# Velocity P-wave (km/s) = 5.95856 6.77230 6.37842
#
# Compressibility (1/GPa) = 0.03569313
#
# Stress axis : x y z
#
# Youngs Moduli (GPa) = 63.17199 48.20685 61.41740
#
# Poissons Ratio (x) = 0.36377 0.35337
# Poissons Ratio (y) = 0.47670 -0.28978
# Poissons Ratio (z) = 0.36346 -0.22745
#
# Static dielectric constant tensor:
#      x y z
#    x 3.535580 0.000000 0.000000 
#    y 0.000000 3.570030 0.000000 
#    z 0.000000 0.000000 3.580660 
# 
# 
# High freq. dielectric constant tensor:
#      x y z
#    x 1.764810 0.000000 0.000000 
#    y 0.000000 1.760480 0.000000 
#    z 0.000000 0.000000 1.765180 
# 
# From -- ./inp_files/20596.got.cif
#   From: 2010.03.12/outbox.cif.g09.slc.cpg/sg53_11_cif.got.tgz:20596.got - 2010.04.16 14:36:59.
