data_PCOD8219090
_publ_section_title
;
Structure prediction by ZEFSAII (Michael W. Deem and Ramdas Pophale) SiO2 
 PCOD8219090
Probable space group: P M N A
;
_chemical_formula_sum "Si O2"
_cell_formula_units_Z 56
_cell_length_a 9.154952
_cell_length_b 18.994984
_cell_length_c 18.574969
_cell_angle_alpha 90.000000
_cell_angle_beta 90.000000
_cell_angle_gamma 90.000000
_cell_volume 3230.153057
_symmetry_space_group_name_H-M "P M N A"
_symmetry_group_IT_number 53
_symmetry_cell_setting 'orthorhombic'
loop_
_space_group_symop_operation_xyz
x,y,z
1/2-x,-y,1/2+z
x,-y,-z
1/2-x,y,1/2-z
-x,-y,-z
1/2+x,y,1/2-z
-x,y,z
1/2+x,-y,1/2+z
loop_
_atom_site_type_symbol
_atom_site_label
_atom_site_fract_x
_atom_site_fract_y
_atom_site_fract_z
Si Si1 0.824997 0.440849 0.828878
Si Si2 0.329275 0.969921 0.679413
Si Si3 0.331216 0.131075 0.680907
Si Si4 0.333600 0.067565 0.045612
Si Si5 0.831954 0.642349 0.454064
Si Si6 0.162720 0.195556 0.558300
Si Si7 0.341069 0.556923 0.561490
O O1 0.750000 0.435860 0.750000
O O2 0.759029 0.382110 0.883481
O O3 0.791005 0.517605 0.864576
O O4 0.000000 0.428879 0.821916
O O5 0.250000 0.941109 0.750000
O O6 0.500000 0.959556 0.688966
O O7 0.284639 0.050918 0.665053
O O8 0.271556 0.924266 0.613524
O O9 0.250000 0.161189 0.750000
O O10 0.500000 0.137932 0.696015
O O11 0.286759 0.180405 0.615849
O O12 0.500000 0.054581 0.070419
O O13 0.314931 0.141598 0.006498
O O14 0.280289 0.000000 0.000000
O O15 0.815561 0.725160 0.467165
O O16 0.776903 0.611736 0.530898
O O17 0.000000 0.619698 0.442333
O O18 0.000000 0.184737 0.591166
O O19 0.361465 0.500000 0.500000
O O20 0.500000 0.593333 0.574190
#
# Coordination Sequence:
#
# PCOD8219090 Si02
#       7
#     8   8   8   8   8   8   8
#     4  10  20  34  54  80 108 137 170 207 247 293
#     4  10  20  33  51  74  98 124 162 211 262 314
#     4  10  20  32  48  69  96 130 166 206 253 307
#     4  10  19  33  54  74  98 133 172 219 266 307
#     4  10  20  33  51  75 105 139 173 208 248 303
#     4  10  21  35  50  73 103 136 173 211 257 307
#     4   8  16  32  52  74 101 132 167 206 243 288
#
# _framework density 17.336639000000002
#
# number of rings (size 3 to 8) (size 9 to 14) (size 15 to 20)
#    0.000    2.286    1.429    2.571    0.000    6.857 
#    0.000    0.000    0.000    0.857    0.000    2.000 
#    0.000    0.000    0.000    0.000    0.000    0.000 
#
# Total GULP energy -694140.745894 kJ/mol
# GULP energy per Si atom -12395.370462 kJ/mol
# Density = 1.729718 g / cm^3
# Si number density = 17.336639 Si / 1000 Ang^3
#
#
#
# Elastic Constant Matrix: (Units=GPa)
#
#
# Indices 1 2 3 4 5 6 
#
# 1 94.7626 46.1965 54.9695 0.0000 0.0000 0.0000
# 2 46.1965 80.6914 51.5800 0.0000 0.0000 0.0000
# 3 54.9695 51.5800 97.1517 0.0000 0.0000 0.0000
# 4 0.0000 0.0000 0.0000 19.2158 0.0000 0.0000
# 5 0.0000 0.0000 0.0000 0.0000 33.2471 0.0000
# 6 0.0000 0.0000 0.0000 0.0000 0.0000 24.7313
#
#
#
# Elastic Compliance Matrix: (Units=1/GPa)
#
#
# Indices 1 2 3 4 5 6 
#
# 1 0.017173 -0.005480 -0.006807 0.000000 0.000000 0.000000
# 2 -0.005480 0.020508 -0.007788 0.000000 0.000000 0.000000
# 3 -0.006807 -0.007788 0.018279 0.000000 0.000000 0.000000
# 4 0.000000 0.000000 0.000000 0.052040 0.000000 0.000000
# 5 0.000000 0.000000 0.000000 0.000000 0.030078 0.000000
# 6 0.000000 0.000000 0.000000 0.000000 0.000000 0.040435
#
#
# Mechanical properties :
#
#
# Convention : Reuss Voigt Hill
#
# Bulk Modulus (GPa) = 63.24798 64.23307 63.74053
# Shear Modulus (GPa) = 22.32806 23.42949 22.87877
#
# Velocity S-wave (km/s) = 3.59264 3.68019 3.63668
# Velocity P-wave (km/s) = 7.33286 7.42895 7.38106
#
# Compressibility (1/GPa) = 0.01581078
#
# Stress axis : x y z
#
# Youngs Moduli (GPa) = 58.23117 48.76029 54.70709
#
# Poissons Ratio (x) = 0.26723 0.37239
# Poissons Ratio (y) = 0.31913 0.42603
# Poissons Ratio (z) = 0.39637 0.37972
#
# Static dielectric constant tensor:
#      x y z
#    x 3.383070 0.000000 0.000000 
#    y 0.000000 3.096730 0.000000 
#    z 0.000000 0.000000 3.371260 
# 
# 
# High freq. dielectric constant tensor:
#      x y z
#    x 1.682940 0.000000 0.000000 
#    y 0.000000 1.642930 0.000000 
#    z 0.000000 0.000000 1.661170 
# 
# From -- ./inp_files/26642.got.cif
#   From: 2010.03.12/outbox.cif.g09.slc.cpg/sg53_14_cif.got.tgz:26642.got - 2010.04.16 14:36:59.
