data_PCOD8219154
_publ_section_title
;
Structure prediction by ZEFSAII (Michael W. Deem and Ramdas Pophale) SiO2 
 PCOD8219154
Probable space group: P M N A
;
_chemical_formula_sum "Si O2"
_cell_formula_units_Z 56
_cell_length_a 16.669418
_cell_length_b 31.639537
_cell_length_c 5.098417
_cell_angle_alpha 90.000000
_cell_angle_beta 90.000000
_cell_angle_gamma 90.000000
_cell_volume 2688.969710
_symmetry_space_group_name_H-M "P M N A"
_symmetry_group_IT_number 53
_symmetry_cell_setting 'orthorhombic'
loop_
_space_group_symop_operation_xyz
x,y,z
1/2-x,-y,1/2+z
x,-y,-z
1/2-x,y,1/2-z
-x,-y,-z
1/2+x,y,1/2-z
-x,y,z
1/2+x,-y,1/2+z
loop_
_atom_site_type_symbol
_atom_site_label
_atom_site_fract_x
_atom_site_fract_y
_atom_site_fract_z
Si Si1 0.904585 0.677523 0.985103
Si Si2 0.093015 0.900681 0.506757
Si Si3 0.406840 0.770811 0.644347
Si Si4 0.339998 0.812672 0.152954
Si Si5 0.405028 0.372057 0.984915
Si Si6 0.092550 0.953478 0.992144
Si Si7 0.196043 0.452376 0.500805
O O1 0.874706 0.725677 0.959342
O O2 0.871541 0.650590 0.742759
O O3 0.000000 0.677167 0.992231
O O4 0.869518 0.655262 0.244232
O O5 0.146065 0.859974 0.446912
O O6 0.128955 0.922757 0.768418
O O7 0.000000 0.886838 0.540549
O O8 0.104332 0.933832 0.275465
O O9 0.500000 0.769462 0.725038
O O10 0.396225 0.803721 0.405001
O O11 0.357760 0.782223 0.906563
O O12 0.250000 0.805939 0.250000
O O13 0.500000 0.372395 0.974170
O O14 0.378107 0.420567 0.984129
O O15 0.000000 0.959086 0.913160
O O16 0.133386 0.000000 0.000000
O O17 0.160952 0.500000 0.500000
O O18 0.250000 0.443301 0.250000
O O19 0.250000 0.444343 0.750000
#
# Coordination Sequence:
#
# PCOD8219154 Si02
#       7
#     8   8   8   8   8   8   8
#     4   9  19  35  58  85 111 142 183 236 288 337
#     4  10  19  33  55  81 110 149 192 226 273 344
#     4  11  22  41  65  85 112 156 204 241 288 358
#     4  12  25  40  58  87 124 156 193 248 303 342
#     4  10  19  35  58  84 111 141 184 233 283 337
#     4   9  17  30  52  83 113 139 180 239 283 318
#     4  10  21  37  55  78 112 151 188 227 276 333
#
# _framework density 20.82582
#
# number of rings (size 3 to 8) (size 9 to 14) (size 15 to 20)
#    0.000    1.857    0.000    4.714    0.000    5.429 
#    0.000    7.143    0.000    6.857    0.000    0.000 
#    0.000    0.000    0.000    0.000    0.000    0.143 
#
# Total GULP energy -694474.878442 kJ/mol
# GULP energy per Si atom -12401.337115 kJ/mol
# Density = 2.077842 g / cm^3
# Si number density = 20.825820 Si / 1000 Ang^3
#
#
#
# Elastic Constant Matrix: (Units=GPa)
#
#
# Indices 1 2 3 4 5 6 
#
# 1 39.2863 33.9727 22.7152 0.0000 0.0000 0.0000
# 2 33.9727 124.9624 29.7804 0.0000 0.0000 0.0000
# 3 22.7152 29.7804 130.5716 0.0000 0.0000 0.0000
# 4 0.0000 0.0000 0.0000 43.4480 0.0000 0.0000
# 5 0.0000 0.0000 0.0000 0.0000 52.5317 0.0000
# 6 0.0000 0.0000 0.0000 0.0000 0.0000 15.6041
#
#
#
# Elastic Compliance Matrix: (Units=1/GPa)
#
#
# Indices 1 2 3 4 5 6 
#
# 1 0.035311 -0.008603 -0.004181 0.000000 0.000000 0.000000
# 2 -0.008603 0.010559 -0.000911 0.000000 0.000000 0.000000
# 3 -0.004181 -0.000911 0.008594 0.000000 0.000000 0.000000
# 4 0.000000 0.000000 0.000000 0.023016 0.000000 0.000000
# 5 0.000000 0.000000 0.000000 0.000000 0.019036 0.000000
# 6 0.000000 0.000000 0.000000 0.000000 0.000000 0.064086
#
#
# Mechanical properties :
#
#
# Convention : Reuss Voigt Hill
#
# Bulk Modulus (GPa) = 36.93813 51.97300 44.45556
# Shear Modulus (GPa) = 25.37852 36.20690 30.79271
#
# Velocity S-wave (km/s) = 3.49464 4.17413 3.84941
# Velocity P-wave (km/s) = 5.83597 6.94560 6.41482
#
# Compressibility (1/GPa) = 0.02707230
#
# Stress axis : x y z
#
# Youngs Moduli (GPa) = 28.31959 94.70964 116.36260
#
# Poissons Ratio (x) = 0.81483 0.48648
# Poissons Ratio (y) = 0.24365 0.10606
# Poissons Ratio (z) = 0.11840 0.08632
#
# Static dielectric constant tensor:
#      x y z
#    x 3.280330 0.000000 0.000000 
#    y 0.000000 3.809750 0.000000 
#    z 0.000000 0.000000 4.090970 
# 
# 
# High freq. dielectric constant tensor:
#      x y z
#    x 1.770050 0.000000 0.000000 
#    y 0.000000 1.829410 0.000000 
#    z 0.000000 0.000000 1.839120 
# 
# From -- ./inp_files/1477.got.cif
#   From: 2010.03.12/outbox.cif.g09.slc.cpg/sg53_1_cif.got.tgz:1477.got - 2010.04.16 14:36:59.
