data_PCOD8219118
_publ_section_title
;
Structure prediction by ZEFSAII (Michael W. Deem and Ramdas Pophale) SiO2 
 PCOD8219118
Probable space group: P M N A
;
_chemical_formula_sum "Si O2"
_cell_formula_units_Z 56
_cell_length_a 14.246008
_cell_length_b 9.059442
_cell_length_c 22.688133
_cell_angle_alpha 90.000000
_cell_angle_beta 90.000000
_cell_angle_gamma 90.000000
_cell_volume 2928.150483
_symmetry_space_group_name_H-M "P M N A"
_symmetry_group_IT_number 53
_symmetry_cell_setting 'orthorhombic'
loop_
_space_group_symop_operation_xyz
x,y,z
1/2-x,-y,1/2+z
x,-y,-z
1/2-x,y,1/2-z
-x,-y,-z
1/2+x,y,1/2-z
-x,y,z
1/2+x,-y,1/2+z
loop_
_atom_site_type_symbol
_atom_site_label
_atom_site_fract_x
_atom_site_fract_y
_atom_site_fract_z
Si Si1 0.600878 0.840439 0.027380
Si Si2 0.108286 0.670587 0.113041
Si Si3 0.697528 0.176188 0.507131
Si Si4 0.607206 0.865241 0.282342
Si Si5 0.609970 0.334194 0.398837
Si Si6 0.606657 0.049567 0.845382
Si Si7 0.228984 0.861867 0.814710
O O1 0.500000 0.756194 0.016540
O O2 0.693827 0.767450 0.998679
O O3 0.620663 0.849988 0.097398
O O4 0.588455 0.000000 0.000000
O O5 0.165159 0.784165 0.072600
O O6 0.126655 0.713367 0.181839
O O7 0.140483 0.504497 0.100052
O O8 0.000000 0.689012 0.096503
O O9 0.631094 0.259790 0.461425
O O10 0.690682 0.000000 0.500000
O O11 0.500000 0.913645 0.290155
O O12 0.631828 0.850982 0.212697
O O13 0.667582 0.991582 0.312326
O O14 0.500000 0.315819 0.383983
O O15 0.673450 0.262490 0.349004
O O16 0.500000 0.990034 0.842033
O O17 0.673854 0.905533 0.847638
O O18 0.250000 0.797792 0.750000
#
# Coordination Sequence:
#
# PCOD8219118 Si02
#       7
#     8   8   8   8   8   8   8
#     4   9  17  30  50  78 110 139 173 221 274 323
#     4  10  21  36  54  79 111 147 181 221 280 337
#     4  11  21  34  56  83 108 140 185 232 276 326
#     4   9  17  31  53  79 106 136 178 227 270 320
#     4  11  23  38  55  77 111 148 180 220 274 335
#     4   9  17  30  51  79 107 137 176 225 274 317
#     4  10  19  33  54  81 107 137 176 219 264 314
#
# _framework density 19.124701000000002
#
# number of rings (size 3 to 8) (size 9 to 14) (size 15 to 20)
#    0.000    2.143    0.000    4.714    0.000    4.000 
#    0.000    3.571    0.000    2.571    0.000    0.000 
#    0.000    0.000    0.000    0.000    0.000    0.000 
#
# Total GULP energy -694042.297468 kJ/mol
# GULP energy per Si atom -12393.612455 kJ/mol
# Density = 1.908117 g / cm^3
# Si number density = 19.124701 Si / 1000 Ang^3
#
#
#
# Elastic Constant Matrix: (Units=GPa)
#
#
# Indices 1 2 3 4 5 6 
#
# 1 93.5627 40.1748 26.5530 0.0000 0.0000 0.0000
# 2 40.1748 82.8935 39.2232 0.0000 0.0000 0.0000
# 3 26.5530 39.2232 89.4339 0.0000 0.0000 0.0000
# 4 0.0000 0.0000 0.0000 23.8478 0.0000 0.0000
# 5 0.0000 0.0000 0.0000 0.0000 33.3370 0.0000
# 6 0.0000 0.0000 0.0000 0.0000 0.0000 14.9615
#
#
#
# Elastic Compliance Matrix: (Units=1/GPa)
#
#
# Indices 1 2 3 4 5 6 
#
# 1 0.013645 -0.005926 -0.001452 0.000000 0.000000 0.000000
# 2 -0.005926 0.017796 -0.006046 0.000000 0.000000 0.000000
# 3 -0.001452 -0.006046 0.014264 0.000000 0.000000 0.000000
# 4 0.000000 0.000000 0.000000 0.041933 0.000000 0.000000
# 5 0.000000 0.000000 0.000000 0.000000 0.029997 0.000000
# 6 0.000000 0.000000 0.000000 0.000000 0.000000 0.066838
#
#
# Mechanical properties :
#
#
# Convention : Reuss Voigt Hill
#
# Bulk Modulus (GPa) = 53.02859 53.08803 53.05831
# Shear Modulus (GPa) = 22.97737 25.09186 24.03462
#
# Velocity S-wave (km/s) = 3.46995 3.62610 3.54889
# Velocity P-wave (km/s) = 6.62134 6.73429 6.67805
#
# Compressibility (1/GPa) = 0.01885775
#
# Stress axis : x y z
#
# Youngs Moduli (GPa) = 73.28888 56.19162 70.10650
#
# Poissons Ratio (x) = 0.33298 0.10181
# Poissons Ratio (y) = 0.43430 0.42383
# Poissons Ratio (z) = 0.10643 0.33971
#
# Static dielectric constant tensor:
#      x y z
#    x 4.000990 0.000000 0.000000 
#    y 0.000000 3.133850 0.000000 
#    z 0.000000 0.000000 3.737300 
# 
# 
# High freq. dielectric constant tensor:
#      x y z
#    x 1.769350 0.000000 0.000000 
#    y 0.000000 1.688750 0.000000 
#    z 0.000000 0.000000 1.757160 
# 
# From -- ./inp_files/32434.got.cif
#   From: 2010.03.12/outbox.cif.g09.slc.cpg/sg53_17_cif.got.tgz:32434.got - 2010.04.16 14:36:59.
