data_PCOD8219091
_publ_section_title
;
Structure prediction by ZEFSAII (Michael W. Deem and Ramdas Pophale) SiO2 
 PCOD8219091
Probable space group: P M N A
;
_chemical_formula_sum "Si O2"
_cell_formula_units_Z 40
_cell_length_a 8.533002
_cell_length_b 11.523687
_cell_length_c 21.832983
_cell_angle_alpha 90.000000
_cell_angle_beta 90.000000
_cell_angle_gamma 90.000000
_cell_volume 2146.873117
_symmetry_space_group_name_H-M "P M N A"
_symmetry_group_IT_number 53
_symmetry_cell_setting 'orthorhombic'
loop_
_space_group_symop_operation_xyz
x,y,z
1/2-x,-y,1/2+z
x,-y,-z
1/2-x,y,1/2-z
-x,-y,-z
1/2+x,y,1/2-z
-x,y,z
1/2+x,-y,1/2+z
loop_
_atom_site_type_symbol
_atom_site_label
_atom_site_fract_x
_atom_site_fract_y
_atom_site_fract_z
Si Si1 0.817415 0.836734 0.459295
Si Si2 0.180278 0.062707 0.078503
Si Si3 0.186843 0.575002 0.441989
Si Si4 0.681746 0.469051 0.184860
Si Si5 0.182969 0.800701 0.685935
O O1 0.789764 0.873977 0.529131
O O2 0.753714 0.706726 0.449392
O O3 0.000000 0.842787 0.443718
O O4 0.725553 0.926675 0.415543
O O5 0.210738 0.124887 0.141534
O O6 0.000000 0.074247 0.058842
O O7 0.251561 0.500000 0.500000
O O8 0.252791 0.530610 0.376024
O O9 0.000000 0.566510 0.442267
O O10 0.750000 0.514156 0.250000
O O11 0.500000 0.496039 0.188794
O O12 0.717469 0.334122 0.175315
O O13 0.250000 0.841438 0.750000
O O14 0.000000 0.829746 0.678783
#
# Coordination Sequence:
#
# PCOD8219091 Si02
#       5
#     8   8   8   8   8
#     4  10  19  33  54  76 100 133 172 211 256 305
#     4  11  21  34  51  73 104 135 168 211 258 305
#     4   9  17  31  53  79 103 131 171 215 256 304
#     4   9  18  33  53  77 105 135 167 207 255 308
#     4  10  19  33  54  78 103 132 169 209 252 302
#
# _framework density 18.631748999999999
#
# number of rings (size 3 to 8) (size 9 to 14) (size 15 to 20)
#    0.000    2.200    0.000    5.400    0.000    4.000 
#    0.000    3.000    0.000    6.600    0.000    0.000 
#    0.000    0.000    0.000    0.000    0.000    0.000 
#
# Total GULP energy -495872.825683 kJ/mol
# GULP energy per Si atom -12396.820642 kJ/mol
# Density = 1.858934 g / cm^3
# Si number density = 18.631749 Si / 1000 Ang^3
#
#
#
# Elastic Constant Matrix: (Units=GPa)
#
#
# Indices 1 2 3 4 5 6 
#
# 1 41.2438 26.2385 17.4609 0.0000 0.0000 0.0000
# 2 26.2385 103.9303 64.2252 0.0000 0.0000 0.0000
# 3 17.4609 64.2252 136.0014 0.0000 0.0000 0.0000
# 4 0.0000 0.0000 0.0000 147.7241 0.0000 0.0000
# 5 0.0000 0.0000 0.0000 0.0000 28.4740 0.0000
# 6 0.0000 0.0000 0.0000 0.0000 0.0000 16.1619
#
#
#
# Elastic Compliance Matrix: (Units=1/GPa)
#
#
# Indices 1 2 3 4 5 6 
#
# 1 0.028899 -0.007065 -0.000374 0.000000 0.000000 0.000000
# 2 -0.007065 0.015314 -0.006325 0.000000 0.000000 0.000000
# 3 -0.000374 -0.006325 0.010388 0.000000 0.000000 0.000000
# 4 0.000000 0.000000 0.000000 0.006769 0.000000 0.000000
# 5 0.000000 0.000000 0.000000 0.000000 0.035120 0.000000
# 6 0.000000 0.000000 0.000000 0.000000 0.000000 0.061874
#
#
# Mechanical properties :
#
#
# Convention : Reuss Voigt Hill
#
# Bulk Modulus (GPa) = 36.93670 55.22495 46.08082
# Shear Modulus (GPa) = 25.65222 50.02207 37.83714
#
# Velocity S-wave (km/s) = 3.71455 5.18710 4.51132
# Velocity P-wave (km/s) = 6.18586 8.09811 7.20570
#
# Compressibility (1/GPa) = 0.02707335
#
# Stress axis : x y z
#
# Youngs Moduli (GPa) = 34.60351 65.30006 96.26758
#
# Poissons Ratio (x) = 0.46133 0.03600
# Poissons Ratio (y) = 0.24446 0.60887
# Poissons Ratio (z) = 0.01294 0.41301
#
# Static dielectric constant tensor:
#      x y z
#    x 3.214540 0.000000 0.000000 
#    y 0.000000 3.543120 0.000000 
#    z 0.000000 0.000000 3.362860 
# 
# 
# High freq. dielectric constant tensor:
#      x y z
#    x 1.707520 0.000000 0.000000 
#    y 0.000000 1.719520 0.000000 
#    z 0.000000 0.000000 1.725340 
# 
# From -- ./inp_files/30347.got.cif
#   From: 2010.03.12/outbox.cif.g09.slc.cpg/sg53_16_cif.got.tgz:30347.got - 2010.04.16 14:36:59.
