data_PCOD8219100
_publ_section_title
;
Structure prediction by ZEFSAII (Michael W. Deem and Ramdas Pophale) SiO2 
 PCOD8219100
Probable space group: P M N A
;
_chemical_formula_sum "Si O2"
_cell_formula_units_Z 48
_cell_length_a 15.105794
_cell_length_b 9.285082
_cell_length_c 18.702177
_cell_angle_alpha 90.000000
_cell_angle_beta 90.000000
_cell_angle_gamma 90.000000
_cell_volume 2623.139965
_symmetry_space_group_name_H-M "P M N A"
_symmetry_group_IT_number 53
_symmetry_cell_setting 'orthorhombic'
loop_
_space_group_symop_operation_xyz
x,y,z
1/2-x,-y,1/2+z
x,-y,-z
1/2-x,y,1/2-z
-x,-y,-z
1/2+x,y,1/2-z
-x,y,z
1/2+x,-y,1/2+z
loop_
_atom_site_type_symbol
_atom_site_label
_atom_site_fract_x
_atom_site_fract_y
_atom_site_fract_z
Si Si1 0.603359 0.333179 0.833744
Si Si2 0.400703 0.829472 0.309896
Si Si3 0.657049 0.860122 0.714318
Si Si4 0.757286 0.165947 0.419156
Si Si5 0.254268 0.831858 0.081224
Si Si6 0.399980 0.335622 0.162432
O O1 0.500000 0.309762 0.851903
O O2 0.628832 0.262367 0.758434
O O3 0.661267 0.261274 0.895887
O O4 0.629647 0.499937 0.829237
O O5 0.500000 0.786860 0.334405
O O6 0.332695 0.793975 0.373155
O O7 0.402298 0.997622 0.289034
O O8 0.750000 0.904253 0.750000
O O9 0.675707 0.798281 0.634423
O O10 0.608652 0.737829 0.759843
O O11 0.729534 0.205314 0.499464
O O12 0.842686 0.258055 0.397942
O O13 0.781528 0.997971 0.410501
O O14 0.500000 0.324863 0.135444
#
# Coordination Sequence:
#
# PCOD8219100 Si02
#       6
#     8   8   8   8   8   8
#     4  10  21  34  52  78 105 134 171 211 255 302
#     4  10  19  33  54  78 101 132 172 212 253 300
#     4   9  17  32  53  75 101 134 169 207 252 302
#     4   9  20  35  51  74 103 135 171 205 251 306
#     4  10  20  36  53  74 106 138 168 209 254 302
#     4  10  20  34  52  77 104 131 168 214 255 300
#
# _framework density 18.298680999999998
#
# number of rings (size 3 to 8) (size 9 to 14) (size 15 to 20)
#    0.000    2.333    0.000    4.000    0.000    7.333 
#    0.000   10.833    0.000    0.000    0.000    5.833 
#    0.000    0.000    0.000    0.000    0.000    0.000 
#
# Total GULP energy -595253.365910 kJ/mol
# GULP energy per Si atom -12401.111790 kJ/mol
# Density = 1.825703 g / cm^3
# Si number density = 18.298681 Si / 1000 Ang^3
#
#
#
# Elastic Constant Matrix: (Units=GPa)
#
#
# Indices 1 2 3 4 5 6 
#
# 1 63.4533 23.8665 32.6685 0.0000 0.0000 0.0000
# 2 23.8665 67.6159 32.5180 0.0000 0.0000 0.0000
# 3 32.6685 32.5180 121.6115 0.0000 0.0000 0.0000
# 4 0.0000 0.0000 0.0000 8.4348 0.0000 0.0000
# 5 0.0000 0.0000 0.0000 0.0000 18.0322 0.0000
# 6 0.0000 0.0000 0.0000 0.0000 0.0000 26.0933
#
#
#
# Elastic Compliance Matrix: (Units=1/GPa)
#
#
# Indices 1 2 3 4 5 6 
#
# 1 0.019688 -0.005056 -0.003937 0.000000 0.000000 0.000000
# 2 -0.005056 0.018270 -0.003527 0.000000 0.000000 0.000000
# 3 -0.003937 -0.003527 0.010224 0.000000 0.000000 0.000000
# 4 0.000000 0.000000 0.000000 0.118556 0.000000 0.000000
# 5 0.000000 0.000000 0.000000 0.000000 0.055456 0.000000
# 6 0.000000 0.000000 0.000000 0.000000 0.000000 0.038324
#
#
# Mechanical properties :
#
#
# Convention : Reuss Voigt Hill
#
# Bulk Modulus (GPa) = 43.21150 47.86520 45.53835
# Shear Modulus (GPa) = 17.04896 21.42056 19.23476
#
# Velocity S-wave (km/s) = 3.05569 3.42513 3.24567
# Velocity P-wave (km/s) = 6.00962 6.46966 6.24388
#
# Compressibility (1/GPa) = 0.02314199
#
# Stress axis : x y z
#
# Youngs Moduli (GPa) = 50.79172 54.73349 97.81275
#
# Poissons Ratio (x) = 0.27674 0.38508
# Poissons Ratio (y) = 0.25681 0.34500
# Poissons Ratio (z) = 0.19996 0.19305
#
# Static dielectric constant tensor:
#      x y z
#    x 3.278540 0.000000 0.000000 
#    y 0.000000 3.347610 0.000000 
#    z 0.000000 0.000000 3.550110 
# 
# 
# High freq. dielectric constant tensor:
#      x y z
#    x 1.703700 0.000000 0.000000 
#    y 0.000000 1.705620 0.000000 
#    z 0.000000 0.000000 1.707720 
# 
# From -- ./inp_files/28306.got.cif
#   From: 2010.03.12/outbox.cif.g09.slc.cpg/sg53_15_cif.got.tgz:28306.got - 2010.04.16 14:36:59.
