data_PCOD8219556
_publ_section_title
;
Structure prediction by ZEFSAII (Michael W. Deem and Ramdas Pophale) SiO2 
 PCOD8219556
Probable space group: P M N A
;
_chemical_formula_sum "Si O2"
_cell_formula_units_Z 64
_cell_length_a 9.176766
_cell_length_b 24.381620
_cell_length_c 14.436447
_cell_angle_alpha 90.000000
_cell_angle_beta 90.000000
_cell_angle_gamma 90.000000
_cell_volume 3230.074482
_symmetry_space_group_name_H-M "P M N A"
_symmetry_group_IT_number 53
_symmetry_cell_setting 'orthorhombic'
loop_
_space_group_symop_operation_xyz
x,y,z
1/2-x,-y,1/2+z
x,-y,-z
1/2-x,y,1/2-z
-x,-y,-z
1/2+x,y,1/2-z
-x,y,z
1/2+x,-y,1/2+z
loop_
_atom_site_type_symbol
_atom_site_label
_atom_site_fract_x
_atom_site_fract_y
_atom_site_fract_z
Si Si1 0.667220 0.633760 0.159780
Si Si2 0.327833 0.408152 0.338497
Si Si3 0.333015 0.028186 0.337963
Si Si4 0.831903 0.870724 0.959753
Si Si5 0.832146 0.671756 0.536063
Si Si6 0.165818 0.511563 0.392170
Si Si7 0.828689 0.221049 0.347751
Si Si8 0.328960 0.904321 0.341076
O O1 0.750000 0.655635 0.250000
O O2 0.500000 0.632580 0.187248
O O3 0.718621 0.572900 0.130450
O O4 0.695700 0.675554 0.074397
O O5 0.250000 0.379746 0.250000
O O6 0.500000 0.403655 0.329455
O O7 0.272719 0.376167 0.428357
O O8 0.277715 0.471341 0.340894
O O9 0.250000 0.053777 0.250000
O O10 0.500000 0.026070 0.308970
O O11 0.309076 0.066626 0.426820
O O12 0.276372 0.966815 0.359487
O O13 0.728527 0.832592 0.899289
O O14 0.000000 0.852719 0.945777
O O15 0.787559 0.868625 0.068199
O O16 0.791998 0.728598 0.584571
O O17 0.000000 0.654676 0.555087
O O18 0.176458 0.500000 0.500000
O O19 0.000000 0.500942 0.357834
O O20 0.750000 0.229922 0.250000
O O21 0.000000 0.214959 0.329426
O O22 0.250000 0.879862 0.250000
O O23 0.500000 0.901635 0.323409
#
# Coordination Sequence:
#
# PCOD8219556 Si02
#       8
#     8   8   8   8   8   8   8   8
#     4  10  21  38  61  85 113 148 187 229 277 329
#     4  12  24  36  56  85 116 148 186 228 275 334
#     4   9  17  30  50  78 112 150 189 229 278 335
#     4  10  20  35  56  81 113 150 189 233 283 338
#     4  10  22  43  63  81 109 147 188 232 283 332
#     4  10  19  36  59  82 115 155 186 224 276 329
#     4  11  24  41  63  86 112 143 183 232 284 341
#     4   9  18  33  53  79 112 152 193 234 278 328
#
# _framework density 19.813783999999998
#
# number of rings (size 3 to 8) (size 9 to 14) (size 15 to 20)
#    0.000    1.875    1.250    3.000    0.000    7.750 
#    0.000    0.625    0.000    6.750    0.000    0.000 
#    0.000    0.000    0.000    0.000    0.000    0.000 
#
# Total GULP energy -793632.170157 kJ/mol
# GULP energy per Si atom -12400.502659 kJ/mol
# Density = 1.976869 g / cm^3
# Si number density = 19.813784 Si / 1000 Ang^3
#
#
#
# Elastic Constant Matrix: (Units=GPa)
#
#
# Indices 1 2 3 4 5 6 
#
# 1 90.0629 34.3587 60.2070 0.0000 0.0000 0.0000
# 2 34.3587 64.3594 40.6162 0.0000 0.0000 0.0000
# 3 60.2070 40.6162 145.3038 0.0000 0.0000 0.0000
# 4 0.0000 0.0000 0.0000 30.5268 0.0000 0.0000
# 5 0.0000 0.0000 0.0000 0.0000 36.5827 0.0000
# 6 0.0000 0.0000 0.0000 0.0000 0.0000 7.7328
#
#
#
# Elastic Compliance Matrix: (Units=1/GPa)
#
#
# Indices 1 2 3 4 5 6 
#
# 1 0.016858 -0.005575 -0.005427 0.000000 0.000000 0.000000
# 2 -0.005575 0.020709 -0.003479 0.000000 0.000000 0.000000
# 3 -0.005427 -0.003479 0.010103 0.000000 0.000000 0.000000
# 4 0.000000 0.000000 0.000000 0.032758 0.000000 0.000000
# 5 0.000000 0.000000 0.000000 0.000000 0.027335 0.000000
# 6 0.000000 0.000000 0.000000 0.000000 0.000000 0.129319
#
#
# Mechanical properties :
#
#
# Convention : Reuss Voigt Hill
#
# Bulk Modulus (GPa) = 53.44911 63.34331 58.39621
# Shear Modulus (GPa) = 18.36342 25.93807 22.15075
#
# Velocity S-wave (km/s) = 3.04764 3.62206 3.34720
# Velocity P-wave (km/s) = 6.27841 7.03784 6.66894
#
# Compressibility (1/GPa) = 0.01870939
#
# Stress axis : x y z
#
# Youngs Moduli (GPa) = 59.31898 48.28719 98.97883
#
# Poissons Ratio (x) = 0.26920 0.53714
# Poissons Ratio (y) = 0.33070 0.34433
# Poissons Ratio (z) = 0.32191 0.16798
#
# Static dielectric constant tensor:
#      x y z
#    x 3.522310 0.000000 0.000000 
#    y 0.000000 3.446320 0.000000 
#    z 0.000000 0.000000 3.794770 
# 
# 
# High freq. dielectric constant tensor:
#      x y z
#    x 1.763570 0.000000 0.000000 
#    y 0.000000 1.749370 0.000000 
#    z 0.000000 0.000000 1.786150 
# 
# From -- ./inp_files/20839.got.cif
#   From: 2010.03.12/outbox.cif.g09.slc.cpg/sg53_11_cif.got.tgz:20839.got - 2010.04.16 14:36:59.
