data_PCOD8219142
_publ_section_title
;
Structure prediction by ZEFSAII (Michael W. Deem and Ramdas Pophale) SiO2 
 PCOD8219142
Probable space group: P M N A
;
_chemical_formula_sum "Si O2"
_cell_formula_units_Z 48
_cell_length_a 15.356177
_cell_length_b 8.957202
_cell_length_c 18.172401
_cell_angle_alpha 90.000000
_cell_angle_beta 90.000000
_cell_angle_gamma 90.000000
_cell_volume 2499.584306
_symmetry_space_group_name_H-M "P M N A"
_symmetry_group_IT_number 53
_symmetry_cell_setting 'orthorhombic'
loop_
_space_group_symop_operation_xyz
x,y,z
1/2-x,-y,1/2+z
x,-y,-z
1/2-x,y,1/2-z
-x,-y,-z
1/2+x,y,1/2-z
-x,y,z
1/2+x,-y,1/2+z
loop_
_atom_site_type_symbol
_atom_site_label
_atom_site_fract_x
_atom_site_fract_y
_atom_site_fract_z
Si Si1 0.839114 0.099639 0.209343
Si Si2 0.598952 0.577267 0.686719
Si Si3 0.098167 0.426638 0.660328
Si Si4 0.731242 0.574787 0.423135
Si Si5 0.264843 0.924627 0.423036
Si Si6 0.904435 0.085782 0.660399
O O1 0.750000 0.143125 0.250000
O O2 0.885221 0.246865 0.178995
O O3 0.826001 0.990313 0.140404
O O4 0.900212 0.015636 0.267275
O O5 0.500000 0.540092 0.663039
O O6 0.615639 0.532832 0.770882
O O7 0.664338 0.485191 0.636688
O O8 0.169317 0.467357 0.598438
O O9 0.112028 0.255979 0.685985
O O10 0.000000 0.451332 0.628980
O O11 0.708822 0.500000 0.500000
O O12 0.717343 0.750304 0.430308
O O13 0.164663 0.960177 0.401874
O O14 0.287559 0.000000 0.500000
O O15 0.000000 0.066480 0.625029
#
# Coordination Sequence:
#
# PCOD8219142 Si02
#       6
#     8   8   8   8   8   8
#     4  10  19  33  55  80 107 139 178 223 268 317
#     4  11  22  36  57  82 108 140 182 228 270 317
#     4   9  19  36  58  84 111 142 179 218 266 322
#     4  11  22  37  57  79 111 148 180 221 269 320
#     4  10  21  36  54  78 107 143 180 216 266 319
#     4   9  18  34  56  81 109 139 173 215 264 320
#
# _framework density 19.203192999999999
#
# number of rings (size 3 to 8) (size 9 to 14) (size 15 to 20)
#    0.000    2.000    0.000    4.000    0.000    5.000 
#    0.000    0.833    0.000    3.500    0.000    0.000 
#    0.000    0.000    0.000    0.000    0.000    0.000 
#
# Total GULP energy -595296.523315 kJ/mol
# GULP energy per Si atom -12402.010902 kJ/mol
# Density = 1.915949 g / cm^3
# Si number density = 19.203193 Si / 1000 Ang^3
#
#
#
# Elastic Constant Matrix: (Units=GPa)
#
#
# Indices 1 2 3 4 5 6 
#
# 1 64.9662 20.5993 13.3594 0.0000 0.0000 0.0000
# 2 20.5993 93.6808 28.9783 0.0000 0.0000 0.0000
# 3 13.3594 28.9783 68.1548 0.0000 0.0000 0.0000
# 4 0.0000 0.0000 0.0000 35.7727 0.0000 0.0000
# 5 0.0000 0.0000 0.0000 0.0000 17.0080 0.0000
# 6 0.0000 0.0000 0.0000 0.0000 0.0000 27.9930
#
#
#
# Elastic Compliance Matrix: (Units=1/GPa)
#
#
# Indices 1 2 3 4 5 6 
#
# 1 0.016775 -0.003076 -0.001980 0.000000 0.000000 0.000000
# 2 -0.003076 0.012855 -0.004863 0.000000 0.000000 0.000000
# 3 -0.001980 -0.004863 0.017128 0.000000 0.000000 0.000000
# 4 0.000000 0.000000 0.000000 0.027954 0.000000 0.000000
# 5 0.000000 0.000000 0.000000 0.000000 0.058796 0.000000
# 6 0.000000 0.000000 0.000000 0.000000 0.000000 0.035723
#
#
# Mechanical properties :
#
#
# Convention : Reuss Voigt Hill
#
# Bulk Modulus (GPa) = 37.14691 39.18621 38.16656
# Shear Modulus (GPa) = 25.24696 27.07907 26.16301
#
# Velocity S-wave (km/s) = 3.62985 3.75925 3.69512
# Velocity P-wave (km/s) = 6.07897 6.26841 6.17442
#
# Compressibility (1/GPa) = 0.02692014
#
# Stress axis : x y z
#
# Youngs Moduli (GPa) = 59.61184 77.78966 58.38311
#
# Poissons Ratio (x) = 0.23929 0.11561
# Poissons Ratio (y) = 0.18337 0.28391
# Poissons Ratio (z) = 0.11805 0.37828
#
# Static dielectric constant tensor:
#      x y z
#    x 3.618980 0.000000 0.000000 
#    y 0.000000 3.545410 0.000000 
#    z 0.000000 0.000000 3.296560 
# 
# 
# High freq. dielectric constant tensor:
#      x y z
#    x 1.751460 0.000000 0.000000 
#    y 0.000000 1.756800 0.000000 
#    z 0.000000 0.000000 1.731030 
# 
# From -- ./inp_files/28262.got.cif
#   From: 2010.03.12/outbox.cif.g09.slc.cpg/sg53_15_cif.got.tgz:28262.got - 2010.04.16 14:36:59.
