data_PCOD8219728
_publ_section_title
;
Structure prediction by ZEFSAII (Michael W. Deem and Ramdas Pophale) SiO2 
 PCOD8219728
Probable space group: P M N A
;
_chemical_formula_sum "Si O2"
_cell_formula_units_Z 56
_cell_length_a 8.654130
_cell_length_b 19.058324
_cell_length_c 18.409008
_cell_angle_alpha 90.000000
_cell_angle_beta 90.000000
_cell_angle_gamma 90.000000
_cell_volume 3036.256846
_symmetry_space_group_name_H-M "P M N A"
_symmetry_group_IT_number 53
_symmetry_cell_setting 'orthorhombic'
loop_
_space_group_symop_operation_xyz
x,y,z
1/2-x,-y,1/2+z
x,-y,-z
1/2-x,y,1/2-z
-x,-y,-z
1/2+x,y,1/2-z
-x,y,z
1/2+x,-y,1/2+z
loop_
_atom_site_type_symbol
_atom_site_label
_atom_site_fract_x
_atom_site_fract_y
_atom_site_fract_z
Si Si1 0.179537 0.402122 0.921467
Si Si2 0.319985 0.220106 0.483253
Si Si3 0.816921 0.463681 0.170951
Si Si4 0.182719 0.349605 0.428523
Si Si5 0.320508 0.071976 0.530002
Si Si6 0.177473 0.728348 0.372656
Si Si7 0.319530 0.124589 0.822719
O O1 0.229957 0.474822 0.885114
O O2 0.217611 0.340967 0.862104
O O3 0.000000 0.401859 0.940990
O O4 0.270804 0.388732 0.996371
O O5 0.500000 0.234290 0.501997
O O6 0.264058 0.272247 0.419113
O O7 0.292879 0.136303 0.472460
O O8 0.206358 0.242767 0.547148
O O9 0.750000 0.480967 0.250000
O O10 0.741225 0.392934 0.140648
O O11 0.000000 0.455648 0.176290
O O12 0.000000 0.341297 0.425036
O O13 0.500000 0.060595 0.543691
O O14 0.249401 0.086898 0.607850
O O15 0.245619 0.000000 0.500000
O O16 0.222704 0.792231 0.319655
O O17 0.000000 0.706192 0.363806
O O18 0.250000 0.090106 0.750000
O O19 0.500000 0.112452 0.824891
#
# Coordination Sequence:
#
# PCOD8219728 Si02
#       7
#     8   8   8   8   8   8   8
#     4  10  20  34  53  76 102 133 170 212 257 306
#     4   9  16  29  51  76 101 128 160 200 245 293
#     4  11  24  39  53  72 100 133 171 216 267 315
#     4  11  21  34  55  78 101 132 172 214 254 302
#     4   9  18  33  54  80 108 137 169 208 254 302
#     4   9  17  29  46  70  99 129 164 203 243 293
#     4  10  20  32  48  72 103 140 176 209 249 301
#
# _framework density 18.443760999999999
#
# number of rings (size 3 to 8) (size 9 to 14) (size 15 to 20)
#    0.000    2.143    0.000    5.571    0.000    7.143 
#    0.000    2.857    0.000    0.857    0.000    4.000 
#    0.000    0.000    0.000    0.000    0.000    0.000 
#
# Total GULP energy -693939.478768 kJ/mol
# GULP energy per Si atom -12391.776407 kJ/mol
# Density = 1.840178 g / cm^3
# Si number density = 18.443761 Si / 1000 Ang^3
#
#
#
# Elastic Constant Matrix: (Units=GPa)
#
#
# Indices 1 2 3 4 5 6 
#
# 1 59.9463 40.8153 29.5511 0.0000 0.0000 0.0000
# 2 40.8153 127.6232 34.6956 0.0000 0.0000 0.0000
# 3 29.5511 34.6956 53.1527 0.0000 0.0000 0.0000
# 4 0.0000 0.0000 0.0000 17.8213 0.0000 0.0000
# 5 0.0000 0.0000 0.0000 0.0000 23.4913 0.0000
# 6 0.0000 0.0000 0.0000 0.0000 0.0000 11.9009
#
#
#
# Elastic Compliance Matrix: (Units=1/GPa)
#
#
# Indices 1 2 3 4 5 6 
#
# 1 0.025574 -0.005244 -0.010795 0.000000 0.000000 0.000000
# 2 -0.005244 0.010601 -0.004005 0.000000 0.000000 0.000000
# 3 -0.010795 -0.004005 0.027429 0.000000 0.000000 0.000000
# 4 0.000000 0.000000 0.000000 0.056113 0.000000 0.000000
# 5 0.000000 0.000000 0.000000 0.000000 0.042569 0.000000
# 6 0.000000 0.000000 0.000000 0.000000 0.000000 0.084027
#
#
# Mechanical properties :
#
#
# Convention : Reuss Voigt Hill
#
# Bulk Modulus (GPa) = 42.52217 50.09400 46.30808
# Shear Modulus (GPa) = 16.99299 19.68672 18.33985
#
# Velocity S-wave (km/s) = 3.03865 3.27064 3.15678
# Velocity P-wave (km/s) = 5.95116 6.44066 6.20074
#
# Compressibility (1/GPa) = 0.02351714
#
# Stress axis : x y z
#
# Youngs Moduli (GPa) = 39.10297 94.32778 36.45731
#
# Poissons Ratio (x) = 0.49465 0.39356
# Poissons Ratio (y) = 0.20505 0.14600
# Poissons Ratio (z) = 0.42212 0.37774
#
# Static dielectric constant tensor:
#      x y z
#    x 3.406280 0.000000 0.000000 
#    y 0.000000 4.002820 0.000000 
#    z 0.000000 0.000000 3.012630 
# 
# 
# High freq. dielectric constant tensor:
#      x y z
#    x 1.726430 0.000000 0.000000 
#    y 0.000000 1.716020 0.000000 
#    z 0.000000 0.000000 1.678320 
# 
# From -- ./inp_files/26652.got.cif
#   From: 2010.03.12/outbox.cif.g09.slc.cpg/sg53_14_cif.got.tgz:26652.got - 2010.04.16 14:36:59.
