data_PCOD8219983
_publ_section_title
;
Structure prediction by ZEFSAII (Michael W. Deem and Ramdas Pophale) SiO2 
 PCOD8219983
Probable space group: P M N A
;
_chemical_formula_sum "Si O2"
_cell_formula_units_Z 64
_cell_length_a 8.937321
_cell_length_b 15.509839
_cell_length_c 28.184049
_cell_angle_alpha 90.000000
_cell_angle_beta 90.000000
_cell_angle_gamma 90.000000
_cell_volume 3906.771686
_symmetry_space_group_name_H-M "P M N A"
_symmetry_group_IT_number 53
_symmetry_cell_setting 'orthorhombic'
loop_
_space_group_symop_operation_xyz
x,y,z
1/2-x,-y,1/2+z
x,-y,-z
1/2-x,y,1/2-z
-x,-y,-z
1/2+x,y,1/2-z
-x,y,z
1/2+x,-y,1/2+z
loop_
_atom_site_type_symbol
_atom_site_label
_atom_site_fract_x
_atom_site_fract_y
_atom_site_fract_z
Si Si1 0.324298 0.826738 0.947267
Si Si2 0.674408 0.168362 0.944888
Si Si3 0.823468 0.342461 0.607874
Si Si4 0.826299 0.398257 0.200803
Si Si5 0.168887 0.997906 0.943613
Si Si6 0.825974 0.400663 0.799251
Si Si7 0.828650 0.498298 0.943850
Si Si8 0.177426 0.343779 0.392400
O O1 0.500000 0.840135 0.944669
O O2 0.249633 0.911879 0.924706
O O3 0.272694 0.744957 0.916833
O O4 0.271280 0.811734 0.001479
O O5 0.500000 0.148522 0.944648
O O6 0.716072 0.248721 0.912138
O O7 0.754855 0.084223 0.923224
O O8 0.756211 0.346282 0.660388
O O9 0.746751 0.411098 0.573684
O O10 0.000000 0.360162 0.609127
O O11 0.750000 0.372269 0.250000
O O12 0.801845 0.498798 0.189368
O O13 0.747061 0.343556 0.159914
O O14 0.000000 0.374397 0.203551
O O15 0.000000 0.995767 0.925414
O O16 0.181971 0.000000 0.000000
O O17 0.750000 0.374821 0.750000
O O18 0.000000 0.376549 0.797171
O O19 0.740528 0.579207 0.923749
O O20 0.000000 0.501591 0.925716
O O21 0.819347 0.500000 0.000000
O O22 0.000000 0.353662 0.389072
#
# Coordination Sequence:
#
# PCOD8219983 Si02
#       8
#     8   8   8   8   8   8   8   8
#     4   9  18  32  49  70  98 132 167 202 241 288
#     4   9  18  32  49  70  98 132 167 202 241 288
#     4  11  21  33  51  73  98 130 168 205 245 293
#     4  10  20  34  52  72  97 127 163 206 252 294
#     4   9  17  29  47  71  96 125 162 205 249 287
#     4  10  20  34  52  72  97 127 163 206 252 294
#     4  11  23  35  46  65  98 137 171 203 241 285
#     4  11  21  33  51  73  98 130 168 205 245 293
#
# _framework density 16.381813000000001
#
# number of rings (size 3 to 8) (size 9 to 14) (size 15 to 20)
#    0.000    2.000    1.250    3.000    0.000    6.500 
#    0.000    2.500    0.000    0.000    0.000    0.875 
#    0.000    0.000    0.000    0.000    0.000    0.000 
#
# Total GULP energy -793802.730306 kJ/mol
# GULP energy per Si atom -12403.167661 kJ/mol
# Density = 1.634453 g / cm^3
# Si number density = 16.381813 Si / 1000 Ang^3
#
#
#
# Elastic Constant Matrix: (Units=GPa)
#
#
# Indices 1 2 3 4 5 6 
#
# 1 68.1003 21.5148 36.0134 0.0000 0.0000 0.0000
# 2 21.5148 62.1510 34.6117 0.0000 0.0000 0.0000
# 3 36.0134 34.6117 86.4678 0.0000 0.0000 0.0000
# 4 0.0000 0.0000 0.0000 9.3695 0.0000 0.0000
# 5 0.0000 0.0000 0.0000 0.0000 28.4343 0.0000
# 6 0.0000 0.0000 0.0000 0.0000 0.0000 14.6081
#
#
#
# Elastic Compliance Matrix: (Units=1/GPa)
#
#
# Indices 1 2 3 4 5 6 
#
# 1 0.019210 -0.002824 -0.006870 0.000000 0.000000 0.000000
# 2 -0.002824 0.021120 -0.007278 0.000000 0.000000 0.000000
# 3 -0.006870 -0.007278 0.017340 0.000000 0.000000 0.000000
# 4 0.000000 0.000000 0.000000 0.106729 0.000000 0.000000
# 5 0.000000 0.000000 0.000000 0.000000 0.035169 0.000000
# 6 0.000000 0.000000 0.000000 0.000000 0.000000 0.068455
#
#
# Mechanical properties :
#
#
# Convention : Reuss Voigt Hill
#
# Bulk Modulus (GPa) = 42.14892 44.55545 43.35218
# Shear Modulus (GPa) = 16.13549 18.78767 17.46158
#
# Velocity S-wave (km/s) = 3.14182 3.39021 3.26837
# Velocity P-wave (km/s) = 6.24070 6.52548 6.38467
#
# Compressibility (1/GPa) = 0.02372540
#
# Stress axis : x y z
#
# Youngs Moduli (GPa) = 52.05741 47.34737 57.67073
#
# Poissons Ratio (x) = 0.13369 0.39622
# Poissons Ratio (y) = 0.14699 0.41974
# Poissons Ratio (z) = 0.35766 0.34460
#
# Static dielectric constant tensor:
#      x y z
#    x 3.235470 0.000000 0.000000 
#    y 0.000000 3.083240 0.000000 
#    z 0.000000 0.000000 3.097700 
# 
# 
# High freq. dielectric constant tensor:
#      x y z
#    x 1.646390 0.000000 0.000000 
#    y 0.000000 1.619470 0.000000 
#    z 0.000000 0.000000 1.612940 
# 
# From -- ./inp_files/38428.got.cif
#   From: 2010.03.12/outbox.cif.g09.slc.cpg/sg53_20_cif.got.tgz:38428.got - 2010.04.16 14:36:59.
