data_PCOD8219125
_publ_section_title
;
Structure prediction by ZEFSAII (Michael W. Deem and Ramdas Pophale) SiO2 
 PCOD8219125
Probable space group: P M N A
;
_chemical_formula_sum "Si O2"
_cell_formula_units_Z 64
_cell_length_a 9.124245
_cell_length_b 25.703776
_cell_length_c 14.057140
_cell_angle_alpha 90.000000
_cell_angle_beta 90.000000
_cell_angle_gamma 90.000000
_cell_volume 3296.786599
_symmetry_space_group_name_H-M "P M N A"
_symmetry_group_IT_number 53
_symmetry_cell_setting 'orthorhombic'
loop_
_space_group_symop_operation_xyz
x,y,z
1/2-x,-y,1/2+z
x,-y,-z
1/2-x,y,1/2-z
-x,-y,-z
1/2+x,y,1/2-z
-x,y,z
1/2+x,-y,1/2+z
loop_
_atom_site_type_symbol
_atom_site_label
_atom_site_fract_x
_atom_site_fract_y
_atom_site_fract_z
Si Si1 0.670912 0.640883 0.151967
Si Si2 0.329165 0.415912 0.150149
Si Si3 0.163277 0.017400 0.392483
Si Si4 0.830120 0.885619 0.950412
Si Si5 0.828454 0.686118 0.541394
Si Si6 0.169984 0.527279 0.347733
Si Si7 0.671753 0.222123 0.350865
Si Si8 0.327777 0.917816 0.340018
O O1 0.750000 0.655534 0.250000
O O2 0.500000 0.641300 0.174705
O O3 0.718491 0.583430 0.109989
O O4 0.707550 0.683606 0.071410
O O5 0.250000 0.409572 0.250000
O O6 0.500000 0.411100 0.171748
O O7 0.278959 0.369517 0.082271
O O8 0.296953 0.472349 0.096956
O O9 0.236571 0.074280 0.387130
O O10 0.000000 0.019414 0.346794
O O11 0.150702 0.000000 0.500000
O O12 0.266661 0.976689 0.338932
O O13 0.793435 0.828657 0.912752
O O14 0.000000 0.900472 0.938207
O O15 0.786855 0.888276 0.062171
O O16 0.731243 0.729855 0.589304
O O17 0.000000 0.697480 0.559568
O O18 0.250000 0.518935 0.250000
O O19 0.000000 0.530599 0.325828
O O20 0.750000 0.218154 0.250000
O O21 0.500000 0.229521 0.333059
O O22 0.250000 0.888969 0.250000
O O23 0.500000 0.919031 0.322789
#
# Coordination Sequence:
#
# PCOD8219125 Si02
#       8
#     8   8   8   8   8   8   8   8
#     4   9  18  33  53  76 104 137 174 215 261 315
#     4   9  17  29  47  72 103 136 171 211 258 313
#     4   9  17  30  51  80 112 146 183 220 259 306
#     4   9  20  38  57  78 108 146 185 225 270 318
#     4  10  21  36  54  78 105 136 176 221 268 318
#     4   8  14  26  45  70 100 134 169 207 253 308
#     4  11  24  42  62  82 105 136 176 223 273 321
#     4  10  19  33  54  81 115 151 184 220 264 314
#
# _framework density 19.412844
#
# number of rings (size 3 to 8) (size 9 to 14) (size 15 to 20)
#    0.000    2.625    0.000    1.500    0.000    6.000 
#    0.000    4.375    0.000    3.000    0.000    9.625 
#    0.000    0.000    0.000    0.000    0.000    0.000 
#
# Total GULP energy -792956.600117 kJ/mol
# GULP energy per Si atom -12389.946877 kJ/mol
# Density = 1.936866 g / cm^3
# Si number density = 19.412844 Si / 1000 Ang^3
#
#
#
# Elastic Constant Matrix: (Units=GPa)
#
#
# Indices 1 2 3 4 5 6 
#
# 1 75.2885 53.2960 49.2077 0.0000 0.0000 0.0000
# 2 53.2960 103.1175 64.3459 0.0000 0.0000 0.0000
# 3 49.2077 64.3459 107.1617 0.0000 0.0000 0.0000
# 4 0.0000 0.0000 0.0000 22.8392 0.0000 0.0000
# 5 0.0000 0.0000 0.0000 0.0000 28.1005 0.0000
# 6 0.0000 0.0000 0.0000 0.0000 0.0000 27.0737
#
#
#
# Elastic Compliance Matrix: (Units=1/GPa)
#
#
# Indices 1 2 3 4 5 6 
#
# 1 0.022755 -0.008381 -0.005417 0.000000 0.000000 0.000000
# 2 -0.008381 0.018595 -0.007317 0.000000 0.000000 0.000000
# 3 -0.005417 -0.007317 0.016213 0.000000 0.000000 0.000000
# 4 0.000000 0.000000 0.000000 0.043784 0.000000 0.000000
# 5 0.000000 0.000000 0.000000 0.000000 0.035587 0.000000
# 6 0.000000 0.000000 0.000000 0.000000 0.000000 0.036936
#
#
# Mechanical properties :
#
#
# Convention : Reuss Voigt Hill
#
# Bulk Modulus (GPa) = 65.21618 68.80742 67.01180
# Shear Modulus (GPa) = 22.60283 23.51722 23.06002
#
# Velocity S-wave (km/s) = 3.41592 3.48433 3.45029
# Velocity P-wave (km/s) = 7.01607 7.19087 7.10401
#
# Compressibility (1/GPa) = 0.01533362
#
# Stress axis : x y z
#
# Youngs Moduli (GPa) = 43.94581 53.77685 61.68041
#
# Poissons Ratio (x) = 0.45071 0.33410
# Poissons Ratio (y) = 0.36831 0.45133
# Poissons Ratio (z) = 0.23804 0.39350
#
# Static dielectric constant tensor:
#      x y z
#    x 3.577840 0.000000 0.000000 
#    y 0.000000 3.645360 0.000000 
#    z 0.000000 0.000000 3.555450 
# 
# 
# High freq. dielectric constant tensor:
#      x y z
#    x 1.752990 0.000000 0.000000 
#    y 0.000000 1.746950 0.000000 
#    z 0.000000 0.000000 1.752210 
# 
# From -- ./inp_files/20836.got.cif
#   From: 2010.03.12/outbox.cif.g09.slc.cpg/sg53_11_cif.got.tgz:20836.got - 2010.04.16 14:36:59.
