data_PCOD8219268
_publ_section_title
;
Structure prediction by ZEFSAII (Michael W. Deem and Ramdas Pophale) SiO2 
 PCOD8219268
Probable space group: P M N A
;
_chemical_formula_sum "Si O2"
_cell_formula_units_Z 40
_cell_length_a 8.737859
_cell_length_b 12.769724
_cell_length_c 19.433646
_cell_angle_alpha 90.000000
_cell_angle_beta 90.000000
_cell_angle_gamma 90.000000
_cell_volume 2168.407149
_symmetry_space_group_name_H-M "P M N A"
_symmetry_group_IT_number 53
_symmetry_cell_setting 'orthorhombic'
loop_
_space_group_symop_operation_xyz
x,y,z
1/2-x,-y,1/2+z
x,-y,-z
1/2-x,y,1/2-z
-x,-y,-z
1/2+x,y,1/2-z
-x,y,z
1/2+x,-y,1/2+z
loop_
_atom_site_type_symbol
_atom_site_label
_atom_site_fract_x
_atom_site_fract_y
_atom_site_fract_z
Si Si1 0.818714 0.394467 0.822901
Si Si2 0.678130 0.208038 0.578321
Si Si3 0.821800 0.214857 0.080954
Si Si4 0.671694 0.996951 0.918307
Si Si5 0.680596 0.615409 0.822987
O O1 0.750000 0.359540 0.750000
O O2 0.769616 0.309127 0.879125
O O3 0.749804 0.504794 0.847110
O O4 0.000000 0.405394 0.816486
O O5 0.500000 0.184918 0.586401
O O6 0.720294 0.228156 0.499060
O O7 0.763900 0.106977 0.609586
O O8 0.775947 0.099200 0.107680
O O9 0.721268 0.299226 0.120430
O O10 0.000000 0.233774 0.095532
O O11 0.500000 0.981008 0.890466
O O12 0.676424 0.000000 0.000000
O O13 0.750000 0.650126 0.750000
O O14 0.500000 0.604564 0.815389
#
# Coordination Sequence:
#
# PCOD8219268 Si02
#       5
#     8   8   8   8   8
#     4  10  20  36  55  76 103 137 175 212 256 307
#     4   9  19  34  54  78 105 138 174 212 257 310
#     4  10  19  34  55  78 105 137 173 213 257 307
#     4   9  17  30  50  77 107 136 169 212 260 307
#     4  11  22  37  55  76 103 136 173 212 259 310
#
# _framework density 18.446719999999999
#
# number of rings (size 3 to 8) (size 9 to 14) (size 15 to 20)
#    0.000    2.200    0.000    4.800    0.000    5.600 
#    0.000    5.000    0.000    2.400    0.000    0.000 
#    0.000    0.000    0.000    0.000    0.000    0.000 
#
# Total GULP energy -496080.769300 kJ/mol
# GULP energy per Si atom -12402.019232 kJ/mol
# Density = 1.840473 g / cm^3
# Si number density = 18.446720 Si / 1000 Ang^3
#
#
#
# Elastic Constant Matrix: (Units=GPa)
#
#
# Indices 1 2 3 4 5 6 
#
# 1 98.7480 56.7750 35.0128 0.0000 0.0000 0.0000
# 2 56.7750 143.7376 66.0927 0.0000 0.0000 0.0000
# 3 35.0128 66.0927 61.9902 0.0000 0.0000 0.0000
# 4 0.0000 0.0000 0.0000 1.2016 0.0000 0.0000
# 5 0.0000 0.0000 0.0000 0.0000 23.1042 0.0000
# 6 0.0000 0.0000 0.0000 0.0000 0.0000 34.9996
#
#
#
# Elastic Compliance Matrix: (Units=1/GPa)
#
#
# Indices 1 2 3 4 5 6 
#
# 1 0.013548 -0.003595 -0.003819 0.000000 0.000000 0.000000
# 2 -0.003595 0.014602 -0.013538 0.000000 0.000000 0.000000
# 3 -0.003819 -0.013538 0.032722 0.000000 0.000000 0.000000
# 4 0.000000 0.000000 0.000000 0.832243 0.000000 0.000000
# 5 0.000000 0.000000 0.000000 0.000000 0.043282 0.000000
# 6 0.000000 0.000000 0.000000 0.000000 0.000000 0.028572
#
#
# Mechanical properties :
#
#
# Convention : Reuss Voigt Hill
#
# Bulk Modulus (GPa) = 52.71909 68.91523 60.81716
# Shear Modulus (GPa) = 4.93488 21.63410 13.28449
#
# Velocity S-wave (km/s) = 1.63738 3.42831 2.68648
# Velocity P-wave (km/s) = 5.67590 7.28775 6.53174
#
# Compressibility (1/GPa) = 0.01896846
#
# Stress axis : x y z
#
# Youngs Moduli (GPa) = 73.81188 68.48297 30.56038
#
# Poissons Ratio (x) = 0.24623 0.11670
# Poissons Ratio (y) = 0.26539 0.41372
# Poissons Ratio (z) = 0.28186 0.92711
#
# Static dielectric constant tensor:
#      x y z
#    x 3.497530 0.000000 0.000000 
#    y 0.000000 3.573210 0.000000 
#    z 0.000000 0.000000 3.187330 
# 
# 
# High freq. dielectric constant tensor:
#      x y z
#    x 1.729160 0.000000 0.000000 
#    y 0.000000 1.727880 0.000000 
#    z 0.000000 0.000000 1.687360 
# 
# From -- ./inp_files/25867.got.cif
#   From: 2010.03.12/outbox.cif.g09.slc.cpg/sg53_13_cif.got.tgz:25867.got - 2010.04.16 14:36:59.
