data_PCOD8219346
_publ_section_title
;
Structure prediction by ZEFSAII (Michael W. Deem and Ramdas Pophale) SiO2 
 PCOD8219346
Probable space group: P M N A
;
_chemical_formula_sum "Si O2"
_cell_formula_units_Z 64
_cell_length_a 8.904903
_cell_length_b 23.629166
_cell_length_c 14.866923
_cell_angle_alpha 90.000000
_cell_angle_beta 90.000000
_cell_angle_gamma 90.000000
_cell_volume 3128.230014
_symmetry_space_group_name_H-M "P M N A"
_symmetry_group_IT_number 53
_symmetry_cell_setting 'orthorhombic'
loop_
_space_group_symop_operation_xyz
x,y,z
1/2-x,-y,1/2+z
x,-y,-z
1/2-x,y,1/2-z
-x,-y,-z
1/2+x,y,1/2-z
-x,y,z
1/2+x,-y,1/2+z
loop_
_atom_site_type_symbol
_atom_site_label
_atom_site_fract_x
_atom_site_fract_y
_atom_site_fract_z
Si Si1 0.324547 0.544611 0.843140
Si Si2 0.672701 0.246938 0.474017
Si Si3 0.324189 0.414117 0.843344
Si Si4 0.837218 0.109472 0.667777
Si Si5 0.333113 0.759436 0.163578
Si Si6 0.172522 0.374272 0.016170
Si Si7 0.821424 0.063060 0.486351
Si Si8 0.321165 0.845201 0.848142
O O1 0.250000 0.563207 0.750000
O O2 0.500000 0.556454 0.835621
O O3 0.289689 0.479498 0.865855
O O4 0.257551 0.581435 0.922241
O O5 0.500000 0.226491 0.474281
O O6 0.734552 0.245934 0.574824
O O7 0.685038 0.311834 0.440628
O O8 0.768264 0.208266 0.406859
O O9 0.250000 0.396384 0.750000
O O10 0.500000 0.402328 0.838346
O O11 0.250952 0.374351 0.918684
O O12 0.750000 0.080095 0.750000
O O13 0.854691 0.175169 0.686074
O O14 0.758913 0.098424 0.571685
O O15 0.000000 0.079753 0.666059
O O16 0.250000 0.730956 0.250000
O O17 0.500000 0.732172 0.151108
O O18 0.000000 0.392861 0.005714
O O19 0.767377 0.096296 0.396753
O O20 0.000000 0.062057 0.483785
O O21 0.755297 0.000000 0.500000
O O22 0.250000 0.842951 0.750000
O O23 0.500000 0.841769 0.840123
#
# Coordination Sequence:
#
# PCOD8219346 Si02
#       8
#     8   8   8   8   8   8   8   8
#     4  10  21  38  61  88 118 154 197 245 298 356
#     4  11  24  41  60  85 117 157 203 250 297 351
#     4  10  21  38  61  89 121 158 198 241 296 358
#     4   9  17  31  52  81 110 143 181 221 275 335
#     4  10  19  34  57  85 113 147 189 234 288 350
#     4  11  24  39  58  86 119 155 199 249 301 353
#     4   9  18  35  59  86 119 155 191 236 290 349
#     4  11  23  42  65  89 118 158 203 246 298 355
#
# _framework density 20.458853000000001
#
# number of rings (size 3 to 8) (size 9 to 14) (size 15 to 20)
#    0.000    1.875    1.250    2.625    0.000    7.000 
#    0.000    0.000    0.000    2.625    0.000    0.000 
#    0.000    0.000    0.000    0.000    0.000    0.000 
#
# Total GULP energy -793456.348091 kJ/mol
# GULP energy per Si atom -12397.755439 kJ/mol
# Density = 2.041229 g / cm^3
# Si number density = 20.458853 Si / 1000 Ang^3
#
#
#
# Elastic Constant Matrix: (Units=GPa)
#
#
# Indices 1 2 3 4 5 6 
#
# 1 102.1207 33.1161 49.0654 0.0000 0.0000 0.0000
# 2 33.1161 86.3390 44.8950 0.0000 0.0000 0.0000
# 3 49.0654 44.8950 144.6514 0.0000 0.0000 0.0000
# 4 0.0000 0.0000 0.0000 5.0845 0.0000 0.0000
# 5 0.0000 0.0000 0.0000 0.0000 42.6034 0.0000
# 6 0.0000 0.0000 0.0000 0.0000 0.0000 19.5528
#
#
#
# Elastic Compliance Matrix: (Units=1/GPa)
#
#
# Indices 1 2 3 4 5 6 
#
# 1 0.012337 -0.003048 -0.003239 0.000000 0.000000 0.000000
# 2 -0.003048 0.014564 -0.003486 0.000000 0.000000 0.000000
# 3 -0.003239 -0.003486 0.009094 0.000000 0.000000 0.000000
# 4 0.000000 0.000000 0.000000 0.196678 0.000000 0.000000
# 5 0.000000 0.000000 0.000000 0.000000 0.023472 0.000000
# 6 0.000000 0.000000 0.000000 0.000000 0.000000 0.051143
#
#
# Mechanical properties :
#
#
# Convention : Reuss Voigt Hill
#
# Bulk Modulus (GPa) = 60.79427 65.25153 63.02290
# Shear Modulus (GPa) = 15.04586 27.18377 21.11482
#
# Velocity S-wave (km/s) = 2.71481 3.64909 3.21606
# Velocity P-wave (km/s) = 6.29339 7.05108 6.68299
#
# Compressibility (1/GPa) = 0.01644892
#
# Stress axis : x y z
#
# Youngs Moduli (GPa) = 81.05866 68.66171 109.96523
#
# Poissons Ratio (x) = 0.20927 0.35614
# Poissons Ratio (y) = 0.24705 0.38338
# Poissons Ratio (z) = 0.26252 0.23938
#
# Static dielectric constant tensor:
#      x y z
#    x 3.864190 0.000000 0.000000 
#    y 0.000000 3.745730 0.000000 
#    z 0.000000 0.000000 3.779570 
# 
# 
# High freq. dielectric constant tensor:
#      x y z
#    x 1.798320 0.000000 0.000000 
#    y 0.000000 1.794840 0.000000 
#    z 0.000000 0.000000 1.805870 
# 
# From -- ./inp_files/20903.got.cif
#   From: 2010.03.12/outbox.cif.g09.slc.cpg/sg53_11_cif.got.tgz:20903.got - 2010.04.16 14:36:59.
