data_PCOD8219629
_publ_section_title
;
Structure prediction by ZEFSAII (Michael W. Deem and Ramdas Pophale) SiO2 
 PCOD8219629
Probable space group: P M N A
;
_chemical_formula_sum "Si O2"
_cell_formula_units_Z 56
_cell_length_a 8.902999
_cell_length_b 21.239936
_cell_length_c 15.489357
_cell_angle_alpha 90.000000
_cell_angle_beta 90.000000
_cell_angle_gamma 90.000000
_cell_volume 2929.023917
_symmetry_space_group_name_H-M "P M N A"
_symmetry_group_IT_number 53
_symmetry_cell_setting 'orthorhombic'
loop_
_space_group_symop_operation_xyz
x,y,z
1/2-x,-y,1/2+z
x,-y,-z
1/2-x,y,1/2-z
-x,-y,-z
1/2+x,y,1/2-z
-x,y,z
1/2+x,-y,1/2+z
loop_
_atom_site_type_symbol
_atom_site_label
_atom_site_fract_x
_atom_site_fract_y
_atom_site_fract_z
Si Si1 0.321886 0.149558 0.001226
Si Si2 0.825505 0.505126 0.600535
Si Si3 0.821736 0.293710 0.493583
Si Si4 0.177052 0.929472 0.661846
Si Si5 0.324539 0.367503 0.838013
Si Si6 0.677944 0.370190 0.339392
Si Si7 0.677072 0.073544 0.838171
O O1 0.500000 0.143938 0.000495
O O2 0.257963 0.116229 0.915424
O O3 0.269923 0.221538 0.003552
O O4 0.258039 0.113358 0.084780
O O5 0.787582 0.500000 0.500000
O O6 0.782262 0.439935 0.645765
O O7 0.723002 0.557699 0.643935
O O8 0.000000 0.522869 0.613845
O O9 0.766188 0.325929 0.582044
O O10 0.738888 0.326057 0.414553
O O11 0.000000 0.301920 0.481320
O O12 0.250000 0.904794 0.750000
O O13 0.000000 0.922304 0.670581
O O14 0.223309 0.001484 0.643039
O O15 0.250000 0.343261 0.750000
O O16 0.500000 0.358112 0.827885
O O17 0.750000 0.346617 0.250000
O O18 0.500000 0.364758 0.333578
O O19 0.750000 0.098214 0.750000
O O20 0.500000 0.080583 0.829314
#
# Coordination Sequence:
#
# PCOD8219629 Si02
#       7
#     8   8   8   8   8   8   8
#     4   9  18  33  56  78 102 143 187 222 264 323
#     4  10  19  37  62  86 113 143 177 224 281 327
#     4  10  21  40  58  77 108 148 189 229 276 325
#     4   9  17  31  52  79 108 138 176 224 270 320
#     4  10  21  36  57  81 109 143 178 222 272 326
#     4  12  25  40  60  85 112 145 185 228 278 331
#     4   9  17  31  52  80 110 140 177 220 270 321
#
# _framework density 19.118997
#
# number of rings (size 3 to 8) (size 9 to 14) (size 15 to 20)
#    0.000    2.143    1.429    2.143    0.000    5.429 
#    0.000    3.571    0.000    3.429    0.000    0.000 
#    0.000    0.000    0.000    0.000    0.000    0.000 
#
# Total GULP energy -694555.211944 kJ/mol
# GULP energy per Si atom -12402.771642 kJ/mol
# Density = 1.907548 g / cm^3
# Si number density = 19.118997 Si / 1000 Ang^3
#
#
#
# Elastic Constant Matrix: (Units=GPa)
#
#
# Indices 1 2 3 4 5 6 
#
# 1 50.7908 39.3275 53.2855 0.0000 0.0000 0.0000
# 2 39.3275 127.5701 96.7402 0.0000 0.0000 0.0000
# 3 53.2855 96.7402 198.5362 0.0000 0.0000 0.0000
# 4 0.0000 0.0000 0.0000 4.7790 0.0000 0.0000
# 5 0.0000 0.0000 0.0000 0.0000 34.6079 0.0000
# 6 0.0000 0.0000 0.0000 0.0000 0.0000 25.5801
#
#
#
# Elastic Compliance Matrix: (Units=1/GPa)
#
#
# Indices 1 2 3 4 5 6 
#
# 1 0.029181 -0.004848 -0.005470 0.000000 0.000000 0.000000
# 2 -0.004848 0.013238 -0.005149 0.000000 0.000000 0.000000
# 3 -0.005470 -0.005149 0.009014 0.000000 0.000000 0.000000
# 4 0.000000 0.000000 0.000000 0.209248 0.000000 0.000000
# 5 0.000000 0.000000 0.000000 0.000000 0.028895 0.000000
# 6 0.000000 0.000000 0.000000 0.000000 0.000000 0.039093
#
#
# Mechanical properties :
#
#
# Convention : Reuss Voigt Hill
#
# Bulk Modulus (GPa) = 48.78319 83.95595 66.36957
# Shear Modulus (GPa) = 13.64492 25.49632 19.57062
#
# Velocity S-wave (km/s) = 2.67438 3.65576 3.20288
# Velocity P-wave (km/s) = 5.92515 7.86302 6.96184
#
# Compressibility (1/GPa) = 0.02049887
#
# Stress axis : x y z
#
# Youngs Moduli (GPa) = 34.26922 75.53785 110.93871
#
# Poissons Ratio (x) = 0.36622 0.60678
# Poissons Ratio (y) = 0.16614 0.57127
# Poissons Ratio (z) = 0.18744 0.38898
#
# Static dielectric constant tensor:
#      x y z
#    x 3.198000 0.000000 0.000000 
#    y 0.000000 3.598080 0.000000 
#    z 0.000000 0.000000 3.773480 
# 
# 
# High freq. dielectric constant tensor:
#      x y z
#    x 1.715740 0.000000 0.000000 
#    y 0.000000 1.741480 0.000000 
#    z 0.000000 0.000000 1.762140 
# 
# From -- ./inp_files/20477.got.cif
#   From: 2010.03.12/outbox.cif.g09.slc.cpg/sg53_11_cif.got.tgz:20477.got - 2010.04.16 14:36:59.
