data_PCOD8219845
_publ_section_title
;
Structure prediction by ZEFSAII (Michael W. Deem and Ramdas Pophale) SiO2 
 PCOD8219845
Probable space group: P M N A
;
_chemical_formula_sum "Si O2"
_cell_formula_units_Z 56
_cell_length_a 14.151844
_cell_length_b 14.056035
_cell_length_c 14.711984
_cell_angle_alpha 90.000000
_cell_angle_beta 90.000000
_cell_angle_gamma 90.000000
_cell_volume 2926.490417
_symmetry_space_group_name_H-M "P M N A"
_symmetry_group_IT_number 53
_symmetry_cell_setting 'orthorhombic'
loop_
_space_group_symop_operation_xyz
x,y,z
1/2-x,-y,1/2+z
x,-y,-z
1/2-x,y,1/2-z
-x,-y,-z
1/2+x,y,1/2-z
-x,y,z
1/2+x,-y,1/2+z
loop_
_atom_site_type_symbol
_atom_site_label
_atom_site_fract_x
_atom_site_fract_y
_atom_site_fract_z
Si Si1 0.107623 0.785080 0.598824
Si Si2 0.720166 0.904893 0.551241
Si Si3 0.395057 0.113187 0.784493
Si Si4 0.609033 0.395502 0.989201
Si Si5 0.895914 0.803259 0.088120
Si Si6 0.223110 0.285788 0.652821
Si Si7 0.107942 0.908629 0.766470
O O1 0.186011 0.840441 0.540037
O O2 0.125390 0.672652 0.577601
O O3 0.120417 0.813127 0.705151
O O4 0.000000 0.811928 0.568200
O O5 0.628664 0.863293 0.500724
O O6 0.687405 0.911533 0.655848
O O7 0.749588 0.000000 0.500000
O O8 0.500000 0.138665 0.820785
O O9 0.390031 0.129688 0.676259
O O10 0.319650 0.178793 0.836256
O O11 0.373381 0.000792 0.798922
O O12 0.500000 0.408593 0.968439
O O13 0.649917 0.352311 0.897018
O O14 0.655741 0.500000 0.000000
O O15 0.820153 0.718468 0.095915
O O16 0.000000 0.758835 0.076527
O O17 0.250000 0.330660 0.750000
O O18 0.000000 0.913869 0.804665
#
# Coordination Sequence:
#
# PCOD8219845 Si02
#       7
#     8   8   8   8   8   8   8
#     4  10  23  39  55  83 114 147 190 243 298 344
#     4  12  22  33  56  81 116 165 203 227 270 332
#     4   9  18  32  52  80 116 151 191 236 279 325
#     4  10  21  41  67  89 111 141 185 242 304 366
#     4  10  20  33  50  78 115 154 195 235 267 321
#     4  10  20  35  58  87 114 148 188 239 289 340
#     4  10  21  35  53  81 119 159 197 237 274 331
#
# _framework density 19.135549000000001
#
# number of rings (size 3 to 8) (size 9 to 14) (size 15 to 20)
#    0.000    1.857    2.857    1.286    2.000    2.571 
#    0.000    1.429    0.000    0.429    0.000    0.000 
#    0.000    0.000    0.000    0.000    0.000    0.000 
#
# Total GULP energy -694057.948028 kJ/mol
# GULP energy per Si atom -12393.891929 kJ/mol
# Density = 1.909200 g / cm^3
# Si number density = 19.135549 Si / 1000 Ang^3
#
#
#
# Elastic Constant Matrix: (Units=GPa)
#
#
# Indices 1 2 3 4 5 6 
#
# 1 114.3320 48.0853 30.1705 0.0000 0.0000 0.0000
# 2 48.0853 117.8444 53.9208 0.0000 0.0000 0.0000
# 3 30.1705 53.9208 70.7004 0.0000 0.0000 0.0000
# 4 0.0000 0.0000 0.0000 17.8582 0.0000 0.0000
# 5 0.0000 0.0000 0.0000 0.0000 24.0457 0.0000
# 6 0.0000 0.0000 0.0000 0.0000 0.0000 14.6372
#
#
#
# Elastic Compliance Matrix: (Units=1/GPa)
#
#
# Indices 1 2 3 4 5 6 
#
# 1 0.010723 -0.003505 -0.001903 0.000000 0.000000 0.000000
# 2 -0.003505 0.014180 -0.009319 0.000000 0.000000 0.000000
# 3 -0.001903 -0.009319 0.022063 0.000000 0.000000 0.000000
# 4 0.000000 0.000000 0.000000 0.055997 0.000000 0.000000
# 5 0.000000 0.000000 0.000000 0.000000 0.041587 0.000000
# 6 0.000000 0.000000 0.000000 0.000000 0.000000 0.068319
#
#
# Mechanical properties :
#
#
# Convention : Reuss Voigt Hill
#
# Bulk Modulus (GPa) = 57.10034 63.02557 60.06295
# Shear Modulus (GPa) = 20.14835 22.68823 21.41829
#
# Velocity S-wave (km/s) = 3.24840 3.44707 3.34921
# Velocity P-wave (km/s) = 6.63131 6.98935 6.81268
#
# Compressibility (1/GPa) = 0.01751303
#
# Stress axis : x y z
#
# Youngs Moduli (GPa) = 93.26159 70.52333 45.32384
#
# Poissons Ratio (x) = 0.24715 0.08625
# Poissons Ratio (y) = 0.32684 0.42237
# Poissons Ratio (z) = 0.17747 0.65720
#
# Static dielectric constant tensor:
#      x y z
#    x 3.838070 0.000000 0.000000 
#    y 0.000000 3.311950 0.000000 
#    z 0.000000 0.000000 3.378590 
# 
# 
# High freq. dielectric constant tensor:
#      x y z
#    x 1.767290 0.000000 0.000000 
#    y 0.000000 1.696370 0.000000 
#    z 0.000000 0.000000 1.735220 
# 
# From -- ./inp_files/22949.got.cif
#   From: 2010.03.12/outbox.cif.g09.slc.cpg/sg53_12_cif.got.tgz:22949.got - 2010.04.16 14:36:59.
