data_PCOD8219795
_publ_section_title
;
Structure prediction by ZEFSAII (Michael W. Deem and Ramdas Pophale) SiO2 
 PCOD8219795
Probable space group: P M N A
;
_chemical_formula_sum "Si O2"
_cell_formula_units_Z 56
_cell_length_a 9.224715
_cell_length_b 20.798796
_cell_length_c 14.958667
_cell_angle_alpha 90.000000
_cell_angle_beta 90.000000
_cell_angle_gamma 90.000000
_cell_volume 2870.014210
_symmetry_space_group_name_H-M "P M N A"
_symmetry_group_IT_number 53
_symmetry_cell_setting 'orthorhombic'
loop_
_space_group_symop_operation_xyz
x,y,z
1/2-x,-y,1/2+z
x,-y,-z
1/2-x,y,1/2-z
-x,-y,-z
1/2+x,y,1/2-z
-x,y,z
1/2+x,-y,1/2+z
loop_
_atom_site_type_symbol
_atom_site_label
_atom_site_fract_x
_atom_site_fract_y
_atom_site_fract_z
Si Si1 0.833113 0.725306 0.496712
Si Si2 0.160486 0.856818 0.431654
Si Si3 0.329961 0.597281 0.482996
Si Si4 0.168184 0.787931 0.838148
Si Si5 0.662192 0.021278 0.834096
Si Si6 0.830163 0.514878 0.846584
Si Si7 0.163483 0.080930 0.078620
O O1 0.822136 0.779936 0.417789
O O2 0.759421 0.661040 0.461062
O O3 0.749040 0.752134 0.581879
O O4 0.000000 0.711279 0.521484
O O5 0.168799 0.901001 0.343071
O O6 0.292608 0.881559 0.490044
O O7 0.000000 0.868843 0.475884
O O8 0.500000 0.611788 0.481317
O O9 0.287961 0.571377 0.582661
O O10 0.289922 0.549634 0.401347
O O11 0.250000 0.764314 0.750000
O O12 0.180060 0.865572 0.843554
O O13 0.000000 0.766229 0.836742
O O14 0.750000 0.997720 0.750000
O O15 0.500000 0.996553 0.822459
O O16 0.734358 0.981630 0.914710
O O17 0.750000 0.520333 0.750000
O O18 0.000000 0.517303 0.824959
O O19 0.000000 0.055929 0.070439
#
# Coordination Sequence:
#
# PCOD8219795 Si02
#       7
#     8   8   8   8   8   8   8
#     4  10  20  35  55  77 103 139 179 217 258 308
#     4   9  20  37  53  71  99 133 169 210 257 308
#     4   9  19  37  57  81 115 150 180 217 267 317
#     4  10  20  33  49  72 103 137 173 216 266 320
#     4  11  22  35  51  71  97 129 166 213 265 312
#     4   9  19  36  59  85 115 148 181 219 263 312
#     4  10  20  33  52  76  99 127 166 212 263 319
#
# _framework density 19.512098000000002
#
# number of rings (size 3 to 8) (size 9 to 14) (size 15 to 20)
#    0.000    2.286    0.000    3.429    0.000    8.000 
#    0.000    3.571    0.000    3.429    0.000    0.000 
#    0.000    0.000    0.000    0.000    0.000    0.000 
#
# Total GULP energy -693753.204264 kJ/mol
# GULP energy per Si atom -12388.450076 kJ/mol
# Density = 1.946769 g / cm^3
# Si number density = 19.512098 Si / 1000 Ang^3
#
#
#
# Elastic Constant Matrix: (Units=GPa)
#
#
# Indices 1 2 3 4 5 6 
#
# 1 125.4675 51.2250 29.1080 0.0000 0.0000 0.0000
# 2 51.2250 113.5445 14.8618 0.0000 0.0000 0.0000
# 3 29.1080 14.8618 58.5648 0.0000 0.0000 0.0000
# 4 0.0000 0.0000 0.0000 18.4009 0.0000 0.0000
# 5 0.0000 0.0000 0.0000 0.0000 22.5079 0.0000
# 6 0.0000 0.0000 0.0000 0.0000 0.0000 32.2547
#
#
#
# Elastic Compliance Matrix: (Units=1/GPa)
#
#
# Indices 1 2 3 4 5 6 
#
# 1 0.010696 -0.004271 -0.004232 0.000000 0.000000 0.000000
# 2 -0.004271 0.010816 -0.000622 0.000000 0.000000 0.000000
# 3 -0.004232 -0.000622 0.019336 0.000000 0.000000 0.000000
# 4 0.000000 0.000000 0.000000 0.054345 0.000000 0.000000
# 5 0.000000 0.000000 0.000000 0.000000 0.044429 0.000000
# 6 0.000000 0.000000 0.000000 0.000000 0.000000 0.031003
#
#
# Mechanical properties :
#
#
# Convention : Reuss Voigt Hill
#
# Bulk Modulus (GPa) = 44.25301 54.21849 49.23575
# Shear Modulus (GPa) = 25.45718 28.12482 26.79100
#
# Velocity S-wave (km/s) = 3.61596 3.80070 3.70948
# Velocity P-wave (km/s) = 6.33740 6.86352 6.60570
#
# Compressibility (1/GPa) = 0.02259733
#
# Stress axis : x y z
#
# Youngs Moduli (GPa) = 93.49307 92.45956 51.71608
#
# Poissons Ratio (x) = 0.39494 0.21887
# Poissons Ratio (y) = 0.39935 0.03215
# Poissons Ratio (z) = 0.39568 0.05747
#
# Static dielectric constant tensor:
#      x y z
#    x 3.605270 0.000000 0.000000 
#    y 0.000000 3.694380 0.000000 
#    z 0.000000 0.000000 3.295510 
# 
# 
# High freq. dielectric constant tensor:
#      x y z
#    x 1.770700 0.000000 0.000000 
#    y 0.000000 1.759860 0.000000 
#    z 0.000000 0.000000 1.730300 
# 
# From -- ./inp_files/20507.got.cif
#   From: 2010.03.12/outbox.cif.g09.slc.cpg/sg53_11_cif.got.tgz:20507.got - 2010.04.16 14:36:59.
