data_PCOD8219425
_publ_section_title
;
Structure prediction by ZEFSAII (Michael W. Deem and Ramdas Pophale) SiO2 
 PCOD8219425
Probable space group: P M N A
;
_chemical_formula_sum "Si O2"
_cell_formula_units_Z 64
_cell_length_a 8.629989
_cell_length_b 19.963204
_cell_length_c 20.177238
_cell_angle_alpha 90.000000
_cell_angle_beta 90.000000
_cell_angle_gamma 90.000000
_cell_volume 3476.179577
_symmetry_space_group_name_H-M "P M N A"
_symmetry_group_IT_number 53
_symmetry_cell_setting 'orthorhombic'
loop_
_space_group_symop_operation_xyz
x,y,z
1/2-x,-y,1/2+z
x,-y,-z
1/2-x,y,1/2-z
-x,-y,-z
1/2+x,y,1/2-z
-x,y,z
1/2+x,-y,1/2+z
loop_
_atom_site_type_symbol
_atom_site_label
_atom_site_fract_x
_atom_site_fract_y
_atom_site_fract_z
Si Si1 0.683332 0.664782 0.956447
Si Si2 0.819115 0.472300 0.071559
Si Si3 0.683772 0.839391 0.084406
Si Si4 0.817040 0.186926 0.436030
Si Si5 0.183295 0.691834 0.396887
Si Si6 0.818043 0.433084 0.680068
Si Si7 0.182619 0.946943 0.180477
Si Si8 0.815552 0.908108 0.679663
O O1 0.500000 0.651865 0.951570
O O2 0.774552 0.605515 0.920062
O O3 0.730536 0.735792 0.923242
O O4 0.743819 0.666732 0.032019
O O5 0.725467 0.511867 0.126612
O O6 0.000000 0.482511 0.083795
O O7 0.767349 0.500000 0.000000
O O8 0.500000 0.851745 0.090795
O O9 0.733957 0.768260 0.117357
O O10 0.777186 0.896571 0.121753
O O11 0.739635 0.839379 0.007835
O O12 0.749195 0.141172 0.377204
O O13 0.000000 0.182070 0.436929
O O14 0.247111 0.640473 0.341454
O O15 0.000000 0.690028 0.400738
O O16 0.750000 0.454373 0.750000
O O17 0.000000 0.429989 0.686614
O O18 0.250000 0.919580 0.250000
O O19 0.000000 0.955609 0.187531
O O20 0.257724 0.017874 0.162509
O O21 0.750000 0.883206 0.750000
O O22 0.000000 0.907712 0.682357
#
# Coordination Sequence:
#
# PCOD8219425 Si02
#       8
#     8   8   8   8   8   8   8   8
#     4   9  16  33  58  82 104 136 181 221 262 320
#     4  11  22  35  54  82 111 142 182 226 268 317
#     4   9  17  34  56  80 108 139 175 220 265 317
#     4   8  17  33  57  83 108 137 177 222 268 323
#     4   8  16  31  54  78 103 136 176 215 262 319
#     4  11  22  37  55  79 109 144 181 225 274 324
#     4  11  22  36  52  75 104 141 182 222 264 318
#     4  10  19  35  56  79 104 139 180 221 268 319
#
# _framework density 18.411016
#
# number of rings (size 3 to 8) (size 9 to 14) (size 15 to 20)
#    0.000    2.375    1.250    4.500    0.000    1.500 
#    0.000   10.625    0.000    1.500    0.000    0.000 
#    0.000    0.000    0.000    0.000    0.000    0.000 
#
# Total GULP energy -793457.270052 kJ/mol
# GULP energy per Si atom -12397.769845 kJ/mol
# Density = 1.836911 g / cm^3
# Si number density = 18.411016 Si / 1000 Ang^3
#
#
#
# Elastic Constant Matrix: (Units=GPa)
#
#
# Indices 1 2 3 4 5 6 
#
# 1 55.1674 26.9532 27.0511 0.0000 0.0000 0.0000
# 2 26.9532 123.0640 75.1329 0.0000 0.0000 0.0000
# 3 27.0511 75.1329 113.5540 0.0000 0.0000 0.0000
# 4 0.0000 0.0000 0.0000 -54.0404 0.0000 0.0000
# 5 0.0000 0.0000 0.0000 0.0000 24.6232 0.0000
# 6 0.0000 0.0000 0.0000 0.0000 0.0000 20.9052
#
#
#
# Elastic Compliance Matrix: (Units=1/GPa)
#
#
# Indices 1 2 3 4 5 6 
#
# 1 0.021006 -0.002593 -0.003288 0.000000 0.000000 0.000000
# 2 -0.002593 0.013953 -0.008614 0.000000 0.000000 0.000000
# 3 -0.003288 -0.008614 0.015289 0.000000 0.000000 0.000000
# 4 0.000000 0.000000 0.000000 -0.018505 0.000000 0.000000
# 5 0.000000 0.000000 0.000000 0.000000 0.040612 0.000000
# 6 0.000000 0.000000 0.000000 0.000000 0.000000 0.047835
#
#
# Mechanical properties :
#
#
# Convention : Reuss Voigt Hill
#
# Bulk Modulus (GPa) = 47.04351 61.11777 54.08064
# Shear Modulus (GPa) = 31.99641 9.14083 20.56862
#
# Velocity S-wave (km/s) = 4.17333 2.23062 3.34607
# Velocity P-wave (km/s) = 6.98781 6.31685 6.66078
#
# Compressibility (1/GPa) = 0.02125692
#
# Stress axis : x y z
#
# Youngs Moduli (GPa) = 47.60542 71.66967 65.40513
#
# Poissons Ratio (x) = 0.18584 0.21508
# Poissons Ratio (y) = 0.12344 0.56341
# Poissons Ratio (z) = 0.15655 0.61738
#
# Static dielectric constant tensor:
#      x y z
#    x 3.131090 0.000000 0.000000 
#    y 0.000000 3.634140 0.000000 
#    z 0.000000 0.000000 3.524930 
# 
# 
# High freq. dielectric constant tensor:
#      x y z
#    x 1.695470 0.000000 0.000000 
#    y 0.000000 1.723040 0.000000 
#    z 0.000000 0.000000 1.703760 
# 
# From -- ./inp_files/31276.got.cif
#   From: 2010.03.12/outbox.cif.g09.slc.cpg/sg53_16_cif.got.tgz:31276.got - 2010.04.16 14:36:59.
