data_PCOD8219484
_publ_section_title
;
Structure prediction by ZEFSAII (Michael W. Deem and Ramdas Pophale) SiO2 
 PCOD8219484
Probable space group: P M N A
;
_chemical_formula_sum "Si O2"
_cell_formula_units_Z 64
_cell_length_a 22.881330
_cell_length_b 15.220120
_cell_length_c 9.263397
_cell_angle_alpha 90.000000
_cell_angle_beta 90.000000
_cell_angle_gamma 90.000000
_cell_volume 3226.039036
_symmetry_space_group_name_H-M "P M N A"
_symmetry_group_IT_number 53
_symmetry_cell_setting 'orthorhombic'
loop_
_space_group_symop_operation_xyz
x,y,z
1/2-x,-y,1/2+z
x,-y,-z
1/2-x,y,1/2-z
-x,-y,-z
1/2+x,y,1/2-z
-x,y,z
1/2+x,-y,1/2+z
loop_
_atom_site_type_symbol
_atom_site_label
_atom_site_fract_x
_atom_site_fract_y
_atom_site_fract_z
Si Si1 0.626346 0.668445 0.852709
Si Si2 0.934076 0.786970 0.432070
Si Si3 0.066235 0.331248 0.835134
Si Si4 0.568490 0.500345 0.167837
Si Si5 0.156703 0.728982 0.943392
Si Si6 0.243640 0.592767 0.579969
Si Si7 0.696099 0.907440 0.423704
Si Si8 0.328617 0.085477 0.903700
O O1 0.599215 0.585519 0.765740
O O2 0.646787 0.736377 0.728844
O O3 0.680779 0.636872 0.950762
O O4 0.576159 0.708252 0.954737
O O5 0.930143 0.752538 0.269470
O O6 0.881695 0.854620 0.458994
O O7 0.000000 0.825172 0.458940
O O8 0.093388 0.414693 0.750253
O O9 0.000000 0.350682 0.881025
O O10 0.100709 0.312693 0.980227
O O11 0.500000 0.495280 0.189184
O O12 0.586235 0.500000 0.000000
O O13 0.210408 0.664301 0.979127
O O14 0.163188 0.828409 0.997991
O O15 0.250841 0.500000 0.500000
O O16 0.250000 0.575237 0.750000
O O17 0.667788 0.927347 0.267887
O O18 0.763737 0.876048 0.428778
O O19 0.687338 0.000000 0.500000
O O20 0.336240 0.000000 0.000000
#
# Coordination Sequence:
#
# PCOD8219484 Si02
#       8
#     8   8   8   8   8   8   8   8
#     4  11  23  37  58  89 123 165 207 250 301 362
#     4  11  22  39  63  92 124 161 207 252 303 363
#     4  10  22  38  61  86 118 164 208 255 297 355
#     4  10  19  35  59  84 115 160 211 253 291 344
#     4  11  24  41  62  87 127 161 205 255 314 371
#     4  10  24  40  57  89 126 168 206 255 310 365
#     4  10  22  43  67  95 123 159 200 254 315 370
#     4  10  22  41  67  96 120 154 202 248 309 373
#
# _framework density 19.838569
#
# number of rings (size 3 to 8) (size 9 to 14) (size 15 to 20)
#    0.000    1.625    2.500    1.500    5.250    1.250 
#    6.750    1.250    0.000    0.750    0.000    0.000 
#    0.000    0.000    0.000    0.000    0.000    0.000 
#
# Total GULP energy -793361.842425 kJ/mol
# GULP energy per Si atom -12396.278788 kJ/mol
# Density = 1.979342 g / cm^3
# Si number density = 19.838569 Si / 1000 Ang^3
#
#
#
# Elastic Constant Matrix: (Units=GPa)
#
#
# Indices 1 2 3 4 5 6 
#
# 1 88.3608 42.7406 35.2010 0.0000 0.0000 0.0000
# 2 42.7406 102.5203 39.5497 0.0000 0.0000 0.0000
# 3 35.2010 39.5497 61.4899 0.0000 0.0000 0.0000
# 4 0.0000 0.0000 0.0000 30.2218 0.0000 0.0000
# 5 0.0000 0.0000 0.0000 0.0000 28.9732 0.0000
# 6 0.0000 0.0000 0.0000 0.0000 0.0000 31.7836
#
#
#
# Elastic Compliance Matrix: (Units=1/GPa)
#
#
# Indices 1 2 3 4 5 6 
#
# 1 0.015881 -0.004141 -0.006428 0.000000 0.000000 0.000000
# 2 -0.004141 0.014053 -0.006668 0.000000 0.000000 0.000000
# 3 -0.006428 -0.006668 0.024231 0.000000 0.000000 0.000000
# 4 0.000000 0.000000 0.000000 0.033089 0.000000 0.000000
# 5 0.000000 0.000000 0.000000 0.000000 0.034515 0.000000
# 6 0.000000 0.000000 0.000000 0.000000 0.000000 0.031463
#
#
# Mechanical properties :
#
#
# Convention : Reuss Voigt Hill
#
# Bulk Modulus (GPa) = 50.78377 54.15041 52.46709
# Shear Modulus (GPa) = 25.73746 27.18770 26.46258
#
# Velocity S-wave (km/s) = 3.60577 3.70597 3.65622
# Velocity P-wave (km/s) = 6.55664 6.75774 6.65795
#
# Compressibility (1/GPa) = 0.01969133
#
# Stress axis : x y z
#
# Youngs Moduli (GPa) = 62.96834 71.15942 41.26869
#
# Poissons Ratio (x) = 0.29468 0.26527
# Poissons Ratio (y) = 0.26076 0.27518
# Poissons Ratio (z) = 0.40475 0.47450
#
# Static dielectric constant tensor:
#      x y z
#    x 3.709100 0.000000 0.000000 
#    y 0.000000 3.524160 0.000000 
#    z 0.000000 0.000000 3.511430 
# 
# 
# High freq. dielectric constant tensor:
#      x y z
#    x 1.779290 0.000000 0.000000 
#    y 0.000000 1.766130 0.000000 
#    z 0.000000 0.000000 1.770350 
# 
# From -- ./inp_files/11967.got.cif
#   From: 2010.03.12/outbox.cif.g09.slc.cpg/sg53_6_cif.got.tgz:11967.got - 2010.04.16 14:36:59.
