data_PCOD8219783
_publ_section_title
;
Structure prediction by ZEFSAII (Michael W. Deem and Ramdas Pophale) SiO2 
 PCOD8219783
Probable space group: P M N A
;
_chemical_formula_sum "Si O2"
_cell_formula_units_Z 56
_cell_length_a 8.657152
_cell_length_b 19.627699
_cell_length_c 18.370330
_cell_angle_alpha 90.000000
_cell_angle_beta 90.000000
_cell_angle_gamma 90.000000
_cell_volume 3121.485990
_symmetry_space_group_name_H-M "P M N A"
_symmetry_group_IT_number 53
_symmetry_cell_setting 'orthorhombic'
loop_
_space_group_symop_operation_xyz
x,y,z
1/2-x,-y,1/2+z
x,-y,-z
1/2-x,y,1/2-z
-x,-y,-z
1/2+x,y,1/2-z
-x,y,z
1/2+x,-y,1/2+z
loop_
_atom_site_type_symbol
_atom_site_label
_atom_site_fract_x
_atom_site_fract_y
_atom_site_fract_z
Si Si1 0.680539 0.296617 0.956724
Si Si2 0.329273 0.955039 0.571554
Si Si3 0.176803 0.480811 0.172171
Si Si4 0.817671 0.063794 0.668343
Si Si5 0.181937 0.568975 0.535518
Si Si6 0.677738 0.635530 0.327889
Si Si7 0.182811 0.151750 0.961812
O O1 0.500000 0.284323 0.969335
O O2 0.716485 0.313583 0.873460
O O3 0.772836 0.229240 0.977032
O O4 0.747666 0.360936 0.002068
O O5 0.500000 0.944698 0.605920
O O6 0.260927 0.885051 0.537228
O O7 0.342572 0.000000 0.500000
O O8 0.224638 0.989528 0.634251
O O9 0.250000 0.471402 0.250000
O O10 0.270540 0.430768 0.119596
O O11 0.193891 0.558225 0.143707
O O12 0.000000 0.458144 0.175066
O O13 0.750000 0.072766 0.750000
O O14 0.758114 0.122173 0.612610
O O15 0.000000 0.070184 0.674624
O O16 0.253393 0.500000 0.500000
O O17 0.000000 0.568746 0.524568
O O18 0.750000 0.640896 0.250000
O O19 0.500000 0.659328 0.328408
O O20 0.000000 0.142759 0.952478
#
# Coordination Sequence:
#
# PCOD8219783 Si02
#       7
#     8   8   8   8   8   8   8
#     4  11  22  35  53  77 106 142 181 222 270 323
#     4   8  16  33  55  78 106 140 175 213 257 304
#     4  10  20  33  53  76 100 130 169 218 271 326
#     4  11  21  34  56  85 115 145 180 218 257 307
#     4  10  20  35  54  76 105 138 177 228 278 324
#     4  10  20  33  49  71 100 134 172 214 263 321
#     4  10  21  37  55  77 110 146 180 219 265 318
#
# _framework density 17.940173999999999
#
# number of rings (size 3 to 8) (size 9 to 14) (size 15 to 20)
#    0.000    2.000    1.429    3.857    0.000    6.286 
#    0.000    2.857    0.000    0.857    0.000    6.000 
#    0.000    0.000    0.000    0.000    0.000    0.000 
#
# Total GULP energy -694042.391227 kJ/mol
# GULP energy per Si atom -12393.614129 kJ/mol
# Density = 1.789934 g / cm^3
# Si number density = 17.940174 Si / 1000 Ang^3
#
#
#
# Elastic Constant Matrix: (Units=GPa)
#
#
# Indices 1 2 3 4 5 6 
#
# 1 59.3649 35.6913 30.2878 0.0000 0.0000 0.0000
# 2 35.6913 121.2861 54.0120 0.0000 0.0000 0.0000
# 3 30.2878 54.0120 61.2544 0.0000 0.0000 0.0000
# 4 0.0000 0.0000 0.0000 26.7555 0.0000 0.0000
# 5 0.0000 0.0000 0.0000 0.0000 29.7933 0.0000
# 6 0.0000 0.0000 0.0000 0.0000 0.0000 27.4633
#
#
#
# Elastic Compliance Matrix: (Units=1/GPa)
#
#
# Indices 1 2 3 4 5 6 
#
# 1 0.023098 -0.002817 -0.008937 0.000000 0.000000 0.000000
# 2 -0.002817 0.013920 -0.010881 0.000000 0.000000 0.000000
# 3 -0.008937 -0.010881 0.030338 0.000000 0.000000 0.000000
# 4 0.000000 0.000000 0.000000 0.037376 0.000000 0.000000
# 5 0.000000 0.000000 0.000000 0.000000 0.033565 0.000000
# 6 0.000000 0.000000 0.000000 0.000000 0.000000 0.036412
#
#
# Mechanical properties :
#
#
# Convention : Reuss Voigt Hill
#
# Bulk Modulus (GPa) = 45.27665 53.54308 49.40986
# Shear Modulus (GPa) = 21.99340 24.93004 23.46172
#
# Velocity S-wave (km/s) = 3.50513 3.73181 3.62024
# Velocity P-wave (km/s) = 6.45551 6.96266 6.71387
#
# Compressibility (1/GPa) = 0.02208644
#
# Stress axis : x y z
#
# Youngs Moduli (GPa) = 43.29293 71.84164 32.96145
#
# Poissons Ratio (x) = 0.20241 0.29457
# Poissons Ratio (y) = 0.12197 0.35864
# Poissons Ratio (z) = 0.38691 0.78168
#
# Static dielectric constant tensor:
#      x y z
#    x 3.302080 0.000000 0.000000 
#    y 0.000000 3.665220 0.000000 
#    z 0.000000 0.000000 3.309700 
# 
# 
# High freq. dielectric constant tensor:
#      x y z
#    x 1.699110 0.000000 0.000000 
#    y 0.000000 1.679450 0.000000 
#    z 0.000000 0.000000 1.685740 
# 
# From -- ./inp_files/26653.got.cif
#   From: 2010.03.12/outbox.cif.g09.slc.cpg/sg53_14_cif.got.tgz:26653.got - 2010.04.16 14:36:59.
