data_PCOD8219743
_publ_section_title
;
Structure prediction by ZEFSAII (Michael W. Deem and Ramdas Pophale) SiO2 
 PCOD8219743
Probable space group: P M N A
;
_chemical_formula_sum "Si O2"
_cell_formula_units_Z 56
_cell_length_a 9.250816
_cell_length_b 14.973643
_cell_length_c 20.440970
_cell_angle_alpha 90.000000
_cell_angle_beta 90.000000
_cell_angle_gamma 90.000000
_cell_volume 2831.450791
_symmetry_space_group_name_H-M "P M N A"
_symmetry_group_IT_number 53
_symmetry_cell_setting 'orthorhombic'
loop_
_space_group_symop_operation_xyz
x,y,z
1/2-x,-y,1/2+z
x,-y,-z
1/2-x,y,1/2-z
-x,-y,-z
1/2+x,y,1/2-z
-x,y,z
1/2+x,-y,1/2+z
loop_
_atom_site_type_symbol
_atom_site_label
_atom_site_fract_x
_atom_site_fract_y
_atom_site_fract_z
Si Si1 0.840805 0.155967 0.689708
Si Si2 0.831327 0.922131 0.949389
Si Si3 0.834957 0.945438 0.685186
Si Si4 0.841852 0.282394 0.877163
Si Si5 0.169351 0.442651 0.434991
Si Si6 0.839325 0.719605 0.976890
Si Si7 0.329711 0.466451 0.683823
O O1 0.750000 0.193258 0.750000
O O2 0.770606 0.200575 0.626020
O O3 0.000000 0.193942 0.697792
O O4 0.837601 0.051094 0.685331
O O5 0.745372 0.918910 0.881158
O O6 0.801769 0.824973 0.980192
O O7 0.000000 0.938860 0.933926
O O8 0.777181 0.000000 0.000000
O O9 0.750000 0.910033 0.750000
O O10 0.000000 0.908190 0.686245
O O11 0.801368 0.361822 0.828019
O O12 0.000000 0.243394 0.860473
O O13 0.839068 0.319901 0.950220
O O14 0.203102 0.500000 0.500000
O O15 0.219989 0.339120 0.439779
O O16 0.259879 0.480333 0.375368
O O17 0.000000 0.444392 0.418741
O O18 0.000000 0.706863 0.945794
O O19 0.250000 0.495942 0.750000
O O20 0.500000 0.488286 0.688092
#
# Coordination Sequence:
#
# PCOD8219743 Si02
#       7
#     8   8   8   8   8   8   8
#     4  10  20  32  49  75 109 150 193 240 295 357
#     4  10  21  38  62  91 125 161 201 252 304 362
#     4  10  21  37  57  81 113 156 204 253 307 363
#     4  10  20  34  55  83 115 153 193 239 296 362
#     4  11  23  40  63  90 120 158 202 248 297 354
#     4  10  21  38  61  89 118 156 202 245 300 360
#     4  11  23  39  61  88 122 160 200 250 305 362
#
# _framework density 19.777847999999999
#
# number of rings (size 3 to 8) (size 9 to 14) (size 15 to 20)
#    0.000    1.714    1.429    3.000    0.000    7.143 
#    0.000    0.714    0.000    3.429    0.000    0.000 
#    0.000    0.000    0.000    0.000    0.000    0.000 
#
# Total GULP energy -694157.001160 kJ/mol
# GULP energy per Si atom -12395.660735 kJ/mol
# Density = 1.973283 g / cm^3
# Si number density = 19.777848 Si / 1000 Ang^3
#
#
#
# Elastic Constant Matrix: (Units=GPa)
#
#
# Indices 1 2 3 4 5 6 
#
# 1 123.0194 54.3525 55.2459 0.0000 0.0000 0.0000
# 2 54.3525 65.2058 36.3980 0.0000 0.0000 0.0000
# 3 55.2459 36.3980 107.6764 0.0000 0.0000 0.0000
# 4 0.0000 0.0000 0.0000 27.9395 0.0000 0.0000
# 5 0.0000 0.0000 0.0000 0.0000 36.5985 0.0000
# 6 0.0000 0.0000 0.0000 0.0000 0.0000 29.3175
#
#
#
# Elastic Compliance Matrix: (Units=1/GPa)
#
#
# Indices 1 2 3 4 5 6 
#
# 1 0.014162 -0.009551 -0.004038 0.000000 0.000000 0.000000
# 2 -0.009551 0.025344 -0.003667 0.000000 0.000000 0.000000
# 3 -0.004038 -0.003667 0.012598 0.000000 0.000000 0.000000
# 4 0.000000 0.000000 0.000000 0.035792 0.000000 0.000000
# 5 0.000000 0.000000 0.000000 0.000000 0.027324 0.000000
# 6 0.000000 0.000000 0.000000 0.000000 0.000000 0.034109
#
#
# Mechanical properties :
#
#
# Convention : Reuss Voigt Hill
#
# Bulk Modulus (GPa) = 56.83893 65.32159 61.08026
# Shear Modulus (GPa) = 26.35697 28.76478 27.56087
#
# Velocity S-wave (km/s) = 3.65451 3.81779 3.73704
# Velocity P-wave (km/s) = 6.82703 7.24799 7.04066
#
# Compressibility (1/GPa) = 0.01759357
#
# Stress axis : x y z
#
# Youngs Moduli (GPa) = 70.61281 39.45708 79.37689
#
# Poissons Ratio (x) = 0.37685 0.32049
# Poissons Ratio (y) = 0.67441 0.29106
# Poissons Ratio (z) = 0.28510 0.14468
#
# Static dielectric constant tensor:
#      x y z
#    x 3.889180 0.000000 0.000000 
#    y 0.000000 3.421870 0.000000 
#    z 0.000000 0.000000 3.662000 
# 
# 
# High freq. dielectric constant tensor:
#      x y z
#    x 1.779100 0.000000 0.000000 
#    y 0.000000 1.755460 0.000000 
#    z 0.000000 0.000000 1.769350 
# 
# From -- ./inp_files/30747.got.cif
#   From: 2010.03.12/outbox.cif.g09.slc.cpg/sg53_16_cif.got.tgz:30747.got - 2010.04.16 14:36:59.
