data_PCOD8219549
_publ_section_title
;
Structure prediction by ZEFSAII (Michael W. Deem and Ramdas Pophale) SiO2 
 PCOD8219549
Probable space group: P M N A
;
_chemical_formula_sum "Si O2"
_cell_formula_units_Z 48
_cell_length_a 18.546590
_cell_length_b 9.612376
_cell_length_c 14.435506
_cell_angle_alpha 90.000000
_cell_angle_beta 90.000000
_cell_angle_gamma 90.000000
_cell_volume 2573.515767
_symmetry_space_group_name_H-M "P M N A"
_symmetry_group_IT_number 53
_symmetry_cell_setting 'orthorhombic'
loop_
_space_group_symop_operation_xyz
x,y,z
1/2-x,-y,1/2+z
x,-y,-z
1/2-x,y,1/2-z
-x,-y,-z
1/2+x,y,1/2-z
-x,y,z
1/2+x,-y,1/2+z
loop_
_atom_site_type_symbol
_atom_site_label
_atom_site_fract_x
_atom_site_fract_y
_atom_site_fract_z
Si Si1 0.583357 0.716001 0.751122
Si Si2 0.667895 0.006996 0.247203
Si Si3 0.085404 0.356158 0.454864
Si Si4 0.799625 0.743369 0.161012
Si Si5 0.417494 0.521306 0.391677
Si Si6 0.678230 0.866847 0.057328
O O1 0.500000 0.746204 0.761514
O O2 0.610839 0.646772 0.847320
O O3 0.600440 0.619148 0.663603
O O4 0.618372 0.863587 0.730690
O O5 0.750000 0.061240 0.250000
O O6 0.658907 0.889840 0.325923
O O7 0.646312 0.929927 0.152013
O O8 0.113961 0.500000 0.500000
O O9 0.116981 0.221437 0.506056
O O10 0.000000 0.346734 0.465149
O O11 0.750000 0.705510 0.250000
O O12 0.860730 0.631711 0.144455
O O13 0.746053 0.763218 0.073734
O O14 0.405807 0.500000 0.500000
O O15 0.500000 0.568963 0.370990
O O16 0.704489 0.000000 0.000000
#
# Coordination Sequence:
#
# PCOD8219549 Si02
#       6
#     8   8   8   8   8   8
#     4  10  21  38  60  86 117 153 196 243 288 345
#     4   9  20  37  54  82 118 153 189 237 289 347
#     4  10  22  36  55  89 126 156 192 236 291 363
#     4   9  22  39  58  87 116 150 196 242 293 351
#     4  10  23  43  62  83 116 158 202 247 294 345
#     4  10  19  36  58  83 123 157 190 238 296 359
#
# _framework density 18.651527999999999
#
# number of rings (size 3 to 8) (size 9 to 14) (size 15 to 20)
#    0.000    2.667    1.667    0.000    4.667    5.667 
#    0.000    0.000    0.000    3.500    0.000    0.000 
#    0.000    0.000    0.000    0.000    0.000    0.000 
#
# Total GULP energy -594959.916919 kJ/mol
# GULP energy per Si atom -12394.998269 kJ/mol
# Density = 1.860908 g / cm^3
# Si number density = 18.651528 Si / 1000 Ang^3
#
#
#
# Elastic Constant Matrix: (Units=GPa)
#
#
# Indices 1 2 3 4 5 6 
#
# 1 64.9898 69.3504 38.9155 0.0000 0.0000 0.0000
# 2 69.3504 127.2556 53.0258 0.0000 0.0000 0.0000
# 3 38.9155 53.0258 104.6794 0.0000 0.0000 0.0000
# 4 0.0000 0.0000 0.0000 25.8669 0.0000 0.0000
# 5 0.0000 0.0000 0.0000 0.0000 20.1041 0.0000
# 6 0.0000 0.0000 0.0000 0.0000 0.0000 45.3403
#
#
#
# Elastic Compliance Matrix: (Units=1/GPa)
#
#
# Indices 1 2 3 4 5 6 
#
# 1 0.038490 -0.019030 -0.004669 0.000000 0.000000 0.000000
# 2 -0.019030 0.019370 -0.002737 0.000000 0.000000 0.000000
# 3 -0.004669 -0.002737 0.012675 0.000000 0.000000 0.000000
# 4 0.000000 0.000000 0.000000 0.038659 0.000000 0.000000
# 5 0.000000 0.000000 0.000000 0.000000 0.049741 0.000000
# 6 0.000000 0.000000 0.000000 0.000000 0.000000 0.022055
#
#
# Mechanical properties :
#
#
# Convention : Reuss Voigt Hill
#
# Bulk Modulus (GPa) = 56.61909 68.83424 62.72666
# Shear Modulus (GPa) = 20.85492 27.30448 24.07970
#
# Velocity S-wave (km/s) = 3.34748 3.83028 3.59699
# Velocity P-wave (km/s) = 6.73521 7.51977 7.13828
#
# Compressibility (1/GPa) = 0.01766189
#
# Stress axis : x y z
#
# Youngs Moduli (GPa) = 25.98066 51.62709 78.89392
#
# Poissons Ratio (x) = 0.98248 0.36837
# Poissons Ratio (y) = 0.49442 0.21594
# Poissons Ratio (z) = 0.12131 0.14131
#
# Static dielectric constant tensor:
#      x y z
#    x 3.345270 0.000000 0.000000 
#    y 0.000000 3.377990 0.000000 
#    z 0.000000 0.000000 3.626940 
# 
# 
# High freq. dielectric constant tensor:
#      x y z
#    x 1.712840 0.000000 0.000000 
#    y 0.000000 1.727290 0.000000 
#    z 0.000000 0.000000 1.729240 
# 
# From -- ./inp_files/23602.got.cif
#   From: 2010.03.12/outbox.cif.g09.slc.cpg/sg53_12_cif.got.tgz:23602.got - 2010.04.16 14:36:59.
