data_PCOD8219608
_publ_section_title
;
Structure prediction by ZEFSAII (Michael W. Deem and Ramdas Pophale) SiO2 
 PCOD8219608
Probable space group: P M N A
;
_chemical_formula_sum "Si O2"
_cell_formula_units_Z 64
_cell_length_a 8.753748
_cell_length_b 24.709267
_cell_length_c 14.489660
_cell_angle_alpha 90.000000
_cell_angle_beta 90.000000
_cell_angle_gamma 90.000000
_cell_volume 3134.094572
_symmetry_space_group_name_H-M "P M N A"
_symmetry_group_IT_number 53
_symmetry_cell_setting 'orthorhombic'
loop_
_space_group_symop_operation_xyz
x,y,z
1/2-x,-y,1/2+z
x,-y,-z
1/2-x,y,1/2-z
-x,-y,-z
1/2+x,y,1/2-z
-x,y,z
1/2+x,-y,1/2+z
loop_
_atom_site_type_symbol
_atom_site_label
_atom_site_fract_x
_atom_site_fract_y
_atom_site_fract_z
Si Si1 0.175537 0.513160 0.106587
Si Si2 0.822746 0.880626 0.541395
Si Si3 0.820767 0.592329 0.657986
Si Si4 0.819717 0.971673 0.844633
Si Si5 0.678869 0.322436 0.464520
Si Si6 0.177253 0.911937 0.342545
Si Si7 0.319843 0.225670 0.148513
Si Si8 0.678527 0.367264 0.655228
O O1 0.284375 0.471458 0.160305
O O2 0.239702 0.572838 0.129610
O O3 0.000000 0.505696 0.138572
O O4 0.192358 0.500000 0.000000
O O5 0.725581 0.932175 0.572600
O O6 0.797097 0.873055 0.431041
O O7 0.763078 0.827895 0.595221
O O8 0.000000 0.891661 0.562915
O O9 0.750000 0.619406 0.750000
O O10 0.732875 0.619508 0.572873
O O11 0.000000 0.603781 0.652483
O O12 0.750000 0.947748 0.750000
O O13 0.000000 0.975068 0.836246
O O14 0.754263 0.030797 0.864500
O O15 0.500000 0.314417 0.446209
O O16 0.771576 0.275761 0.414166
O O17 0.716784 0.324351 0.573903
O O18 0.250000 0.885447 0.250000
O O19 0.000000 0.922210 0.323372
O O20 0.250000 0.228411 0.250000
O O21 0.500000 0.226423 0.159306
O O22 0.750000 0.345433 0.750000
O O23 0.500000 0.371429 0.668892
#
# Coordination Sequence:
#
# PCOD8219608 Si02
#       8
#     8   8   8   8   8   8   8   8
#     4  10  19  37  59  84 120 157 190 234 286 341
#     4  10  22  39  59  84 118 156 196 242 296 350
#     4  12  24  37  57  86 117 153 193 235 285 344
#     4  11  21  33  54  85 121 159 200 244 291 349
#     4  11  23  43  64  85 114 152 193 239 294 346
#     4  10  20  36  57  83 118 160 200 243 291 343
#     4  11  24  43  65  91 118 149 189 240 295 351
#     4  10  22  39  62  87 117 155 193 237 288 341
#
# _framework density 20.420570999999999
#
# number of rings (size 3 to 8) (size 9 to 14) (size 15 to 20)
#    0.000    1.375    1.250    5.625    0.000    7.250 
#    0.000    0.625    0.000    3.000    0.000    0.000 
#    0.000    0.000    0.000    0.000    0.000    0.000 
#
# Total GULP energy -793698.482174 kJ/mol
# GULP energy per Si atom -12401.538784 kJ/mol
# Density = 2.037409 g / cm^3
# Si number density = 20.420571 Si / 1000 Ang^3
#
#
#
# Elastic Constant Matrix: (Units=GPa)
#
#
# Indices 1 2 3 4 5 6 
#
# 1 78.2712 23.2418 46.8674 0.0000 0.0000 0.0000
# 2 23.2418 72.1009 48.7377 0.0000 0.0000 0.0000
# 3 46.8674 48.7377 151.2438 0.0000 0.0000 0.0000
# 4 0.0000 0.0000 0.0000 28.6381 0.0000 0.0000
# 5 0.0000 0.0000 0.0000 0.0000 35.9147 0.0000
# 6 0.0000 0.0000 0.0000 0.0000 0.0000 6.6395
#
#
#
# Elastic Compliance Matrix: (Units=1/GPa)
#
#
# Indices 1 2 3 4 5 6 
#
# 1 0.015981 -0.002306 -0.004209 0.000000 0.000000 0.000000
# 2 -0.002306 0.018065 -0.005107 0.000000 0.000000 0.000000
# 3 -0.004209 -0.005107 0.009562 0.000000 0.000000 0.000000
# 4 0.000000 0.000000 0.000000 0.034919 0.000000 0.000000
# 5 0.000000 0.000000 0.000000 0.000000 0.027844 0.000000
# 6 0.000000 0.000000 0.000000 0.000000 0.000000 0.150614
#
#
# Mechanical properties :
#
#
# Convention : Reuss Voigt Hill
#
# Bulk Modulus (GPa) = 49.10701 59.92330 54.51515
# Shear Modulus (GPa) = 17.42061 26.42306 21.92184
#
# Velocity S-wave (km/s) = 2.92394 3.60104 3.28001
# Velocity P-wave (km/s) = 5.95813 6.83362 6.41083
#
# Compressibility (1/GPa) = 0.02036369
#
# Stress axis : x y z
#
# Youngs Moduli (GPa) = 62.57335 55.35620 104.58369
#
# Poissons Ratio (x) = 0.12767 0.44020
# Poissons Ratio (y) = 0.14432 0.53407
# Poissons Ratio (z) = 0.26337 0.28268
#
# Static dielectric constant tensor:
#      x y z
#    x 3.629610 0.000000 0.000000 
#    y 0.000000 3.520770 0.000000 
#    z 0.000000 0.000000 4.097260 
# 
# 
# High freq. dielectric constant tensor:
#      x y z
#    x 1.799380 0.000000 0.000000 
#    y 0.000000 1.772970 0.000000 
#    z 0.000000 0.000000 1.816390 
# 
# From -- ./inp_files/20878.got.cif
#   From: 2010.03.12/outbox.cif.g09.slc.cpg/sg53_11_cif.got.tgz:20878.got - 2010.04.16 14:36:59.
