data_PCOD8219315
_publ_section_title
;
Structure prediction by ZEFSAII (Michael W. Deem and Ramdas Pophale) SiO2 
 PCOD8219315
Probable space group: P M N A
;
_chemical_formula_sum "Si O2"
_cell_formula_units_Z 64
_cell_length_a 17.530133
_cell_length_b 21.162715
_cell_length_c 8.803374
_cell_angle_alpha 90.000000
_cell_angle_beta 90.000000
_cell_angle_gamma 90.000000
_cell_volume 3265.921540
_symmetry_space_group_name_H-M "P M N A"
_symmetry_group_IT_number 53
_symmetry_cell_setting 'orthorhombic'
loop_
_space_group_symop_operation_xyz
x,y,z
1/2-x,-y,1/2+z
x,-y,-z
1/2-x,y,1/2-z
-x,-y,-z
1/2+x,y,1/2-z
-x,y,z
1/2+x,-y,1/2+z
loop_
_atom_site_type_symbol
_atom_site_label
_atom_site_fract_x
_atom_site_fract_y
_atom_site_fract_z
Si Si1 0.583770 0.499391 0.681126
Si Si2 0.590584 0.363721 0.632729
Si Si3 0.333544 0.253218 0.810407
Si Si4 0.168302 0.252488 0.328882
Si Si5 0.412738 0.873900 0.182272
Si Si6 0.413514 0.126566 0.175563
Si Si7 0.663376 0.375922 0.306807
Si Si8 0.409386 0.998702 0.672435
O O1 0.584807 0.500000 0.500000
O O2 0.500000 0.513929 0.744370
O O3 0.608914 0.428280 0.727929
O O4 0.635316 0.555325 0.749301
O O5 0.500000 0.362438 0.587111
O O6 0.609672 0.305739 0.742772
O O7 0.645882 0.364644 0.485223
O O8 0.250000 0.266165 0.750000
O O9 0.364070 0.185076 0.755941
O O10 0.329723 0.255282 0.990702
O O11 0.250000 0.251171 0.250000
O O12 0.126889 0.190002 0.267362
O O13 0.123199 0.315906 0.275725
O O14 0.500000 0.863952 0.235285
O O15 0.376837 0.937938 0.250269
O O16 0.407608 0.880411 0.003205
O O17 0.500000 0.131944 0.231673
O O18 0.374987 0.064377 0.250074
O O19 0.750000 0.373503 0.250000
O O20 0.500000 0.998278 0.692442
O O21 0.382605 0.000000 0.500000
#
# Coordination Sequence:
#
# PCOD8219315 Si02
#       8
#     8   8   8   8   8   8   8   8
#     4   8  16  33  56  81 110 145 186 232 282 338
#     4  10  21  39  62  86 115 154 197 241 291 345
#     4  11  22  37  57  81 112 147 190 239 285 341
#     4  10  22  38  53  77 112 146 182 227 282 341
#     4   9  18  34  54  75 104 141 178 220 276 338
#     4   9  18  33  54  76 100 137 179 220 270 330
#     4  10  19  34  56  84 116 150 190 234 285 343
#     4   9  17  29  49  79 108 132 170 225 274 324
#
# _framework density 19.596305999999998
#
# number of rings (size 3 to 8) (size 9 to 14) (size 15 to 20)
#    0.000    2.500    0.000    3.375    0.000    5.500 
#    0.000    5.000    0.000    1.500    0.000    0.000 
#    0.000    0.000    0.000    0.000    0.000    0.000 
#
# Total GULP energy -793070.951398 kJ/mol
# GULP energy per Si atom -12391.733616 kJ/mol
# Density = 1.955170 g / cm^3
# Si number density = 19.596306 Si / 1000 Ang^3
#
#
#
# Elastic Constant Matrix: (Units=GPa)
#
#
# Indices 1 2 3 4 5 6 
#
# 1 64.7601 56.2329 30.2700 0.0000 0.0000 0.0000
# 2 56.2329 223.4937 54.7752 0.0000 0.0000 0.0000
# 3 30.2700 54.7752 53.6384 0.0000 0.0000 0.0000
# 4 0.0000 0.0000 0.0000 32.6932 0.0000 0.0000
# 5 0.0000 0.0000 0.0000 0.0000 19.9504 0.0000
# 6 0.0000 0.0000 0.0000 0.0000 0.0000 24.1906
#
#
#
# Elastic Compliance Matrix: (Units=1/GPa)
#
#
# Indices 1 2 3 4 5 6 
#
# 1 0.022804 -0.003446 -0.009350 0.000000 0.000000 0.000000
# 2 -0.003446 0.006489 -0.004682 0.000000 0.000000 0.000000
# 3 -0.009350 -0.004682 0.028701 0.000000 0.000000 0.000000
# 4 0.000000 0.000000 0.000000 0.030587 0.000000 0.000000
# 5 0.000000 0.000000 0.000000 0.000000 0.050124 0.000000
# 6 0.000000 0.000000 0.000000 0.000000 0.000000 0.041338
#
#
# Mechanical properties :
#
#
# Convention : Reuss Voigt Hill
#
# Bulk Modulus (GPa) = 43.40597 69.38316 56.39456
# Shear Modulus (GPa) = 22.45381 28.74111 25.59746
#
# Velocity S-wave (km/s) = 3.38867 3.83385 3.61811
# Velocity P-wave (km/s) = 6.12445 7.42166 6.80404
#
# Compressibility (1/GPa) = 0.02303831
#
# Stress axis : x y z
#
# Youngs Moduli (GPa) = 43.85112 154.10943 34.84226
#
# Poissons Ratio (x) = 0.53109 0.32578
# Poissons Ratio (y) = 0.15112 0.16312
# Poissons Ratio (z) = 0.41001 0.72148
#
# Static dielectric constant tensor:
#      x y z
#    x 3.408640 0.000000 0.000000 
#    y 0.000000 4.323060 0.000000 
#    z 0.000000 0.000000 3.334410 
# 
# 
# High freq. dielectric constant tensor:
#      x y z
#    x 1.736180 0.000000 0.000000 
#    y 0.000000 1.796620 0.000000 
#    z 0.000000 0.000000 1.742730 
# 
# From -- ./inp_files/10268.got.cif
#   From: 2010.03.12/outbox.cif.g09.slc.cpg/sg53_6_cif.got.tgz:10268.got - 2010.04.16 14:36:59.
