data_PCOD8219132
_publ_section_title
;
Structure prediction by ZEFSAII (Michael W. Deem and Ramdas Pophale) SiO2 
 PCOD8219132
Probable space group: P M N A
;
_chemical_formula_sum "Si O2"
_cell_formula_units_Z 64
_cell_length_a 8.755116
_cell_length_b 15.291361
_cell_length_c 23.297325
_cell_angle_alpha 90.000000
_cell_angle_beta 90.000000
_cell_angle_gamma 90.000000
_cell_volume 3118.990874
_symmetry_space_group_name_H-M "P M N A"
_symmetry_group_IT_number 53
_symmetry_cell_setting 'orthorhombic'
loop_
_space_group_symop_operation_xyz
x,y,z
1/2-x,-y,1/2+z
x,-y,-z
1/2-x,y,1/2-z
-x,-y,-z
1/2+x,y,1/2-z
-x,y,z
1/2+x,-y,1/2+z
loop_
_atom_site_type_symbol
_atom_site_label
_atom_site_fract_x
_atom_site_fract_y
_atom_site_fract_z
Si Si1 0.323956 0.114689 0.611326
Si Si2 0.676420 0.699417 0.123155
Si Si3 0.174061 0.130962 0.020258
Si Si4 0.178988 0.388215 0.109623
Si Si5 0.820363 0.225459 0.189494
Si Si6 0.323866 0.687599 0.993251
Si Si7 0.820307 0.454005 0.810989
Si Si8 0.679122 0.060640 0.128957
O O1 0.500000 0.126372 0.628512
O O2 0.234378 0.201770 0.628299
O O3 0.306367 0.094105 0.543666
O O4 0.250997 0.033405 0.645546
O O5 0.500000 0.697719 0.140349
O O6 0.768339 0.640897 0.167843
O O7 0.702796 0.660710 0.059268
O O8 0.214008 0.232590 0.022315
O O9 0.285730 0.079223 0.062314
O O10 0.000000 0.119704 0.042104
O O11 0.222162 0.300589 0.144219
O O12 0.271950 0.389868 0.049439
O O13 0.236249 0.472125 0.144821
O O14 0.000000 0.393966 0.096637
O O15 0.750000 0.253439 0.250000
O O16 0.751526 0.133664 0.169501
O O17 0.000000 0.215156 0.196363
O O18 0.500000 0.713676 0.983211
O O19 0.750000 0.476787 0.750000
O O20 0.000000 0.455424 0.804464
O O21 0.500000 0.057505 0.139532
#
# Coordination Sequence:
#
# PCOD8219132 Si02
#       8
#     8   8   8   8   8   8   8   8
#     4  10  21  37  59  86 118 158 200 246 299 355
#     4  10  22  41  62  90 125 160 200 253 305 359
#     4  10  19  33  54  83 120 159 199 242 293 352
#     4  10  22  39  62  90 123 159 199 245 301 364
#     4  11  23  40  60  84 118 160 203 251 303 360
#     4  10  20  34  58  90 125 162 200 242 301 363
#     4  11  24  43  66  92 118 156 204 252 304 361
#     4  12  23  35  55  85 119 158 202 246 295 354
#
# _framework density 20.519456999999999
#
# number of rings (size 3 to 8) (size 9 to 14) (size 15 to 20)
#    0.000    1.500    1.250    4.125    0.000    6.500 
#    0.000    3.125    0.000    0.000    0.000    0.000 
#    0.000    0.000    0.000    0.000    0.000    0.000 
#
# Total GULP energy -793881.249297 kJ/mol
# GULP energy per Si atom -12404.394520 kJ/mol
# Density = 2.047275 g / cm^3
# Si number density = 20.519457 Si / 1000 Ang^3
#
#
#
# Elastic Constant Matrix: (Units=GPa)
#
#
# Indices 1 2 3 4 5 6 
#
# 1 83.6969 22.6047 22.6962 0.0000 0.0000 0.0000
# 2 22.6047 61.9801 20.8630 0.0000 0.0000 0.0000
# 3 22.6962 20.8630 31.7450 0.0000 0.0000 0.0000
# 4 0.0000 0.0000 0.0000 18.8323 0.0000 0.0000
# 5 0.0000 0.0000 0.0000 0.0000 31.9064 0.0000
# 6 0.0000 0.0000 0.0000 0.0000 0.0000 27.0220
#
#
#
# Elastic Compliance Matrix: (Units=1/GPa)
#
#
# Indices 1 2 3 4 5 6 
#
# 1 0.015095 -0.002405 -0.009212 0.000000 0.000000 0.000000
# 2 -0.002405 0.021100 -0.012148 0.000000 0.000000 0.000000
# 3 -0.009212 -0.012148 0.046071 0.000000 0.000000 0.000000
# 4 0.000000 0.000000 0.000000 0.053100 0.000000 0.000000
# 5 0.000000 0.000000 0.000000 0.000000 0.031342 0.000000
# 6 0.000000 0.000000 0.000000 0.000000 0.000000 0.037007
#
#
# Mechanical properties :
#
#
# Convention : Reuss Voigt Hill
#
# Bulk Modulus (GPa) = 28.78764 34.41664 31.60214
# Shear Modulus (GPa) = 19.02411 22.96936 20.99673
#
# Velocity S-wave (km/s) = 3.04818 3.34936 3.20231
# Velocity P-wave (km/s) = 5.14280 5.63620 5.39514
#
# Compressibility (1/GPa) = 0.03473713
#
# Stress axis : x y z
#
# Youngs Moduli (GPa) = 66.24545 47.39263 21.70552
#
# Poissons Ratio (x) = 0.11396 0.19996
# Poissons Ratio (y) = 0.15929 0.26368
# Poissons Ratio (z) = 0.61027 0.57573
#
# Static dielectric constant tensor:
#      x y z
#    x 3.721390 0.000000 0.000000 
#    y 0.000000 3.709060 0.000000 
#    z 0.000000 0.000000 3.667810 
# 
# 
# High freq. dielectric constant tensor:
#      x y z
#    x 1.811300 0.000000 0.000000 
#    y 0.000000 1.804640 0.000000 
#    z 0.000000 0.000000 1.789210 
# 
# From -- ./inp_files/34314.got.cif
#   From: 2010.03.12/outbox.cif.g09.slc.cpg/sg53_18_cif.got.tgz:34314.got - 2010.04.16 14:36:59.
