data_PCOD8219443
_publ_section_title
;
Structure prediction by ZEFSAII (Michael W. Deem and Ramdas Pophale) SiO2 
 PCOD8219443
Probable space group: P M N A
;
_chemical_formula_sum "Si O2"
_cell_formula_units_Z 64
_cell_length_a 17.670515
_cell_length_b 8.694428
_cell_length_c 22.229629
_cell_angle_alpha 90.000000
_cell_angle_beta 90.000000
_cell_angle_gamma 90.000000
_cell_volume 3415.249505
_symmetry_space_group_name_H-M "P M N A"
_symmetry_group_IT_number 53
_symmetry_cell_setting 'orthorhombic'
loop_
_space_group_symop_operation_xyz
x,y,z
1/2-x,-y,1/2+z
x,-y,-z
1/2-x,y,1/2-z
-x,-y,-z
1/2+x,y,1/2-z
-x,y,z
1/2+x,-y,1/2+z
loop_
_atom_site_type_symbol
_atom_site_label
_atom_site_fract_x
_atom_site_fract_y
_atom_site_fract_z
Si Si1 0.415792 0.666968 0.246972
Si Si2 0.205451 0.687220 0.089285
Si Si3 0.824732 0.479967 0.349011
Si Si4 0.915921 0.639863 0.545603
Si Si5 0.810570 0.902632 0.200555
Si Si6 0.273616 0.168738 0.022763
Si Si7 0.584463 0.524960 0.634568
Si Si8 0.792354 0.769016 0.848799
O O1 0.500000 0.690414 0.219450
O O2 0.356621 0.600032 0.198989
O O3 0.388943 0.831996 0.273531
O O4 0.418375 0.541026 0.298625
O O5 0.271415 0.567242 0.103962
O O6 0.208499 0.828392 0.136058
O O7 0.125447 0.598507 0.091365
O O8 0.216313 0.741760 0.021226
O O9 0.894014 0.410095 0.386619
O O10 0.771635 0.345048 0.319565
O O11 0.915568 0.500000 0.500000
O O12 0.857703 0.763866 0.520531
O O13 0.000000 0.712368 0.549006
O O14 0.750000 0.852189 0.250000
O O15 0.811669 0.087469 0.194607
O O16 0.239923 0.168345 0.088863
O O17 0.283753 0.000000 0.000000
O O18 0.500000 0.554764 0.609630
O O19 0.628723 0.685117 0.638053
#
# Coordination Sequence:
#
# PCOD8219443 Si02
#       8
#     8   8   8   8   8   8   8   8
#     4  10  21  37  58  82 114 152 184 231 288 346
#     4  10  19  36  60  82 109 146 192 231 271 342
#     4  10  19  35  57  83 113 148 192 233 273 335
#     4  10  20  33  54  82 112 147 187 234 275 323
#     4  11  21  35  57  85 110 146 191 229 279 331
#     4  11  21  38  57  81 115 150 192 228 285 334
#     4   9  21  38  57  82 112 143 182 236 294 336
#     4  10  23  34  60  86 112 148 188 241 278 334
#
# _framework density 18.739478999999999
#
# number of rings (size 3 to 8) (size 9 to 14) (size 15 to 20)
#    0.000    1.875    3.750    0.375    1.750    0.750 
#    0.000    1.250    0.000    1.500    0.000    0.000 
#    0.000    0.000    0.000    0.000    0.000    0.000 
#
# Total GULP energy -793427.625078 kJ/mol
# GULP energy per Si atom -12397.306642 kJ/mol
# Density = 1.869683 g / cm^3
# Si number density = 18.739479 Si / 1000 Ang^3
#
#
#
# Elastic Constant Matrix: (Units=GPa)
#
#
# Indices 1 2 3 4 5 6 
#
# 1 142.7431 50.2694 33.3905 0.0000 0.0000 0.0000
# 2 50.2694 102.5387 20.4047 0.0000 0.0000 0.0000
# 3 33.3905 20.4047 51.0305 0.0000 0.0000 0.0000
# 4 0.0000 0.0000 0.0000 26.1064 0.0000 0.0000
# 5 0.0000 0.0000 0.0000 0.0000 23.8745 0.0000
# 6 0.0000 0.0000 0.0000 0.0000 0.0000 21.4646
#
#
#
# Elastic Compliance Matrix: (Units=1/GPa)
#
#
# Indices 1 2 3 4 5 6 
#
# 1 0.009394 -0.003675 -0.004677 0.000000 0.000000 0.000000
# 2 -0.003675 0.012033 -0.002407 0.000000 0.000000 0.000000
# 3 -0.004677 -0.002407 0.023619 0.000000 0.000000 0.000000
# 4 0.000000 0.000000 0.000000 0.038305 0.000000 0.000000
# 5 0.000000 0.000000 0.000000 0.000000 0.041886 0.000000
# 6 0.000000 0.000000 0.000000 0.000000 0.000000 0.046588
#
#
# Mechanical properties :
#
#
# Convention : Reuss Voigt Hill
#
# Bulk Modulus (GPa) = 42.50267 56.04905 49.27586
# Shear Modulus (GPa) = 24.85277 27.10561 25.97919
#
# Velocity S-wave (km/s) = 3.64569 3.80734 3.72739
# Velocity P-wave (km/s) = 6.36015 7.02156 6.69902
#
# Compressibility (1/GPa) = 0.02352793
#
# Stress axis : x y z
#
# Youngs Moduli (GPa) = 106.45384 83.10602 42.33870
#
# Poissons Ratio (x) = 0.30537 0.19803
# Poissons Ratio (y) = 0.39117 0.10191
# Poissons Ratio (z) = 0.49791 0.20004
#
# Static dielectric constant tensor:
#      x y z
#    x 3.714300 0.000000 0.000000 
#    y 0.000000 3.473170 0.000000 
#    z 0.000000 0.000000 3.352540 
# 
# 
# High freq. dielectric constant tensor:
#      x y z
#    x 1.726030 0.000000 0.000000 
#    y 0.000000 1.725580 0.000000 
#    z 0.000000 0.000000 1.721840 
# 
# From -- ./inp_files/32850.got.cif
#   From: 2010.03.12/outbox.cif.g09.slc.cpg/sg53_17_cif.got.tgz:32850.got - 2010.04.16 14:36:59.
