data_PCOD8219227
_publ_section_title
;
Structure prediction by ZEFSAII (Michael W. Deem and Ramdas Pophale) SiO2 
 PCOD8219227
Probable space group: P M N A
;
_chemical_formula_sum "Si O2"
_cell_formula_units_Z 48
_cell_length_a 15.858270
_cell_length_b 14.653007
_cell_length_c 11.279777
_cell_angle_alpha 90.000000
_cell_angle_beta 90.000000
_cell_angle_gamma 90.000000
_cell_volume 2621.096911
_symmetry_space_group_name_H-M "P M N A"
_symmetry_group_IT_number 53
_symmetry_cell_setting 'orthorhombic'
loop_
_space_group_symop_operation_xyz
x,y,z
1/2-x,-y,1/2+z
x,-y,-z
1/2-x,y,1/2-z
-x,-y,-z
1/2+x,y,1/2-z
-x,y,z
1/2+x,-y,1/2+z
loop_
_atom_site_type_symbol
_atom_site_label
_atom_site_fract_x
_atom_site_fract_y
_atom_site_fract_z
Si Si1 0.338595 0.751644 0.615262
Si Si2 0.679002 0.646683 0.969450
Si Si3 0.096758 0.197840 0.364701
Si Si4 0.333284 0.474583 0.820632
Si Si5 0.000000 0.522218 0.178463
Si Si6 0.500000 0.655540 0.541408
Si Si7 0.740076 0.933884 0.886985
O O1 0.267637 0.678017 0.585816
O O2 0.361084 0.749476 0.753905
O O3 0.420150 0.723337 0.539600
O O4 0.307907 0.854197 0.587364
O O5 0.610864 0.729365 0.970143
O O6 0.641400 0.561197 0.899200
O O7 0.691274 0.615355 0.104456
O O8 0.144816 0.104127 0.393627
O O9 0.000000 0.173405 0.342657
O O10 0.250000 0.501642 0.750000
O O11 0.414792 0.450390 0.744561
O O12 0.000000 0.412906 0.154390
O O13 0.000000 0.586855 0.066105
O O14 0.750000 0.974013 0.750000
O O15 0.752940 0.000000 0.000000
#
# Coordination Sequence:
#
# PCOD8219227 Si02
#       7
#     8   8   8   8   4   4   8
#     4  10  19  36  60  85 104 149 193 241 275 333
#     4  10  21  33  54  74 110 148 194 233 282 332
#     4  10  19  33  59  87 109 141 189 240 278 336
#     4  11  22  35  49  75 112 153 194 240 286 332
#     4  11  24  33  52  80 114 156 191 242 290 330
#     4  11  20  36  57  78 111 145 202 237 277 325
#     4   9  20  39  62  88 117 145 187 233 296 359
#
# _framework density 18.312944000000002
#
# number of rings (size 3 to 8) (size 9 to 14) (size 15 to 20)
#    0.000    1.833    0.833    5.500    2.333    3.667 
#    0.000    7.083    0.000    0.000    0.000    0.000 
#    0.000    0.000    0.000    0.000    0.000    0.000 
#
# Total GULP energy -594841.436644 kJ/mol
# GULP energy per Si atom -12392.529930 kJ/mol
# Density = 1.827126 g / cm^3
# Si number density = 18.312944 Si / 1000 Ang^3
#
#
#
# Elastic Constant Matrix: (Units=GPa)
#
#
# Indices 1 2 3 4 5 6 
#
# 1 131.0431 39.5591 34.6888 0.0000 0.0000 0.0000
# 2 39.5591 85.7222 49.7372 0.0000 0.0000 0.0000
# 3 34.6888 49.7372 84.0253 0.0000 0.0000 0.0000
# 4 0.0000 0.0000 0.0000 34.7126 0.0000 0.0000
# 5 0.0000 0.0000 0.0000 0.0000 18.8258 0.0000
# 6 0.0000 0.0000 0.0000 0.0000 0.0000 20.9930
#
#
#
# Elastic Compliance Matrix: (Units=1/GPa)
#
#
# Indices 1 2 3 4 5 6 
#
# 1 0.009067 -0.003065 -0.001929 0.000000 0.000000 0.000000
# 2 -0.003065 0.018804 -0.009865 0.000000 0.000000 0.000000
# 3 -0.001929 -0.009865 0.018537 0.000000 0.000000 0.000000
# 4 0.000000 0.000000 0.000000 0.028808 0.000000 0.000000
# 5 0.000000 0.000000 0.000000 0.000000 0.053119 0.000000
# 6 0.000000 0.000000 0.000000 0.000000 0.000000 0.047635
#
#
# Mechanical properties :
#
#
# Convention : Reuss Voigt Hill
#
# Bulk Modulus (GPa) = 59.91771 60.97343 60.44557
# Shear Modulus (GPa) = 23.66848 26.69331 25.18089
#
# Velocity S-wave (km/s) = 3.59896 3.82202 3.71217
# Velocity P-wave (km/s) = 7.07530 7.26943 7.17302
#
# Compressibility (1/GPa) = 0.01668956
#
# Stress axis : x y z
#
# Youngs Moduli (GPa) = 110.29072 53.18000 53.94588
#
# Poissons Ratio (x) = 0.16300 0.10406
# Poissons Ratio (y) = 0.33805 0.53219
# Poissons Ratio (z) = 0.21274 0.52464
#
# Static dielectric constant tensor:
#      x y z
#    x 3.450050 0.000000 0.000000 
#    y 0.000000 3.239600 0.000000 
#    z 0.000000 0.000000 3.410970 
# 
# 
# High freq. dielectric constant tensor:
#      x y z
#    x 1.717870 0.000000 0.000000 
#    y 0.000000 1.692590 0.000000 
#    z 0.000000 0.000000 1.699740 
# 
# From -- ./inp_files/15995.got.cif
#   From: 2010.03.12/outbox.cif.g09.slc.cpg/sg53_8_cif.got.tgz:15995.got - 2010.04.16 14:36:59.
