data_PCOD8219522
_publ_section_title
;
Structure prediction by ZEFSAII (Michael W. Deem and Ramdas Pophale) SiO2 
 PCOD8219522
Probable space group: P M N A
;
_chemical_formula_sum "Si O2"
_cell_formula_units_Z 56
_cell_length_a 16.777933
_cell_length_b 13.693421
_cell_length_c 11.671922
_cell_angle_alpha 90.000000
_cell_angle_beta 90.000000
_cell_angle_gamma 90.000000
_cell_volume 2681.592566
_symmetry_space_group_name_H-M "P M N A"
_symmetry_group_IT_number 53
_symmetry_cell_setting 'orthorhombic'
loop_
_space_group_symop_operation_xyz
x,y,z
1/2-x,-y,1/2+z
x,-y,-z
1/2-x,y,1/2-z
-x,-y,-z
1/2+x,y,1/2-z
-x,y,z
1/2+x,-y,1/2+z
loop_
_atom_site_type_symbol
_atom_site_label
_atom_site_fract_x
_atom_site_fract_y
_atom_site_fract_z
Si Si1 0.407712 0.553900 0.203962
Si Si2 0.666870 0.281647 0.933169
Si Si3 0.909089 0.251152 0.119515
Si Si4 0.844815 0.688424 0.113592
Si Si5 0.667508 0.647420 0.816361
Si Si6 0.906620 0.857094 0.271727
Si Si7 0.405120 0.033404 0.377257
O O1 0.500000 0.524247 0.212039
O O2 0.397908 0.640924 0.112695
O O3 0.376285 0.587996 0.329319
O O4 0.354985 0.464132 0.157122
O O5 0.749938 0.306043 0.871085
O O6 0.638832 0.174080 0.889224
O O7 0.672177 0.287007 0.069608
O O8 0.902327 0.310183 0.237048
O O9 0.873378 0.143063 0.142119
O O10 0.000000 0.243143 0.080454
O O11 0.862602 0.310128 0.021333
O O12 0.889463 0.778906 0.172098
O O13 0.750000 0.656293 0.750000
O O14 0.000000 0.860662 0.297955
O O15 0.874885 0.961770 0.224820
O O16 0.500000 0.028534 0.378315
O O17 0.370906 0.000000 0.500000
#
# Coordination Sequence:
#
# PCOD8219522 Si02
#       7
#     8   8   8   8   8   8   8
#     4  11  24  40  64  93 118 156 214 263 311 378
#     4  11  23  40  63  86 126 170 204 252 313 378
#     4  11  22  38  64  91 122 160 204 256 313 368
#     4  11  20  38  62  92 125 154 201 261 315 368
#     4  12  25  43  58  83 127 171 209 253 317 374
#     4  10  19  35  64  96 123 156 209 258 304 367
#     4   9  17  33  61  94 122 153 196 253 309 361
#
# _framework density 20.883113000000002
#
# number of rings (size 3 to 8) (size 9 to 14) (size 15 to 20)
#    0.000    1.286    2.857    6.000    0.000    3.429 
#    0.000    3.571    3.143    2.571    0.000    0.000 
#    0.000    0.000    0.000    0.000    0.000    0.000 
#
# Total GULP energy -694438.202641 kJ/mol
# GULP energy per Si atom -12400.682190 kJ/mol
# Density = 2.083558 g / cm^3
# Si number density = 20.883113 Si / 1000 Ang^3
#
#
#
# Elastic Constant Matrix: (Units=GPa)
#
#
# Indices 1 2 3 4 5 6 
#
# 1 81.4443 12.0784 32.0822 0.0000 0.0000 0.0000
# 2 12.0784 68.4931 31.7446 0.0000 0.0000 0.0000
# 3 32.0822 31.7446 127.6140 0.0000 0.0000 0.0000
# 4 0.0000 0.0000 0.0000 34.9014 0.0000 0.0000
# 5 0.0000 0.0000 0.0000 0.0000 29.7717 0.0000
# 6 0.0000 0.0000 0.0000 0.0000 0.0000 14.4968
#
#
#
# Elastic Compliance Matrix: (Units=1/GPa)
#
#
# Indices 1 2 3 4 5 6 
#
# 1 0.013680 -0.000925 -0.003209 0.000000 0.000000 0.000000
# 2 -0.000925 0.016565 -0.003888 0.000000 0.000000 0.000000
# 3 -0.003209 -0.003888 0.009610 0.000000 0.000000 0.000000
# 4 0.000000 0.000000 0.000000 0.028652 0.000000 0.000000
# 5 0.000000 0.000000 0.000000 0.000000 0.033589 0.000000
# 6 0.000000 0.000000 0.000000 0.000000 0.000000 0.068981
#
#
# Mechanical properties :
#
#
# Convention : Reuss Voigt Hill
#
# Bulk Modulus (GPa) = 41.99815 47.70687 44.85251
# Shear Modulus (GPa) = 25.63341 29.27705 27.45523
#
# Velocity S-wave (km/s) = 3.50733 3.74832 3.62983
# Velocity P-wave (km/s) = 6.04620 6.45194 6.25236
#
# Compressibility (1/GPa) = 0.02381057
#
# Stress axis : x y z
#
# Youngs Moduli (GPa) = 73.10172 60.36765 104.05782
#
# Poissons Ratio (x) = 0.05584 0.33391
# Poissons Ratio (y) = 0.06762 0.40459
# Poissons Ratio (z) = 0.23458 0.23472
#
# Static dielectric constant tensor:
#      x y z
#    x 3.607360 0.000000 0.000000 
#    y 0.000000 3.875000 0.000000 
#    z 0.000000 0.000000 3.797100 
# 
# 
# High freq. dielectric constant tensor:
#      x y z
#    x 1.811230 0.000000 0.000000 
#    y 0.000000 1.809170 0.000000 
#    z 0.000000 0.000000 1.812530 
# 
# From -- ./inp_files/16028.got.cif
#   From: 2010.03.12/outbox.cif.g09.slc.cpg/sg53_9_cif.got.tgz:16028.got - 2010.04.16 14:36:59.
