data_PCOD8219953
_publ_section_title
;
Structure prediction by ZEFSAII (Michael W. Deem and Ramdas Pophale) SiO2 
 PCOD8219953
Probable space group: P M N A
;
_chemical_formula_sum "Si O2"
_cell_formula_units_Z 60
_cell_length_a 19.713390
_cell_length_b 14.553379
_cell_length_c 11.057232
_cell_angle_alpha 90.000000
_cell_angle_beta 90.000000
_cell_angle_gamma 90.000000
_cell_volume 3172.280453
_symmetry_space_group_name_H-M "P M N A"
_symmetry_group_IT_number 53
_symmetry_cell_setting 'orthorhombic'
loop_
_space_group_symop_operation_xyz
x,y,z
1/2-x,-y,1/2+z
x,-y,-z
1/2-x,y,1/2-z
-x,-y,-z
1/2+x,y,1/2-z
-x,y,z
1/2+x,-y,1/2+z
loop_
_atom_site_type_symbol
_atom_site_label
_atom_site_fract_x
_atom_site_fract_y
_atom_site_fract_z
Si Si1 0.209139 0.320477 0.987197
Si Si2 0.363559 0.677100 0.087550
Si Si3 0.132434 0.500000 0.000000
Si Si4 0.304786 0.007334 0.640892
Si Si5 0.922954 0.685374 0.661296
Si Si6 0.673325 0.196914 0.717117
Si Si7 0.824314 0.813359 0.803303
Si Si8 0.421874 0.484428 0.757610
O O1 0.289797 0.328885 0.974056
O O2 0.172984 0.288786 0.863981
O O3 0.181481 0.416690 0.034557
O O4 0.183498 0.243209 0.076165
O O5 0.369743 0.771477 0.165959
O O6 0.375813 0.586726 0.168324
O O7 0.419554 0.685039 0.983862
O O8 0.086096 0.527536 0.113636
O O9 0.250000 0.007160 0.750000
O O10 0.350388 0.916282 0.663819
O O11 0.276259 0.000000 0.500000
O O12 0.351127 0.100524 0.655866
O O13 0.877029 0.766922 0.712423
O O14 0.897397 0.586700 0.708404
O O15 0.000000 0.703004 0.702660
O O16 0.750000 0.174522 0.750000
O O17 0.750000 0.819304 0.750000
O O18 0.500000 0.468115 0.793166
#
# Coordination Sequence:
#
# PCOD8219953 Si02
#       8
#     8   8   4   8   8   8   8   8
#     4  11  21  35  57  86 123 151 191 248 306 350
#     4  11  22  38  59  84 119 158 200 250 305 366
#     4  12  23  36  58  88 119 152 200 250 300 356
#     4  10  20  33  60  92 127 159 201 253 312 374
#     4  11  24  41  60  84 120 164 206 250 302 368
#     4   9  19  35  55  86 120 153 192 243 309 363
#     4  11  21  37  62  91 118 154 199 250 305 358
#     4  11  24  40  57  81 117 165 208 243 293 367
#
# _framework density 18.913837999999998
#
# number of rings (size 3 to 8) (size 9 to 14) (size 15 to 20)
#    0.000    1.333    5.333    1.000    1.867    1.067 
#    0.000    0.000    0.000    2.800    0.000    0.000 
#    0.000    0.000    0.000    0.000    0.000    0.000 
#
# Total GULP energy -743443.886638 kJ/mol
# GULP energy per Si atom -12390.731444 kJ/mol
# Density = 1.887079 g / cm^3
# Si number density = 18.913838 Si / 1000 Ang^3
#
#
#
# Elastic Constant Matrix: (Units=GPa)
#
#
# Indices 1 2 3 4 5 6 
#
# 1 45.4625 36.9559 21.2447 0.0000 0.0000 0.0000
# 2 36.9559 135.4812 28.9692 0.0000 0.0000 0.0000
# 3 21.2447 28.9692 104.2148 0.0000 0.0000 0.0000
# 4 0.0000 0.0000 0.0000 27.0325 0.0000 0.0000
# 5 0.0000 0.0000 0.0000 0.0000 23.9722 0.0000
# 6 0.0000 0.0000 0.0000 0.0000 0.0000 66.3366
#
#
#
# Elastic Compliance Matrix: (Units=1/GPa)
#
#
# Indices 1 2 3 4 5 6 
#
# 1 0.029792 -0.007259 -0.004055 0.000000 0.000000 0.000000
# 2 -0.007259 0.009616 -0.001193 0.000000 0.000000 0.000000
# 3 -0.004055 -0.001193 0.010754 0.000000 0.000000 0.000000
# 4 0.000000 0.000000 0.000000 0.036992 0.000000 0.000000
# 5 0.000000 0.000000 0.000000 0.000000 0.041715 0.000000
# 6 0.000000 0.000000 0.000000 0.000000 0.000000 0.015075
#
#
# Mechanical properties :
#
#
# Convention : Reuss Voigt Hill
#
# Bulk Modulus (GPa) = 39.76682 51.05535 45.41109
# Shear Modulus (GPa) = 28.19388 36.66749 32.43069
#
# Velocity S-wave (km/s) = 3.86508 4.40780 4.14533
# Velocity P-wave (km/s) = 6.40229 7.27717 6.85370
#
# Compressibility (1/GPa) = 0.02514659
#
# Stress axis : x y z
#
# Youngs Moduli (GPa) = 33.56559 103.98841 92.98885
#
# Poissons Ratio (x) = 0.75490 0.37710
# Poissons Ratio (y) = 0.24367 0.11096
# Poissons Ratio (z) = 0.13612 0.12408
#
# Static dielectric constant tensor:
#      x y z
#    x 3.009460 0.000000 0.000000 
#    y 0.000000 4.011310 0.000000 
#    z 0.000000 0.000000 3.370360 
# 
# 
# High freq. dielectric constant tensor:
#      x y z
#    x 1.684530 0.000000 0.000000 
#    y 0.000000 1.751830 0.000000 
#    z 0.000000 0.000000 1.754550 
# 
# From -- ./inp_files/17048.got.cif
#   From: 2010.03.12/outbox.cif.g09.slc.cpg/sg53_9_cif.got.tgz:17048.got - 2010.04.16 14:36:59.
