data_PCOD8219139
_publ_section_title
;
Structure prediction by ZEFSAII (Michael W. Deem and Ramdas Pophale) SiO2 
 PCOD8219139
Probable space group: P M N A
;
_chemical_formula_sum "Si O2"
_cell_formula_units_Z 64
_cell_length_a 9.448051
_cell_length_b 12.280536
_cell_length_c 29.979476
_cell_angle_alpha 90.000000
_cell_angle_beta 90.000000
_cell_angle_gamma 90.000000
_cell_volume 3478.432572
_symmetry_space_group_name_H-M "P M N A"
_symmetry_group_IT_number 53
_symmetry_cell_setting 'orthorhombic'
loop_
_space_group_symop_operation_xyz
x,y,z
1/2-x,-y,1/2+z
x,-y,-z
1/2-x,y,1/2-z
-x,-y,-z
1/2+x,y,1/2-z
-x,y,z
1/2+x,-y,1/2+z
loop_
_atom_site_type_symbol
_atom_site_label
_atom_site_fract_x
_atom_site_fract_y
_atom_site_fract_z
Si Si1 0.665243 0.513289 0.948328
Si Si2 0.162718 0.332926 0.114598
Si Si3 0.347414 0.873148 0.995738
Si Si4 0.654308 0.373633 0.287962
Si Si5 0.844308 0.620761 0.211515
Si Si6 0.663099 0.111433 0.907388
Si Si7 0.839069 0.099277 0.085000
Si Si8 0.662809 0.341433 0.873432
O O1 0.500000 0.542387 0.947677
O O2 0.746738 0.614235 0.925366
O O3 0.696620 0.402987 0.920142
O O4 0.716018 0.500000 0.000000
O O5 0.223556 0.369717 0.162675
O O6 0.172238 0.201592 0.117730
O O7 0.000000 0.370707 0.108019
O O8 0.500000 0.818543 0.982510
O O9 0.298024 0.835081 0.044620
O O10 0.225362 0.851047 0.960445
O O11 0.373265 0.000000 0.000000
O O12 0.750000 0.315028 0.250000
O O13 0.500000 0.315483 0.289134
O O14 0.632735 0.497549 0.273003
O O15 0.750000 0.680386 0.250000
O O16 0.767296 0.616222 0.164133
O O17 0.000000 0.677137 0.207756
O O18 0.500000 0.072966 0.906554
O O19 0.690908 0.211449 0.874431
O O20 0.756462 0.005437 0.895531
O O21 0.000000 0.063061 0.076259
O O22 0.500000 0.364052 0.860035
#
# Coordination Sequence:
#
# PCOD8219139 Si02
#       8
#     8   8   8   8   8   8   8   8
#     4  10  22  36  53  78 107 142 183 219 254 307
#     4  10  21  37  53  75 109 143 172 212 265 316
#     4   8  15  29  48  67  91 128 172 217 261 298
#     4   9  18  33  53  76 103 131 165 209 259 310
#     4  10  19  33  55  80 106 136 170 213 264 315
#     4   9  19  34  51  71 100 137 175 218 263 305
#     4  10  20  32  49  73 101 134 176 221 260 305
#     4  10  20  35  54  78 108 139 176 220 263 311
#
# _framework density 18.399092
#
# number of rings (size 3 to 8) (size 9 to 14) (size 15 to 20)
#    0.000    2.500    1.250    1.500    1.750    5.000 
#    0.000    0.000    0.000    0.750    0.000    3.500 
#    0.000    0.000    0.000    0.000    0.000    0.000 
#
# Total GULP energy -792964.033501 kJ/mol
# GULP energy per Si atom -12390.063023 kJ/mol
# Density = 1.835721 g / cm^3
# Si number density = 18.399092 Si / 1000 Ang^3
#
#
#
# Elastic Constant Matrix: (Units=GPa)
#
#
# Indices 1 2 3 4 5 6 
#
# 1 104.9763 36.5829 57.1269 0.0000 0.0000 0.0000
# 2 36.5829 65.6488 19.6554 0.0000 0.0000 0.0000
# 3 57.1269 19.6554 114.3320 0.0000 0.0000 0.0000
# 4 0.0000 0.0000 0.0000 13.2608 0.0000 0.0000
# 5 0.0000 0.0000 0.0000 0.0000 26.0750 0.0000
# 6 0.0000 0.0000 0.0000 0.0000 0.0000 14.3483
#
#
#
# Elastic Compliance Matrix: (Units=1/GPa)
#
#
# Indices 1 2 3 4 5 6 
#
# 1 0.015401 -0.006619 -0.006557 0.000000 0.000000 0.000000
# 2 -0.006619 0.018904 0.000057 0.000000 0.000000 0.000000
# 3 -0.006557 0.000057 0.012013 0.000000 0.000000 0.000000
# 4 0.000000 0.000000 0.000000 0.075410 0.000000 0.000000
# 5 0.000000 0.000000 0.000000 0.000000 0.038351 0.000000
# 6 0.000000 0.000000 0.000000 0.000000 0.000000 0.069695
#
#
# Mechanical properties :
#
#
# Convention : Reuss Voigt Hill
#
# Bulk Modulus (GPa) = 49.80082 56.85416 53.32749
# Shear Modulus (GPa) = 19.03279 22.17630 20.60454
#
# Velocity S-wave (km/s) = 3.21976 3.47550 3.35007
# Velocity P-wave (km/s) = 6.39908 6.86098 6.63405
#
# Compressibility (1/GPa) = 0.02007999
#
# Stress axis : x y z
#
# Youngs Moduli (GPa) = 64.93080 52.89937 83.24301
#
# Poissons Ratio (x) = 0.35014 0.54585
# Poissons Ratio (y) = 0.42977 -0.00478
# Poissons Ratio (z) = 0.42577 -0.00303
#
# Static dielectric constant tensor:
#      x y z
#    x 3.589300 0.000000 0.000000 
#    y 0.000000 3.195300 0.000000 
#    z 0.000000 0.000000 11.432330 
# 
# 
# High freq. dielectric constant tensor:
#      x y z
#    x 1.716370 0.000000 0.000000 
#    y 0.000000 1.684790 0.000000 
#    z 0.000000 0.000000 1.700810 
# 
# From -- ./inp_files/38187.got.cif
#   From: 2010.03.12/outbox.cif.g09.slc.cpg/sg53_20_cif.got.tgz:38187.got - 2010.04.16 14:36:59.
