data_PCOD8219329
_publ_section_title
;
Structure prediction by ZEFSAII (Michael W. Deem and Ramdas Pophale) SiO2 
 PCOD8219329
Probable space group: P M N A
;
_chemical_formula_sum "Si O2"
_cell_formula_units_Z 64
_cell_length_a 8.621229
_cell_length_b 11.320345
_cell_length_c 33.904728
_cell_angle_alpha 90.000000
_cell_angle_beta 90.000000
_cell_angle_gamma 90.000000
_cell_volume 3308.941646
_symmetry_space_group_name_H-M "P M N A"
_symmetry_group_IT_number 53
_symmetry_cell_setting 'orthorhombic'
loop_
_space_group_symop_operation_xyz
x,y,z
1/2-x,-y,1/2+z
x,-y,-z
1/2-x,y,1/2-z
-x,-y,-z
1/2+x,y,1/2-z
-x,y,z
1/2+x,-y,1/2+z
loop_
_atom_site_type_symbol
_atom_site_label
_atom_site_fract_x
_atom_site_fract_y
_atom_site_fract_z
Si Si1 0.683034 0.120550 0.631445
Si Si2 0.680791 0.118042 0.101917
Si Si3 0.683261 0.230267 0.471722
Si Si4 0.825369 0.471392 0.062113
Si Si5 0.682640 0.759677 0.207649
Si Si6 0.824283 0.658567 0.859592
Si Si7 0.183364 0.270470 0.941737
Si Si8 0.317064 0.509147 0.791832
O O1 0.500000 0.134608 0.634259
O O2 0.754416 0.156970 0.673204
O O3 0.752638 0.200267 0.595614
O O4 0.725374 0.986577 0.622255
O O5 0.500000 0.088903 0.102874
O O6 0.734260 0.134954 0.056403
O O7 0.715818 0.234252 0.127189
O O8 0.500000 0.225843 0.462138
O O9 0.749619 0.362228 0.462138
O O10 0.720187 0.201057 0.517416
O O11 0.818817 0.445205 0.108388
O O12 0.741347 0.597843 0.055653
O O13 0.000000 0.484026 0.046362
O O14 0.750000 0.799277 0.250000
O O15 0.500000 0.773534 0.210197
O O16 0.731774 0.625091 0.197668
O O17 0.760209 0.603458 0.820097
O O18 0.000000 0.704521 0.853874
O O19 0.000000 0.282024 0.935937
O O20 0.250000 0.544385 0.750000
O O21 0.500000 0.524146 0.792746
#
# Coordination Sequence:
#
# PCOD8219329 Si02
#       8
#     8   8   8   8   8   8   8   8
#     4  11  22  37  57  81 109 144 190 236 277 324
#     4  11  23  39  55  73 104 145 188 232 280 330
#     4   9  17  32  54  79 107 141 182 226 273 326
#     4   8  14  26  49  80 108 134 170 219 272 325
#     4  10  21  38  60  87 118 150 181 217 266 321
#     4  10  19  34  57  81 106 139 181 226 274 326
#     4   9  17  29  51  82 111 140 178 225 273 325
#     4  10  20  34  55  85 119 149 177 213 262 322
#
# _framework density 19.341532000000001
#
# number of rings (size 3 to 8) (size 9 to 14) (size 15 to 20)
#    0.000    2.250    0.000    4.500    0.000    4.500 
#    0.000    4.375    0.000    7.500    0.000    0.000 
#    0.000    0.000    0.000    0.000    0.000    0.000 
#
# Total GULP energy -793455.110415 kJ/mol
# GULP energy per Si atom -12397.736100 kJ/mol
# Density = 1.929751 g / cm^3
# Si number density = 19.341532 Si / 1000 Ang^3
#
#
#
# Elastic Constant Matrix: (Units=GPa)
#
#
# Indices 1 2 3 4 5 6 
#
# 1 48.9845 11.2811 30.4183 0.0000 0.0000 0.0000
# 2 11.2811 67.5313 53.9529 0.0000 0.0000 0.0000
# 3 30.4183 53.9529 145.5839 0.0000 0.0000 0.0000
# 4 0.0000 0.0000 0.0000 26.0487 0.0000 0.0000
# 5 0.0000 0.0000 0.0000 0.0000 26.9708 0.0000
# 6 0.0000 0.0000 0.0000 0.0000 0.0000 22.2426
#
#
#
# Elastic Compliance Matrix: (Units=1/GPa)
#
#
# Indices 1 2 3 4 5 6 
#
# 1 0.023458 -0.000004 -0.004900 0.000000 0.000000 0.000000
# 2 -0.000004 0.021036 -0.007795 0.000000 0.000000 0.000000
# 3 -0.004900 -0.007795 0.010782 0.000000 0.000000 0.000000
# 4 0.000000 0.000000 0.000000 0.038390 0.000000 0.000000
# 5 0.000000 0.000000 0.000000 0.000000 0.037077 0.000000
# 6 0.000000 0.000000 0.000000 0.000000 0.000000 0.044959
#
#
# Mechanical properties :
#
#
# Convention : Reuss Voigt Hill
#
# Bulk Modulus (GPa) = 33.46937 50.37825 41.92381
# Shear Modulus (GPa) = 23.68999 26.14889 24.91944
#
# Velocity S-wave (km/s) = 3.50355 3.68088 3.59331
# Velocity P-wave (km/s) = 5.80590 6.64593 6.24007
#
# Compressibility (1/GPa) = 0.02987807
#
# Stress axis : x y z
#
# Youngs Moduli (GPa) = 42.62888 47.53647 92.75109
#
# Poissons Ratio (x) = 0.00019 0.45447
# Poissons Ratio (y) = 0.00017 0.72301
# Poissons Ratio (z) = 0.20888 0.37056
#
# Static dielectric constant tensor:
#      x y z
#    x 3.290120 0.000000 0.000000 
#    y 0.000000 3.505230 0.000000 
#    z 0.000000 0.000000 3.612430 
# 
# 
# High freq. dielectric constant tensor:
#      x y z
#    x 1.728570 0.000000 0.000000 
#    y 0.000000 1.744600 0.000000 
#    z 0.000000 0.000000 1.761540 
# 
# From -- ./inp_files/38171.got.cif
#   From: 2010.03.12/outbox.cif.g09.slc.cpg/sg53_20_cif.got.tgz:38171.got - 2010.04.16 14:36:59.
