data_PCOD8219474
_publ_section_title
;
Structure prediction by ZEFSAII (Michael W. Deem and Ramdas Pophale) SiO2 
 PCOD8219474
Probable space group: P M N A
;
_chemical_formula_sum "Si O2"
_cell_formula_units_Z 64
_cell_length_a 8.804474
_cell_length_b 17.475774
_cell_length_c 19.742969
_cell_angle_alpha 90.000000
_cell_angle_beta 90.000000
_cell_angle_gamma 90.000000
_cell_volume 3037.751882
_symmetry_space_group_name_H-M "P M N A"
_symmetry_group_IT_number 53
_symmetry_cell_setting 'orthorhombic'
loop_
_space_group_symop_operation_xyz
x,y,z
1/2-x,-y,1/2+z
x,-y,-z
1/2-x,y,1/2-z
-x,-y,-z
1/2+x,y,1/2-z
-x,y,z
1/2+x,-y,1/2+z
loop_
_atom_site_type_symbol
_atom_site_label
_atom_site_fract_x
_atom_site_fract_y
_atom_site_fract_z
Si Si1 0.175075 0.937691 0.912824
Si Si2 0.178620 0.049135 0.685069
Si Si3 0.334102 0.298519 0.070567
Si Si4 0.181450 0.633570 0.319353
Si Si5 0.680599 0.578208 0.033919
Si Si6 0.180311 0.204042 0.850078
Si Si7 0.331965 0.154214 0.981879
Si Si8 0.327292 0.211606 0.321603
O O1 0.248890 0.919458 0.985832
O O2 0.195318 0.866562 0.862570
O O3 0.000000 0.959559 0.923027
O O4 0.264139 0.010967 0.884044
O O5 0.250000 0.005064 0.750000
O O6 0.241025 0.135080 0.689723
O O7 0.000000 0.045633 0.690037
O O8 0.500000 0.331857 0.091224
O O9 0.357700 0.215149 0.040147
O O10 0.234929 0.286236 0.137992
O O11 0.255964 0.354492 0.015057
O O12 0.250000 0.595583 0.250000
O O13 0.236128 0.588378 0.387784
O O14 0.246018 0.718858 0.322403
O O15 0.000000 0.635103 0.314754
O O16 0.500000 0.582249 0.034831
O O17 0.740547 0.500000 0.000000
O O18 0.000000 0.204878 0.838989
O O19 0.220826 0.193480 0.928491
O O20 0.500000 0.132199 0.951360
O O21 0.250000 0.201804 0.250000
O O22 0.500000 0.229942 0.307520
#
# Coordination Sequence:
#
# PCOD8219474 Si02
#       8
#     8   8   8   8   8   8   8   8
#     4  10  21  37  56  82 114 152 198 251 307 363
#     4  12  25  41  58  79 110 151 198 252 310 370
#     4   9  17  33  57  84 115 152 194 239 288 348
#     4  11  22  40  64  94 126 161 205 250 300 361
#     4   9  18  36  64  94 123 160 199 238 289 357
#     4  12  24  39  60  86 117 155 198 251 306 359
#     4  10  19  35  58  86 115 152 196 243 298 359
#     4  10  20  33  53  81 113 152 197 248 299 353
#
# _framework density 21.068211999999999
#
# number of rings (size 3 to 8) (size 9 to 14) (size 15 to 20)
#    0.000    1.625    1.250    4.500    0.000    3.500 
#    0.000    3.125    0.000    4.875    0.000    0.000 
#    0.000    0.000    0.000    0.000    0.000    0.000 
#
# Total GULP energy -793344.244875 kJ/mol
# GULP energy per Si atom -12396.003826 kJ/mol
# Density = 2.102026 g / cm^3
# Si number density = 21.068212 Si / 1000 Ang^3
#
#
#
# Elastic Constant Matrix: (Units=GPa)
#
#
# Indices 1 2 3 4 5 6 
#
# 1 130.1882 28.0824 44.3140 0.0000 0.0000 0.0000
# 2 28.0824 59.3677 16.9344 0.0000 0.0000 0.0000
# 3 44.3140 16.9344 100.6285 0.0000 0.0000 0.0000
# 4 0.0000 0.0000 0.0000 31.9135 0.0000 0.0000
# 5 0.0000 0.0000 0.0000 0.0000 35.0336 0.0000
# 6 0.0000 0.0000 0.0000 0.0000 0.0000 17.1984
#
#
#
# Elastic Compliance Matrix: (Units=1/GPa)
#
#
# Indices 1 2 3 4 5 6 
#
# 1 0.009695 -0.003538 -0.003674 0.000000 0.000000 0.000000
# 2 -0.003538 0.018985 -0.001637 0.000000 0.000000 0.000000
# 3 -0.003674 -0.001637 0.011831 0.000000 0.000000 0.000000
# 4 0.000000 0.000000 0.000000 0.031335 0.000000 0.000000
# 5 0.000000 0.000000 0.000000 0.000000 0.028544 0.000000
# 6 0.000000 0.000000 0.000000 0.000000 0.000000 0.058145
#
#
# Mechanical properties :
#
#
# Convention : Reuss Voigt Hill
#
# Bulk Modulus (GPa) = 43.83479 52.09398 47.96438
# Shear Modulus (GPa) = 27.19818 30.21935 28.70876
#
# Velocity S-wave (km/s) = 3.59689 3.79140 3.69542
# Velocity P-wave (km/s) = 6.17264 6.62920 6.40499
#
# Compressibility (1/GPa) = 0.02281293
#
# Stress axis : x y z
#
# Youngs Moduli (GPa) = 103.14700 52.67421 84.52437
#
# Poissons Ratio (x) = 0.18636 0.31054
# Poissons Ratio (y) = 0.36493 0.13835
# Poissons Ratio (z) = 0.37896 0.08622
#
# Static dielectric constant tensor:
#      x y z
#    x 3.866230 0.000000 0.000000 
#    y 0.000000 3.642110 0.000000 
#    z 0.000000 0.000000 4.241330 
# 
# 
# High freq. dielectric constant tensor:
#      x y z
#    x 1.818820 0.000000 0.000000 
#    y 0.000000 1.797280 0.000000 
#    z 0.000000 0.000000 1.845260 
# 
# From -- ./inp_files/31243.got.cif
#   From: 2010.03.12/outbox.cif.g09.slc.cpg/sg53_16_cif.got.tgz:31243.got - 2010.04.16 14:36:59.
