data_PCOD8219453
_publ_section_title
;
Structure prediction by ZEFSAII (Michael W. Deem and Ramdas Pophale) SiO2 
 PCOD8219453
Probable space group: P M N A
;
_chemical_formula_sum "Si O2"
_cell_formula_units_Z 52
_cell_length_a 7.698920
_cell_length_b 17.032855
_cell_length_c 19.750887
_cell_angle_alpha 90.000000
_cell_angle_beta 90.000000
_cell_angle_gamma 90.000000
_cell_volume 2590.024430
_symmetry_space_group_name_H-M "P M N A"
_symmetry_group_IT_number 53
_symmetry_cell_setting 'orthorhombic'
loop_
_space_group_symop_operation_xyz
x,y,z
1/2-x,-y,1/2+z
x,-y,-z
1/2-x,y,1/2-z
-x,-y,-z
1/2+x,y,1/2-z
-x,y,z
1/2+x,-y,1/2+z
loop_
_atom_site_type_symbol
_atom_site_label
_atom_site_fract_x
_atom_site_fract_y
_atom_site_fract_z
Si Si1 0.000000 0.918609 0.628582
Si Si2 0.500000 0.094752 0.846266
Si Si3 0.305454 0.810376 0.674569
Si Si4 0.799339 0.644486 0.673659
Si Si5 0.500000 0.151649 0.994742
Si Si6 0.304846 0.737395 0.466314
Si Si7 0.203275 0.579685 0.533517
Si Si8 0.699994 0.791268 0.319558
O O1 0.175515 0.873673 0.645868
O O2 0.000000 0.920027 0.547467
O O3 0.000000 0.001607 0.666528
O O4 0.500000 0.106815 0.925543
O O5 0.676058 0.131951 0.816528
O O6 0.250000 0.792386 0.750000
O O7 0.500000 0.844206 0.667298
O O8 0.296238 0.722366 0.644000
O O9 0.750000 0.615543 0.750000
O O10 0.757497 0.579905 0.615045
O O11 0.000000 0.665956 0.675239
O O12 0.329371 0.206106 0.005165
O O13 0.500000 0.770246 0.477920
O O14 0.296188 0.649537 0.493461
O O15 0.259982 0.738226 0.385461
O O16 0.275495 0.500000 0.500000
O O17 0.000000 0.588584 0.520060
O O18 0.750000 0.744051 0.250000
O O19 0.500000 0.819036 0.319007
#
# Coordination Sequence:
#
# PCOD8219453 Si02
#       8
#     4   4   8   8   4   8   8   8
#     4  12  23  36  56  83 113 151 190 233 298 352
#     4  10  23  38  56  81 117 151 184 243 298 342
#     4  11  21  37  55  80 114 146 190 237 277 338
#     4  10  19  35  58  81 111 153 196 234 278 339
#     4  10  21  40  59  80 112 150 196 236 281 346
#     4  10  21  37  62  89 113 149 196 242 283 337
#     4  10  21  37  58  87 120 153 189 234 289 343
#     4  10  20  38  61  87 112 148 200 242 288 346
#
# _framework density 20.077030000000001
#
# number of rings (size 3 to 8) (size 9 to 14) (size 15 to 20)
#    0.000    1.692    3.077    2.538    0.000    4.615 
#    0.000    0.769    0.000    8.308    0.000    0.000 
#    0.000    0.000    0.000    0.000    0.000    0.000 
#
# Total GULP energy -644408.860173 kJ/mol
# GULP energy per Si atom -12392.478080 kJ/mol
# Density = 2.003133 g / cm^3
# Si number density = 20.077030 Si / 1000 Ang^3
#
#
#
# Elastic Constant Matrix: (Units=GPa)
#
#
# Indices 1 2 3 4 5 6 
#
# 1 133.3816 25.3625 32.5541 0.0000 0.0000 0.0000
# 2 25.3625 69.1887 52.7300 0.0000 0.0000 0.0000
# 3 32.5541 52.7300 95.3417 0.0000 0.0000 0.0000
# 4 0.0000 0.0000 0.0000 22.2033 0.0000 0.0000
# 5 0.0000 0.0000 0.0000 0.0000 18.4189 0.0000
# 6 0.0000 0.0000 0.0000 0.0000 0.0000 19.2865
#
#
#
# Elastic Compliance Matrix: (Units=1/GPa)
#
#
# Indices 1 2 3 4 5 6 
#
# 1 0.008270 -0.001520 -0.001983 0.000000 0.000000 0.000000
# 2 -0.001520 0.025263 -0.013453 0.000000 0.000000 0.000000
# 3 -0.001983 -0.013453 0.018606 0.000000 0.000000 0.000000
# 4 0.000000 0.000000 0.000000 0.045038 0.000000 0.000000
# 5 0.000000 0.000000 0.000000 0.000000 0.054292 0.000000
# 6 0.000000 0.000000 0.000000 0.000000 0.000000 0.051850
#
#
# Mechanical properties :
#
#
# Convention : Reuss Voigt Hill
#
# Bulk Modulus (GPa) = 54.86413 57.68948 56.27680
# Shear Modulus (GPa) = 20.55000 24.46609 22.50804
#
# Velocity S-wave (km/s) = 3.20278 3.49465 3.35189
# Velocity P-wave (km/s) = 6.40806 6.71415 6.56289
#
# Compressibility (1/GPa) = 0.01822684
#
# Stress axis : x y z
#
# Youngs Moduli (GPa) = 120.91347 39.58282 53.74564
#
# Poissons Ratio (x) = 0.06018 0.10658
# Poissons Ratio (y) = 0.18383 0.72305
# Poissons Ratio (z) = 0.23978 0.53251
#
# Static dielectric constant tensor:
#      x y z
#    x 3.646910 0.000000 0.000000 
#    y 0.000000 3.321880 0.000000 
#    z 0.000000 0.000000 3.769300 
# 
# 
# High freq. dielectric constant tensor:
#      x y z
#    x 1.798200 0.000000 0.000000 
#    y 0.000000 1.735830 0.000000 
#    z 0.000000 0.000000 1.804870 
# 
# From -- ./inp_files/26536.got.cif
#   From: 2010.03.12/outbox.cif.g09.slc.cpg/sg53_14_cif.got.tgz:26536.got - 2010.04.16 14:36:59.
