data_PCOD8219152
_publ_section_title
;
Structure prediction by ZEFSAII (Michael W. Deem and Ramdas Pophale) SiO2 
 PCOD8219152
Probable space group: P M N A
;
_chemical_formula_sum "Si O2"
_cell_formula_units_Z 64
_cell_length_a 9.147243
_cell_length_b 16.390376
_cell_length_c 20.570645
_cell_angle_alpha 90.000000
_cell_angle_beta 90.000000
_cell_angle_gamma 90.000000
_cell_volume 3084.089994
_symmetry_space_group_name_H-M "P M N A"
_symmetry_group_IT_number 53
_symmetry_cell_setting 'orthorhombic'
loop_
_space_group_symop_operation_xyz
x,y,z
1/2-x,-y,1/2+z
x,-y,-z
1/2-x,y,1/2-z
-x,-y,-z
1/2+x,y,1/2-z
-x,y,z
1/2+x,-y,1/2+z
loop_
_atom_site_type_symbol
_atom_site_label
_atom_site_fract_x
_atom_site_fract_y
_atom_site_fract_z
Si Si1 0.672460 0.298218 0.402541
Si Si2 0.827379 0.395754 0.816966
Si Si3 0.163593 0.050876 0.813169
Si Si4 0.171904 0.516541 0.928664
Si Si5 0.339274 0.952797 0.911431
Si Si6 0.335258 0.779973 0.368911
Si Si7 0.672084 0.183244 0.996817
Si Si8 0.337883 0.808003 0.810187
O O1 0.500000 0.282665 0.399872
O O2 0.712816 0.392477 0.408699
O O3 0.737065 0.249596 0.463363
O O4 0.747329 0.269698 0.335790
O O5 0.750000 0.420642 0.750000
O O6 0.766442 0.454016 0.874515
O O7 0.784434 0.303295 0.835258
O O8 0.000000 0.405959 0.807235
O O9 0.250000 0.019520 0.750000
O O10 0.166002 0.148862 0.814983
O O11 0.000000 0.016757 0.805977
O O12 0.226997 0.017245 0.881479
O O13 0.000000 0.502508 0.932985
O O14 0.241280 0.500000 0.000000
O O15 0.500000 0.994392 0.916395
O O16 0.347589 0.874652 0.865515
O O17 0.293122 0.911601 0.980858
O O18 0.500000 0.770458 0.397946
O O19 0.219585 0.806460 0.422990
O O20 0.500000 0.200525 0.005298
O O21 0.250000 0.846157 0.750000
O O22 0.500000 0.780096 0.789043
#
# Coordination Sequence:
#
# PCOD8219152 Si02
#       8
#     8   8   8   8   8   8   8   8
#     4  10  19  33  55  81 110 143 178 220 273 331
#     4  10  21  39  61  85 116 153 194 240 291 346
#     4  11  23  37  56  82 110 143 185 231 279 333
#     4   9  18  34  58  85 111 145 189 233 280 339
#     4   9  20  37  55  78 109 144 180 222 274 330
#     4  10  22  39  59  82 109 146 189 232 281 337
#     4  10  21  37  58  84 113 146 185 229 278 333
#     4  10  20  34  52  76 107 143 183 222 266 324
#
# _framework density 20.751663000000001
#
# number of rings (size 3 to 8) (size 9 to 14) (size 15 to 20)
#    0.000    2.125    0.000    3.750    0.000    8.500 
#    0.000    5.000    0.000    2.625    0.000    0.000 
#    0.000    0.000    0.000    0.000    0.000    0.000 
#
# Total GULP energy -793558.023282 kJ/mol
# GULP energy per Si atom -12399.344114 kJ/mol
# Density = 2.070443 g / cm^3
# Si number density = 20.751663 Si / 1000 Ang^3
#
#
#
# Elastic Constant Matrix: (Units=GPa)
#
#
# Indices 1 2 3 4 5 6 
#
# 1 89.2582 22.6159 14.1665 0.0000 0.0000 0.0000
# 2 22.6159 79.3836 -1.0042 0.0000 0.0000 0.0000
# 3 14.1665 -1.0042 62.2788 0.0000 0.0000 0.0000
# 4 0.0000 0.0000 0.0000 19.0885 0.0000 0.0000
# 5 0.0000 0.0000 0.0000 0.0000 36.6184 0.0000
# 6 0.0000 0.0000 0.0000 0.0000 0.0000 16.4568
#
#
#
# Elastic Compliance Matrix: (Units=1/GPa)
#
#
# Indices 1 2 3 4 5 6 
#
# 1 0.012585 -0.003622 -0.002921 0.000000 0.000000 0.000000
# 2 -0.003622 0.013642 0.001044 0.000000 0.000000 0.000000
# 3 -0.002921 0.001044 0.016738 0.000000 0.000000 0.000000
# 4 0.000000 0.000000 0.000000 0.052388 0.000000 0.000000
# 5 0.000000 0.000000 0.000000 0.000000 0.027309 0.000000
# 6 0.000000 0.000000 0.000000 0.000000 0.000000 0.060765
#
#
# Mechanical properties :
#
#
# Convention : Reuss Voigt Hill
#
# Bulk Modulus (GPa) = 31.28290 33.60854 32.44572
# Shear Modulus (GPa) = 24.38062 27.44224 25.91143
#
# Velocity S-wave (km/s) = 3.43136 3.64044 3.53745
# Velocity P-wave (km/s) = 5.55037 5.82247 5.68805
#
# Compressibility (1/GPa) = 0.03196635
#
# Stress axis : x y z
#
# Youngs Moduli (GPa) = 79.46054 73.30176 59.74391
#
# Poissons Ratio (x) = 0.26552 0.17452
# Poissons Ratio (y) = 0.28783 -0.06237
# Poissons Ratio (z) = 0.23211 -0.07652
#
# Static dielectric constant tensor:
#      x y z
#    x 3.689800 0.000000 0.000000 
#    y 0.000000 3.784610 0.000000 
#    z 0.000000 0.000000 3.931370 
# 
# 
# High freq. dielectric constant tensor:
#      x y z
#    x 1.798910 0.000000 0.000000 
#    y 0.000000 1.813350 0.000000 
#    z 0.000000 0.000000 1.817350 
# 
# From -- ./inp_files/31101.got.cif
#   From: 2010.03.12/outbox.cif.g09.slc.cpg/sg53_16_cif.got.tgz:31101.got - 2010.04.16 14:36:59.
