data_PCOD8219757
_publ_section_title
;
Structure prediction by ZEFSAII (Michael W. Deem and Ramdas Pophale) SiO2 
 PCOD8219757
Probable space group: P M N A
;
_chemical_formula_sum "Si O2"
_cell_formula_units_Z 64
_cell_length_a 9.050510
_cell_length_b 11.962343
_cell_length_c 31.389145
_cell_angle_alpha 90.000000
_cell_angle_beta 90.000000
_cell_angle_gamma 90.000000
_cell_volume 3398.355355
_symmetry_space_group_name_H-M "P M N A"
_symmetry_group_IT_number 53
_symmetry_cell_setting 'orthorhombic'
loop_
_space_group_symop_operation_xyz
x,y,z
1/2-x,-y,1/2+z
x,-y,-z
1/2-x,y,1/2-z
-x,-y,-z
1/2+x,y,1/2-z
-x,y,z
1/2+x,-y,1/2+z
loop_
_atom_site_type_symbol
_atom_site_label
_atom_site_fract_x
_atom_site_fract_y
_atom_site_fract_z
Si Si1 0.328640 0.695475 0.793990
Si Si2 0.334558 0.647653 0.624857
Si Si3 0.826608 0.516522 0.049540
Si Si4 0.326356 0.876068 0.999814
Si Si5 0.325248 0.917380 0.368428
Si Si6 0.323691 0.263166 0.920509
Si Si7 0.327248 0.044456 0.206476
Si Si8 0.835431 0.131947 0.080026
O O1 0.250000 0.659652 0.750000
O O2 0.500000 0.668321 0.788571
O O3 0.267950 0.622041 0.834044
O O4 0.299514 0.825571 0.804123
O O5 0.500000 0.609690 0.637027
O O6 0.289520 0.589491 0.579879
O O7 0.326681 0.781196 0.618766
O O8 0.735192 0.612673 0.073193
O O9 0.000000 0.545427 0.049450
O O10 0.774039 0.500000 0.000000
O O11 0.500000 0.880727 0.001858
O O12 0.265720 0.804178 0.038528
O O13 0.274672 0.821020 0.955825
O O14 0.256576 0.000000 0.000000
O O15 0.500000 0.903742 0.361444
O O16 0.252214 0.798138 0.380322
O O17 0.248821 0.961525 0.326319
O O18 0.288251 0.008764 0.404731
O O19 0.500000 0.263531 0.914952
O O20 0.250000 0.012403 0.250000
O O21 0.500000 0.017902 0.208607
O O22 0.000000 0.129397 0.060795
#
# Coordination Sequence:
#
# PCOD8219757 Si02
#       8
#     8   8   8   8   8   8   8   8
#     4  10  20  33  54  84 118 153 188 232 284 344
#     4  10  20  36  57  82 113 148 189 238 287 336
#     4  10  22  41  63  83 111 152 199 247 293 346
#     4  10  20  33  48  70 105 143 178 222 275 326
#     4  11  21  34  55  82 113 147 186 230 279 339
#     4  11  23  38  56  79 111 148 189 236 284 338
#     4  10  20  34  54  82 118 156 189 227 279 339
#     4  10  20  32  51  79 108 142 183 227 274 330
#
# _framework density 18.832640000000001
#
# number of rings (size 3 to 8) (size 9 to 14) (size 15 to 20)
#    0.000    1.750    2.500    2.250    0.000    5.000 
#    0.000    0.000    0.000    0.750    0.000    1.750 
#    0.000    0.000    0.000    0.000    0.000    0.000 
#
# Total GULP energy -793352.501870 kJ/mol
# GULP energy per Si atom -12396.132842 kJ/mol
# Density = 1.878978 g / cm^3
# Si number density = 18.832640 Si / 1000 Ang^3
#
#
#
# Elastic Constant Matrix: (Units=GPa)
#
#
# Indices 1 2 3 4 5 6 
#
# 1 73.9624 31.9108 55.8174 0.0000 0.0000 0.0000
# 2 31.9108 66.1373 28.6225 0.0000 0.0000 0.0000
# 3 55.8174 28.6225 126.5824 0.0000 0.0000 0.0000
# 4 0.0000 0.0000 0.0000 31.4375 0.0000 0.0000
# 5 0.0000 0.0000 0.0000 0.0000 37.5924 0.0000
# 6 0.0000 0.0000 0.0000 0.0000 0.0000 25.5789
#
#
#
# Elastic Compliance Matrix: (Units=1/GPa)
#
#
# Indices 1 2 3 4 5 6 
#
# 1 0.023195 -0.007499 -0.008532 0.000000 0.000000 0.000000
# 2 -0.007499 0.019184 -0.001031 0.000000 0.000000 0.000000
# 3 -0.008532 -0.001031 0.011896 0.000000 0.000000 0.000000
# 4 0.000000 0.000000 0.000000 0.031809 0.000000 0.000000
# 5 0.000000 0.000000 0.000000 0.000000 0.026601 0.000000
# 6 0.000000 0.000000 0.000000 0.000000 0.000000 0.039095
#
#
# Mechanical properties :
#
#
# Convention : Reuss Voigt Hill
#
# Bulk Modulus (GPa) = 49.62763 55.48706 52.55734
# Shear Modulus (GPa) = 25.95766 28.94386 27.45076
#
# Velocity S-wave (km/s) = 3.71662 3.92458 3.82202
# Velocity P-wave (km/s) = 6.69528 7.07557 6.88805
#
# Compressibility (1/GPa) = 0.02015007
#
# Stress axis : x y z
#
# Youngs Moduli (GPa) = 43.11310 52.12543 84.06490
#
# Poissons Ratio (x) = 0.39088 0.71727
# Poissons Ratio (y) = 0.32330 0.08670
# Poissons Ratio (z) = 0.36785 0.05376
#
# Static dielectric constant tensor:
#      x y z
#    x 3.412350 0.000000 0.000000 
#    y 0.000000 3.307670 0.000000 
#    z 0.000000 0.000000 3.396170 
# 
# 
# High freq. dielectric constant tensor:
#      x y z
#    x 1.735060 0.000000 0.000000 
#    y 0.000000 1.704340 0.000000 
#    z 0.000000 0.000000 1.731960 
# 
# From -- ./inp_files/38140.got.cif
#   From: 2010.03.12/outbox.cif.g09.slc.cpg/sg53_20_cif.got.tgz:38140.got - 2010.04.16 14:36:59.
