data_PCOD8219112
_publ_section_title
;
Structure prediction by ZEFSAII (Michael W. Deem and Ramdas Pophale) SiO2 
 PCOD8219112
Probable space group: P M N A
;
_chemical_formula_sum "Si O2"
_cell_formula_units_Z 64
_cell_length_a 8.977238
_cell_length_b 12.477075
_cell_length_c 29.052570
_cell_angle_alpha 90.000000
_cell_angle_beta 90.000000
_cell_angle_gamma 90.000000
_cell_volume 3254.168831
_symmetry_space_group_name_H-M "P M N A"
_symmetry_group_IT_number 53
_symmetry_cell_setting 'orthorhombic'
loop_
_space_group_symop_operation_xyz
x,y,z
1/2-x,-y,1/2+z
x,-y,-z
1/2-x,y,1/2-z
-x,-y,-z
1/2+x,y,1/2-z
-x,y,z
1/2+x,-y,1/2+z
loop_
_atom_site_type_symbol
_atom_site_label
_atom_site_fract_x
_atom_site_fract_y
_atom_site_fract_z
Si Si1 0.176261 0.753181 0.300214
Si Si2 0.668447 0.021665 0.450042
Si Si3 0.327402 0.190256 0.171567
Si Si4 0.332081 0.254863 0.416353
Si Si5 0.175325 0.958453 0.357855
Si Si6 0.829253 0.542560 0.355624
Si Si7 0.830294 0.451890 0.451191
Si Si8 0.326186 0.617920 0.706368
O O1 0.250000 0.745763 0.250000
O O2 0.232914 0.858556 0.327585
O O3 0.224577 0.653294 0.332370
O O4 0.000000 0.757551 0.292988
O O5 0.500000 0.977294 0.448661
O O6 0.671208 0.149213 0.446872
O O7 0.742583 0.000000 0.500000
O O8 0.753097 0.961383 0.408561
O O9 0.500000 0.206359 0.183648
O O10 0.292390 0.242593 0.122510
O O11 0.227167 0.257619 0.207136
O O12 0.281407 0.065161 0.171112
O O13 0.500000 0.271825 0.395843
O O14 0.285249 0.355114 0.446869
O O15 0.000000 0.952305 0.365918
O O16 0.809790 0.542208 0.411042
O O17 0.727458 0.444089 0.338885
O O18 0.000000 0.520326 0.341627
O O19 0.788965 0.500000 0.500000
O O20 0.000000 0.409027 0.450430
O O21 0.250000 0.559428 0.750000
O O22 0.500000 0.610725 0.711754
#
# Coordination Sequence:
#
# PCOD8219112 Si02
#       8
#     8   8   8   8   8   8   8   8
#     4  10  22  40  60  84 115 155 199 246 298 352
#     4   9  19  35  55  82 117 155 196 241 294 349
#     4  10  19  35  57  81 112 147 182 229 288 345
#     4  10  19  33  54  79 109 148 189 237 290 343
#     4   9  20  37  58  85 116 150 193 242 291 348
#     4  10  21  39  60  82 116 154 192 241 292 348
#     4  10  21  36  56  83 114 153 195 238 295 355
#     4  12  24  37  57  85 114 146 188 234 284 343
#
# _framework density 19.667082000000001
#
# number of rings (size 3 to 8) (size 9 to 14) (size 15 to 20)
#    0.000    2.000    1.250    2.250    0.000    5.000 
#    0.000    2.500    0.000    0.000    0.000    0.000 
#    0.000    0.000    0.000    0.000    0.000    0.000 
#
# Total GULP energy -793392.790441 kJ/mol
# GULP energy per Si atom -12396.762351 kJ/mol
# Density = 1.962232 g / cm^3
# Si number density = 19.667082 Si / 1000 Ang^3
#
#
#
# Elastic Constant Matrix: (Units=GPa)
#
#
# Indices 1 2 3 4 5 6 
#
# 1 75.2777 40.5067 38.1605 0.0000 0.0000 0.0000
# 2 40.5067 116.0082 57.2396 0.0000 0.0000 0.0000
# 3 38.1605 57.2396 133.4290 0.0000 0.0000 0.0000
# 4 0.0000 0.0000 0.0000 26.3885 0.0000 0.0000
# 5 0.0000 0.0000 0.0000 0.0000 29.1547 0.0000
# 6 0.0000 0.0000 0.0000 0.0000 0.0000 23.2331
#
#
#
# Elastic Compliance Matrix: (Units=1/GPa)
#
#
# Indices 1 2 3 4 5 6 
#
# 1 0.017243 -0.004551 -0.002979 0.000000 0.000000 0.000000
# 2 -0.004551 0.012136 -0.003905 0.000000 0.000000 0.000000
# 3 -0.002979 -0.003905 0.010022 0.000000 0.000000 0.000000
# 4 0.000000 0.000000 0.000000 0.037895 0.000000 0.000000
# 5 0.000000 0.000000 0.000000 0.000000 0.034300 0.000000
# 6 0.000000 0.000000 0.000000 0.000000 0.000000 0.043042
#
#
# Mechanical properties :
#
#
# Convention : Reuss Voigt Hill
#
# Bulk Modulus (GPa) = 60.49138 66.28093 63.38616
# Shear Modulus (GPa) = 27.31983 28.34248 27.83115
#
# Velocity S-wave (km/s) = 3.73113 3.80032 3.76588
# Velocity P-wave (km/s) = 7.02753 7.28225 7.15602
#
# Compressibility (1/GPa) = 0.01653128
#
# Stress axis : x y z
#
# Youngs Moduli (GPa) = 57.99387 82.40210 99.78365
#
# Poissons Ratio (x) = 0.37500 0.29728
# Poissons Ratio (y) = 0.26392 0.38961
# Poissons Ratio (z) = 0.17278 0.32174
#
# Static dielectric constant tensor:
#      x y z
#    x 3.495880 0.000000 0.000000 
#    y 0.000000 3.751450 0.000000 
#    z 0.000000 0.000000 3.645910 
# 
# 
# High freq. dielectric constant tensor:
#      x y z
#    x 1.760140 0.000000 0.000000 
#    y 0.000000 1.764180 0.000000 
#    z 0.000000 0.000000 1.769230 
# 
# From -- ./inp_files/38145.got.cif
#   From: 2010.03.12/outbox.cif.g09.slc.cpg/sg53_20_cif.got.tgz:38145.got - 2010.04.16 14:36:59.
