data_PCOD8219422
_publ_section_title
;
Structure prediction by ZEFSAII (Michael W. Deem and Ramdas Pophale) SiO2 
 PCOD8219422
Probable space group: P M N A
;
_chemical_formula_sum "Si O2"
_cell_formula_units_Z 40
_cell_length_a 8.648864
_cell_length_b 11.577161
_cell_length_c 21.805965
_cell_angle_alpha 90.000000
_cell_angle_beta 90.000000
_cell_angle_gamma 90.000000
_cell_volume 2183.415815
_symmetry_space_group_name_H-M "P M N A"
_symmetry_group_IT_number 53
_symmetry_cell_setting 'orthorhombic'
loop_
_space_group_symop_operation_xyz
x,y,z
1/2-x,-y,1/2+z
x,-y,-z
1/2-x,y,1/2-z
-x,-y,-z
1/2+x,y,1/2-z
-x,y,z
1/2+x,-y,1/2+z
loop_
_atom_site_type_symbol
_atom_site_label
_atom_site_fract_x
_atom_site_fract_y
_atom_site_fract_z
Si Si1 0.182186 0.165257 0.040579
Si Si2 0.818372 0.784976 0.311603
Si Si3 0.316844 0.475213 0.814540
Si Si4 0.816794 0.055070 0.579685
Si Si5 0.183646 0.418167 0.443589
O O1 0.247581 0.292577 0.047086
O O2 0.000000 0.166984 0.050663
O O3 0.262104 0.077618 0.089404
O O4 0.225758 0.114722 0.975057
O O5 0.750000 0.837571 0.250000
O O6 0.755483 0.655610 0.322871
O O7 0.761207 0.872039 0.362808
O O8 0.000000 0.780759 0.307810
O O9 0.250000 0.526839 0.750000
O O10 0.500000 0.482616 0.810053
O O11 0.258620 0.539434 0.876331
O O12 0.000000 0.061109 0.567780
O O13 0.240931 0.500000 0.500000
O O14 0.000000 0.411628 0.445301
#
# Coordination Sequence:
#
# PCOD8219422 Si02
#       5
#     8   8   8   8   8
#     4  11  22  34  51  78 107 133 167 215 267 306
#     4   9  18  32  53  79 103 131 168 210 254 302
#     4   9  18  33  53  77 105 136 170 211 259 309
#     4  10  19  35  56  75 101 138 175 207 251 312
#     4  10  20  36  57  78 103 138 180 218 255 311
#
# _framework density 18.319918999999999
#
# number of rings (size 3 to 8) (size 9 to 14) (size 15 to 20)
#    0.000    2.200    0.000    4.800    0.000    6.000 
#    0.000    5.000    0.000    0.000    0.000    0.000 
#    0.000    0.000    0.000    0.000    0.000    0.000 
#
# Total GULP energy -495770.220826 kJ/mol
# GULP energy per Si atom -12394.255521 kJ/mol
# Density = 1.827822 g / cm^3
# Si number density = 18.319919 Si / 1000 Ang^3
#
#
#
# Elastic Constant Matrix: (Units=GPa)
#
#
# Indices 1 2 3 4 5 6 
#
# 1 2.9830 18.9209 15.7595 0.0000 0.0000 0.0000
# 2 18.9209 131.2872 65.8917 0.0000 0.0000 0.0000
# 3 15.7595 65.8917 122.0039 0.0000 0.0000 0.0000
# 4 0.0000 0.0000 0.0000 34.7602 0.0000 0.0000
# 5 0.0000 0.0000 0.0000 0.0000 27.5603 0.0000
# 6 0.0000 0.0000 0.0000 0.0000 0.0000 24.3930
#
#
#
# Elastic Compliance Matrix: (Units=1/GPa)
#
#
# Indices 1 2 3 4 5 6 
#
# 1 -5.408291 0.588270 0.380886 0.000000 0.000000 0.000000
# 2 0.588270 -0.053538 -0.047073 0.000000 0.000000 0.000000
# 3 0.380886 -0.047073 -0.015580 0.000000 0.000000 0.000000
# 4 0.000000 0.000000 0.000000 0.028769 0.000000 0.000000
# 5 0.000000 0.000000 0.000000 0.000000 0.036284 0.000000
# 6 0.000000 0.000000 0.000000 0.000000 0.000000 0.040995
#
#
# Mechanical properties :
#
#
# Convention : Reuss Voigt Hill
#
# Bulk Modulus (GPa) = -0.27524 50.82425 25.27450
# Shear Modulus (GPa) = -0.59336 27.72285 13.56475
#
# Velocity S-wave (km/s) = -0.56973 3.89429 2.72405
# Velocity P-wave (km/s) = 0.76377 6.92990 4.87032
#
# Compressibility (1/GPa) = -3.63324308
#
# Stress axis : x y z
#
# Youngs Moduli (GPa) = -0.18490 -18.67834 -64.18449
#
# Poissons Ratio (x) = 10.98790 24.44700
# Poissons Ratio (y) = 0.10877 -3.02137
# Poissons Ratio (z) = 0.07043 -0.87925
#
# Static dielectric constant tensor:
#      x y z
#    x 3.263940 0.000000 0.000000 
#    y 0.000000 3.810030 0.000000 
#    z 0.000000 0.000000 3.640800 
# 
# 
# High freq. dielectric constant tensor:
#      x y z
#    x 1.704760 0.000000 0.000000 
#    y 0.000000 1.711220 0.000000 
#    z 0.000000 0.000000 1.710610 
# 
# From -- ./inp_files/25836.got.cif
#   From: 2010.03.12/outbox.cif.g09.slc.cpg/sg53_13_cif.got.tgz:25836.got - 2010.04.16 14:36:59.
