data_PCOD8219311
_publ_section_title
;
Structure prediction by ZEFSAII (Michael W. Deem and Ramdas Pophale) SiO2 
 PCOD8219311
Probable space group: P M N A
;
_chemical_formula_sum "Si O2"
_cell_formula_units_Z 56
_cell_length_a 8.486591
_cell_length_b 14.692495
_cell_length_c 22.596866
_cell_angle_alpha 90.000000
_cell_angle_beta 90.000000
_cell_angle_gamma 90.000000
_cell_volume 2817.585050
_symmetry_space_group_name_H-M "P M N A"
_symmetry_group_IT_number 53
_symmetry_cell_setting 'orthorhombic'
loop_
_space_group_symop_operation_xyz
x,y,z
1/2-x,-y,1/2+z
x,-y,-z
1/2-x,y,1/2-z
-x,-y,-z
1/2+x,y,1/2-z
-x,y,z
1/2+x,-y,1/2+z
loop_
_atom_site_type_symbol
_atom_site_label
_atom_site_fract_x
_atom_site_fract_y
_atom_site_fract_z
Si Si1 0.684877 0.595479 0.979403
Si Si2 0.812630 0.624144 0.651431
Si Si3 0.815245 0.188924 0.187774
Si Si4 0.684262 0.086269 0.073737
Si Si5 0.816808 0.105504 0.947661
Si Si6 0.685082 0.713865 0.089524
Si Si7 0.313792 0.424857 0.811963
O O1 0.500000 0.578586 0.973043
O O2 0.748477 0.627633 0.916111
O O3 0.762663 0.500000 0.000000
O O4 0.726082 0.673338 0.025666
O O5 0.725060 0.703985 0.686197
O O6 0.754624 0.527644 0.677470
O O7 0.000000 0.637500 0.657104
O O8 0.750000 0.149325 0.250000
O O9 0.736711 0.137387 0.132882
O O10 0.000000 0.172728 0.185163
O O11 0.500000 0.102562 0.064906
O O12 0.720905 0.979361 0.078791
O O13 0.770055 0.126441 0.015650
O O14 0.776223 0.190899 0.905848
O O15 0.000000 0.082110 0.944131
O O16 0.500000 0.730781 0.097479
O O17 0.751358 0.644011 0.138408
O O18 0.250000 0.388267 0.750000
O O19 0.500000 0.423476 0.814119
#
# Coordination Sequence:
#
# PCOD8219311 Si02
#       7
#     8   8   8   8   8   8   8
#     4   9  15  28  53  82 110 143 188 239 287 336
#     4  10  19  34  57  85 115 153 197 240 292 350
#     4  12  25  41  60  87 122 159 200 246 297 354
#     4  11  22  41  66  91 118 153 194 238 291 353
#     4  11  22  38  62  93 124 152 186 237 298 356
#     4  10  19  34  56  83 113 150 196 242 288 346
#     4  10  21  35  53  76 109 152 200 244 285 336
#
# _framework density 19.875177999999998
#
# number of rings (size 3 to 8) (size 9 to 14) (size 15 to 20)
#    0.000    1.571    1.429    6.000    0.000    3.429 
#    0.000    0.714    0.000    2.571    0.000    0.000 
#    0.000    0.000    0.000    0.000    0.000    0.000 
#
# Total GULP energy -694499.942501 kJ/mol
# GULP energy per Si atom -12401.784688 kJ/mol
# Density = 1.982994 g / cm^3
# Si number density = 19.875178 Si / 1000 Ang^3
#
#
#
# Elastic Constant Matrix: (Units=GPa)
#
#
# Indices 1 2 3 4 5 6 
#
# 1 59.2418 17.9645 16.0973 0.0000 0.0000 0.0000
# 2 17.9645 90.8417 29.7034 0.0000 0.0000 0.0000
# 3 16.0973 29.7034 103.6962 0.0000 0.0000 0.0000
# 4 0.0000 0.0000 0.0000 28.7079 0.0000 0.0000
# 5 0.0000 0.0000 0.0000 0.0000 28.5406 0.0000
# 6 0.0000 0.0000 0.0000 0.0000 0.0000 22.8318
#
#
#
# Elastic Compliance Matrix: (Units=1/GPa)
#
#
# Indices 1 2 3 4 5 6 
#
# 1 0.018323 -0.002972 -0.001993 0.000000 0.000000 0.000000
# 2 -0.002972 0.012628 -0.003156 0.000000 0.000000 0.000000
# 3 -0.001993 -0.003156 0.010857 0.000000 0.000000 0.000000
# 4 0.000000 0.000000 0.000000 0.034834 0.000000 0.000000
# 5 0.000000 0.000000 0.000000 0.000000 0.035038 0.000000
# 6 0.000000 0.000000 0.000000 0.000000 0.000000 0.043799
#
#
# Mechanical properties :
#
#
# Convention : Reuss Voigt Hill
#
# Bulk Modulus (GPa) = 39.11441 42.36780 40.74110
# Shear Modulus (GPa) = 27.74069 28.68370 28.21220
#
# Velocity S-wave (km/s) = 3.74002 3.80306 3.77167
# Velocity P-wave (km/s) = 6.19460 6.37554 6.28572
#
# Compressibility (1/GPa) = 0.02556603
#
# Stress axis : x y z
#
# Youngs Moduli (GPa) = 54.57717 79.19080 92.10698
#
# Poissons Ratio (x) = 0.23533 0.18358
# Poissons Ratio (y) = 0.16219 0.29068
# Poissons Ratio (z) = 0.10878 0.24991
#
# Static dielectric constant tensor:
#      x y z
#    x 3.362970 0.000000 0.000000 
#    y 0.000000 3.670690 0.000000 
#    z 0.000000 0.000000 3.602800 
# 
# 
# High freq. dielectric constant tensor:
#      x y z
#    x 1.755850 0.000000 0.000000 
#    y 0.000000 1.778260 0.000000 
#    z 0.000000 0.000000 1.776590 
# 
# From -- ./inp_files/30844.got.cif
#   From: 2010.03.12/outbox.cif.g09.slc.cpg/sg53_16_cif.got.tgz:30844.got - 2010.04.16 14:36:59.
