data_PCOD8219594
_publ_section_title
;
Structure prediction by ZEFSAII (Michael W. Deem and Ramdas Pophale) SiO2 
 PCOD8219594
Probable space group: P M N A
;
_chemical_formula_sum "Si O2"
_cell_formula_units_Z 40
_cell_length_a 17.349346
_cell_length_b 11.510783
_cell_length_c 10.051368
_cell_angle_alpha 90.000000
_cell_angle_beta 90.000000
_cell_angle_gamma 90.000000
_cell_volume 2007.303994
_symmetry_space_group_name_H-M "P M N A"
_symmetry_group_IT_number 53
_symmetry_cell_setting 'orthorhombic'
loop_
_space_group_symop_operation_xyz
x,y,z
1/2-x,-y,1/2+z
x,-y,-z
1/2-x,y,1/2-z
-x,-y,-z
1/2+x,y,1/2-z
-x,y,z
1/2+x,-y,1/2+z
loop_
_atom_site_type_symbol
_atom_site_label
_atom_site_fract_x
_atom_site_fract_y
_atom_site_fract_z
Si Si1 0.408192 0.630666 0.026208
Si Si2 0.839903 0.759692 0.226742
Si Si3 0.911032 0.366474 0.011928
Si Si4 0.908182 0.996920 0.153260
Si Si5 0.410125 0.765462 0.773912
O O1 0.500000 0.630983 0.026566
O O2 0.378595 0.674924 0.166929
O O3 0.377850 0.500000 0.000000
O O4 0.374736 0.716426 0.911402
O O5 0.750000 0.767693 0.250000
O O6 0.856189 0.708065 0.081849
O O7 0.875309 0.888139 0.234341
O O8 0.000000 0.341508 0.973020
O O9 0.889553 0.500000 0.000000
O O10 0.893802 0.330834 0.162479
O O11 0.000000 0.991902 0.156317
O O12 0.875103 0.110660 0.229281
O O13 0.879683 0.000000 0.000000
O O14 0.500000 0.784002 0.794529
#
# Coordination Sequence:
#
# PCOD8219594 Si02
#       5
#     8   8   8   8   8
#     4  10  21  40  64  90 120 152 195 251 303 354
#     4  12  25  39  56  88 128 163 197 239 305 370
#     4  10  19  36  64  90 112 151 207 253 291 352
#     4  10  19  38  65  86 113 153 208 263 293 338
#     4   9  18  34  60  90 112 144 197 254 305 340
#
# _framework density 19.927226999999998
#
# number of rings (size 3 to 8) (size 9 to 14) (size 15 to 20)
#    0.000    1.800    2.000    3.000    0.000    4.800 
#    3.600    4.000    0.000    0.000    0.000    0.000 
#    0.000    0.000    0.000    0.000    0.000    0.000 
#
# Total GULP energy -496053.330358 kJ/mol
# GULP energy per Si atom -12401.333259 kJ/mol
# Density = 1.988187 g / cm^3
# Si number density = 19.927227 Si / 1000 Ang^3
#
#
#
# Elastic Constant Matrix: (Units=GPa)
#
#
# Indices 1 2 3 4 5 6 
#
# 1 28.6904 16.9882 0.5785 0.0000 0.0000 0.0000
# 2 16.9882 136.3243 22.8253 0.0000 0.0000 0.0000
# 3 0.5785 22.8253 61.0059 0.0000 0.0000 0.0000
# 4 0.0000 0.0000 0.0000 40.0535 0.0000 0.0000
# 5 0.0000 0.0000 0.0000 0.0000 8.7463 0.0000
# 6 0.0000 0.0000 0.0000 0.0000 0.0000 3.5628
#
#
#
# Elastic Compliance Matrix: (Units=1/GPa)
#
#
# Indices 1 2 3 4 5 6 
#
# 1 0.037759 -0.004956 0.001496 0.000000 0.000000 0.000000
# 2 -0.004956 0.008476 -0.003124 0.000000 0.000000 0.000000
# 3 0.001496 -0.003124 0.017547 0.000000 0.000000 0.000000
# 4 0.000000 0.000000 0.000000 0.024967 0.000000 0.000000
# 5 0.000000 0.000000 0.000000 0.000000 0.114334 0.000000
# 6 0.000000 0.000000 0.000000 0.000000 0.000000 0.280681
#
#
# Mechanical properties :
#
#
# Convention : Reuss Voigt Hill
#
# Bulk Modulus (GPa) = 19.75743 34.08941 26.92342
# Shear Modulus (GPa) = 9.73136 22.84776 16.28956
#
# Velocity S-wave (km/s) = 2.21225 3.38976 2.86221
# Velocity P-wave (km/s) = 4.05730 5.69778 4.94603
#
# Compressibility (1/GPa) = 0.05061388
#
# Stress axis : x y z
#
# Youngs Moduli (GPa) = 26.48361 117.97791 56.99098
#
# Poissons Ratio (x) = 0.58469 -0.08527
# Poissons Ratio (y) = 0.13125 0.17806
# Poissons Ratio (z) = -0.03963 0.36861
#
# Static dielectric constant tensor:
#      x y z
#    x 3.221950 0.000000 0.000000 
#    y 0.000000 4.009930 0.000000 
#    z 0.000000 0.000000 3.802100 
# 
# 
# High freq. dielectric constant tensor:
#      x y z
#    x 1.731990 0.000000 0.000000 
#    y 0.000000 1.798060 0.000000 
#    z 0.000000 0.000000 1.784820 
# 
# From -- ./inp_files/9631.got.cif
#   From: 2010.03.12/outbox.cif.g09.slc.cpg/sg53_5_cif.got.tgz:9631.got - 2010.04.16 14:36:59.
