data_PCOD8219732
_publ_section_title
;
Structure prediction by ZEFSAII (Michael W. Deem and Ramdas Pophale) SiO2 
 PCOD8219732
Probable space group: P M N A
;
_chemical_formula_sum "Si O2"
_cell_formula_units_Z 64
_cell_length_a 8.829310
_cell_length_b 19.917902
_cell_length_c 20.253953
_cell_angle_alpha 90.000000
_cell_angle_beta 90.000000
_cell_angle_gamma 90.000000
_cell_volume 3561.887139
_symmetry_space_group_name_H-M "P M N A"
_symmetry_group_IT_number 53
_symmetry_cell_setting 'orthorhombic'
loop_
_space_group_symop_operation_xyz
x,y,z
1/2-x,-y,1/2+z
x,-y,-z
1/2-x,y,1/2-z
-x,-y,-z
1/2+x,y,1/2-z
-x,y,z
1/2+x,-y,1/2+z
loop_
_atom_site_type_symbol
_atom_site_label
_atom_site_fract_x
_atom_site_fract_y
_atom_site_fract_z
Si Si1 0.319128 0.680804 0.565448
Si Si2 0.826867 0.827562 0.953515
Si Si3 0.678236 0.663127 0.073123
Si Si4 0.178939 0.405220 0.318587
Si Si5 0.181303 0.971750 0.930800
Si Si6 0.679204 0.072710 0.679978
Si Si7 0.173567 0.798257 0.102846
Si Si8 0.822749 0.441316 0.682461
O O1 0.500000 0.677768 0.568421
O O2 0.254951 0.757430 0.571989
O O3 0.267085 0.651850 0.494988
O O4 0.247236 0.638148 0.623093
O O5 0.755504 0.895135 0.921682
O O6 0.000000 0.824603 0.932394
O O7 0.810013 0.833922 0.032222
O O8 0.500000 0.660573 0.059140
O O9 0.719899 0.733399 0.108053
O O10 0.732058 0.603604 0.121336
O O11 0.250000 0.379796 0.250000
O O12 0.226189 0.482165 0.331750
O O13 0.000000 0.395558 0.315911
O O14 0.000000 0.971461 0.932644
O O15 0.242758 0.017266 0.871115
O O16 0.243999 0.000000 0.000000
O O17 0.750000 0.056301 0.750000
O O18 0.500000 0.067462 0.684239
O O19 0.726755 0.147425 0.656924
O O20 0.000000 0.775605 0.114065
O O21 0.750000 0.414432 0.750000
O O22 0.000000 0.435066 0.692150
#
# Coordination Sequence:
#
# PCOD8219732 Si02
#       8
#     8   8   8   8   8   8   8   8
#     4  10  20  34  53  80 110 138 172 215 259 310
#     4   8  14  27  49  75  98 121 165 216 250 290
#     4  10  20  34  52  77 107 138 171 213 263 308
#     4  10  20  37  58  78 102 135 175 218 264 314
#     4   9  14  26  52  77  93 123 173 217 251 294
#     4  10  20  32  49  73 103 134 168 211 257 306
#     4   9  17  31  49  71  97 130 169 209 250 300
#     4   9  20  36  54  75 101 135 176 218 260 311
#
# _framework density 17.968004000000001
#
# number of rings (size 3 to 8) (size 9 to 14) (size 15 to 20)
#    0.000    2.625    1.250    1.875    0.000    3.000 
#    0.000    5.625    0.000    5.625    0.000    0.000 
#    0.000    0.000    0.000    0.000    0.000    0.000 
#
# Total GULP energy -793392.382530 kJ/mol
# GULP energy per Si atom -12396.755977 kJ/mol
# Density = 1.792711 g / cm^3
# Si number density = 17.968004 Si / 1000 Ang^3
#
#
#
# Elastic Constant Matrix: (Units=GPa)
#
#
# Indices 1 2 3 4 5 6 
#
# 1 41.9844 33.1397 35.5381 0.0000 0.0000 0.0000
# 2 33.1397 119.4229 89.0005 0.0000 0.0000 0.0000
# 3 35.5381 89.0005 141.2137 0.0000 0.0000 0.0000
# 4 0.0000 0.0000 0.0000 33.0009 0.0000 0.0000
# 5 0.0000 0.0000 0.0000 0.0000 31.2176 0.0000
# 6 0.0000 0.0000 0.0000 0.0000 0.0000 18.9724
#
#
#
# Elastic Compliance Matrix: (Units=1/GPa)
#
#
# Indices 1 2 3 4 5 6 
#
# 1 0.032032 -0.005433 -0.004637 0.000000 0.000000 0.000000
# 2 -0.005433 0.016712 -0.009165 0.000000 0.000000 0.000000
# 3 -0.004637 -0.009165 0.014025 0.000000 0.000000 0.000000
# 4 0.000000 0.000000 0.000000 0.030302 0.000000 0.000000
# 5 0.000000 0.000000 0.000000 0.000000 0.032033 0.000000
# 6 0.000000 0.000000 0.000000 0.000000 0.000000 0.052708
#
#
# Mechanical properties :
#
#
# Convention : Reuss Voigt Hill
#
# Bulk Modulus (GPa) = 41.15610 68.66420 54.91015
# Shear Modulus (GPa) = 22.28340 26.30104 24.29222
#
# Velocity S-wave (km/s) = 3.52543 3.83008 3.68090
# Velocity P-wave (km/s) = 6.28701 7.60638 6.97795
#
# Compressibility (1/GPa) = 0.02429773
#
# Stress axis : x y z
#
# Youngs Moduli (GPa) = 31.21890 59.83783 71.30152
#
# Poissons Ratio (x) = 0.32510 0.33062
# Poissons Ratio (y) = 0.16961 0.65351
# Poissons Ratio (z) = 0.14476 0.54844
#
# Static dielectric constant tensor:
#      x y z
#    x 3.060470 0.000000 0.000000 
#    y 0.000000 3.653220 0.000000 
#    z 0.000000 0.000000 3.293740 
# 
# 
# High freq. dielectric constant tensor:
#      x y z
#    x 1.670700 0.000000 0.000000 
#    y 0.000000 1.705720 0.000000 
#    z 0.000000 0.000000 1.686340 
# 
# From -- ./inp_files/27005.got.cif
#   From: 2010.03.12/outbox.cif.g09.slc.cpg/sg53_14_cif.got.tgz:27005.got - 2010.04.16 14:36:59.
