data_PCOD8219248
_publ_section_title
;
Structure prediction by ZEFSAII (Michael W. Deem and Ramdas Pophale) SiO2 
 PCOD8219248
Probable space group: P M N A
;
_chemical_formula_sum "Si O2"
_cell_formula_units_Z 64
_cell_length_a 8.950535
_cell_length_b 19.795785
_cell_length_c 18.973598
_cell_angle_alpha 90.000000
_cell_angle_beta 90.000000
_cell_angle_gamma 90.000000
_cell_volume 3361.796481
_symmetry_space_group_name_H-M "P M N A"
_symmetry_group_IT_number 53
_symmetry_cell_setting 'orthorhombic'
loop_
_space_group_symop_operation_xyz
x,y,z
1/2-x,-y,1/2+z
x,-y,-z
1/2-x,y,1/2-z
-x,-y,-z
1/2+x,y,1/2-z
-x,y,z
1/2+x,-y,1/2+z
loop_
_atom_site_type_symbol
_atom_site_label
_atom_site_fract_x
_atom_site_fract_y
_atom_site_fract_z
Si Si1 0.822056 0.286969 0.947731
Si Si2 0.676962 0.381106 0.677156
Si Si3 0.674682 0.864125 0.438350
Si Si4 0.826963 0.532853 0.820982
Si Si5 0.826020 0.104949 0.094125
Si Si6 0.825079 0.662995 0.901376
Si Si7 0.823424 0.220317 0.322906
Si Si8 0.677116 0.969454 0.326025
O O1 0.760755 0.332483 0.883948
O O2 0.755370 0.211268 0.939860
O O3 0.000000 0.285818 0.947876
O O4 0.765668 0.320099 0.020596
O O5 0.750000 0.357128 0.750000
O O6 0.500000 0.374957 0.684126
O O7 0.727652 0.457620 0.658180
O O8 0.500000 0.856499 0.426079
O O9 0.705361 0.904217 0.510972
O O10 0.740352 0.907751 0.373539
O O11 0.750000 0.559074 0.750000
O O12 0.792929 0.584122 0.885130
O O13 0.000000 0.530949 0.803267
O O14 0.725955 0.167344 0.118097
O O15 0.000000 0.121846 0.107505
O O16 0.775187 0.038372 0.135452
O O17 0.734396 0.705965 0.844255
O O18 0.000000 0.680409 0.893594
O O19 0.750000 0.197148 0.250000
O O20 0.000000 0.220976 0.314619
O O21 0.750000 0.965200 0.250000
O O22 0.500000 0.965923 0.317987
#
# Coordination Sequence:
#
# PCOD8219248 Si02
#       8
#     8   8   8   8   8   8   8   8
#     4   9  17  31  55  80 105 136 177 222 266 313
#     4   9  18  33  52  77 105 139 178 221 266 315
#     4   9  17  33  57  81 105 139 181 221 264 318
#     4   9  18  31  50  75 105 138 178 219 263 312
#     4  10  19  36  59  80 105 139 179 221 264 315
#     4  10  19  34  54  77 105 140 177 220 267 314
#     4  12  24  36  53  79 110 143 178 216 260 314
#     4  10  21  35  55  82 109 140 179 222 266 314
#
# _framework density 19.037441000000001
#
# number of rings (size 3 to 8) (size 9 to 14) (size 15 to 20)
#    0.000    2.250    1.250    2.250    0.000    5.500 
#    0.000    3.750    0.000    1.500    0.000    4.375 
#    0.000    0.000    0.000    0.000    0.000    0.000 
#
# Total GULP energy -793595.963434 kJ/mol
# GULP energy per Si atom -12399.936929 kJ/mol
# Density = 1.899411 g / cm^3
# Si number density = 19.037441 Si / 1000 Ang^3
#
#
#
# Elastic Constant Matrix: (Units=GPa)
#
#
# Indices 1 2 3 4 5 6 
#
# 1 42.1834 22.7863 27.4221 0.0000 0.0000 0.0000
# 2 22.7863 109.7448 74.6072 0.0000 0.0000 0.0000
# 3 27.4221 74.6072 137.5567 0.0000 0.0000 0.0000
# 4 0.0000 0.0000 0.0000 40.5516 0.0000 0.0000
# 5 0.0000 0.0000 0.0000 0.0000 27.8271 0.0000
# 6 0.0000 0.0000 0.0000 0.0000 0.0000 22.8095
#
#
#
# Elastic Compliance Matrix: (Units=1/GPa)
#
#
# Indices 1 2 3 4 5 6 
#
# 1 0.027923 -0.003189 -0.003837 0.000000 0.000000 0.000000
# 2 -0.003189 0.014799 -0.007391 0.000000 0.000000 0.000000
# 3 -0.003837 -0.007391 0.012043 0.000000 0.000000 0.000000
# 4 0.000000 0.000000 0.000000 0.024660 0.000000 0.000000
# 5 0.000000 0.000000 0.000000 0.000000 0.035936 0.000000
# 6 0.000000 0.000000 0.000000 0.000000 0.000000 0.043841
#
#
# Mechanical properties :
#
#
# Convention : Reuss Voigt Hill
#
# Bulk Modulus (GPa) = 38.56339 59.90180 49.23259
# Shear Modulus (GPa) = 25.42216 29.21559 27.31888
#
# Velocity S-wave (km/s) = 3.65825 3.92170 3.79226
# Velocity P-wave (km/s) = 6.17610 7.21386 6.71506
#
# Compressibility (1/GPa) = 0.02593133
#
# Stress axis : x y z
#
# Youngs Moduli (GPa) = 35.81288 67.57429 83.03588
#
# Poissons Ratio (x) = 0.21552 0.31858
# Poissons Ratio (y) = 0.11422 0.61368
# Poissons Ratio (z) = 0.13740 0.49941
#
# Static dielectric constant tensor:
#      x y z
#    x 3.125700 0.000000 0.000000 
#    y 0.000000 3.767160 0.000000 
#    z 0.000000 0.000000 3.606960 
# 
# 
# High freq. dielectric constant tensor:
#      x y z
#    x 1.700010 0.000000 0.000000 
#    y 0.000000 1.750130 0.000000 
#    z 0.000000 0.000000 1.745570 
# 
# From -- ./inp_files/26990.got.cif
#   From: 2010.03.12/outbox.cif.g09.slc.cpg/sg53_14_cif.got.tgz:26990.got - 2010.04.16 14:36:59.
