data_PCOD8219460
_publ_section_title
;
Structure prediction by ZEFSAII (Michael W. Deem and Ramdas Pophale) SiO2 
 PCOD8219460
Probable space group: P M N A
;
_chemical_formula_sum "Si O2"
_cell_formula_units_Z 64
_cell_length_a 8.882808
_cell_length_b 21.470491
_cell_length_c 17.877804
_cell_angle_alpha 90.000000
_cell_angle_beta 90.000000
_cell_angle_gamma 90.000000
_cell_volume 3409.623479
_symmetry_space_group_name_H-M "P M N A"
_symmetry_group_IT_number 53
_symmetry_cell_setting 'orthorhombic'
loop_
_space_group_symop_operation_xyz
x,y,z
1/2-x,-y,1/2+z
x,-y,-z
1/2-x,y,1/2-z
-x,-y,-z
1/2+x,y,1/2-z
-x,y,z
1/2+x,-y,1/2+z
loop_
_atom_site_type_symbol
_atom_site_label
_atom_site_fract_x
_atom_site_fract_y
_atom_site_fract_z
Si Si1 0.324862 0.875882 0.328331
Si Si2 0.323921 0.934395 0.032730
Si Si3 0.676601 0.497069 0.829155
Si Si4 0.823650 0.189158 0.448941
Si Si5 0.325407 0.620041 0.916447
Si Si6 0.675690 0.751662 0.411682
Si Si7 0.822155 0.732125 0.830934
Si Si8 0.324306 0.372964 0.909439
O O1 0.250000 0.891814 0.250000
O O2 0.500000 0.887849 0.320474
O O3 0.262664 0.923020 0.390352
O O4 0.288085 0.804819 0.350978
O O5 0.500000 0.934165 0.051074
O O6 0.283898 0.881493 0.971781
O O7 0.269435 0.000000 0.000000
O O8 0.750000 0.509772 0.750000
O O9 0.500000 0.493176 0.817927
O O10 0.720401 0.553291 0.883679
O O11 0.736314 0.432912 0.864927
O O12 0.769748 0.236367 0.513148
O O13 0.738027 0.205621 0.372280
O O14 0.000000 0.199367 0.436975
O O15 0.500000 0.635989 0.900770
O O16 0.222621 0.671952 0.878589
O O17 0.290038 0.616513 0.003760
O O18 0.500000 0.750413 0.432034
O O19 0.730916 0.686073 0.378239
O O20 0.750000 0.727625 0.750000
O O21 0.000000 0.735906 0.822885
O O22 0.500000 0.361331 0.894730
#
# Coordination Sequence:
#
# PCOD8219460 Si02
#       8
#     8   8   8   8   8   8   8   8
#     4  10  21  36  56  84 118 154 193 236 280 328
#     4   9  19  37  62  89 117 152 191 230 276 332
#     4  10  22  38  54  76 106 143 184 230 282 338
#     4  10  19  35  58  83 113 146 181 222 271 328
#     4  10  20  37  59  80 105 140 186 232 281 337
#     4  10  20  34  54  82 112 143 182 229 277 328
#     4  12  24  37  56  83 114 145 184 231 281 331
#     4  10  20  35  57  80 106 143 185 228 279 339
#
# _framework density 18.770401
#
# number of rings (size 3 to 8) (size 9 to 14) (size 15 to 20)
#    0.000    1.875    1.250    3.000    0.000    6.250 
#    0.000    3.125    0.000    2.250    0.000    0.000 
#    0.000    0.000    0.000    0.000    0.000    0.000 
#
# Total GULP energy -793865.100705 kJ/mol
# GULP energy per Si atom -12404.142199 kJ/mol
# Density = 1.872768 g / cm^3
# Si number density = 18.770401 Si / 1000 Ang^3
#
#
#
# Elastic Constant Matrix: (Units=GPa)
#
#
# Indices 1 2 3 4 5 6 
#
# 1 81.7252 38.7502 40.9430 0.0000 0.0000 0.0000
# 2 38.7502 123.7340 37.4594 0.0000 0.0000 0.0000
# 3 40.9430 37.4594 79.3978 0.0000 0.0000 0.0000
# 4 0.0000 0.0000 0.0000 16.3475 0.0000 0.0000
# 5 0.0000 0.0000 0.0000 0.0000 28.8771 0.0000
# 6 0.0000 0.0000 0.0000 0.0000 0.0000 22.3082
#
#
#
# Elastic Compliance Matrix: (Units=1/GPa)
#
#
# Indices 1 2 3 4 5 6 
#
# 1 0.017528 -0.003212 -0.007523 0.000000 0.000000 0.000000
# 2 -0.003212 0.010017 -0.003070 0.000000 0.000000 0.000000
# 3 -0.007523 -0.003070 0.017923 0.000000 0.000000 0.000000
# 4 0.000000 0.000000 0.000000 0.061171 0.000000 0.000000
# 5 0.000000 0.000000 0.000000 0.000000 0.034630 0.000000
# 6 0.000000 0.000000 0.000000 0.000000 0.000000 0.044826
#
#
# Mechanical properties :
#
#
# Convention : Reuss Voigt Hill
#
# Bulk Modulus (GPa) = 55.99735 57.68468 56.84102
# Shear Modulus (GPa) = 22.76269 24.68686 23.72478
#
# Velocity S-wave (km/s) = 3.48615 3.63051 3.55906
# Velocity P-wave (km/s) = 6.78984 6.95504 6.87293
#
# Compressibility (1/GPa) = 0.01785799
#
# Stress axis : x y z
#
# Youngs Moduli (GPa) = 57.05135 99.83001 55.79509
#
# Poissons Ratio (x) = 0.32062 0.41977
# Poissons Ratio (y) = 0.18323 0.17128
# Poissons Ratio (z) = 0.42922 0.30646
#
# Static dielectric constant tensor:
#      x y z
#    x 3.419640 0.000000 0.000000 
#    y 0.000000 3.593670 0.000000 
#    z 0.000000 0.000000 3.396200 
# 
# 
# High freq. dielectric constant tensor:
#      x y z
#    x 1.729420 0.000000 0.000000 
#    y 0.000000 1.730990 0.000000 
#    z 0.000000 0.000000 1.726250 
# 
# From -- ./inp_files/26948.got.cif
#   From: 2010.03.12/outbox.cif.g09.slc.cpg/sg53_14_cif.got.tgz:26948.got - 2010.04.16 14:36:59.
