data_PCOD8219266
_publ_section_title
;
Structure prediction by ZEFSAII (Michael W. Deem and Ramdas Pophale) SiO2 
 PCOD8219266
Probable space group: P M N A
;
_chemical_formula_sum "Si O2"
_cell_formula_units_Z 48
_cell_length_a 7.820331
_cell_length_b 13.093879
_cell_length_c 26.551174
_cell_angle_alpha 90.000000
_cell_angle_beta 90.000000
_cell_angle_gamma 90.000000
_cell_volume 2718.799537
_symmetry_space_group_name_H-M "P M N A"
_symmetry_group_IT_number 53
_symmetry_cell_setting 'orthorhombic'
loop_
_space_group_symop_operation_xyz
x,y,z
1/2-x,-y,1/2+z
x,-y,-z
1/2-x,y,1/2-z
-x,-y,-z
1/2+x,y,1/2-z
-x,y,z
1/2+x,-y,1/2+z
loop_
_atom_site_type_symbol
_atom_site_label
_atom_site_fract_x
_atom_site_fract_y
_atom_site_fract_z
Si Si1 0.309517 0.970739 0.878536
Si Si2 0.500000 0.581515 0.073121
Si Si3 0.690395 0.306046 0.614725
Si Si4 0.298628 0.855503 0.192256
Si Si5 0.500000 0.648966 0.959975
Si Si6 0.693094 0.795092 0.560921
Si Si7 0.691553 0.119483 0.544337
O O1 0.500000 0.937246 0.864038
O O2 0.227453 0.039834 0.833694
O O3 0.318518 0.041753 0.928385
O O4 0.206798 0.865800 0.889001
O O5 0.667464 0.606981 0.106604
O O6 0.500000 0.462043 0.063919
O O7 0.500000 0.643787 0.020565
O O8 0.500000 0.355302 0.616064
O O9 0.716252 0.243904 0.666624
O O10 0.709155 0.231925 0.567262
O O11 0.250000 0.856860 0.250000
O O12 0.500000 0.850077 0.183556
O O13 0.670336 0.704098 0.939278
O O14 0.500000 0.750129 0.557162
O O15 0.734826 0.871195 0.514519
O O16 0.500000 0.076505 0.552401
#
# Coordination Sequence:
#
# PCOD8219266 Si02
#       7
#     8   4   8   8   4   8   8
#     4  10  20  30  49  74 106 146 178 214 260 317
#     4  11  22  38  55  78 105 144 188 232 290 318
#     4  10  19  34  55  77 109 145 178 220 275 331
#     4  10  20  34  54  84 118 142 174 215 267 329
#     4  11  24  36  54  77 108 141 190 242 266 318
#     4  11  21  34  50  73 106 145 186 220 262 313
#     4   9  18  29  45  73 104 142 181 212 250 315
#
# _framework density 17.654852000000002
#
# number of rings (size 3 to 8) (size 9 to 14) (size 15 to 20)
#    0.000    1.833    3.333    1.500    2.333    4.667 
#    0.000    1.667    0.000    0.000    0.000    1.167 
#    0.000    0.000    0.000    0.000    0.000    0.000 
#
# Total GULP energy -595001.688512 kJ/mol
# GULP energy per Si atom -12395.868511 kJ/mol
# Density = 1.761467 g / cm^3
# Si number density = 17.654852 Si / 1000 Ang^3
#
#
#
# Elastic Constant Matrix: (Units=GPa)
#
#
# Indices 1 2 3 4 5 6 
#
# 1 112.9508 48.0055 30.8772 0.0000 0.0000 0.0000
# 2 48.0055 70.3509 42.9126 0.0000 0.0000 0.0000
# 3 30.8772 42.9126 90.9216 0.0000 0.0000 0.0000
# 4 0.0000 0.0000 0.0000 15.3721 0.0000 0.0000
# 5 0.0000 0.0000 0.0000 0.0000 21.9133 0.0000
# 6 0.0000 0.0000 0.0000 0.0000 0.0000 14.1160
#
#
#
# Elastic Compliance Matrix: (Units=1/GPa)
#
#
# Indices 1 2 3 4 5 6 
#
# 1 0.012476 -0.008326 -0.000307 0.000000 0.000000 0.000000
# 2 -0.008326 0.025517 -0.009216 0.000000 0.000000 0.000000
# 3 -0.000307 -0.009216 0.015453 0.000000 0.000000 0.000000
# 4 0.000000 0.000000 0.000000 0.065053 0.000000 0.000000
# 5 0.000000 0.000000 0.000000 0.000000 0.045634 0.000000
# 6 0.000000 0.000000 0.000000 0.000000 0.000000 0.070842
#
#
# Mechanical properties :
#
#
# Convention : Reuss Voigt Hill
#
# Bulk Modulus (GPa) = 56.34572 57.53487 56.94030
# Shear Modulus (GPa) = 18.07738 20.44216 19.25977
#
# Velocity S-wave (km/s) = 3.20337 3.40645 3.30647
# Velocity P-wave (km/s) = 6.75770 6.93768 6.84828
#
# Compressibility (1/GPa) = 0.01774758
#
# Stress axis : x y z
#
# Youngs Moduli (GPa) = 80.15393 39.18904 64.71411
#
# Poissons Ratio (x) = 0.32628 0.01989
# Poissons Ratio (y) = 0.66735 0.59641
# Poissons Ratio (z) = 0.02463 0.36117
#
# Static dielectric constant tensor:
#      x y z
#    x 3.446280 0.000000 0.000000 
#    y 0.000000 2.969320 0.000000 
#    z 0.000000 0.000000 3.232160 
# 
# 
# High freq. dielectric constant tensor:
#      x y z
#    x 1.697740 0.000000 0.000000 
#    y 0.000000 1.649830 0.000000 
#    z 0.000000 0.000000 1.652620 
# 
# From -- ./inp_files/33934.got.cif
#   From: 2010.03.12/outbox.cif.g09.slc.cpg/sg53_17_cif.got.tgz:33934.got - 2010.04.16 14:36:59.
