data_PCOD8219216
_publ_section_title
;
Structure prediction by ZEFSAII (Michael W. Deem and Ramdas Pophale) SiO2 
 PCOD8219216
Probable space group: P M N A
;
_chemical_formula_sum "Si O2"
_cell_formula_units_Z 56
_cell_length_a 16.978413
_cell_length_b 9.437288
_cell_length_c 18.106519
_cell_angle_alpha 90.000000
_cell_angle_beta 90.000000
_cell_angle_gamma 90.000000
_cell_volume 2901.210677
_symmetry_space_group_name_H-M "P M N A"
_symmetry_group_IT_number 53
_symmetry_cell_setting 'orthorhombic'
loop_
_space_group_symop_operation_xyz
x,y,z
1/2-x,-y,1/2+z
x,-y,-z
1/2-x,y,1/2-z
-x,-y,-z
1/2+x,y,1/2-z
-x,y,z
1/2+x,-y,1/2+z
loop_
_atom_site_type_symbol
_atom_site_label
_atom_site_fract_x
_atom_site_fract_y
_atom_site_fract_z
Si Si1 0.085693 0.081824 0.409479
Si Si2 0.841941 0.641103 0.543249
Si Si3 0.091506 0.711115 0.294649
Si Si4 0.198371 0.162210 0.578978
Si Si5 0.589556 0.842331 0.744496
Si Si6 0.825687 0.430827 0.293629
Si Si7 0.320039 0.088507 0.693068
O O1 0.089267 0.246363 0.436425
O O2 0.093125 0.071668 0.321194
O O3 0.000000 0.023964 0.433069
O O4 0.153275 0.982508 0.444967
O O5 0.872528 0.500000 0.500000
O O6 0.784029 0.732211 0.489863
O O7 0.801183 0.598871 0.620882
O O8 0.139378 0.759577 0.365822
O O9 0.103736 0.543073 0.288785
O O10 0.124663 0.784010 0.220663
O O11 0.000000 0.746859 0.304559
O O12 0.283300 0.128594 0.613962
O O13 0.500000 0.802833 0.723018
O O14 0.643641 0.705148 0.750049
O O15 0.627710 0.946404 0.683542
O O16 0.750000 0.490449 0.250000
O O17 0.250000 0.056260 0.750000
#
# Coordination Sequence:
#
# PCOD8219216 Si02
#       7
#     8   8   8   8   8   8   8
#     4  10  21  36  54  79 117 160 194 228 279 347
#     4  11  24  39  53  82 119 151 198 233 292 354
#     4  11  21  35  55  84 119 156 194 235 286 346
#     4  11  21  37  56  82 116 156 198 239 287 345
#     4  10  19  34  56  85 114 145 189 238 287 336
#     4  11  23  39  60  82 115 153 191 240 288 346
#     4  10  19  33  58  81 110 152 198 242 280 328
#
# _framework density 19.302285999999999
#
# number of rings (size 3 to 8) (size 9 to 14) (size 15 to 20)
#    0.000    1.429    4.286    3.429    2.000    2.571 
#    0.000    0.000    0.000    0.000    0.000    6.000 
#    0.000    0.000    0.000    0.000    0.000    0.000 
#
# Total GULP energy -694100.260847 kJ/mol
# GULP energy per Si atom -12394.647515 kJ/mol
# Density = 1.925835 g / cm^3
# Si number density = 19.302286 Si / 1000 Ang^3
#
#
#
# Elastic Constant Matrix: (Units=GPa)
#
#
# Indices 1 2 3 4 5 6 
#
# 1 84.1736 29.8396 44.3794 0.0000 0.0000 0.0000
# 2 29.8396 110.2986 34.9331 0.0000 0.0000 0.0000
# 3 44.3794 34.9331 76.1850 0.0000 0.0000 0.0000
# 4 0.0000 0.0000 0.0000 27.6382 0.0000 0.0000
# 5 0.0000 0.0000 0.0000 0.0000 88.0919 0.0000
# 6 0.0000 0.0000 0.0000 0.0000 0.0000 29.4091
#
#
#
# Elastic Compliance Matrix: (Units=1/GPa)
#
#
# Indices 1 2 3 4 5 6 
#
# 1 0.017432 -0.001755 -0.009350 0.000000 0.000000 0.000000
# 2 -0.001755 0.010783 -0.003922 0.000000 0.000000 0.000000
# 3 -0.009350 -0.003922 0.020371 0.000000 0.000000 0.000000
# 4 0.000000 0.000000 0.000000 0.036182 0.000000 0.000000
# 5 0.000000 0.000000 0.000000 0.000000 0.011352 0.000000
# 6 0.000000 0.000000 0.000000 0.000000 0.000000 0.034003
#
#
# Mechanical properties :
#
#
# Convention : Reuss Voigt Hill
#
# Bulk Modulus (GPa) = 53.95971 54.32903 54.14437
# Shear Modulus (GPa) = 30.05646 39.79485 34.92566
#
# Velocity S-wave (km/s) = 3.95035 4.54548 4.25833
# Velocity P-wave (km/s) = 6.98733 7.46700 7.23114
#
# Compressibility (1/GPa) = 0.01853235
#
# Stress axis : x y z
#
# Youngs Moduli (GPa) = 57.36645 92.73641 49.08968
#
# Poissons Ratio (x) = 0.16272 0.45898
# Poissons Ratio (y) = 0.10066 0.19254
# Poissons Ratio (z) = 0.53636 0.36374
#
# Static dielectric constant tensor:
#      x y z
#    x 3.329640 0.000000 0.000000 
#    y 0.000000 3.770550 0.000000 
#    z 0.000000 0.000000 3.504800 
# 
# 
# High freq. dielectric constant tensor:
#      x y z
#    x 1.718910 0.000000 0.000000 
#    y 0.000000 1.773450 0.000000 
#    z 0.000000 0.000000 1.729530 
# 
# From -- ./inp_files/32791.got.cif
#   From: 2010.03.12/outbox.cif.g09.slc.cpg/sg53_17_cif.got.tgz:32791.got - 2010.04.16 14:36:59.
