data_PCOD8219370
_publ_section_title
;
Structure prediction by ZEFSAII (Michael W. Deem and Ramdas Pophale) SiO2 
 PCOD8219370
Probable space group: P M N A
;
_chemical_formula_sum "Si O2"
_cell_formula_units_Z 56
_cell_length_a 8.908855
_cell_length_b 17.518058
_cell_length_c 19.359068
_cell_angle_alpha 90.000000
_cell_angle_beta 90.000000
_cell_angle_gamma 90.000000
_cell_volume 3021.289182
_symmetry_space_group_name_H-M "P M N A"
_symmetry_group_IT_number 53
_symmetry_cell_setting 'orthorhombic'
loop_
_space_group_symop_operation_xyz
x,y,z
1/2-x,-y,1/2+z
x,-y,-z
1/2-x,y,1/2-z
-x,-y,-z
1/2+x,y,1/2-z
-x,y,z
1/2+x,-y,1/2+z
loop_
_atom_site_type_symbol
_atom_site_label
_atom_site_fract_x
_atom_site_fract_y
_atom_site_fract_z
Si Si1 0.322656 0.801046 0.677878
Si Si2 0.325148 0.600720 0.323866
Si Si3 0.178246 0.940962 0.906206
Si Si4 0.828079 0.691233 0.570552
Si Si5 0.177644 0.101510 0.943321
Si Si6 0.324103 0.269981 0.570461
Si Si7 0.328339 0.515744 0.923296
O O1 0.250000 0.778363 0.750000
O O2 0.500000 0.797470 0.685737
O O3 0.265822 0.885996 0.655478
O O4 0.274650 0.741298 0.620050
O O5 0.250000 0.603594 0.250000
O O6 0.500000 0.589380 0.312815
O O7 0.287950 0.679928 0.362505
O O8 0.267797 0.529314 0.367536
O O9 0.000000 0.938907 0.907991
O O10 0.236056 0.028911 0.897572
O O11 0.239595 0.906987 0.978623
O O12 0.770046 0.696520 0.492560
O O13 0.814937 0.604376 0.595556
O O14 0.000000 0.719324 0.573894
O O15 0.229370 0.183023 0.912870
O O16 0.000000 0.097283 0.945093
O O17 0.500000 0.272592 0.550947
O O18 0.500000 0.487019 0.919713
O O19 0.263822 0.500000 0.000000
#
# Coordination Sequence:
#
# PCOD8219370 Si02
#       7
#     8   8   8   8   8   8   8
#     4  11  22  37  55  79 113 151 189 232 281 335
#     4  11  24  39  59  85 116 152 187 229 280 333
#     4   8  14  26  50  79 106 139 179 226 272 322
#     4  11  22  36  58  85 112 145 184 230 283 336
#     4   8  13  26  51  82 107 134 180 228 271 319
#     4  10  19  34  58  86 113 145 188 234 274 328
#     4  10  21  39  61  85 113 146 183 228 281 337
#
# _framework density 18.535133999999999
#
# number of rings (size 3 to 8) (size 9 to 14) (size 15 to 20)
#    0.000    2.143    2.857    2.143    0.000    2.571 
#    0.000    0.714    0.000    2.571    0.000    0.000 
#    0.000    0.000    0.000    0.000    0.000    0.000 
#
# Total GULP energy -694219.283577 kJ/mol
# GULP energy per Si atom -12396.772921 kJ/mol
# Density = 1.849295 g / cm^3
# Si number density = 18.535134 Si / 1000 Ang^3
#
#
#
# Elastic Constant Matrix: (Units=GPa)
#
#
# Indices 1 2 3 4 5 6 
#
# 1 66.6853 42.8006 49.3677 0.0000 0.0000 0.0000
# 2 42.8006 128.4260 54.6773 0.0000 0.0000 0.0000
# 3 49.3677 54.6773 120.3096 0.0000 0.0000 0.0000
# 4 0.0000 0.0000 0.0000 21.0916 0.0000 0.0000
# 5 0.0000 0.0000 0.0000 0.0000 24.7069 0.0000
# 6 0.0000 0.0000 0.0000 0.0000 0.0000 11.2370
#
#
#
# Elastic Compliance Matrix: (Units=1/GPa)
#
#
# Indices 1 2 3 4 5 6 
#
# 1 0.023572 -0.004634 -0.007566 0.000000 0.000000 0.000000
# 2 -0.004634 0.010566 -0.002900 0.000000 0.000000 0.000000
# 3 -0.007566 -0.002900 0.012735 0.000000 0.000000 0.000000
# 4 0.000000 0.000000 0.000000 0.047412 0.000000 0.000000
# 5 0.000000 0.000000 0.000000 0.000000 0.040474 0.000000
# 6 0.000000 0.000000 0.000000 0.000000 0.000000 0.088992
#
#
# Mechanical properties :
#
#
# Convention : Reuss Voigt Hill
#
# Bulk Modulus (GPa) = 59.98598 67.67913 63.83255
# Shear Modulus (GPa) = 19.26715 22.64545 20.95630
#
# Velocity S-wave (km/s) = 3.22762 3.49916 3.36613
# Velocity P-wave (km/s) = 6.80615 7.27452 7.04423
#
# Compressibility (1/GPa) = 0.01667056
#
# Stress axis : x y z
#
# Youngs Moduli (GPa) = 42.42399 94.64441 78.52613
#
# Poissons Ratio (x) = 0.43862 0.59414
# Poissons Ratio (y) = 0.19661 0.22774
# Poissons Ratio (z) = 0.32098 0.27449
#
# Static dielectric constant tensor:
#      x y z
#    x 3.192260 0.000000 0.000000 
#    y 0.000000 3.879540 0.000000 
#    z 0.000000 0.000000 3.301060 
# 
# 
# High freq. dielectric constant tensor:
#      x y z
#    x 1.695800 0.000000 0.000000 
#    y 0.000000 1.738540 0.000000 
#    z 0.000000 0.000000 1.699980 
# 
# From -- ./inp_files/31048.got.cif
#   From: 2010.03.12/outbox.cif.g09.slc.cpg/sg53_16_cif.got.tgz:31048.got - 2010.04.16 14:36:59.
