data_PCOD8219387
_publ_section_title
;
Structure prediction by ZEFSAII (Michael W. Deem and Ramdas Pophale) SiO2 
 PCOD8219387
Probable space group: P M N A
;
_chemical_formula_sum "Si O2"
_cell_formula_units_Z 64
_cell_length_a 9.053552
_cell_length_b 19.600583
_cell_length_c 19.863983
_cell_angle_alpha 90.000000
_cell_angle_beta 90.000000
_cell_angle_gamma 90.000000
_cell_volume 3524.961066
_symmetry_space_group_name_H-M "P M N A"
_symmetry_group_IT_number 53
_symmetry_cell_setting 'orthorhombic'
loop_
_space_group_symop_operation_xyz
x,y,z
1/2-x,-y,1/2+z
x,-y,-z
1/2-x,y,1/2-z
-x,-y,-z
1/2+x,y,1/2-z
-x,y,z
1/2+x,-y,1/2+z
loop_
_atom_site_type_symbol
_atom_site_label
_atom_site_fract_x
_atom_site_fract_y
_atom_site_fract_z
Si Si1 0.172015 0.300317 0.598113
Si Si2 0.831139 0.523243 0.925616
Si Si3 0.831794 0.328773 0.035187
Si Si4 0.673462 0.060408 0.818499
Si Si5 0.171543 0.902411 0.682486
Si Si6 0.171506 0.432080 0.680238
Si Si7 0.827690 0.837506 0.085891
Si Si8 0.832115 0.819642 0.929656
O O1 0.222014 0.332845 0.527637
O O2 0.205002 0.355426 0.655798
O O3 0.264008 0.232762 0.616079
O O4 0.000000 0.281568 0.593712
O O5 0.809159 0.604856 0.918602
O O6 0.725883 0.487588 0.872830
O O7 0.000000 0.501934 0.911070
O O8 0.784718 0.500000 0.000000
O O9 0.801303 0.261175 0.079345
O O10 0.000000 0.325509 0.006736
O O11 0.750000 0.086337 0.750000
O O12 0.500000 0.075068 0.813564
O O13 0.742482 0.099395 0.881584
O O14 0.709240 0.981244 0.830589
O O15 0.250000 0.875720 0.750000
O O16 0.223239 0.860123 0.618301
O O17 0.000000 0.890181 0.692918
O O18 0.250000 0.445591 0.750000
O O19 0.000000 0.444326 0.690614
O O20 0.000000 0.841842 0.103424
O O21 0.798698 0.840901 0.006290
O O22 0.000000 0.837966 0.910302
#
# Coordination Sequence:
#
# PCOD8219387 Si02
#       8
#     8   8   8   8   8   8   8   8
#     4  10  20  34  53  78 108 143 182 226 271 322
#     4  10  19  34  60  85 108 143 183 226 275 329
#     4   9  18  34  56  83 110 141 180 220 270 329
#     4  10  21  37  56  79 108 143 184 228 273 329
#     4  10  21  37  58  81 107 142 184 228 277 331
#     4  11  24  38  54  79 112 147 186 231 277 327
#     4  10  21  36  56  82 113 148 183 225 273 325
#     4   9  19  35  55  81 113 144 180 225 271 324
#
# _framework density 18.156229
#
# number of rings (size 3 to 8) (size 9 to 14) (size 15 to 20)
#    0.000    2.125    1.250    2.625    0.000    7.250 
#    0.000    4.375    0.000    0.000    0.000    0.000 
#    0.000    0.000    0.000    0.000    0.000    0.000 
#
# Total GULP energy -793811.307247 kJ/mol
# GULP energy per Si atom -12403.301676 kJ/mol
# Density = 1.811490 g / cm^3
# Si number density = 18.156229 Si / 1000 Ang^3
#
#
#
# Elastic Constant Matrix: (Units=GPa)
#
#
# Indices 1 2 3 4 5 6 
#
# 1 96.7917 60.2612 57.9628 0.0000 0.0000 0.0000
# 2 60.2612 101.3609 62.1561 0.0000 0.0000 0.0000
# 3 57.9628 62.1561 98.4560 0.0000 0.0000 0.0000
# 4 0.0000 0.0000 0.0000 20.5567 0.0000 0.0000
# 5 0.0000 0.0000 0.0000 0.0000 35.3887 0.0000
# 6 0.0000 0.0000 0.0000 0.0000 0.0000 33.0046
#
#
#
# Elastic Compliance Matrix: (Units=1/GPa)
#
#
# Indices 1 2 3 4 5 6 
#
# 1 0.018639 -0.007102 -0.006490 0.000000 0.000000 0.000000
# 2 -0.007102 0.018803 -0.007690 0.000000 0.000000 0.000000
# 3 -0.006490 -0.007690 0.018832 0.000000 0.000000 0.000000
# 4 0.000000 0.000000 0.000000 0.048646 0.000000 0.000000
# 5 0.000000 0.000000 0.000000 0.000000 0.028258 0.000000
# 6 0.000000 0.000000 0.000000 0.000000 0.000000 0.030299
#
#
# Mechanical properties :
#
#
# Convention : Reuss Voigt Hill
#
# Bulk Modulus (GPa) = 72.92899 73.04095 72.98497
# Shear Modulus (GPa) = 23.74049 25.53859 24.63954
#
# Velocity S-wave (km/s) = 3.61995 3.75454 3.68786
# Velocity P-wave (km/s) = 7.59781 7.68843 7.64325
#
# Compressibility (1/GPa) = 0.01371197
#
# Stress axis : x y z
#
# Youngs Moduli (GPa) = 53.65001 53.18193 53.10064
#
# Poissons Ratio (x) = 0.37769 0.34462
# Poissons Ratio (y) = 0.38101 0.40833
# Poissons Ratio (z) = 0.34818 0.40896
#
# Static dielectric constant tensor:
#      x y z
#    x 3.417990 0.000000 0.000000 
#    y 0.000000 3.458890 0.000000 
#    z 0.000000 0.000000 3.175060 
# 
# 
# High freq. dielectric constant tensor:
#      x y z
#    x 1.713690 0.000000 0.000000 
#    y 0.000000 1.709610 0.000000 
#    z 0.000000 0.000000 1.687090 
# 
# From -- ./inp_files/26757.got.cif
#   From: 2010.03.12/outbox.cif.g09.slc.cpg/sg53_14_cif.got.tgz:26757.got - 2010.04.16 14:36:59.
