data_PCOD8219547
_publ_section_title
;
Structure prediction by ZEFSAII (Michael W. Deem and Ramdas Pophale) SiO2 
 PCOD8219547
Probable space group: P M N A
;
_chemical_formula_sum "Si O2"
_cell_formula_units_Z 64
_cell_length_a 9.316597
_cell_length_b 11.922726
_cell_length_c 30.684469
_cell_angle_alpha 90.000000
_cell_angle_beta 90.000000
_cell_angle_gamma 90.000000
_cell_volume 3408.407290
_symmetry_space_group_name_H-M "P M N A"
_symmetry_group_IT_number 53
_symmetry_cell_setting 'orthorhombic'
loop_
_space_group_symop_operation_xyz
x,y,z
1/2-x,-y,1/2+z
x,-y,-z
1/2-x,y,1/2-z
-x,-y,-z
1/2+x,y,1/2-z
-x,y,z
1/2+x,-y,1/2+z
loop_
_atom_site_type_symbol
_atom_site_label
_atom_site_fract_x
_atom_site_fract_y
_atom_site_fract_z
Si Si1 0.332863 0.992417 0.792852
Si Si2 0.164655 0.488844 0.291799
Si Si3 0.329878 0.619207 0.124261
Si Si4 0.833436 0.011036 0.049910
Si Si5 0.663548 0.248688 0.172505
Si Si6 0.333627 0.458604 0.048352
Si Si7 0.670448 0.126543 0.878540
Si Si8 0.667288 0.743298 0.584595
O O1 0.250000 0.034830 0.750000
O O2 0.500000 0.012835 0.784496
O O3 0.296693 0.861924 0.800425
O O4 0.279867 0.062448 0.834791
O O5 0.250000 0.531806 0.250000
O O6 0.229262 0.552707 0.333737
O O7 0.182783 0.355305 0.296410
O O8 0.000000 0.522258 0.285010
O O9 0.500000 0.619873 0.125294
O O10 0.276227 0.554361 0.081223
O O11 0.272506 0.746135 0.124409
O O12 0.741041 0.927312 0.079058
O O13 0.000000 0.979575 0.055591
O O14 0.800566 0.136527 0.064424
O O15 0.784287 0.000000 0.000000
O O16 0.500000 0.241093 0.154772
O O17 0.770438 0.262726 0.132752
O O18 0.500000 0.431491 0.057697
O O19 0.243545 0.346075 0.053711
O O20 0.307534 0.500000 0.000000
O O21 0.500000 0.119213 0.884210
O O22 0.500000 0.715913 0.586820
#
# Coordination Sequence:
#
# PCOD8219547 Si02
#       8
#     8   8   8   8   8   8   8   8
#     4  10  21  35  55  83 113 146 187 234 283 338
#     4  10  20  35  56  80 113 148 183 230 280 334
#     4   9  19  37  57  81 114 147 182 234 284 323
#     4  10  23  41  58  82 118 154 185 228 289 342
#     4  10  19  36  58  82 113 149 186 232 286 333
#     4  10  21  38  61  86 114 150 190 231 283 339
#     4  10  21  38  60  85 111 146 195 239 276 330
#     4  11  22  36  59  87 116 149 186 233 282 335
#
# _framework density 18.777099
#
# number of rings (size 3 to 8) (size 9 to 14) (size 15 to 20)
#    0.000    2.000    2.500    0.750    1.750    3.000 
#    0.000    1.250    0.000    0.000    0.000    0.000 
#    0.000    0.000    0.000    0.000    0.000    0.000 
#
# Total GULP energy -793800.461551 kJ/mol
# GULP energy per Si atom -12403.132212 kJ/mol
# Density = 1.873436 g / cm^3
# Si number density = 18.777099 Si / 1000 Ang^3
#
#
#
# Elastic Constant Matrix: (Units=GPa)
#
#
# Indices 1 2 3 4 5 6 
#
# 1 41.8242 29.7713 33.8731 0.0000 0.0000 0.0000
# 2 29.7713 115.5361 52.1639 0.0000 0.0000 0.0000
# 3 33.8731 52.1639 130.8121 0.0000 0.0000 0.0000
# 4 0.0000 0.0000 0.0000 -12.6145 0.0000 0.0000
# 5 0.0000 0.0000 0.0000 0.0000 33.1734 0.0000
# 6 0.0000 0.0000 0.0000 0.0000 0.0000 34.9290
#
#
#
# Elastic Compliance Matrix: (Units=1/GPa)
#
#
# Indices 1 2 3 4 5 6 
#
# 1 0.033046 -0.005673 -0.006295 0.000000 0.000000 0.000000
# 2 -0.005673 0.011530 -0.003129 0.000000 0.000000 0.000000
# 3 -0.006295 -0.003129 0.010522 0.000000 0.000000 0.000000
# 4 0.000000 0.000000 0.000000 -0.079274 0.000000 0.000000
# 5 0.000000 0.000000 0.000000 0.000000 0.030145 0.000000
# 6 0.000000 0.000000 0.000000 0.000000 0.000000 0.028630
#
#
# Mechanical properties :
#
#
# Convention : Reuss Voigt Hill
#
# Bulk Modulus (GPa) = 40.15322 57.75433 48.95378
# Shear Modulus (GPa) = 68.40598 22.58852 45.49725
#
# Velocity S-wave (km/s) = 6.04232 3.47217 4.92776
# Velocity P-wave (km/s) = 8.37318 6.84830 7.64883
#
# Compressibility (1/GPa) = 0.02490460
#
# Stress axis : x y z
#
# Youngs Moduli (GPa) = 30.26080 86.73209 95.03753
#
# Poissons Ratio (x) = 0.49205 0.59824
# Poissons Ratio (y) = 0.17168 0.29734
# Poissons Ratio (z) = 0.19048 0.27135
#
# Static dielectric constant tensor:
#      x y z
#    x 3.279620 0.000000 0.000000 
#    y 0.000000 3.999860 0.000000 
#    z 0.000000 0.000000 3.437180 
# 
# 
# High freq. dielectric constant tensor:
#      x y z
#    x 1.709170 0.000000 0.000000 
#    y 0.000000 1.737070 0.000000 
#    z 0.000000 0.000000 1.737720 
# 
# From -- ./inp_files/38217.got.cif
#   From: 2010.03.12/outbox.cif.g09.slc.cpg/sg53_20_cif.got.tgz:38217.got - 2010.04.16 14:36:59.
