data_PCOD8219328
_publ_section_title
;
Structure prediction by ZEFSAII (Michael W. Deem and Ramdas Pophale) SiO2 
 PCOD8219328
Probable space group: P M N A
;
_chemical_formula_sum "Si O2"
_cell_formula_units_Z 44
_cell_length_a 9.538958
_cell_length_b 8.720186
_cell_length_c 26.122857
_cell_angle_alpha 90.000000
_cell_angle_beta 90.000000
_cell_angle_gamma 90.000000
_cell_volume 2172.938116
_symmetry_space_group_name_H-M "P M N A"
_symmetry_group_IT_number 53
_symmetry_cell_setting 'orthorhombic'
loop_
_space_group_symop_operation_xyz
x,y,z
1/2-x,-y,1/2+z
x,-y,-z
1/2-x,y,1/2-z
-x,-y,-z
1/2+x,y,1/2-z
-x,y,z
1/2+x,-y,1/2+z
loop_
_atom_site_type_symbol
_atom_site_label
_atom_site_fract_x
_atom_site_fract_y
_atom_site_fract_z
Si Si1 0.348626 0.219444 0.050417
Si Si2 0.165937 0.854808 0.797490
Si Si3 0.841564 0.400070 0.344667
Si Si4 0.725954 0.500000 0.500000
Si Si5 0.655442 0.633708 0.396847
Si Si6 0.660629 0.980364 0.403657
O O1 0.500000 0.148571 0.037791
O O2 0.351754 0.302408 0.104473
O O3 0.240596 0.078799 0.053202
O O4 0.316074 0.345614 0.007231
O O5 0.250000 0.932218 0.750000
O O6 0.241478 0.689971 0.805241
O O7 0.190244 0.963619 0.846065
O O8 0.000000 0.832973 0.785993
O O9 0.766480 0.561516 0.357353
O O10 0.000000 0.427595 0.322836
O O11 0.637589 0.532261 0.448657
O O12 0.500000 0.638887 0.371667
O O13 0.708833 0.804859 0.408746
O O14 0.500000 0.001705 0.418184
#
# Coordination Sequence:
#
# PCOD8219328 Si02
#       6
#     8   8   8   4   8   8
#     4   9  18  33  52  73 102 136 174 218 264 311
#     4  10  19  34  57  81 104 133 169 210 256 312
#     4   9  18  33  53  77 103 134 170 210 255 306
#     4  10  20  32  52  78 102 138 186 230 266 314
#     4  10  20  35  53  75 105 141 179 221 267 315
#     4   9  20  36  53  75 106 140 173 214 268 321
#
# _framework density 20.249081
#
# number of rings (size 3 to 8) (size 9 to 14) (size 15 to 20)
#    0.000    2.545    0.000    1.636    0.000    8.000 
#    0.000    3.636    0.000    2.182    0.000    0.000 
#    0.000    0.000    0.000    0.000    0.000    0.000 
#
# Total GULP energy -545332.111281 kJ/mol
# GULP energy per Si atom -12393.911620 kJ/mol
# Density = 2.020299 g / cm^3
# Si number density = 20.249081 Si / 1000 Ang^3
#
#
#
# Elastic Constant Matrix: (Units=GPa)
#
#
# Indices 1 2 3 4 5 6 
#
# 1 132.7183 53.2762 23.4842 0.0000 0.0000 0.0000
# 2 53.2762 122.5234 15.6399 0.0000 0.0000 0.0000
# 3 23.4842 15.6399 45.5389 0.0000 0.0000 0.0000
# 4 0.0000 0.0000 0.0000 21.3576 0.0000 0.0000
# 5 0.0000 0.0000 0.0000 0.0000 14.0497 0.0000
# 6 0.0000 0.0000 0.0000 0.0000 0.0000 24.9892
#
#
#
# Elastic Compliance Matrix: (Units=1/GPa)
#
#
# Indices 1 2 3 4 5 6 
#
# 1 0.009694 -0.003741 -0.003714 0.000000 0.000000 0.000000
# 2 -0.003741 0.009980 -0.001498 0.000000 0.000000 0.000000
# 3 -0.003714 -0.001498 0.024389 0.000000 0.000000 0.000000
# 4 0.000000 0.000000 0.000000 0.046822 0.000000 0.000000
# 5 0.000000 0.000000 0.000000 0.000000 0.071176 0.000000
# 6 0.000000 0.000000 0.000000 0.000000 0.000000 0.040017
#
#
# Mechanical properties :
#
#
# Convention : Reuss Voigt Hill
#
# Bulk Modulus (GPa) = 38.23248 53.95346 46.09297
# Shear Modulus (GPa) = 21.86246 25.97133 23.91689
#
# Velocity S-wave (km/s) = 3.28941 3.58522 3.44049
# Velocity P-wave (km/s) = 5.77486 6.62126 6.21249
#
# Compressibility (1/GPa) = 0.02615577
#
# Stress axis : x y z
#
# Youngs Moduli (GPa) = 103.16005 100.20439 41.00179
#
# Poissons Ratio (x) = 0.37486 0.15229
# Poissons Ratio (y) = 0.38592 0.06143
# Poissons Ratio (z) = 0.38316 0.15013
#
# Static dielectric constant tensor:
#      x y z
#    x 3.874760 0.000000 0.000000 
#    y 0.000000 3.624930 0.000000 
#    z 0.000000 0.000000 3.507840 
# 
# 
# High freq. dielectric constant tensor:
#      x y z
#    x 1.797520 0.000000 0.000000 
#    y 0.000000 1.780550 0.000000 
#    z 0.000000 0.000000 1.768370 
# 
# From -- ./inp_files/37588.got.cif
#   From: 2010.03.12/outbox.cif.g09.slc.cpg/sg53_19_cif.got.tgz:37588.got - 2010.04.16 14:36:59.
