data_PCOD8219891
_publ_section_title
;
Structure prediction by ZEFSAII (Michael W. Deem and Ramdas Pophale) SiO2 
 PCOD8219891
Probable space group: P M N A
;
_chemical_formula_sum "Si O2"
_cell_formula_units_Z 40
_cell_length_a 24.211473
_cell_length_b 16.832094
_cell_length_c 4.981627
_cell_angle_alpha 90.000000
_cell_angle_beta 90.000000
_cell_angle_gamma 90.000000
_cell_volume 2030.161402
_symmetry_space_group_name_H-M "P M N A"
_symmetry_group_IT_number 53
_symmetry_cell_setting 'orthorhombic'
loop_
_space_group_symop_operation_xyz
x,y,z
1/2-x,-y,1/2+z
x,-y,-z
1/2-x,y,1/2-z
-x,-y,-z
1/2+x,y,1/2-z
-x,y,z
1/2+x,-y,1/2+z
loop_
_atom_site_type_symbol
_atom_site_label
_atom_site_fract_x
_atom_site_fract_y
_atom_site_fract_z
Si Si1 0.310951 0.738678 0.863193
Si Si2 0.936373 0.631817 0.129349
Si Si3 0.374726 0.419192 0.125312
Si Si4 0.937841 0.946415 0.258897
Si Si5 0.127970 0.210040 0.867457
O O1 0.250000 0.748513 0.750000
O O2 0.326090 0.645509 0.865850
O O3 0.349055 0.792025 0.669177
O O4 0.321297 0.770129 0.164721
O O5 0.925416 0.602424 0.429756
O O6 0.919746 0.724015 0.127864
O O7 0.000000 0.623081 0.054233
O O8 0.900810 0.577400 0.923227
O O9 0.348686 0.500000 0.000000
O O10 0.897740 0.872913 0.216168
O O11 0.000000 0.916325 0.326140
O O12 0.914371 0.000000 0.500000
O O13 0.938397 0.000000 0.000000
#
# Coordination Sequence:
#
# PCOD8219891 Si02
#       5
#     8   8   8   8   8
#     4  10  21  38  58  77 100 140 186 227 273 314
#     4  10  20  33  52  77 107 144 176 208 259 321
#     4  10  21  35  51  77 107 135 176 223 266 316
#     4  10  20  34  56  86 116 144 172 209 264 322
#     4  10  20  36  57  79 108 139 179 225 260 317
#
# _framework density 19.702866
#
# number of rings (size 3 to 8) (size 9 to 14) (size 15 to 20)
#    0.000    2.000    0.000    3.600    0.000    2.400 
#    0.000   12.000    0.000   12.000    0.000    0.000 
#    0.000    0.000    0.000    0.000    0.000    0.000 
#
# Total GULP energy -495841.020216 kJ/mol
# GULP energy per Si atom -12396.025505 kJ/mol
# Density = 1.965802 g / cm^3
# Si number density = 19.702866 Si / 1000 Ang^3
#
#
#
# Elastic Constant Matrix: (Units=GPa)
#
#
# Indices 1 2 3 4 5 6 
#
# 1 56.4920 33.9794 0.8261 0.0000 0.0000 0.0000
# 2 33.9794 110.1212 20.4827 0.0000 0.0000 0.0000
# 3 0.8261 20.4827 86.3776 0.0000 0.0000 0.0000
# 4 0.0000 0.0000 0.0000 35.9115 0.0000 0.0000
# 5 0.0000 0.0000 0.0000 0.0000 15.1705 0.0000
# 6 0.0000 0.0000 0.0000 0.0000 0.0000 14.9798
#
#
#
# Elastic Compliance Matrix: (Units=1/GPa)
#
#
# Indices 1 2 3 4 5 6 
#
# 1 0.021910 -0.007032 0.001458 0.000000 0.000000 0.000000
# 2 -0.007032 0.011757 -0.002721 0.000000 0.000000 0.000000
# 3 0.001458 -0.002721 0.012208 0.000000 0.000000 0.000000
# 4 0.000000 0.000000 0.000000 0.027846 0.000000 0.000000
# 5 0.000000 0.000000 0.000000 0.000000 0.065918 0.000000
# 6 0.000000 0.000000 0.000000 0.000000 0.000000 0.066756
#
#
# Mechanical properties :
#
#
# Convention : Reuss Voigt Hill
#
# Bulk Modulus (GPa) = 34.14616 40.39635 37.27126
# Shear Modulus (GPa) = 21.48265 26.39253 23.93759
#
# Velocity S-wave (km/s) = 3.30560 3.66393 3.48937
# Velocity P-wave (km/s) = 5.65133 6.20052 5.93228
#
# Compressibility (1/GPa) = 0.02928587
#
# Stress axis : x y z
#
# Youngs Moduli (GPa) = 45.64160 85.05803 81.91165
#
# Poissons Ratio (x) = 0.59811 -0.11942
# Poissons Ratio (y) = 0.32094 0.22285
# Poissons Ratio (z) = -0.06654 0.23141
#
# Static dielectric constant tensor:
#      x y z
#    x 3.262190 0.000000 0.000000 
#    y 0.000000 3.477490 0.000000 
#    z 0.000000 0.000000 3.879630 
# 
# 
# High freq. dielectric constant tensor:
#      x y z
#    x 1.740880 0.000000 0.000000 
#    y 0.000000 1.760810 0.000000 
#    z 0.000000 0.000000 1.793310 
# 
# From -- ./inp_files/3627.got.cif
#   From: 2010.03.12/outbox.cif.g09.slc.cpg/sg53_2_cif.got.tgz:3627.got - 2010.04.16 14:36:59.
