data_PCOD8219815
_publ_section_title
;
Structure prediction by ZEFSAII (Michael W. Deem and Ramdas Pophale) SiO2 
 PCOD8219815
Probable space group: P M N A
;
_chemical_formula_sum "Si O2"
_cell_formula_units_Z 56
_cell_length_a 8.912916
_cell_length_b 19.296350
_cell_length_c 17.933967
_cell_angle_alpha 90.000000
_cell_angle_beta 90.000000
_cell_angle_gamma 90.000000
_cell_volume 3084.404639
_symmetry_space_group_name_H-M "P M N A"
_symmetry_group_IT_number 53
_symmetry_cell_setting 'orthorhombic'
loop_
_space_group_symop_operation_xyz
x,y,z
1/2-x,-y,1/2+z
x,-y,-z
1/2-x,y,1/2-z
-x,-y,-z
1/2+x,y,1/2-z
-x,y,z
1/2+x,-y,1/2+z
loop_
_atom_site_type_symbol
_atom_site_label
_atom_site_fract_x
_atom_site_fract_y
_atom_site_fract_z
Si Si1 0.668868 0.553024 0.567319
Si Si2 0.338576 0.230182 0.318570
Si Si3 0.679169 0.214075 0.484373
Si Si4 0.823434 0.655086 0.462649
Si Si5 0.664688 0.071301 0.317690
Si Si6 0.175728 0.926870 0.531357
Si Si7 0.677352 0.448460 0.829716
O O1 0.664100 0.500000 0.500000
O O2 0.500000 0.574178 0.591118
O O3 0.758525 0.619480 0.537510
O O4 0.753668 0.519832 0.638185
O O5 0.250000 0.266785 0.250000
O O6 0.500000 0.267867 0.322599
O O7 0.262426 0.234290 0.400738
O O8 0.363793 0.150701 0.296450
O O9 0.500000 0.213096 0.487478
O O10 0.747019 0.269260 0.542781
O O11 0.737697 0.137638 0.506898
O O12 0.783484 0.613705 0.387024
O O13 0.000000 0.662233 0.472459
O O14 0.750000 0.032514 0.250000
O O15 0.500000 0.037531 0.334441
O O16 0.782750 0.067355 0.383226
O O17 0.000000 0.914802 0.519967
O O18 0.231072 0.000000 0.500000
O O19 0.750000 0.430560 0.750000
O O20 0.500000 0.457749 0.820755
#
# Coordination Sequence:
#
# PCOD8219815 Si02
#       7
#     8   8   8   8   8   8   8
#     4   9  17  31  52  76 102 132 166 205 248 295
#     4   8  15  26  41  63  89 118 152 191 235 287
#     4  10  20  33  50  73 101 135 175 216 261 313
#     4  10  20  34  53  77 105 137 174 216 260 308
#     4   9  16  27  45  68  93 121 155 196 244 299
#     4  10  20  33  50  73 101 133 171 217 266 315
#     4  10  20  34  54  80 108 139 176 216 257 302
#
# _framework density 18.155854999999999
#
# number of rings (size 3 to 8) (size 9 to 14) (size 15 to 20)
#    0.000    2.571    0.000    3.429    0.000    8.571 
#    0.000    0.714    0.000    2.571    0.000    4.000 
#    0.000    0.000    0.000    0.000    0.000    0.000 
#
# Total GULP energy -693933.648614 kJ/mol
# GULP energy per Si atom -12391.672297 kJ/mol
# Density = 1.811453 g / cm^3
# Si number density = 18.155855 Si / 1000 Ang^3
#
#
#
# Elastic Constant Matrix: (Units=GPa)
#
#
# Indices 1 2 3 4 5 6 
#
# 1 100.9520 48.1942 41.2258 0.0000 0.0000 0.0000
# 2 48.1942 101.1576 43.1053 0.0000 0.0000 0.0000
# 3 41.2258 43.1053 76.2049 0.0000 0.0000 0.0000
# 4 0.0000 0.0000 0.0000 11.9727 0.0000 0.0000
# 5 0.0000 0.0000 0.0000 0.0000 26.5281 0.0000
# 6 0.0000 0.0000 0.0000 0.0000 0.0000 24.7842
#
#
#
# Elastic Compliance Matrix: (Units=1/GPa)
#
#
# Indices 1 2 3 4 5 6 
#
# 1 0.014166 -0.004590 -0.005068 0.000000 0.000000 0.000000
# 2 -0.004590 0.014512 -0.005726 0.000000 0.000000 0.000000
# 3 -0.005068 -0.005726 0.019103 0.000000 0.000000 0.000000
# 4 0.000000 0.000000 0.000000 0.083523 0.000000 0.000000
# 5 0.000000 0.000000 0.000000 0.000000 0.037696 0.000000
# 6 0.000000 0.000000 0.000000 0.000000 0.000000 0.040348
#
#
# Mechanical properties :
#
#
# Convention : Reuss Voigt Hill
#
# Bulk Modulus (GPa) = 58.77185 60.37392 59.57289
# Shear Modulus (GPa) = 20.34285 22.37627 21.35956
#
# Velocity S-wave (km/s) = 3.35095 3.51444 3.43367
# Velocity P-wave (km/s) = 6.88570 7.05647 6.97161
#
# Compressibility (1/GPa) = 0.01701495
#
# Stress axis : x y z
#
# Youngs Moduli (GPa) = 70.59003 68.90787 52.34851
#
# Poissons Ratio (x) = 0.31628 0.26528
# Poissons Ratio (y) = 0.32400 0.29973
# Poissons Ratio (z) = 0.35772 0.39455
#
# Static dielectric constant tensor:
#      x y z
#    x 3.669010 0.000000 0.000000 
#    y 0.000000 3.232890 0.000000 
#    z 0.000000 0.000000 3.267030 
# 
# 
# High freq. dielectric constant tensor:
#      x y z
#    x 1.720310 0.000000 0.000000 
#    y 0.000000 1.671670 0.000000 
#    z 0.000000 0.000000 1.683390 
# 
# From -- ./inp_files/26713.got.cif
#   From: 2010.03.12/outbox.cif.g09.slc.cpg/sg53_14_cif.got.tgz:26713.got - 2010.04.16 14:36:59.
