data_PCOD8219920
_publ_section_title
;
Structure prediction by ZEFSAII (Michael W. Deem and Ramdas Pophale) SiO2 
 PCOD8219920
Probable space group: P M N A
;
_chemical_formula_sum "Si O2"
_cell_formula_units_Z 64
_cell_length_a 9.148432
_cell_length_b 22.881321
_cell_length_c 16.038944
_cell_angle_alpha 90.000000
_cell_angle_beta 90.000000
_cell_angle_gamma 90.000000
_cell_volume 3357.403426
_symmetry_space_group_name_H-M "P M N A"
_symmetry_group_IT_number 53
_symmetry_cell_setting 'orthorhombic'
loop_
_space_group_symop_operation_xyz
x,y,z
1/2-x,-y,1/2+z
x,-y,-z
1/2-x,y,1/2-z
-x,-y,-z
1/2+x,y,1/2-z
-x,y,z
1/2+x,-y,1/2+z
loop_
_atom_site_type_symbol
_atom_site_label
_atom_site_fract_x
_atom_site_fract_y
_atom_site_fract_z
Si Si1 0.670756 0.058993 0.333006
Si Si2 0.666024 0.427922 0.587052
Si Si3 0.165049 0.526717 0.667258
Si Si4 0.668822 0.748467 0.010902
Si Si5 0.670087 0.691827 0.333626
Si Si6 0.171175 0.076028 0.833406
Si Si7 0.326878 0.133825 0.492773
Si Si8 0.337125 0.371735 0.054450
O O1 0.750000 0.083839 0.250000
O O2 0.500000 0.067699 0.318297
O O3 0.721901 0.091583 0.417214
O O4 0.712422 0.991517 0.346263
O O5 0.500000 0.449607 0.581748
O O6 0.767482 0.484327 0.597789
O O7 0.686154 0.378335 0.657860
O O8 0.709372 0.397849 0.501132
O O9 0.250000 0.514014 0.750000
O O10 0.176886 0.595229 0.642893
O O11 0.000000 0.507315 0.682147
O O12 0.500000 0.761842 0.031845
O O13 0.750043 0.726334 0.093078
O O14 0.746921 0.805386 0.975246
O O15 0.682404 0.698290 0.939074
O O16 0.750000 0.711939 0.250000
O O17 0.500000 0.710358 0.332082
O O18 0.250000 0.100916 0.750000
O O19 0.000000 0.084972 0.819940
O O20 0.224274 0.108982 0.917212
O O21 0.500000 0.142916 0.492240
O O22 0.500000 0.384840 0.016896
#
# Coordination Sequence:
#
# PCOD8219920 Si02
#       8
#     8   8   8   8   8   8   8   8
#     4   9  18  34  56  81 109 142 179 221 268 317
#     4  10  20  33  53  80 105 130 163 204 252 310
#     4  11  22  35  52  75 102 130 163 206 257 309
#     4  10  21  37  55  74 100 136 179 221 260 306
#     4  10  20  34  52  75 104 137 172 211 258 311
#     4   9  18  33  54  81 113 146 178 213 259 317
#     4  10  20  35  55  79 109 144 181 221 267 318
#     4   9  20  38  55  71  97 134 170 208 255 304
#
# _framework density 19.062349999999999
#
# number of rings (size 3 to 8) (size 9 to 14) (size 15 to 20)
#    0.000    2.250    0.000    2.625    0.000    8.500 
#    0.000    1.875    0.000    6.750    0.000    0.000 
#    0.000    0.000    0.000    0.000    0.000    0.000 
#
# Total GULP energy -793421.860723 kJ/mol
# GULP energy per Si atom -12397.216574 kJ/mol
# Density = 1.901896 g / cm^3
# Si number density = 19.062350 Si / 1000 Ang^3
#
#
#
# Elastic Constant Matrix: (Units=GPa)
#
#
# Indices 1 2 3 4 5 6 
#
# 1 89.8266 40.2189 33.8507 0.0000 0.0000 0.0000
# 2 40.2189 94.8563 35.6901 0.0000 0.0000 0.0000
# 3 33.8507 35.6901 77.0453 0.0000 0.0000 0.0000
# 4 0.0000 0.0000 0.0000 19.4418 0.0000 0.0000
# 5 0.0000 0.0000 0.0000 0.0000 26.8053 0.0000
# 6 0.0000 0.0000 0.0000 0.0000 0.0000 30.4376
#
#
#
# Elastic Compliance Matrix: (Units=1/GPa)
#
#
# Indices 1 2 3 4 5 6 
#
# 1 0.014866 -0.004657 -0.004374 0.000000 0.000000 0.000000
# 2 -0.004657 0.014227 -0.004544 0.000000 0.000000 0.000000
# 3 -0.004374 -0.004544 0.017006 0.000000 0.000000 0.000000
# 4 0.000000 0.000000 0.000000 0.051435 0.000000 0.000000
# 5 0.000000 0.000000 0.000000 0.000000 0.037306 0.000000
# 6 0.000000 0.000000 0.000000 0.000000 0.000000 0.032854
#
#
# Mechanical properties :
#
#
# Convention : Reuss Voigt Hill
#
# Bulk Modulus (GPa) = 52.77635 53.47194 53.12415
# Shear Modulus (GPa) = 24.85559 25.46818 25.16188
#
# Velocity S-wave (km/s) = 3.61489 3.65916 3.63709
# Velocity P-wave (km/s) = 6.72082 6.77972 6.75034
#
# Compressibility (1/GPa) = 0.01894788
#
# Stress axis : x y z
#
# Youngs Moduli (GPa) = 67.26637 70.29028 58.80227
#
# Poissons Ratio (x) = 0.32738 0.25721
# Poissons Ratio (y) = 0.31329 0.26720
# Poissons Ratio (z) = 0.29423 0.31940
#
# Static dielectric constant tensor:
#      x y z
#    x 3.519100 0.000000 0.000000 
#    y 0.000000 3.562730 0.000000 
#    z 0.000000 0.000000 3.395330 
# 
# 
# High freq. dielectric constant tensor:
#      x y z
#    x 1.747050 0.000000 0.000000 
#    y 0.000000 1.736320 0.000000 
#    z 0.000000 0.000000 1.726360 
# 
# From -- ./inp_files/20895.got.cif
#   From: 2010.03.12/outbox.cif.g09.slc.cpg/sg53_11_cif.got.tgz:20895.got - 2010.04.16 14:36:59.
