data_PCOD8219511
_publ_section_title
;
Structure prediction by ZEFSAII (Michael W. Deem and Ramdas Pophale) SiO2 
 PCOD8219511
Probable space group: P M N A
;
_chemical_formula_sum "Si O2"
_cell_formula_units_Z 52
_cell_length_a 23.352756
_cell_length_b 14.797101
_cell_length_c 7.340217
_cell_angle_alpha 90.000000
_cell_angle_beta 90.000000
_cell_angle_gamma 90.000000
_cell_volume 2536.434659
_symmetry_space_group_name_H-M "P M N A"
_symmetry_group_IT_number 53
_symmetry_cell_setting 'orthorhombic'
loop_
_space_group_symop_operation_xyz
x,y,z
1/2-x,-y,1/2+z
x,-y,-z
1/2-x,y,1/2-z
-x,-y,-z
1/2+x,y,1/2-z
-x,y,z
1/2+x,-y,1/2+z
loop_
_atom_site_type_symbol
_atom_site_label
_atom_site_fract_x
_atom_site_fract_y
_atom_site_fract_z
Si Si1 0.683518 0.273714 0.287661
Si Si2 0.000000 0.180564 0.785756
Si Si3 0.000000 0.819436 0.785755
Si Si4 0.880591 0.098750 0.785080
Si Si5 0.500000 0.666051 0.000000
Si Si6 0.375218 0.602876 0.000000
Si Si7 0.183518 0.273714 0.787661
Si Si8 0.119409 0.098750 0.214920
O O1 0.750000 0.284863 0.250000
O O2 0.648937 0.349939 0.180965
O O3 0.669059 0.285921 0.500000
O O4 0.663572 0.174962 0.214955
O O5 0.944715 0.123867 0.724372
O O6 0.000000 0.275156 0.683003
O O7 0.000000 0.201943 0.000000
O O8 0.055285 0.876133 0.724372
O O9 0.000000 0.724844 0.683002
O O10 0.836428 0.174962 0.714955
O O11 0.864822 1.000000 0.701890
O O12 0.877403 0.093099 0.000000
O O13 0.443892 0.603965 0.000000
O O14 0.353864 0.500000 0.000000
O O15 0.351063 0.650061 0.180965
O O16 0.250000 0.284863 0.750000
#
# Coordination Sequence:
#
# PCOD8219511 Si02
#       8
#     8   4   4   8   4   8   8   8
#     4  11  23  43  67  93 131 169 213 264 318 379
#     4  10  19  35  61  88 129 169 211 259 311 372
#     4  10  19  35  61  88 129 169 211 259 311 372
#     4   9  18  34  60  92 128 172 211 253 311 373
#     4  12  23  42  69  94 124 166 211 266 335 382
#     4  12  27  46  68  96 126 163 215 274 332 388
#     4  11  23  43  67  93 131 169 213 264 318 379
#     4   9  18  34  60  92 128 172 211 253 311 373
#
# _framework density 20.501218000000001
#
# number of rings (size 3 to 8) (size 9 to 14) (size 15 to 20)
#    0.000    1.538    4.615    0.692    0.000    3.692 
#    0.000    3.846    0.000    2.769    0.000    0.000 
#    0.000    0.000    0.000    0.000    0.000    0.000 
#
# Total GULP energy -644785.171112 kJ/mol
# GULP energy per Si atom -12399.714829 kJ/mol
# Density = 2.045456 g / cm^3
# Si number density = 20.501218 Si / 1000 Ang^3
#
#
#
# Elastic Constant Matrix: (Units=GPa)
#
#
# Indices 1 2 3 4 5 6 
#
# 1 137.3300 53.1438 24.9931 0.0000 0.0000 0.0000
# 2 53.1438 164.0342 45.0642 0.0000 0.0000 0.0000
# 3 24.9931 45.0642 95.0927 0.0000 0.0000 0.0000
# 4 0.0000 0.0000 0.0000 21.9212 0.0000 0.0000
# 5 0.0000 0.0000 0.0000 0.0000 -11.1794 0.0000
# 6 0.0000 0.0000 0.0000 0.0000 0.0000 20.5683
#
#
#
# Elastic Compliance Matrix: (Units=1/GPa)
#
#
# Indices 1 2 3 4 5 6 
#
# 1 0.008417 -0.002436 -0.001058 0.000000 0.000000 0.000000
# 2 -0.002436 0.007714 -0.003015 0.000000 0.000000 0.000000
# 3 -0.001058 -0.003015 0.012223 0.000000 0.000000 0.000000
# 4 0.000000 0.000000 0.000000 0.045618 0.000000 0.000000
# 5 0.000000 0.000000 0.000000 0.000000 -0.089450 0.000000
# 6 0.000000 0.000000 0.000000 0.000000 0.000000 0.048619
#
#
# Mechanical properties :
#
#
# Convention : Reuss Voigt Hill
#
# Bulk Modulus (GPa) = 65.20877 71.42882 68.31879
# Shear Modulus (GPa) = 97.52071 24.47906 60.99988
#
# Velocity S-wave (km/s) = 6.90446 3.45922 5.46067
# Velocity P-wave (km/s) = 9.76925 7.13245 8.55308
#
# Compressibility (1/GPa) = 0.01533536
#
# Stress axis : x y z
#
# Youngs Moduli (GPa) = 118.80653 129.63430 81.81319
#
# Poissons Ratio (x) = 0.31584 0.08653
# Poissons Ratio (y) = 0.28946 0.24669
# Poissons Ratio (z) = 0.12565 0.39089
#
# Static dielectric constant tensor:
#      x y z
#    x 3.847130 0.000000 0.000000 
#    y 0.000000 3.825170 0.000000 
#    z 0.000000 0.000000 3.709830 
# 
# 
# High freq. dielectric constant tensor:
#      x y z
#    x 1.806630 0.000000 0.000000 
#    y 0.000000 1.793710 0.000000 
#    z 0.000000 0.000000 1.802000 
# 
# From -- ./inp_files/11020.got.cif
#   From: 2010.03.12/outbox.cif.g09.slc.cpg/sg53_6_cif.got.tgz:11020.got - 2010.04.16 14:36:59.
