data_PCOD8219733
_publ_section_title
;
Structure prediction by ZEFSAII (Michael W. Deem and Ramdas Pophale) SiO2 
 PCOD8219733
Probable space group: P M N A
;
_chemical_formula_sum "Si O2"
_cell_formula_units_Z 40
_cell_length_a 34.262873
_cell_length_b 11.935290
_cell_length_c 5.001471
_cell_angle_alpha 90.000000
_cell_angle_beta 90.000000
_cell_angle_gamma 90.000000
_cell_volume 2045.288174
_symmetry_space_group_name_H-M "P M N A"
_symmetry_group_IT_number 53
_symmetry_cell_setting 'orthorhombic'
loop_
_space_group_symop_operation_xyz
x,y,z
1/2-x,-y,1/2+z
x,-y,-z
1/2-x,y,1/2-z
-x,-y,-z
1/2+x,y,1/2-z
-x,y,z
1/2+x,-y,1/2+z
loop_
_atom_site_type_symbol
_atom_site_label
_atom_site_fract_x
_atom_site_fract_y
_atom_site_fract_z
Si Si1 0.564970 0.871776 0.975027
Si Si2 0.122198 0.628655 0.980243
Si Si3 0.204965 0.923556 0.255919
Si Si4 0.042998 0.735900 0.009551
Si Si5 0.856730 0.762366 0.478957
O O1 0.546237 0.837877 0.695527
O O2 0.547927 0.790621 0.200683
O O3 0.612160 0.861405 0.972298
O O4 0.553018 0.000000 0.000000
O O5 0.149132 0.696454 0.762875
O O6 0.134429 0.500000 0.000000
O O7 0.075873 0.644853 0.921630
O O8 0.127049 0.670890 0.279005
O O9 0.250000 0.886910 0.250000
O O10 0.181047 0.810940 0.322129
O O11 0.195116 0.000000 0.500000
O O12 0.192822 0.000000 0.000000
O O13 0.000000 0.679468 0.994113
#
# Coordination Sequence:
#
# PCOD8219733 Si02
#       5
#     8   8   8   8   8
#     4  10  20  32  49  73 103 139 171 206 259 320
#     4  10  21  37  56  76 100 138 185 230 273 308
#     4  10  20  34  56  87 118 145 170 203 256 319
#     4  10  21  34  49  73 101 133 177 222 266 316
#     4  10  20  35  55  79 108 138 177 221 258 314
#
# _framework density 19.557147000000001
#
# number of rings (size 3 to 8) (size 9 to 14) (size 15 to 20)
#    0.000    2.000    0.000    3.600    0.000    6.000 
#    0.000    0.000    0.000    9.600    0.000    0.000 
#    0.000    0.000    0.000    0.000    0.000    0.000 
#
# Total GULP energy -495588.376293 kJ/mol
# GULP energy per Si atom -12389.709407 kJ/mol
# Density = 1.951263 g / cm^3
# Si number density = 19.557147 Si / 1000 Ang^3
#
#
#
# Elastic Constant Matrix: (Units=GPa)
#
#
# Indices 1 2 3 4 5 6 
#
# 1 82.6189 25.0001 16.9723 0.0000 0.0000 0.0000
# 2 25.0001 75.7692 11.1946 0.0000 0.0000 0.0000
# 3 16.9723 11.1946 86.7104 0.0000 0.0000 0.0000
# 4 0.0000 0.0000 0.0000 33.3899 0.0000 0.0000
# 5 0.0000 0.0000 0.0000 0.0000 42.6279 0.0000
# 6 0.0000 0.0000 0.0000 0.0000 0.0000 20.1898
#
#
#
# Elastic Compliance Matrix: (Units=1/GPa)
#
#
# Indices 1 2 3 4 5 6 
#
# 1 0.013832 -0.004245 -0.002159 0.000000 0.000000 0.000000
# 2 -0.004245 0.014757 -0.001074 0.000000 0.000000 0.000000
# 3 -0.002159 -0.001074 0.012094 0.000000 0.000000 0.000000
# 4 0.000000 0.000000 0.000000 0.029949 0.000000 0.000000
# 5 0.000000 0.000000 0.000000 0.000000 0.023459 0.000000
# 6 0.000000 0.000000 0.000000 0.000000 0.000000 0.049530
#
#
# Mechanical properties :
#
#
# Convention : Reuss Voigt Hill
#
# Bulk Modulus (GPa) = 38.87105 39.04807 38.95956
# Shear Modulus (GPa) = 29.91262 32.03695 30.97478
#
# Velocity S-wave (km/s) = 3.91512 4.05176 3.98403
# Velocity P-wave (km/s) = 6.35266 6.47290 6.41307
#
# Compressibility (1/GPa) = 0.02572609
#
# Stress axis : x y z
#
# Youngs Moduli (GPa) = 72.29705 67.76312 82.68558
#
# Poissons Ratio (x) = 0.28764 0.17855
# Poissons Ratio (y) = 0.30689 0.08883
# Poissons Ratio (z) = 0.15612 0.07280
#
# Static dielectric constant tensor:
#      x y z
#    x 2.768070 0.000000 0.000000 
#    y 0.000000 3.190150 0.000000 
#    z 0.000000 0.000000 3.776530 
# 
# 
# High freq. dielectric constant tensor:
#      x y z
#    x 1.745880 0.000000 0.000000 
#    y 0.000000 1.735810 0.000000 
#    z 0.000000 0.000000 1.786330 
# 
# From -- ./inp_files/5192.got.cif
#   From: 2010.03.12/outbox.cif.g09.slc.cpg/sg53_3_cif.got.tgz:5192.got - 2010.04.16 14:36:59.
