data_PCOD8219537
_publ_section_title
;
Structure prediction by ZEFSAII (Michael W. Deem and Ramdas Pophale) SiO2 
 PCOD8219537
Probable space group: P M N A
;
_chemical_formula_sum "Si O2"
_cell_formula_units_Z 64
_cell_length_a 20.141128
_cell_length_b 18.591919
_cell_length_c 8.494018
_cell_angle_alpha 90.000000
_cell_angle_beta 90.000000
_cell_angle_gamma 90.000000
_cell_volume 3180.688840
_symmetry_space_group_name_H-M "P M N A"
_symmetry_group_IT_number 53
_symmetry_cell_setting 'orthorhombic'
loop_
_space_group_symop_operation_xyz
x,y,z
1/2-x,-y,1/2+z
x,-y,-z
1/2-x,y,1/2-z
-x,-y,-z
1/2+x,y,1/2-z
-x,y,z
1/2+x,-y,1/2+z
loop_
_atom_site_type_symbol
_atom_site_label
_atom_site_fract_x
_atom_site_fract_y
_atom_site_fract_z
Si Si1 0.924451 0.539714 0.649788
Si Si2 0.720787 0.207052 0.088757
Si Si3 0.674508 0.708281 0.192971
Si Si4 0.684523 0.949635 0.848558
Si Si5 0.861046 0.203760 0.982461
Si Si6 0.574522 0.602041 0.308636
Si Si7 0.571765 0.933897 0.611522
Si Si8 0.077805 0.666094 0.856978
O O1 0.888923 0.500000 0.500000
O O2 0.921141 0.483965 0.794217
O O3 0.894761 0.616418 0.711690
O O4 0.000000 0.556714 0.600124
O O5 0.750000 0.242113 0.250000
O O6 0.678955 0.135148 0.115843
O O7 0.676697 0.261914 0.985788
O O8 0.784482 0.181491 0.990614
O O9 0.750000 0.692571 0.250000
O O10 0.632446 0.761830 0.308365
O O11 0.629733 0.636506 0.191079
O O12 0.750000 0.968941 0.750000
O O13 0.619650 0.962993 0.746637
O O14 0.682504 0.000000 0.000000
O O15 0.903151 0.132313 0.004711
O O16 0.881438 0.259598 0.123646
O O17 0.500000 0.628839 0.262442
O O18 0.591216 0.620232 0.487048
O O19 0.500000 0.912359 0.684194
O O20 0.561439 0.000000 0.500000
O O21 0.000000 0.683844 0.836533
#
# Coordination Sequence:
#
# PCOD8219537 Si02
#       8
#     8   8   8   8   8   8   8   8
#     4   9  17  29  47  76 109 145 192 243 293 347
#     4  10  20  36  55  84 112 147 195 244 287 350
#     4   9  20  34  58  84 113 154 192 245 298 353
#     4  11  23  39  64  89 115 154 204 248 291 363
#     4  10  19  36  57  83 114 148 199 246 300 359
#     4   9  17  32  53  79 111 144 193 244 291 350
#     4  11  24  41  60  88 124 159 196 250 309 361
#     4   9  17  30  52  78 107 150 191 237 295 355
#
# _framework density 20.121428000000002
#
# number of rings (size 3 to 8) (size 9 to 14) (size 15 to 20)
#    0.000    2.250    2.500    1.125    1.750    3.750 
#    0.000    0.625    0.000    5.250    0.000    0.000 
#    0.000    0.000    0.000    0.000    0.000    0.000 
#
# Total GULP energy -792911.274547 kJ/mol
# GULP energy per Si atom -12389.238665 kJ/mol
# Density = 2.007563 g / cm^3
# Si number density = 20.121428 Si / 1000 Ang^3
#
#
#
# Elastic Constant Matrix: (Units=GPa)
#
#
# Indices 1 2 3 4 5 6 
#
# 1 91.4605 24.8477 23.3441 0.0000 0.0000 0.0000
# 2 24.8477 83.1817 32.9630 0.0000 0.0000 0.0000
# 3 23.3441 32.9630 85.9178 0.0000 0.0000 0.0000
# 4 0.0000 0.0000 0.0000 33.4325 0.0000 0.0000
# 5 0.0000 0.0000 0.0000 0.0000 16.5008 0.0000
# 6 0.0000 0.0000 0.0000 0.0000 0.0000 7.3901
#
#
#
# Elastic Compliance Matrix: (Units=1/GPa)
#
#
# Indices 1 2 3 4 5 6 
#
# 1 0.012264 -0.002763 -0.002272 0.000000 0.000000 0.000000
# 2 -0.002763 0.014800 -0.004927 0.000000 0.000000 0.000000
# 3 -0.002272 -0.004927 0.014147 0.000000 0.000000 0.000000
# 4 0.000000 0.000000 0.000000 0.029911 0.000000 0.000000
# 5 0.000000 0.000000 0.000000 0.000000 0.060603 0.000000
# 6 0.000000 0.000000 0.000000 0.000000 0.000000 0.135317
#
#
# Mechanical properties :
#
#
# Convention : Reuss Voigt Hill
#
# Bulk Modulus (GPa) = 46.97984 46.98550 46.98267
# Shear Modulus (GPa) = 17.00321 23.42502 20.21412
#
# Velocity S-wave (km/s) = 2.91009 3.41571 3.17299
# Velocity P-wave (km/s) = 5.88985 6.24162 6.06829
#
# Compressibility (1/GPa) = 0.02128572
#
# Stress axis : x y z
#
# Youngs Moduli (GPa) = 81.53752 67.56824 70.68743
#
# Poissons Ratio (x) = 0.18670 0.16061
# Poissons Ratio (y) = 0.22530 0.34830
# Poissons Ratio (z) = 0.18526 0.33293
#
# Static dielectric constant tensor:
#      x y z
#    x 3.777300 0.000000 0.000000 
#    y 0.000000 3.657500 0.000000 
#    z 0.000000 0.000000 3.818040 
# 
# 
# High freq. dielectric constant tensor:
#      x y z
#    x 1.767040 0.000000 0.000000 
#    y 0.000000 1.783110 0.000000 
#    z 0.000000 0.000000 1.781510 
# 
# From -- ./inp_files/11223.got.cif
#   From: 2010.03.12/outbox.cif.g09.slc.cpg/sg53_6_cif.got.tgz:11223.got - 2010.04.16 14:36:59.
