data_PCOD8219261
_publ_section_title
;
Structure prediction by ZEFSAII (Michael W. Deem and Ramdas Pophale) SiO2 
 PCOD8219261
Probable space group: P M N A
;
_chemical_formula_sum "Si O2"
_cell_formula_units_Z 48
_cell_length_a 18.718487
_cell_length_b 15.207714
_cell_length_c 8.597868
_cell_angle_alpha 90.000000
_cell_angle_beta 90.000000
_cell_angle_gamma 90.000000
_cell_volume 2447.515506
_symmetry_space_group_name_H-M "P M N A"
_symmetry_group_IT_number 53
_symmetry_cell_setting 'orthorhombic'
loop_
_space_group_symop_operation_xyz
x,y,z
1/2-x,-y,1/2+z
x,-y,-z
1/2-x,y,1/2-z
-x,-y,-z
1/2+x,y,1/2-z
-x,y,z
1/2+x,-y,1/2+z
loop_
_atom_site_type_symbol
_atom_site_label
_atom_site_fract_x
_atom_site_fract_y
_atom_site_fract_z
Si Si1 0.667613 0.588981 0.423312
Si Si2 0.162057 0.589573 0.426147
Si Si3 0.827384 0.767112 0.926654
Si Si4 0.842404 0.232401 0.418568
Si Si5 0.683776 0.928723 0.367447
Si Si6 0.920652 0.917724 0.390731
O O1 0.637197 0.500000 0.500000
O O2 0.635597 0.596752 0.250772
O O3 0.752783 0.587596 0.426110
O O4 0.641407 0.673472 0.519379
O O5 0.131441 0.500000 0.500000
O O6 0.131402 0.671775 0.524079
O O7 0.742386 0.768367 0.919742
O O8 0.864788 0.786229 0.760117
O O9 0.845747 0.840714 0.052338
O O10 0.873334 0.158815 0.532265
O O11 0.750000 0.913643 0.250000
O O12 0.616348 0.956574 0.263957
O O13 0.704092 0.000000 0.500000
O O14 0.000000 0.881056 0.353982
O O15 0.926926 0.000000 0.500000
#
# Coordination Sequence:
#
# PCOD8219261 Si02
#       6
#     8   8   8   8   8   8
#     4   9  16  26  42  73 114 150 182 222 283 334
#     4   9  16  26  45  71 109 149 186 229 274 332
#     4  10  20  31  55  83 114 144 184 242 279 332
#     4  10  19  34  54  81 111 148 190 229 285 333
#     4  12  24  37  60  86 114 144 188 238 287 338
#     4  11  24  42  60  80 113 152 188 231 285 346
#
# _framework density 19.611723999999999
#
# number of rings (size 3 to 8) (size 9 to 14) (size 15 to 20)
#    0.000    1.833    1.667    3.500    4.667    4.333 
#    0.000    0.833    0.000    0.500    0.000    0.000 
#    0.000    6.000    0.000    0.000    0.000    0.000 
#
# Total GULP energy -594982.967492 kJ/mol
# GULP energy per Si atom -12395.478489 kJ/mol
# Density = 1.956709 g / cm^3
# Si number density = 19.611724 Si / 1000 Ang^3
#
#
#
# Elastic Constant Matrix: (Units=GPa)
#
#
# Indices 1 2 3 4 5 6 
#
# 1 36.6052 19.9223 34.1386 0.0000 0.0000 0.0000
# 2 19.9223 111.2485 36.4607 0.0000 0.0000 0.0000
# 3 34.1386 36.4607 135.5574 0.0000 0.0000 0.0000
# 4 0.0000 0.0000 0.0000 39.4116 0.0000 0.0000
# 5 0.0000 0.0000 0.0000 0.0000 5.3770 0.0000
# 6 0.0000 0.0000 0.0000 0.0000 0.0000 4.2586
#
#
#
# Elastic Compliance Matrix: (Units=1/GPa)
#
#
# Indices 1 2 3 4 5 6 
#
# 1 0.037215 -0.003940 -0.008312 0.000000 0.000000 0.000000
# 2 -0.003940 0.010275 -0.001771 0.000000 0.000000 0.000000
# 3 -0.008312 -0.001771 0.009947 0.000000 0.000000 0.000000
# 4 0.000000 0.000000 0.000000 0.025373 0.000000 0.000000
# 5 0.000000 0.000000 0.000000 0.000000 0.185976 0.000000
# 6 0.000000 0.000000 0.000000 0.000000 0.000000 0.234817
#
#
# Mechanical properties :
#
#
# Convention : Reuss Voigt Hill
#
# Bulk Modulus (GPa) = 34.02618 51.60604 42.81611
# Shear Modulus (GPa) = 9.23451 22.66877 15.95164
#
# Velocity S-wave (km/s) = 2.17230 3.40351 2.85506
# Velocity P-wave (km/s) = 4.86615 6.46654 5.72257
#
# Compressibility (1/GPa) = 0.02938913
#
# Stress axis : x y z
#
# Youngs Moduli (GPa) = 26.87065 97.32325 100.53485
#
# Poissons Ratio (x) = 0.38347 0.83569
# Poissons Ratio (y) = 0.10587 0.17809
# Poissons Ratio (z) = 0.22336 0.17240
#
# Static dielectric constant tensor:
#      x y z
#    x 3.102450 0.000000 0.000000 
#    y 0.000000 3.796750 0.000000 
#    z 0.000000 0.000000 4.001670 
# 
# 
# High freq. dielectric constant tensor:
#      x y z
#    x 1.689770 0.000000 0.000000 
#    y 0.000000 1.778930 0.000000 
#    z 0.000000 0.000000 1.785730 
# 
# From -- ./inp_files/9970.got.cif
#   From: 2010.03.12/outbox.cif.g09.slc.cpg/sg53_5_cif.got.tgz:9970.got - 2010.04.16 14:36:59.
