data_PCOD8219935
_publ_section_title
;
Structure prediction by ZEFSAII (Michael W. Deem and Ramdas Pophale) SiO2 
 PCOD8219935
Probable space group: P M N A
;
_chemical_formula_sum "Si O2"
_cell_formula_units_Z 48
_cell_length_a 18.511866
_cell_length_b 8.587709
_cell_length_c 14.410777
_cell_angle_alpha 90.000000
_cell_angle_beta 90.000000
_cell_angle_gamma 90.000000
_cell_volume 2290.946331
_symmetry_space_group_name_H-M "P M N A"
_symmetry_group_IT_number 53
_symmetry_cell_setting 'orthorhombic'
loop_
_space_group_symop_operation_xyz
x,y,z
1/2-x,-y,1/2+z
x,-y,-z
1/2-x,y,1/2-z
-x,-y,-z
1/2+x,y,1/2-z
-x,y,z
1/2+x,-y,1/2+z
loop_
_atom_site_type_symbol
_atom_site_label
_atom_site_fract_x
_atom_site_fract_y
_atom_site_fract_z
Si Si1 0.728269 0.165034 0.528576
Si Si2 0.500000 0.047033 0.108007
Si Si3 0.000000 0.843734 0.123544
Si Si4 0.500000 0.190476 0.405116
Si Si5 0.500000 0.321302 0.996100
Si Si6 0.123300 0.175138 0.615703
Si Si7 0.145006 0.305099 0.809463
Si Si8 0.864251 0.394690 0.085495
O O1 0.814036 0.139293 0.540791
O O2 0.700024 0.206258 0.629834
O O3 0.704709 0.293638 0.451235
O O4 0.693057 0.000000 0.500000
O O5 0.500000 0.235935 0.098986
O O6 0.425004 0.975931 0.150129
O O7 0.500000 0.000000 0.000000
O O8 0.065564 0.748760 0.164697
O O9 0.000000 0.027361 0.152349
O O10 0.000000 0.838993 0.013658
O O11 0.571946 0.284358 0.377345
O O12 0.500000 0.500000 0.000000
O O13 0.429342 0.288296 0.937230
O O14 0.158951 0.266343 0.702211
O O15 0.157331 0.489845 0.830134
O O16 0.893327 0.500000 0.000000
#
# Coordination Sequence:
#
# PCOD8219935 Si02
#       8
#     8   4   4   4   4   8   8   8
#     4  11  21  37  60  82 109 152 198 234 280 351
#     4   8  17  38  63  87 109 146 196 230 279 341
#     4  11  19  31  56  80 112 147 189 227 273 336
#     4  11  18  31  52  84 108 151 191 225 257 338
#     4  10  21  39  64  90 113 146 194 238 281 344
#     4  10  21  40  61  83 111 150 188 241 289 339
#     4  11  22  36  57  85 118 147 187 237 297 338
#     4  10  20  33  54  82 114 152 188 229 279 348
#
# _framework density 20.952041000000001
#
# number of rings (size 3 to 8) (size 9 to 14) (size 15 to 20)
#    0.000    1.833    3.333    4.750    0.000    2.000 
#    0.000    5.000    0.000   10.000    0.000    0.000 
#    0.000    0.000    0.000    0.000    0.000    0.000 
#
# Total GULP energy -594737.590035 kJ/mol
# GULP energy per Si atom -12390.366459 kJ/mol
# Density = 2.090435 g / cm^3
# Si number density = 20.952041 Si / 1000 Ang^3
#
#
#
# Elastic Constant Matrix: (Units=GPa)
#
#
# Indices 1 2 3 4 5 6 
#
# 1 116.5501 48.2365 20.8891 0.0000 0.0000 0.0000
# 2 48.2365 169.5307 44.9120 0.0000 0.0000 0.0000
# 3 20.8891 44.9120 65.2545 0.0000 0.0000 0.0000
# 4 0.0000 0.0000 0.0000 28.9958 0.0000 0.0000
# 5 0.0000 0.0000 0.0000 0.0000 -1.0272 0.0000
# 6 0.0000 0.0000 0.0000 0.0000 0.0000 13.9431
#
#
#
# Elastic Compliance Matrix: (Units=1/GPa)
#
#
# Indices 1 2 3 4 5 6 
#
# 1 0.009843 -0.002404 -0.001496 0.000000 0.000000 0.000000
# 2 -0.002404 0.007801 -0.004600 0.000000 0.000000 0.000000
# 3 -0.001496 -0.004600 0.018969 0.000000 0.000000 0.000000
# 4 0.000000 0.000000 0.000000 0.034488 0.000000 0.000000
# 5 0.000000 0.000000 0.000000 0.000000 -0.973520 0.000000
# 6 0.000000 0.000000 0.000000 0.000000 0.000000 0.071720
#
#
# Mechanical properties :
#
#
# Convention : Reuss Voigt Hill
#
# Bulk Modulus (GPa) = 50.98524 64.37897 57.68211
# Shear Modulus (GPa) = -6.19456 24.20218 9.00381
#
# Velocity S-wave (km/s) = -1.72133 3.40240 2.07525
# Velocity P-wave (km/s) = 4.52067 6.79916 5.77343
#
# Compressibility (1/GPa) = 0.01961352
#
# Stress axis : x y z
#
# Youngs Moduli (GPa) = 101.59259 128.18426 52.71673
#
# Poissons Ratio (x) = 0.30820 0.07887
# Poissons Ratio (y) = 0.24426 0.24248
# Poissons Ratio (z) = 0.15200 0.58960
#
# Static dielectric constant tensor:
#      x y z
#    x 3.783030 0.000000 0.000000 
#    y 0.000000 4.522530 0.000000 
#    z 0.000000 0.000000 3.719520 
# 
# 
# High freq. dielectric constant tensor:
#      x y z
#    x 1.824150 0.000000 0.000000 
#    y 0.000000 1.825270 0.000000 
#    z 0.000000 0.000000 1.790710 
# 
# From -- ./inp_files/23733.got.cif
#   From: 2010.03.12/outbox.cif.g09.slc.cpg/sg53_12_cif.got.tgz:23733.got - 2010.04.16 14:36:59.
