data_PCOD8219682
_publ_section_title
;
Structure prediction by ZEFSAII (Michael W. Deem and Ramdas Pophale) SiO2 
 PCOD8219682
Probable space group: P M N A
;
_chemical_formula_sum "Si O2"
_cell_formula_units_Z 40
_cell_length_a 27.822373
_cell_length_b 9.698090
_cell_length_c 8.521520
_cell_angle_alpha 90.000000
_cell_angle_beta 90.000000
_cell_angle_gamma 90.000000
_cell_volume 2299.309567
_symmetry_space_group_name_H-M "P M N A"
_symmetry_group_IT_number 53
_symmetry_cell_setting 'orthorhombic'
loop_
_space_group_symop_operation_xyz
x,y,z
1/2-x,-y,1/2+z
x,-y,-z
1/2-x,y,1/2-z
-x,-y,-z
1/2+x,y,1/2-z
-x,y,z
1/2+x,-y,1/2+z
loop_
_atom_site_type_symbol
_atom_site_label
_atom_site_fract_x
_atom_site_fract_y
_atom_site_fract_z
Si Si1 0.379938 0.537136 0.173789
Si Si2 0.947106 0.353450 0.919658
Si Si3 0.701087 0.034698 0.322334
Si Si4 0.695254 0.729041 0.283401
Si Si5 0.359001 0.281804 0.398466
O O1 0.424791 0.618958 0.248608
O O2 0.335314 0.641142 0.160047
O O3 0.362561 0.407602 0.277926
O O4 0.396636 0.500000 0.000000
O O5 0.000000 0.283789 0.905500
O O6 0.952056 0.500000 0.000000
O O7 0.911373 0.256532 0.021824
O O8 0.750000 0.097108 0.250000
O O9 0.657786 0.144761 0.305729
O O10 0.713608 0.000000 0.500000
O O11 0.685795 0.890309 0.242628
O O12 0.750000 0.689871 0.250000
O O13 0.679401 0.688191 0.461753
#
# Coordination Sequence:
#
# PCOD8219682 Si02
#       5
#     8   8   8   8   8
#     4  10  20  30  45  72  98 123 157 197 241 285
#     4   8  15  31  52  70  92 123 159 201 244 284
#     4   9  18  31  48  68  94 126 160 192 230 281
#     4   9  18  32  47  65  93 129 161 193 233 280
#     4   9  18  32  49  71  97 124 161 199 234 283
#
# _framework density 17.396526999999999
#
# number of rings (size 3 to 8) (size 9 to 14) (size 15 to 20)
#    0.000    3.000    0.000    1.800    0.000    7.600 
#    0.000    0.000    0.000   15.000    0.000    0.000 
#    0.000   32.800    0.000    0.000    0.000    0.000 
#
# Total GULP energy -495681.071086 kJ/mol
# GULP energy per Si atom -12392.026777 kJ/mol
# Density = 1.735693 g / cm^3
# Si number density = 17.396527 Si / 1000 Ang^3
#
#
#
# Elastic Constant Matrix: (Units=GPa)
#
#
# Indices 1 2 3 4 5 6 
#
# 1 159.0237 58.1766 45.1775 0.0000 0.0000 0.0000
# 2 58.1766 71.5975 27.9862 0.0000 0.0000 0.0000
# 3 45.1775 27.9862 60.8281 0.0000 0.0000 0.0000
# 4 0.0000 0.0000 0.0000 17.7461 0.0000 0.0000
# 5 0.0000 0.0000 0.0000 0.0000 15.5750 0.0000
# 6 0.0000 0.0000 0.0000 0.0000 0.0000 12.8368
#
#
#
# Elastic Compliance Matrix: (Units=1/GPa)
#
#
# Indices 1 2 3 4 5 6 
#
# 1 0.009837 -0.006263 -0.004424 0.000000 0.000000 0.000000
# 2 -0.006263 0.021018 -0.005018 0.000000 0.000000 0.000000
# 3 -0.004424 -0.005018 0.022034 0.000000 0.000000 0.000000
# 4 0.000000 0.000000 0.000000 0.056350 0.000000 0.000000
# 5 0.000000 0.000000 0.000000 0.000000 0.064205 0.000000
# 6 0.000000 0.000000 0.000000 0.000000 0.000000 0.077901
#
#
# Mechanical properties :
#
#
# Convention : Reuss Voigt Hill
#
# Bulk Modulus (GPa) = 46.56013 61.56996 54.06505
# Shear Modulus (GPa) = 17.24638 19.90552 18.57595
#
# Velocity S-wave (km/s) = 3.15202 3.38631 3.27126
# Velocity P-wave (km/s) = 6.33002 7.12449 6.73897
#
# Compressibility (1/GPa) = 0.02147760
#
# Stress axis : x y z
#
# Youngs Moduli (GPa) = 101.66119 47.57867 45.38387
#
# Poissons Ratio (x) = 0.29801 0.20078
# Poissons Ratio (y) = 0.63675 0.22774
# Poissons Ratio (z) = 0.44975 0.23875
#
# Static dielectric constant tensor:
#      x y z
#    x 3.553520 0.000000 0.000000 
#    y 0.000000 3.424490 0.000000 
#    z 0.000000 0.000000 3.142220 
# 
# 
# High freq. dielectric constant tensor:
#      x y z
#    x 1.665630 0.000000 0.000000 
#    y 0.000000 1.656800 0.000000 
#    z 0.000000 0.000000 1.658180 
# 
# From -- ./inp_files/12267.got.cif
#   From: 2010.03.12/outbox.cif.g09.slc.cpg/sg53_7_cif.got.tgz:12267.got - 2010.04.16 14:36:59.
