data_PCOD8219296
_publ_section_title
;
Structure prediction by ZEFSAII (Michael W. Deem and Ramdas Pophale) SiO2 
 PCOD8219296
Probable space group: P M N A
;
_chemical_formula_sum "Si O2"
_cell_formula_units_Z 32
_cell_length_a 8.591942
_cell_length_b 9.319701
_cell_length_c 20.473793
_cell_angle_alpha 90.000000
_cell_angle_beta 90.000000
_cell_angle_gamma 90.000000
_cell_volume 1639.425266
_symmetry_space_group_name_H-M "P M N A"
_symmetry_group_IT_number 53
_symmetry_cell_setting 'orthorhombic'
loop_
_space_group_symop_operation_xyz
x,y,z
1/2-x,-y,1/2+z
x,-y,-z
1/2-x,y,1/2-z
-x,-y,-z
1/2+x,y,1/2-z
-x,y,z
1/2+x,-y,1/2+z
loop_
_atom_site_type_symbol
_atom_site_label
_atom_site_fract_x
_atom_site_fract_y
_atom_site_fract_z
Si Si1 0.315644 0.597441 0.319406
Si Si2 0.815264 0.589196 0.939359
Si Si3 0.816571 0.915107 0.934887
Si Si4 0.816854 0.094087 0.680641
O O1 0.250000 0.546985 0.250000
O O2 0.500000 0.604646 0.315964
O O3 0.256289 0.482823 0.372420
O O4 0.254946 0.753569 0.339817
O O5 0.757524 0.752463 0.943364
O O6 0.000000 0.584360 0.942749
O O7 0.744584 0.500000 0.000000
O O8 0.000000 0.924726 0.921184
O O9 0.725692 0.978313 0.873578
O O10 0.770258 0.000000 0.000000
O O11 0.750000 0.041588 0.750000
O O12 0.000000 0.111105 0.687214
#
# Coordination Sequence:
#
# PCOD8219296 Si02
#       4
#     8   8   8   8
#     4  10  19  34  56  80 108 140 178 222 271 325
#     4   9  18  33  55  82 108 139 181 224 266 319
#     4  10  20  36  59  84 112 146 183 224 272 325
#     4  11  22  37  57  81 111 145 185 227 272 325
#
# _framework density 19.519037000000001
#
# number of rings (size 3 to 8) (size 9 to 14) (size 15 to 20)
#    0.000    2.000    0.000    6.000    0.000    5.500 
#    0.000    5.000    0.000    5.250    0.000    0.000 
#    0.000    0.000    0.000    0.000    0.000    0.000 
#
# Total GULP energy -396894.576332 kJ/mol
# GULP energy per Si atom -12402.955510 kJ/mol
# Density = 1.947461 g / cm^3
# Si number density = 19.519037 Si / 1000 Ang^3
#
#
#
# Elastic Constant Matrix: (Units=GPa)
#
#
# Indices 1 2 3 4 5 6 
#
# 1 74.2796 28.9301 41.4462 0.0000 0.0000 0.0000
# 2 28.9301 159.3158 109.1775 0.0000 0.0000 0.0000
# 3 41.4462 109.1775 161.3801 0.0000 0.0000 0.0000
# 4 0.0000 0.0000 0.0000 44.0112 0.0000 0.0000
# 5 0.0000 0.0000 0.0000 0.0000 30.3644 0.0000
# 6 0.0000 0.0000 0.0000 0.0000 0.0000 -29.4195
#
#
#
# Elastic Compliance Matrix: (Units=1/GPa)
#
#
# Indices 1 2 3 4 5 6 
#
# 1 0.015717 -0.000164 -0.003926 0.000000 0.000000 0.000000
# 2 -0.000164 0.011704 -0.007876 0.000000 0.000000 0.000000
# 3 -0.003926 -0.007876 0.012533 0.000000 0.000000 0.000000
# 4 0.000000 0.000000 0.000000 0.022721 0.000000 0.000000
# 5 0.000000 0.000000 0.000000 0.000000 0.032933 0.000000
# 6 0.000000 0.000000 0.000000 0.000000 0.000000 -0.033991
#
#
# Mechanical properties :
#
#
# Convention : Reuss Voigt Hill
#
# Bulk Modulus (GPa) = 62.41019 83.78703 73.09861
# Shear Modulus (GPa) = 55.01221 23.35268 39.18244
#
# Velocity S-wave (km/s) = 5.31461 3.46266 4.48526
# Velocity P-wave (km/s) = 8.34886 7.68152 8.02213
#
# Compressibility (1/GPa) = 0.01602302
#
# Stress axis : x y z
#
# Youngs Moduli (GPa) = 63.62597 85.44211 79.78970
#
# Poissons Ratio (x) = 0.01400 0.31322
# Poissons Ratio (y) = 0.01042 0.62841
# Poissons Ratio (z) = 0.24977 0.67293
#
# Static dielectric constant tensor:
#      x y z
#    x 3.306550 0.000000 0.000000 
#    y 0.000000 3.682530 0.000000 
#    z 0.000000 0.000000 3.755340 
# 
# 
# High freq. dielectric constant tensor:
#      x y z
#    x 1.739060 0.000000 0.000000 
#    y 0.000000 1.763810 0.000000 
#    z 0.000000 0.000000 1.775750 
# 
# From -- ./inp_files/30005.got.cif
#   From: 2010.03.12/outbox.cif.g09.slc.cpg/sg53_16_cif.got.tgz:30005.got - 2010.04.16 14:36:59.
