data_PCOD8219959
_publ_section_title
;
Structure prediction by ZEFSAII (Michael W. Deem and Ramdas Pophale) SiO2 
 PCOD8219959
Probable space group: P M N A
;
_chemical_formula_sum "Si O2"
_cell_formula_units_Z 64
_cell_length_a 9.129403
_cell_length_b 20.794694
_cell_length_c 18.545776
_cell_angle_alpha 90.000000
_cell_angle_beta 90.000000
_cell_angle_gamma 90.000000
_cell_volume 3520.788383
_symmetry_space_group_name_H-M "P M N A"
_symmetry_group_IT_number 53
_symmetry_cell_setting 'orthorhombic'
loop_
_space_group_symop_operation_xyz
x,y,z
1/2-x,-y,1/2+z
x,-y,-z
1/2-x,y,1/2-z
-x,-y,-z
1/2+x,y,1/2-z
-x,y,z
1/2+x,-y,1/2+z
loop_
_atom_site_type_symbol
_atom_site_label
_atom_site_fract_x
_atom_site_fract_y
_atom_site_fract_z
Si Si1 0.331419 0.613021 0.435256
Si Si2 0.327671 0.621541 0.597544
Si Si3 0.827643 0.005624 0.675179
Si Si4 0.670472 0.114821 0.089110
Si Si5 0.826880 0.491009 0.825057
Si Si6 0.672012 0.875692 0.073801
Si Si7 0.171122 0.255690 0.410293
Si Si8 0.669959 0.245601 0.561296
O O1 0.500000 0.593936 0.443083
O O2 0.265873 0.608926 0.516437
O O3 0.260279 0.560566 0.381977
O O4 0.312589 0.684544 0.400554
O O5 0.500000 0.635008 0.595441
O O6 0.285989 0.561996 0.647709
O O7 0.250081 0.685341 0.631263
O O8 0.750000 0.019132 0.750000
O O9 0.788270 0.063696 0.622169
O O10 0.000000 0.000342 0.688879
O O11 0.760997 0.940377 0.639816
O O12 0.500000 0.099548 0.082593
O O13 0.698494 0.185186 0.125483
O O14 0.731963 0.111014 0.007311
O O15 0.750000 0.477619 0.750000
O O16 0.000000 0.482709 0.815315
O O17 0.500000 0.860226 0.073970
O O18 0.757762 0.813134 0.106164
O O19 0.239770 0.250970 0.488531
O O20 0.000000 0.270737 0.415715
O O21 0.500000 0.231094 0.545654
#
# Coordination Sequence:
#
# PCOD8219959 Si02
#       8
#     8   8   8   8   8   8   8   8
#     4   8  15  30  52  73  92 122 161 196 233 280
#     4   9  17  31  52  74  95 123 160 200 240 283
#     4  10  20  34  50  69  96 128 162 199 239 285
#     4   8  15  30  52  73  92 122 161 196 233 280
#     4  10  20  34  50  69  96 128 162 199 239 285
#     4   9  17  31  52  74  95 123 160 200 240 283
#     4   9  16  28  49  75 100 123 154 198 243 286
#     4   9  16  28  49  75 100 123 154 198 243 286
#
# _framework density 18.177745999999999
#
# number of rings (size 3 to 8) (size 9 to 14) (size 15 to 20)
#    0.000    3.000    0.000    3.000    0.000    4.000 
#    0.000    7.500    0.000   13.500    0.000    0.000 
#    0.000    0.000    0.000    0.000    0.000    0.000 
#
# Total GULP energy -793035.676550 kJ/mol
# GULP energy per Si atom -12391.182446 kJ/mol
# Density = 1.813637 g / cm^3
# Si number density = 18.177746 Si / 1000 Ang^3
#
#
#
# Elastic Constant Matrix: (Units=GPa)
#
#
# Indices 1 2 3 4 5 6 
#
# 1 33.3110 30.2958 7.5049 0.0000 0.0000 0.0000
# 2 30.2958 99.3707 9.4052 0.0000 0.0000 0.0000
# 3 7.5049 9.4052 38.1401 0.0000 0.0000 0.0000
# 4 0.0000 0.0000 0.0000 6.7004 0.0000 0.0000
# 5 0.0000 0.0000 0.0000 0.0000 21.5490 0.0000
# 6 0.0000 0.0000 0.0000 0.0000 0.0000 28.8894
#
#
#
# Elastic Compliance Matrix: (Units=1/GPa)
#
#
# Indices 1 2 3 4 5 6 
#
# 1 0.042558 -0.012474 -0.005298 0.000000 0.000000 0.000000
# 2 -0.012474 0.013960 -0.000988 0.000000 0.000000 0.000000
# 3 -0.005298 -0.000988 0.027505 0.000000 0.000000 0.000000
# 4 0.000000 0.000000 0.000000 0.149245 0.000000 0.000000
# 5 0.000000 0.000000 0.000000 0.000000 0.046406 0.000000
# 6 0.000000 0.000000 0.000000 0.000000 0.000000 0.034615
#
#
# Mechanical properties :
#
#
# Convention : Reuss Voigt Hill
#
# Bulk Modulus (GPa) = 21.50370 29.47040 25.48705
# Shear Modulus (GPa) = 13.61247 19.66882 16.64065
#
# Velocity S-wave (km/s) = 2.73949 3.29299 3.02891
# Velocity P-wave (km/s) = 4.67566 5.54129 5.12678
#
# Compressibility (1/GPa) = 0.04650362
#
# Stress axis : x y z
#
# Youngs Moduli (GPa) = 23.49718 71.63464 36.35660
#
# Poissons Ratio (x) = 0.89354 0.19263
# Poissons Ratio (y) = 0.29309 0.03592
# Poissons Ratio (z) = 0.12450 0.07077
#
# Static dielectric constant tensor:
#      x y z
#    x 3.217970 0.000000 0.000000 
#    y 0.000000 4.111340 0.000000 
#    z 0.000000 0.000000 3.081320 
# 
# 
# High freq. dielectric constant tensor:
#      x y z
#    x 1.678210 0.000000 0.000000 
#    y 0.000000 1.730040 0.000000 
#    z 0.000000 0.000000 1.663100 
# 
# From -- ./inp_files/26931.got.cif
#   From: 2010.03.12/outbox.cif.g09.slc.cpg/sg53_14_cif.got.tgz:26931.got - 2010.04.16 14:36:59.
