data_PCOD8219680
_publ_section_title
;
Structure prediction by ZEFSAII (Michael W. Deem and Ramdas Pophale) SiO2 
 PCOD8219680
Probable space group: P M N A
;
_chemical_formula_sum "Si O2"
_cell_formula_units_Z 56
_cell_length_a 17.238493
_cell_length_b 13.577622
_cell_length_c 11.629628
_cell_angle_alpha 90.000000
_cell_angle_beta 90.000000
_cell_angle_gamma 90.000000
_cell_volume 2722.004468
_symmetry_space_group_name_H-M "P M N A"
_symmetry_group_IT_number 53
_symmetry_cell_setting 'orthorhombic'
loop_
_space_group_symop_operation_xyz
x,y,z
1/2-x,-y,1/2+z
x,-y,-z
1/2-x,y,1/2-z
-x,-y,-z
1/2+x,y,1/2-z
-x,y,z
1/2+x,-y,1/2+z
loop_
_atom_site_type_symbol
_atom_site_label
_atom_site_fract_x
_atom_site_fract_y
_atom_site_fract_z
Si Si1 0.336625 0.282747 0.560078
Si Si2 0.589473 0.257319 0.113683
Si Si3 0.167513 0.357400 0.187427
Si Si4 0.335727 0.314321 0.884476
Si Si5 0.838599 0.871424 0.236807
Si Si6 0.408609 0.963031 0.878384
Si Si7 0.909997 0.557841 0.199014
O O1 0.329072 0.285495 0.423085
O O2 0.257548 0.320728 0.621602
O O3 0.354195 0.171251 0.607062
O O4 0.403607 0.356284 0.603622
O O5 0.500000 0.255322 0.077013
O O6 0.600411 0.317299 0.230142
O O7 0.622425 0.147785 0.137091
O O8 0.637527 0.313346 0.015856
O O9 0.250000 0.357030 0.250000
O O10 0.140537 0.466374 0.152092
O O11 0.364838 0.213982 0.824840
O O12 0.374319 0.407612 0.821326
O O13 0.750000 0.901563 0.250000
O O14 0.885453 0.969819 0.268928
O O15 0.500000 0.963708 0.884599
O O16 0.373206 0.000000 0.000000
O O17 0.000000 0.529804 0.214810
#
# Coordination Sequence:
#
# PCOD8219680 Si02
#       7
#     8   8   8   8   8   8   8
#     4  10  22  41  64  88 120 168 212 252 305 375
#     4  11  23  38  61  91 124 157 202 257 313 373
#     4  12  24  41  61  85 123 170 211 254 312 369
#     4  10  19  40  63  90 122 154 206 259 313 364
#     4   9  19  36  61  93 121 153 203 256 298 362
#     4  10  20  36  61  92 122 154 196 250 309 365
#     4  11  24  39  62  92 123 159 206 261 317 377
#
# _framework density 20.573074999999999
#
# number of rings (size 3 to 8) (size 9 to 14) (size 15 to 20)
#    0.000    1.571    2.857    3.429    0.000    5.143 
#    0.000    2.143    0.000    1.714    0.000    0.000 
#    0.000    0.000    0.000    0.000    0.000    0.000 
#
# Total GULP energy -694405.809080 kJ/mol
# GULP energy per Si atom -12400.103734 kJ/mol
# Density = 2.052625 g / cm^3
# Si number density = 20.573075 Si / 1000 Ang^3
#
#
#
# Elastic Constant Matrix: (Units=GPa)
#
#
# Indices 1 2 3 4 5 6 
#
# 1 54.0121 12.4781 19.9346 0.0000 0.0000 0.0000
# 2 12.4781 65.4047 20.7908 0.0000 0.0000 0.0000
# 3 19.9346 20.7908 104.8974 0.0000 0.0000 0.0000
# 4 0.0000 0.0000 0.0000 33.2085 0.0000 0.0000
# 5 0.0000 0.0000 0.0000 0.0000 28.5772 0.0000
# 6 0.0000 0.0000 0.0000 0.0000 0.0000 29.6088
#
#
#
# Elastic Compliance Matrix: (Units=1/GPa)
#
#
# Indices 1 2 3 4 5 6 
#
# 1 0.020393 -0.002837 -0.003313 0.000000 0.000000 0.000000
# 2 -0.002837 0.016712 -0.002773 0.000000 0.000000 0.000000
# 3 -0.003313 -0.002773 0.010712 0.000000 0.000000 0.000000
# 4 0.000000 0.000000 0.000000 0.030113 0.000000 0.000000
# 5 0.000000 0.000000 0.000000 0.000000 0.034993 0.000000
# 6 0.000000 0.000000 0.000000 0.000000 0.000000 0.033774
#
#
# Mechanical properties :
#
#
# Convention : Reuss Voigt Hill
#
# Bulk Modulus (GPa) = 33.36663 36.74680 35.05672
# Shear Modulus (GPa) = 28.64770 29.68627 29.16699
#
# Velocity S-wave (km/s) = 3.73565 3.80276 3.76936
# Velocity P-wave (km/s) = 5.90428 6.09768 6.00176
#
# Compressibility (1/GPa) = 0.02997006
#
# Stress axis : x y z
#
# Youngs Moduli (GPa) = 49.03727 59.83619 93.35002
#
# Poissons Ratio (x) = 0.16978 0.30927
# Poissons Ratio (y) = 0.13914 0.25888
# Poissons Ratio (z) = 0.16246 0.16594
#
# Static dielectric constant tensor:
#      x y z
#    x 3.513350 0.000000 0.000000 
#    y 0.000000 3.703910 0.000000 
#    z 0.000000 0.000000 3.693300 
# 
# 
# High freq. dielectric constant tensor:
#      x y z
#    x 1.797030 0.000000 0.000000 
#    y 0.000000 1.795240 0.000000 
#    z 0.000000 0.000000 1.799090 
# 
# From -- ./inp_files/16027.got.cif
#   From: 2010.03.12/outbox.cif.g09.slc.cpg/sg53_9_cif.got.tgz:16027.got - 2010.04.16 14:36:59.
