data_PCOD8219093
_publ_section_title
;
Structure prediction by ZEFSAII (Michael W. Deem and Ramdas Pophale) SiO2 
 PCOD8219093
Probable space group: P M N A
;
_chemical_formula_sum "Si O2"
_cell_formula_units_Z 64
_cell_length_a 9.146057
_cell_length_b 21.655169
_cell_length_c 18.047183
_cell_angle_alpha 90.000000
_cell_angle_beta 90.000000
_cell_angle_gamma 90.000000
_cell_volume 3574.414417
_symmetry_space_group_name_H-M "P M N A"
_symmetry_group_IT_number 53
_symmetry_cell_setting 'orthorhombic'
loop_
_space_group_symop_operation_xyz
x,y,z
1/2-x,-y,1/2+z
x,-y,-z
1/2-x,y,1/2-z
-x,-y,-z
1/2+x,y,1/2-z
-x,y,z
1/2+x,-y,1/2+z
loop_
_atom_site_type_symbol
_atom_site_label
_atom_site_fract_x
_atom_site_fract_y
_atom_site_fract_z
Si Si1 0.826954 0.007649 0.828175
Si Si2 0.173417 0.237172 0.171918
Si Si3 0.327115 0.628217 0.174541
Si Si4 0.830999 0.313493 0.445595
Si Si5 0.327488 0.874260 0.422908
Si Si6 0.673240 0.114057 0.410885
Si Si7 0.826388 0.565127 0.473035
Si Si8 0.832248 0.246927 0.598351
O O1 0.750000 0.012181 0.750000
O O2 0.767592 0.947271 0.870845
O O3 0.000000 0.004457 0.816342
O O4 0.779835 0.066635 0.875907
O O5 0.250000 0.243981 0.250000
O O6 0.226881 0.293528 0.121196
O O7 0.226215 0.173043 0.135587
O O8 0.000000 0.240242 0.181235
O O9 0.250000 0.607936 0.250000
O O10 0.500000 0.622976 0.184311
O O11 0.271131 0.582256 0.109561
O O12 0.282665 0.698170 0.153126
O O13 0.780036 0.382085 0.468843
O O14 0.807156 0.267421 0.513960
O O15 0.000000 0.312804 0.420188
O O16 0.500000 0.866354 0.424944
O O17 0.263299 0.882381 0.505870
O O18 0.262426 0.813447 0.384197
O O19 0.500000 0.111470 0.415441
O O20 0.758728 0.500000 0.500000
O O21 0.000000 0.562150 0.470316
O O22 0.000000 0.230222 0.612527
#
# Coordination Sequence:
#
# PCOD8219093 Si02
#       8
#     8   8   8   8   8   8   8   8
#     4  10  21  36  52  70  98 131 165 210 257 306
#     4  11  21  33  52  77 104 133 169 211 258 308
#     4   9  18  32  51  77 106 137 172 210 253 299
#     4   9  17  32  53  76 102 132 168 208 250 298
#     4  10  19  33  54  76  96 127 170 211 254 302
#     4   9  18  34  54  74  95 127 170 211 253 303
#     4   8  15  31  56  80 103 138 178 211 250 302
#     4   9  18  32  50  73 102 132 164 205 252 301
#
# _framework density 17.905031000000001
#
# number of rings (size 3 to 8) (size 9 to 14) (size 15 to 20)
#    0.000    2.625    1.250    2.625    0.000    3.000 
#    0.000    6.250    0.000    4.500    0.000    0.000 
#    0.000    0.000    0.000    0.000    0.000    0.000 
#
# Total GULP energy -793576.416343 kJ/mol
# GULP energy per Si atom -12399.631505 kJ/mol
# Density = 1.786428 g / cm^3
# Si number density = 17.905031 Si / 1000 Ang^3
#
#
#
# Elastic Constant Matrix: (Units=GPa)
#
#
# Indices 1 2 3 4 5 6 
#
# 1 30.2175 38.3129 29.9939 0.0000 0.0000 0.0000
# 2 38.3129 152.1227 76.5789 0.0000 0.0000 0.0000
# 3 29.9939 76.5789 119.8970 0.0000 0.0000 0.0000
# 4 0.0000 0.0000 0.0000 23.4310 0.0000 0.0000
# 5 0.0000 0.0000 0.0000 0.0000 30.1836 0.0000
# 6 0.0000 0.0000 0.0000 0.0000 0.0000 19.5655
#
#
#
# Elastic Compliance Matrix: (Units=1/GPa)
#
#
# Indices 1 2 3 4 5 6 
#
# 1 0.052195 -0.009687 -0.006870 0.000000 0.000000 0.000000
# 2 -0.009687 0.011487 -0.004913 0.000000 0.000000 0.000000
# 3 -0.006870 -0.004913 0.013197 0.000000 0.000000 0.000000
# 4 0.000000 0.000000 0.000000 0.042679 0.000000 0.000000
# 5 0.000000 0.000000 0.000000 0.000000 0.033131 0.000000
# 6 0.000000 0.000000 0.000000 0.000000 0.000000 0.051110
#
#
# Mechanical properties :
#
#
# Convention : Reuss Voigt Hill
#
# Bulk Modulus (GPa) = 29.46551 65.77872 47.62212
# Shear Modulus (GPa) = 19.37594 25.12612 22.25103
#
# Velocity S-wave (km/s) = 3.29317 3.75013 3.52905
# Velocity P-wave (km/s) = 5.56348 7.45443 6.57727
#
# Compressibility (1/GPa) = 0.03393799
#
# Stress axis : x y z
#
# Youngs Moduli (GPa) = 19.15895 87.05673 75.77335
#
# Poissons Ratio (x) = 0.84333 0.52056
# Poissons Ratio (y) = 0.18560 0.37230
# Poissons Ratio (z) = 0.13162 0.42773
#
# Static dielectric constant tensor:
#      x y z
#    x 2.976070 0.000000 0.000000 
#    y 0.000000 3.534180 0.000000 
#    z 0.000000 0.000000 3.354900 
# 
# 
# High freq. dielectric constant tensor:
#      x y z
#    x 1.663070 0.000000 0.000000 
#    y 0.000000 1.695380 0.000000 
#    z 0.000000 0.000000 1.695160 
# 
# From -- ./inp_files/26965.got.cif
#   From: 2010.03.12/outbox.cif.g09.slc.cpg/sg53_14_cif.got.tgz:26965.got - 2010.04.16 14:36:59.
