data_PCOD8219088
_publ_section_title
;
Structure prediction by ZEFSAII (Michael W. Deem and Ramdas Pophale) SiO2 
 PCOD8219088
Probable space group: P M N A
;
_chemical_formula_sum "Si O2"
_cell_formula_units_Z 48
_cell_length_a 14.181887
_cell_length_b 18.370318
_cell_length_c 8.585661
_cell_angle_alpha 90.000000
_cell_angle_beta 90.000000
_cell_angle_gamma 90.000000
_cell_volume 2236.785978
_symmetry_space_group_name_H-M "P M N A"
_symmetry_group_IT_number 53
_symmetry_cell_setting 'orthorhombic'
loop_
_space_group_symop_operation_xyz
x,y,z
1/2-x,-y,1/2+z
x,-y,-z
1/2-x,y,1/2-z
-x,-y,-z
1/2+x,y,1/2-z
-x,y,z
1/2+x,-y,1/2+z
loop_
_atom_site_type_symbol
_atom_site_label
_atom_site_fract_x
_atom_site_fract_y
_atom_site_fract_z
Si Si1 0.389808 0.922729 0.929622
Si Si2 0.389631 0.925073 0.571210
Si Si3 0.889056 0.404215 0.695888
Si Si4 0.225615 0.652320 0.013051
Si Si5 0.254158 0.813962 0.432095
Si Si6 0.603857 0.548661 0.653929
O O1 0.500000 0.910158 0.952762
O O2 0.358892 0.921380 0.750280
O O3 0.339178 0.856880 0.017068
O O4 0.358269 0.000000 0.000000
O O5 0.500000 0.919101 0.549112
O O6 0.346327 0.859568 0.473875
O O7 0.350713 0.000000 0.500000
O O8 0.846164 0.360859 0.843212
O O9 0.830447 0.379744 0.544043
O O10 0.872716 0.491538 0.708287
O O11 0.000000 0.385129 0.679010
O O12 0.237210 0.737560 0.977725
O O13 0.180894 0.613068 0.860422
O O14 0.250000 0.797636 0.250000
O O15 0.603165 0.500000 0.500000
O O16 0.500000 0.583385 0.679805
#
# Coordination Sequence:
#
# PCOD8219088 Si02
#       6
#     8   8   8   8   8   8
#     4  10  22  42  66  89 120 164 207 252 303 358
#     4  10  22  41  65  90 118 159 208 254 300 361
#     4   9  17  33  56  81 109 147 195 245 295 356
#     4  10  19  33  53  86 115 152 197 245 312 362
#     4  12  23  36  56  93 128 164 199 247 313 368
#     4   8  15  30  56  79 102 142 193 242 287 343
#
# _framework density 21.459361999999999
#
# number of rings (size 3 to 8) (size 9 to 14) (size 15 to 20)
#    0.000    2.167    1.667    3.500    0.000    4.000 
#    0.000    0.000   22.000   13.500    0.000    0.000 
#    0.000    0.000    0.000    0.000    0.000    0.000 
#
# Total GULP energy -595170.445030 kJ/mol
# GULP energy per Si atom -12399.384271 kJ/mol
# Density = 2.141052 g / cm^3
# Si number density = 21.459362 Si / 1000 Ang^3
#
#
#
# Elastic Constant Matrix: (Units=GPa)
#
#
# Indices 1 2 3 4 5 6 
#
# 1 132.2469 67.9935 19.8644 0.0000 0.0000 0.0000
# 2 67.9935 176.2829 31.4280 0.0000 0.0000 0.0000
# 3 19.8644 31.4280 37.4727 0.0000 0.0000 0.0000
# 4 0.0000 0.0000 0.0000 23.8188 0.0000 0.0000
# 5 0.0000 0.0000 0.0000 0.0000 16.5252 0.0000
# 6 0.0000 0.0000 0.0000 0.0000 0.0000 36.8614
#
#
#
# Elastic Compliance Matrix: (Units=1/GPa)
#
#
# Indices 1 2 3 4 5 6 
#
# 1 0.009602 -0.003288 -0.002333 0.000000 0.000000 0.000000
# 2 -0.003288 0.007796 -0.004795 0.000000 0.000000 0.000000
# 3 -0.002333 -0.004795 0.031945 0.000000 0.000000 0.000000
# 4 0.000000 0.000000 0.000000 0.041984 0.000000 0.000000
# 5 0.000000 0.000000 0.000000 0.000000 0.060514 0.000000
# 6 0.000000 0.000000 0.000000 0.000000 0.000000 0.027129
#
#
# Mechanical properties :
#
#
# Convention : Reuss Voigt Hill
#
# Bulk Modulus (GPa) = 35.07445 64.95272 50.01359
# Shear Modulus (GPa) = 23.88867 30.55552 27.22210
#
# Velocity S-wave (km/s) = 3.34009 3.77752 3.56552
# Velocity P-wave (km/s) = 5.59062 7.02565 6.34881
#
# Compressibility (1/GPa) = 0.02851078
#
# Stress axis : x y z
#
# Youngs Moduli (GPa) = 104.14040 128.27484 31.30420
#
# Poissons Ratio (x) = 0.42174 0.07303
# Poissons Ratio (y) = 0.34239 0.15011
# Poissons Ratio (z) = 0.24294 0.61512
#
# Static dielectric constant tensor:
#      x y z
#    x 3.976230 0.000000 0.000000 
#    y 0.000000 3.866790 0.000000 
#    z 0.000000 0.000000 3.758370 
# 
# 
# High freq. dielectric constant tensor:
#      x y z
#    x 1.856980 0.000000 0.000000 
#    y 0.000000 1.833170 0.000000 
#    z 0.000000 0.000000 1.825350 
# 
# From -- ./inp_files/8691.got.cif
#   From: 2010.03.12/outbox.cif.g09.slc.cpg/sg53_5_cif.got.tgz:8691.got - 2010.04.16 14:36:59.
