data_PCOD8219192
_publ_section_title
;
Structure prediction by ZEFSAII (Michael W. Deem and Ramdas Pophale) SiO2 
 PCOD8219192
Probable space group: P M N A
;
_chemical_formula_sum "Si O2"
_cell_formula_units_Z 40
_cell_length_a 9.418857
_cell_length_b 14.103198
_cell_length_c 14.529491
_cell_angle_alpha 90.000000
_cell_angle_beta 90.000000
_cell_angle_gamma 90.000000
_cell_volume 1930.039542
_symmetry_space_group_name_H-M "P M N A"
_symmetry_group_IT_number 53
_symmetry_cell_setting 'orthorhombic'
loop_
_space_group_symop_operation_xyz
x,y,z
1/2-x,-y,1/2+z
x,-y,-z
1/2-x,y,1/2-z
-x,-y,-z
1/2+x,y,1/2-z
-x,y,z
1/2+x,-y,1/2+z
loop_
_atom_site_type_symbol
_atom_site_label
_atom_site_fract_x
_atom_site_fract_y
_atom_site_fract_z
Si Si1 0.846622 0.369425 0.826154
Si Si2 0.831974 0.241606 0.345643
Si Si3 0.165807 0.890924 0.978413
Si Si4 0.842137 0.387579 0.503239
Si Si5 0.847803 0.157716 0.825030
O O1 0.750000 0.424413 0.750000
O O2 0.872523 0.263819 0.788266
O O3 0.000000 0.421436 0.834915
O O4 0.774825 0.357174 0.924260
O O5 0.750000 0.257104 0.250000
O O6 0.764012 0.150167 0.397024
O O7 0.806896 0.337123 0.406028
O O8 0.000000 0.223861 0.328949
O O9 0.000000 0.872592 0.954393
O O10 0.215065 0.838746 0.072184
O O11 0.197666 0.000000 0.000000
O O12 0.833867 0.500000 0.500000
O O13 0.000000 0.356299 0.535442
O O14 0.750000 0.103476 0.750000
O O15 0.000000 0.103409 0.828326
#
# Coordination Sequence:
#
# PCOD8219192 Si02
#       5
#     8   8   8   8   8
#     4  10  19  33  56  84 114 148 187 236 293 355
#     4  11  24  42  65  89 123 168 210 259 312 372
#     4  10  21  39  62  89 123 160 202 253 305 363
#     4  10  22  40  61  88 121 158 204 255 307 366
#     4   9  18  32  53  81 111 145 183 230 286 347
#
# _framework density 20.724962000000001
#
# number of rings (size 3 to 8) (size 9 to 14) (size 15 to 20)
#    0.000    2.000    2.000    1.200    0.000    4.800 
#    0.000    4.000    0.000    0.000    0.000    0.000 
#    0.000    0.000    0.000    0.000    0.000    0.000 
#
# Total GULP energy -495589.638589 kJ/mol
# GULP energy per Si atom -12389.740965 kJ/mol
# Density = 2.067779 g / cm^3
# Si number density = 20.724962 Si / 1000 Ang^3
#
#
#
# Elastic Constant Matrix: (Units=GPa)
#
#
# Indices 1 2 3 4 5 6 
#
# 1 167.6022 36.5524 102.8484 0.0000 0.0000 0.0000
# 2 36.5524 71.3703 27.9993 0.0000 0.0000 0.0000
# 3 102.8484 27.9993 157.4937 0.0000 0.0000 0.0000
# 4 0.0000 0.0000 0.0000 10.5879 0.0000 0.0000
# 5 0.0000 0.0000 0.0000 0.0000 42.9578 0.0000
# 6 0.0000 0.0000 0.0000 0.0000 0.0000 35.3507
#
#
#
# Elastic Compliance Matrix: (Units=1/GPa)
#
#
# Indices 1 2 3 4 5 6 
#
# 1 0.010481 -0.002884 -0.006332 0.000000 0.000000 0.000000
# 2 -0.002884 0.015855 -0.000936 0.000000 0.000000 0.000000
# 3 -0.006332 -0.000936 0.010651 0.000000 0.000000 0.000000
# 4 0.000000 0.000000 0.000000 0.094448 0.000000 0.000000
# 5 0.000000 0.000000 0.000000 0.000000 0.023279 0.000000
# 6 0.000000 0.000000 0.000000 0.000000 0.000000 0.028288
#
#
# Mechanical properties :
#
#
# Convention : Reuss Voigt Hill
#
# Bulk Modulus (GPa) = 59.93486 81.25181 70.59334
# Shear Modulus (GPa) = 23.93896 33.05038 28.49467
#
# Velocity S-wave (km/s) = 3.40233 3.99772 3.71198
# Velocity P-wave (km/s) = 6.66457 7.78453 7.24622
#
# Compressibility (1/GPa) = 0.01668478
#
# Stress axis : x y z
#
# Youngs Moduli (GPa) = 95.41258 63.06997 93.89209
#
# Poissons Ratio (x) = 0.18188 0.59449
# Poissons Ratio (y) = 0.27515 0.08784
# Poissons Ratio (z) = 0.60412 0.05901
#
# Static dielectric constant tensor:
#      x y z
#    x 4.301340 0.000000 0.000000 
#    y 0.000000 3.651550 0.000000 
#    z 0.000000 0.000000 3.727340 
# 
# 
# High freq. dielectric constant tensor:
#      x y z
#    x 1.822470 0.000000 0.000000 
#    y 0.000000 1.779450 0.000000 
#    z 0.000000 0.000000 1.813370 
# 
# From -- ./inp_files/19874.got.cif
#   From: 2010.03.12/outbox.cif.g09.slc.cpg/sg53_10_cif.got.tgz:19874.got - 2010.04.16 14:36:59.
