data_PCOD8219486
_publ_section_title
;
Structure prediction by ZEFSAII (Michael W. Deem and Ramdas Pophale) SiO2 
 PCOD8219486
Probable space group: P M N A
;
_chemical_formula_sum "Si O2"
_cell_formula_units_Z 64
_cell_length_a 8.867437
_cell_length_b 19.655434
_cell_length_c 19.926131
_cell_angle_alpha 90.000000
_cell_angle_beta 90.000000
_cell_angle_gamma 90.000000
_cell_volume 3472.991581
_symmetry_space_group_name_H-M "P M N A"
_symmetry_group_IT_number 53
_symmetry_cell_setting 'orthorhombic'
loop_
_space_group_symop_operation_xyz
x,y,z
1/2-x,-y,1/2+z
x,-y,-z
1/2-x,y,1/2-z
-x,-y,-z
1/2+x,y,1/2-z
-x,y,z
1/2+x,-y,1/2+z
loop_
_atom_site_type_symbol
_atom_site_label
_atom_site_fract_x
_atom_site_fract_y
_atom_site_fract_z
Si Si1 0.674855 0.560409 0.318619
Si Si2 0.173527 0.201405 0.896611
Si Si3 0.823505 0.401861 0.180640
Si Si4 0.176597 0.828926 0.951552
Si Si5 0.822204 0.310464 0.431482
Si Si6 0.324417 0.662455 0.084362
Si Si7 0.322693 0.066837 0.678874
Si Si8 0.321612 0.030863 0.071008
O O1 0.750000 0.586815 0.250000
O O2 0.500000 0.576298 0.312688
O O3 0.708507 0.481294 0.329814
O O4 0.740402 0.599142 0.382639
O O5 0.274265 0.267151 0.880608
O O6 0.213099 0.144229 0.842256
O O7 0.000000 0.224048 0.893339
O O8 0.212481 0.171095 0.969419
O O9 0.750000 0.376368 0.250000
O O10 0.743537 0.364853 0.119468
O O11 0.000000 0.384863 0.181764
O O12 0.245230 0.761971 0.916998
O O13 0.256965 0.893751 0.919316
O O14 0.000000 0.832122 0.936262
O O15 0.780911 0.336091 0.506036
O O16 0.000000 0.302963 0.421862
O O17 0.500000 0.652587 0.095991
O O18 0.250000 0.052609 0.750000
O O19 0.500000 0.053201 0.680781
O O20 0.247908 0.015365 0.627920
O O21 0.500000 0.032881 0.078381
O O22 0.270529 0.000000 0.000000
#
# Coordination Sequence:
#
# PCOD8219486 Si02
#       8
#     8   8   8   8   8   8   8   8
#     4  10  21  37  57  80 110 147 191 236 282 339
#     4   9  19  35  55  78 109 148 187 228 276 331
#     4  10  21  38  60  84 110 147 190 235 286 342
#     4  10  19  35  59  85 112 145 188 233 277 331
#     4  10  21  37  57  85 118 150 186 233 283 336
#     4  10  21  35  55  83 116 151 188 232 281 331
#     4  11  23  39  57  82 115 151 191 235 285 337
#     4  11  22  36  59  87 114 148 189 233 280 336
#
# _framework density 18.427917999999998
#
# number of rings (size 3 to 8) (size 9 to 14) (size 15 to 20)
#    0.000    1.875    1.250    2.625    0.000    6.000 
#    0.000    4.375    0.000    0.000    0.000    0.000 
#    0.000    0.000    0.000    0.000    0.000    0.000 
#
# Total GULP energy -793927.836145 kJ/mol
# GULP energy per Si atom -12405.122440 kJ/mol
# Density = 1.838598 g / cm^3
# Si number density = 18.427918 Si / 1000 Ang^3
#
#
#
# Elastic Constant Matrix: (Units=GPa)
#
#
# Indices 1 2 3 4 5 6 
#
# 1 102.8701 61.2705 61.3583 0.0000 0.0000 0.0000
# 2 61.2705 95.9588 64.8740 0.0000 0.0000 0.0000
# 3 61.3583 64.8740 112.6410 0.0000 0.0000 0.0000
# 4 0.0000 0.0000 0.0000 27.2458 0.0000 0.0000
# 5 0.0000 0.0000 0.0000 0.0000 32.5790 0.0000
# 6 0.0000 0.0000 0.0000 0.0000 0.0000 34.9395
#
#
#
# Elastic Compliance Matrix: (Units=1/GPa)
#
#
# Indices 1 2 3 4 5 6 
#
# 1 0.017250 -0.007634 -0.005000 0.000000 0.000000 0.000000
# 2 -0.007634 0.020445 -0.007616 0.000000 0.000000 0.000000
# 3 -0.005000 -0.007616 0.015988 0.000000 0.000000 0.000000
# 4 0.000000 0.000000 0.000000 0.036703 0.000000 0.000000
# 5 0.000000 0.000000 0.000000 0.000000 0.030695 0.000000
# 6 0.000000 0.000000 0.000000 0.000000 0.000000 0.028621
#
#
# Mechanical properties :
#
#
# Convention : Reuss Voigt Hill
#
# Bulk Modulus (GPa) = 75.86059 76.27504 76.06782
# Shear Modulus (GPa) = 25.69429 27.21735 26.45582
#
# Velocity S-wave (km/s) = 3.73810 3.84730 3.79309
# Velocity P-wave (km/s) = 7.73865 7.82410 7.78149
#
# Compressibility (1/GPa) = 0.01318208
#
# Stress axis : x y z
#
# Youngs Moduli (GPa) = 57.97032 48.91227 62.54777
#
# Poissons Ratio (x) = 0.37341 0.31272
# Poissons Ratio (y) = 0.44256 0.47638
# Poissons Ratio (z) = 0.28984 0.37253
#
# Static dielectric constant tensor:
#      x y z
#    x 3.521570 0.000000 0.000000 
#    y 0.000000 3.424520 0.000000 
#    z 0.000000 0.000000 3.373930 
# 
# 
# High freq. dielectric constant tensor:
#      x y z
#    x 1.731320 0.000000 0.000000 
#    y 0.000000 1.719640 0.000000 
#    z 0.000000 0.000000 1.704640 
# 
# From -- ./inp_files/31186.got.cif
#   From: 2010.03.12/outbox.cif.g09.slc.cpg/sg53_16_cif.got.tgz:31186.got - 2010.04.16 14:36:59.
