data_PCOD8219374
_publ_section_title
;
Structure prediction by ZEFSAII (Michael W. Deem and Ramdas Pophale) SiO2 
 PCOD8219374
Probable space group: P M N A
;
_chemical_formula_sum "Si O2"
_cell_formula_units_Z 56
_cell_length_a 14.742167
_cell_length_b 9.579953
_cell_length_c 19.902267
_cell_angle_alpha 90.000000
_cell_angle_beta 90.000000
_cell_angle_gamma 90.000000
_cell_volume 2810.782580
_symmetry_space_group_name_H-M "P M N A"
_symmetry_group_IT_number 53
_symmetry_cell_setting 'orthorhombic'
loop_
_space_group_symop_operation_xyz
x,y,z
1/2-x,-y,1/2+z
x,-y,-z
1/2-x,y,1/2-z
-x,-y,-z
1/2+x,y,1/2-z
-x,y,z
1/2+x,-y,1/2+z
loop_
_atom_site_type_symbol
_atom_site_label
_atom_site_fract_x
_atom_site_fract_y
_atom_site_fract_z
Si Si1 0.102729 0.480965 0.659071
Si Si2 0.390897 0.086316 0.273438
Si Si3 0.207450 0.258821 0.578540
Si Si4 0.313536 0.692314 0.931177
Si Si5 0.275444 0.968829 0.854537
Si Si6 0.101334 0.601639 0.792440
Si Si7 0.651922 0.475384 0.570871
O O1 0.156635 0.347331 0.634533
O O2 0.106687 0.620920 0.612522
O O3 0.148553 0.515629 0.732003
O O4 0.000000 0.431709 0.665355
O O5 0.500000 0.056591 0.282578
O O6 0.324317 0.998602 0.322536
O O7 0.358190 0.050775 0.198316
O O8 0.359314 0.242406 0.295524
O O9 0.155504 0.277092 0.507339
O O10 0.311923 0.315384 0.574424
O O11 0.203214 0.097962 0.597639
O O12 0.273080 0.832276 0.900233
O O13 0.238263 0.573952 0.931845
O O14 0.097047 0.517870 0.862709
O O15 0.000000 0.623936 0.766261
O O16 0.597005 0.500000 0.500000
#
# Coordination Sequence:
#
# PCOD8219374 Si02
#       7
#     8   8   8   8   8   8   8
#     4  10  21  37  58  85 117 153 195 245 298 353
#     4  10  22  38  59  88 115 150 202 248 294 353
#     4  10  23  35  53  85 119 149 191 240 297 352
#     4  10  19  36  58  80 111 154 200 236 280 357
#     4  11  21  37  62  85 115 159 193 245 298 344
#     4  10  19  34  59  83 108 147 194 243 287 345
#     4   9  19  36  56  82 111 144 186 237 287 348
#
# _framework density 19.923276999999999
#
# number of rings (size 3 to 8) (size 9 to 14) (size 15 to 20)
#    0.000    2.000    2.857    1.714    0.000    6.571 
#    0.000    2.143    0.000    5.143    0.000    0.000 
#    0.000    0.000    0.000    0.000    0.000    0.000 
#
# Total GULP energy -693757.237835 kJ/mol
# GULP energy per Si atom -12388.522104 kJ/mol
# Density = 1.987793 g / cm^3
# Si number density = 19.923277 Si / 1000 Ang^3
#
#
#
# Elastic Constant Matrix: (Units=GPa)
#
#
# Indices 1 2 3 4 5 6 
#
# 1 66.3208 4.6348 12.4293 0.0000 0.0000 0.0000
# 2 4.6348 72.6997 21.9139 0.0000 0.0000 0.0000
# 3 12.4293 21.9139 125.3276 0.0000 0.0000 0.0000
# 4 0.0000 0.0000 0.0000 34.4442 0.0000 0.0000
# 5 0.0000 0.0000 0.0000 0.0000 -15.0094 0.0000
# 6 0.0000 0.0000 0.0000 0.0000 0.0000 16.4204
#
#
#
# Elastic Compliance Matrix: (Units=1/GPa)
#
#
# Indices 1 2 3 4 5 6 
#
# 1 0.015385 -0.000550 -0.001430 0.000000 0.000000 0.000000
# 2 -0.000550 0.014540 -0.002488 0.000000 0.000000 0.000000
# 3 -0.001430 -0.002488 0.008556 0.000000 0.000000 0.000000
# 4 0.000000 0.000000 0.000000 0.029032 0.000000 0.000000
# 5 0.000000 0.000000 0.000000 0.000000 -0.066625 0.000000
# 6 0.000000 0.000000 0.000000 0.000000 0.000000 0.060900
#
#
# Mechanical properties :
#
#
# Convention : Reuss Voigt Hill
#
# Bulk Modulus (GPa) = 33.84558 38.03378 35.93968
# Shear Modulus (GPa) = 62.05669 22.19570 42.12620
#
# Velocity S-wave (km/s) = 5.58708 3.34137 4.60327
# Velocity P-wave (km/s) = 7.65803 5.83249 6.80674
#
# Compressibility (1/GPa) = 0.02954595
#
# Stress axis : x y z
#
# Youngs Moduli (GPa) = 65.00013 68.77493 116.87869
#
# Poissons Ratio (x) = 0.03782 0.16709
# Poissons Ratio (y) = 0.03574 0.29078
# Poissons Ratio (z) = 0.09293 0.17110
#
# Static dielectric constant tensor:
#      x y z
#    x 3.382430 0.000000 0.000000 
#    y 0.000000 3.546300 0.000000 
#    z 0.000000 0.000000 4.169920 
# 
# 
# High freq. dielectric constant tensor:
#      x y z
#    x 1.751170 0.000000 0.000000 
#    y 0.000000 1.765670 0.000000 
#    z 0.000000 0.000000 1.794040 
# 
# From -- ./inp_files/32485.got.cif
#   From: 2010.03.12/outbox.cif.g09.slc.cpg/sg53_17_cif.got.tgz:32485.got - 2010.04.16 14:36:59.
