data_PCOD8219364
_publ_section_title
;
Structure prediction by ZEFSAII (Michael W. Deem and Ramdas Pophale) SiO2 
 PCOD8219364
Probable space group: P M N A
;
_chemical_formula_sum "Si O2"
_cell_formula_units_Z 64
_cell_length_a 8.735669
_cell_length_b 19.838409
_cell_length_c 19.934846
_cell_angle_alpha 90.000000
_cell_angle_beta 90.000000
_cell_angle_gamma 90.000000
_cell_volume 3454.744186
_symmetry_space_group_name_H-M "P M N A"
_symmetry_group_IT_number 53
_symmetry_cell_setting 'orthorhombic'
loop_
_space_group_symop_operation_xyz
x,y,z
1/2-x,-y,1/2+z
x,-y,-z
1/2-x,y,1/2-z
-x,-y,-z
1/2+x,y,1/2-z
-x,y,z
1/2+x,-y,1/2+z
loop_
_atom_site_type_symbol
_atom_site_label
_atom_site_fract_x
_atom_site_fract_y
_atom_site_fract_z
Si Si1 0.678665 0.806275 0.434202
Si Si2 0.180827 0.944371 0.679663
Si Si3 0.319722 0.566653 0.821105
Si Si4 0.822961 0.698901 0.605395
Si Si5 0.679334 0.470249 0.571085
Si Si6 0.823673 0.668166 0.452278
Si Si7 0.818826 0.088799 0.820048
Si Si8 0.177967 0.836191 0.914262
O O1 0.500000 0.789091 0.431150
O O2 0.770848 0.738108 0.418906
O O3 0.728197 0.859968 0.378510
O O4 0.721529 0.836037 0.507127
O O5 0.250000 0.918077 0.750000
O O6 0.223140 0.894065 0.620097
O O7 0.000000 0.949795 0.687136
O O8 0.248500 0.016925 0.660901
O O9 0.250000 0.549120 0.750000
O O10 0.500000 0.564333 0.816918
O O11 0.266139 0.641098 0.843993
O O12 0.266688 0.510004 0.871895
O O13 0.794534 0.670412 0.531433
O O14 0.720428 0.764532 0.618880
O O15 0.000000 0.718384 0.616005
O O16 0.733725 0.500000 0.500000
O O17 0.500000 0.479407 0.581558
O O18 0.723290 0.392042 0.577733
O O19 0.000000 0.655345 0.434730
O O20 0.750000 0.115622 0.750000
O O21 0.000000 0.081406 0.813167
O O22 0.000000 0.850900 0.902395
#
# Coordination Sequence:
#
# PCOD8219364 Si02
#       8
#     8   8   8   8   8   8   8   8
#     4   9  20  37  57  83 115 148 183 229 281 337
#     4  11  22  37  56  79 109 145 188 232 277 333
#     4  11  23  39  57  81 116 150 188 233 284 337
#     4   9  19  35  54  78 110 147 183 225 276 332
#     4  11  22  36  59  86 112 147 191 234 279 336
#     4  10  19  34  58  85 112 143 185 233 279 329
#     4  10  20  37  59  82 110 145 187 231 279 335
#     4  10  20  35  56  82 113 148 185 228 277 329
#
# _framework density 18.52525
#
# number of rings (size 3 to 8) (size 9 to 14) (size 15 to 20)
#    0.000    1.875    1.250    3.750    0.000    4.500 
#    0.000    4.375    0.000    1.500    0.000    0.000 
#    0.000    0.000    0.000    0.000    0.000    0.000 
#
# Total GULP energy -793884.939009 kJ/mol
# GULP energy per Si atom -12404.452172 kJ/mol
# Density = 1.848309 g / cm^3
# Si number density = 18.525250 Si / 1000 Ang^3
#
#
#
# Elastic Constant Matrix: (Units=GPa)
#
#
# Indices 1 2 3 4 5 6 
#
# 1 74.7360 45.1299 33.5736 0.0000 0.0000 0.0000
# 2 45.1299 116.8514 67.9470 0.0000 0.0000 0.0000
# 3 33.5736 67.9470 98.0852 0.0000 0.0000 0.0000
# 4 0.0000 0.0000 0.0000 31.9881 0.0000 0.0000
# 5 0.0000 0.0000 0.0000 0.0000 28.5642 0.0000
# 6 0.0000 0.0000 0.0000 0.0000 0.0000 35.7250
#
#
#
# Elastic Compliance Matrix: (Units=1/GPa)
#
#
# Indices 1 2 3 4 5 6 
#
# 1 0.017734 -0.005559 -0.002220 0.000000 0.000000 0.000000
# 2 -0.005559 0.016073 -0.009231 0.000000 0.000000 0.000000
# 3 -0.002220 -0.009231 0.017350 0.000000 0.000000 0.000000
# 4 0.000000 0.000000 0.000000 0.031262 0.000000 0.000000
# 5 0.000000 0.000000 0.000000 0.000000 0.035009 0.000000
# 6 0.000000 0.000000 0.000000 0.000000 0.000000 0.027992
#
#
# Mechanical properties :
#
#
# Convention : Reuss Voigt Hill
#
# Bulk Modulus (GPa) = 58.35169 64.77484 61.56327
# Shear Modulus (GPa) = 27.00510 28.79026 27.89768
#
# Velocity S-wave (km/s) = 3.82219 3.94650 3.88484
# Velocity P-wave (km/s) = 7.14462 7.47048 7.30937
#
# Compressibility (1/GPa) = 0.01713746
#
# Stress axis : x y z
#
# Youngs Moduli (GPa) = 56.38850 62.21785 57.63734
#
# Poissons Ratio (x) = 0.34584 0.12793
# Poissons Ratio (y) = 0.31344 0.53207
# Poissons Ratio (z) = 0.12516 0.57436
#
# Static dielectric constant tensor:
#      x y z
#    x 3.450720 0.000000 0.000000 
#    y 0.000000 3.432910 0.000000 
#    z 0.000000 0.000000 3.362860 
# 
# 
# High freq. dielectric constant tensor:
#      x y z
#    x 1.729740 0.000000 0.000000 
#    y 0.000000 1.724630 0.000000 
#    z 0.000000 0.000000 1.707360 
# 
# From -- ./inp_files/31239.got.cif
#   From: 2010.03.12/outbox.cif.g09.slc.cpg/sg53_16_cif.got.tgz:31239.got - 2010.04.16 14:36:59.
