data_PCOD8219335
_publ_section_title
;
Structure prediction by ZEFSAII (Michael W. Deem and Ramdas Pophale) SiO2 
 PCOD8219335
Probable space group: P M N A
;
_chemical_formula_sum "Si O2"
_cell_formula_units_Z 48
_cell_length_a 18.628803
_cell_length_b 8.839834
_cell_length_c 15.047452
_cell_angle_alpha 90.000000
_cell_angle_beta 90.000000
_cell_angle_gamma 90.000000
_cell_volume 2477.947075
_symmetry_space_group_name_H-M "P M N A"
_symmetry_group_IT_number 53
_symmetry_cell_setting 'orthorhombic'
loop_
_space_group_symop_operation_xyz
x,y,z
1/2-x,-y,1/2+z
x,-y,-z
1/2-x,y,1/2-z
-x,-y,-z
1/2+x,y,1/2-z
-x,y,z
1/2+x,-y,1/2+z
loop_
_atom_site_type_symbol
_atom_site_label
_atom_site_fract_x
_atom_site_fract_y
_atom_site_fract_z
Si Si1 0.918952 0.069697 0.747721
Si Si2 0.849197 0.432486 0.091198
Si Si3 0.080734 0.579426 0.254184
Si Si4 0.718045 0.382686 0.845464
Si Si5 0.656643 0.077004 0.406550
Si Si6 0.193114 0.943444 0.403437
O O1 0.908506 0.245343 0.771933
O O2 0.869210 0.019166 0.666087
O O3 0.000000 0.034700 0.718539
O O4 0.901614 0.973505 0.834823
O O5 0.904475 0.478225 0.168087
O O6 0.769024 0.495226 0.108603
O O7 0.845951 0.254746 0.081975
O O8 0.879762 0.500000 0.000000
O O9 0.139100 0.541495 0.331064
O O10 0.000000 0.547013 0.288965
O O11 0.750000 0.332036 0.750000
O O12 0.711006 0.235459 0.907616
O O13 0.637923 0.000000 0.500000
O O14 0.735439 0.030304 0.372826
O O15 0.167700 0.000000 0.500000
#
# Coordination Sequence:
#
# PCOD8219335 Si02
#       6
#     8   8   8   8   8   8
#     4  10  21  37  56  79 112 149 182 221 271 328
#     4  11  21  34  55  80 106 138 179 226 272 322
#     4   9  19  36  56  77 105 143 180 216 266 323
#     4   9  18  35  56  79 107 142 183 224 269 323
#     4  11  22  36  56  82 111 143 181 227 275 323
#     4  10  19  34  57  82 111 144 181 225 270 322
#
# _framework density 19.370875000000002
#
# number of rings (size 3 to 8) (size 9 to 14) (size 15 to 20)
#    0.000    2.000    0.000    6.500    0.000    5.667 
#    0.000    0.000    0.000    0.500    0.000    0.000 
#    0.000    0.000    0.000    0.000    0.000    0.000 
#
# Total GULP energy -595281.461641 kJ/mol
# GULP energy per Si atom -12401.697118 kJ/mol
# Density = 1.932679 g / cm^3
# Si number density = 19.370875 Si / 1000 Ang^3
#
#
#
# Elastic Constant Matrix: (Units=GPa)
#
#
# Indices 1 2 3 4 5 6 
#
# 1 96.2452 13.1611 17.0802 0.0000 0.0000 0.0000
# 2 13.1611 98.3125 34.9212 0.0000 0.0000 0.0000
# 3 17.0802 34.9212 78.2895 0.0000 0.0000 0.0000
# 4 0.0000 0.0000 0.0000 33.7449 0.0000 0.0000
# 5 0.0000 0.0000 0.0000 0.0000 18.8218 0.0000
# 6 0.0000 0.0000 0.0000 0.0000 0.0000 19.0452
#
#
#
# Elastic Compliance Matrix: (Units=1/GPa)
#
#
# Indices 1 2 3 4 5 6 
#
# 1 0.010852 -0.000727 -0.002043 0.000000 0.000000 0.000000
# 2 -0.000727 0.012135 -0.005254 0.000000 0.000000 0.000000
# 3 -0.002043 -0.005254 0.015563 0.000000 0.000000 0.000000
# 4 0.000000 0.000000 0.000000 0.029634 0.000000 0.000000
# 5 0.000000 0.000000 0.000000 0.000000 0.053130 0.000000
# 6 0.000000 0.000000 0.000000 0.000000 0.000000 0.052507
#
#
# Mechanical properties :
#
#
# Convention : Reuss Voigt Hill
#
# Bulk Modulus (GPa) = 44.44297 44.79692 44.61995
# Shear Modulus (GPa) = 25.33306 28.16803 26.75054
#
# Velocity S-wave (km/s) = 3.62026 3.81746 3.72017
# Velocity P-wave (km/s) = 6.36145 6.52739 6.44495
#
# Compressibility (1/GPa) = 0.02250075
#
# Stress axis : x y z
#
# Youngs Moduli (GPa) = 92.14761 82.40384 64.25656
#
# Poissons Ratio (x) = 0.05991 0.13130
# Poissons Ratio (y) = 0.06699 0.33763
# Poissons Ratio (z) = 0.18829 0.43298
#
# Static dielectric constant tensor:
#      x y z
#    x 3.718430 0.000000 0.000000 
#    y 0.000000 3.425650 0.000000 
#    z 0.000000 0.000000 3.471490 
# 
# 
# High freq. dielectric constant tensor:
#      x y z
#    x 1.756690 0.000000 0.000000 
#    y 0.000000 1.749020 0.000000 
#    z 0.000000 0.000000 1.744610 
# 
# From -- ./inp_files/23689.got.cif
#   From: 2010.03.12/outbox.cif.g09.slc.cpg/sg53_12_cif.got.tgz:23689.got - 2010.04.16 14:36:59.
