data_PCOD8219949
_publ_section_title
;
Structure prediction by ZEFSAII (Michael W. Deem and Ramdas Pophale) SiO2 
 PCOD8219949
Probable space group: P M N A
;
_chemical_formula_sum "Si O2"
_cell_formula_units_Z 64
_cell_length_a 18.767155
_cell_length_b 12.325022
_cell_length_c 14.656890
_cell_angle_alpha 90.000000
_cell_angle_beta 90.000000
_cell_angle_gamma 90.000000
_cell_volume 3390.220710
_symmetry_space_group_name_H-M "P M N A"
_symmetry_group_IT_number 53
_symmetry_cell_setting 'orthorhombic'
loop_
_space_group_symop_operation_xyz
x,y,z
1/2-x,-y,1/2+z
x,-y,-z
1/2-x,y,1/2-z
-x,-y,-z
1/2+x,y,1/2-z
-x,y,z
1/2+x,-y,1/2+z
loop_
_atom_site_type_symbol
_atom_site_label
_atom_site_fract_x
_atom_site_fract_y
_atom_site_fract_z
Si Si1 0.798562 0.960778 0.331768
Si Si2 0.167992 0.418152 0.429296
Si Si3 0.921257 0.501431 0.108198
Si Si4 0.084048 0.901268 0.763514
Si Si5 0.224301 0.429469 0.848924
Si Si6 0.681941 0.090898 0.430273
Si Si7 0.919885 0.656102 0.735151
Si Si8 0.774837 0.233634 0.542348
O O1 0.750000 0.911023 0.250000
O O2 0.813443 0.869665 0.409446
O O3 0.873870 0.008249 0.295725
O O4 0.753122 0.058841 0.374540
O O5 0.127616 0.500000 0.500000
O O6 0.246100 0.472744 0.412771
O O7 0.128009 0.413746 0.333271
O O8 0.173580 0.297601 0.472374
O O9 0.861174 0.580747 0.147129
O O10 0.909538 0.385048 0.159785
O O11 0.000000 0.546561 0.132623
O O12 0.912212 0.500000 0.000000
O O13 0.114090 0.893237 0.865928
O O14 0.098521 0.782385 0.723151
O O15 0.000000 0.930557 0.765083
O O16 0.250000 0.458939 0.750000
O O17 0.254222 0.313432 0.876694
O O18 0.703814 0.197906 0.487107
O O19 0.656972 0.000000 0.500000
O O20 0.000000 0.635716 0.703414
#
# Coordination Sequence:
#
# PCOD8219949 Si02
#       8
#     8   8   8   8   8   8   8   8
#     4   9  18  37  57  79 108 148 189 238 293 345
#     4  10  21  35  54  84 112 150 198 243 290 336
#     4  10  21  37  57  83 121 158 191 235 291 349
#     4  10  21  35  57  85 113 147 188 239 295 351
#     4  11  21  35  56  86 117 154 195 243 287 340
#     4   9  19  34  55  82 107 145 186 231 290 344
#     4  10  21  37  56  82 117 153 191 237 290 348
#     4  10  20  33  57  82 113 144 196 245 283 343
#
# _framework density 18.877825999999999
#
# number of rings (size 3 to 8) (size 9 to 14) (size 15 to 20)
#    0.000    2.125    1.250    2.250    3.500    0.500 
#    0.000    0.625    0.000   13.875    0.000    0.000 
#    0.000    0.000    0.000    0.000    0.000    0.000 
#
# Total GULP energy -793081.072625 kJ/mol
# GULP energy per Si atom -12391.891760 kJ/mol
# Density = 1.883486 g / cm^3
# Si number density = 18.877826 Si / 1000 Ang^3
#
#
#
# Elastic Constant Matrix: (Units=GPa)
#
#
# Indices 1 2 3 4 5 6 
#
# 1 110.7368 38.9449 54.5369 0.0000 0.0000 0.0000
# 2 38.9449 85.0269 42.5791 0.0000 0.0000 0.0000
# 3 54.5369 42.5791 116.0092 0.0000 0.0000 0.0000
# 4 0.0000 0.0000 0.0000 27.1970 0.0000 0.0000
# 5 0.0000 0.0000 0.0000 0.0000 25.5837 0.0000
# 6 0.0000 0.0000 0.0000 0.0000 0.0000 16.3344
#
#
#
# Elastic Compliance Matrix: (Units=1/GPa)
#
#
# Indices 1 2 3 4 5 6 
#
# 1 0.012510 -0.003412 -0.004629 0.000000 0.000000 0.000000
# 2 -0.003412 0.015340 -0.004026 0.000000 0.000000 0.000000
# 3 -0.004629 -0.004026 0.012274 0.000000 0.000000 0.000000
# 4 0.000000 0.000000 0.000000 0.036769 0.000000 0.000000
# 5 0.000000 0.000000 0.000000 0.000000 0.039087 0.000000
# 6 0.000000 0.000000 0.000000 0.000000 0.000000 0.061221
#
#
# Mechanical properties :
#
#
# Convention : Reuss Voigt Hill
#
# Bulk Modulus (GPa) = 62.53995 64.87718 63.70856
# Shear Modulus (GPa) = 24.19380 25.53715 24.86547
#
# Velocity S-wave (km/s) = 3.58383 3.68198 3.63323
# Velocity P-wave (km/s) = 7.09407 7.24689 7.17089
#
# Compressibility (1/GPa) = 0.01598978
#
# Stress axis : x y z
#
# Youngs Moduli (GPa) = 79.93600 65.18885 81.47442
#
# Poissons Ratio (x) = 0.22243 0.37712
# Poissons Ratio (y) = 0.27274 0.32804
# Poissons Ratio (z) = 0.37000 0.26247
#
# Static dielectric constant tensor:
#      x y z
#    x 3.341530 0.000000 0.000000 
#    y 0.000000 3.349450 0.000000 
#    z 0.000000 0.000000 3.659630 
# 
# 
# High freq. dielectric constant tensor:
#      x y z
#    x 1.711700 0.000000 0.000000 
#    y 0.000000 1.723060 0.000000 
#    z 0.000000 0.000000 1.751010 
# 
# From -- ./inp_files/23884.got.cif
#   From: 2010.03.12/outbox.cif.g09.slc.cpg/sg53_12_cif.got.tgz:23884.got - 2010.04.16 14:36:59.
