data_PCOD8219309
_publ_section_title
;
Structure prediction by ZEFSAII (Michael W. Deem and Ramdas Pophale) SiO2 
 PCOD8219309
Probable space group: P M N A
;
_chemical_formula_sum "Si O2"
_cell_formula_units_Z 48
_cell_length_a 9.135619
_cell_length_b 10.081583
_cell_length_c 27.904090
_cell_angle_alpha 90.000000
_cell_angle_beta 90.000000
_cell_angle_gamma 90.000000
_cell_volume 2570.008579
_symmetry_space_group_name_H-M "P M N A"
_symmetry_group_IT_number 53
_symmetry_cell_setting 'orthorhombic'
loop_
_space_group_symop_operation_xyz
x,y,z
1/2-x,-y,1/2+z
x,-y,-z
1/2-x,y,1/2-z
-x,-y,-z
1/2+x,y,1/2-z
-x,y,z
1/2+x,-y,1/2+z
loop_
_atom_site_type_symbol
_atom_site_label
_atom_site_fract_x
_atom_site_fract_y
_atom_site_fract_z
Si Si1 0.168595 0.742783 0.939765
Si Si2 0.330675 0.532148 0.390564
Si Si3 0.828427 0.786811 0.049263
Si Si4 0.828370 0.592050 0.297677
Si Si5 0.670107 0.899486 0.203076
Si Si6 0.173412 0.982732 0.602999
O O1 0.196961 0.591774 0.925036
O O2 0.000000 0.783413 0.931980
O O3 0.269509 0.835680 0.907113
O O4 0.214409 0.756006 0.994849
O O5 0.500000 0.543984 0.375719
O O6 0.278227 0.662688 0.418722
O O7 0.234808 0.512868 0.342941
O O8 0.742105 0.917248 0.064687
O O9 0.000000 0.814335 0.054781
O O10 0.750000 0.537535 0.250000
O O11 0.789468 0.746186 0.305037
O O12 0.000000 0.565704 0.293292
O O13 0.750000 0.956824 0.250000
O O14 0.500000 0.918773 0.212112
O O15 0.724123 0.979224 0.156596
O O16 0.000000 0.989513 0.597952
#
# Coordination Sequence:
#
# PCOD8219309 Si02
#       6
#     8   8   8   8   8   8
#     4  10  22  38  55  80 113 148 187 227 271 327
#     4  10  20  36  58  83 111 145 185 230 277 323
#     4  10  20  36  59  82 107 145 190 232 272 320
#     4  10  19  34  56  83 112 141 180 228 274 326
#     4   9  19  34  54  80 108 137 176 224 270 320
#     4  11  22  37  55  82 115 146 182 227 277 328
#
# _framework density 18.676981000000001
#
# number of rings (size 3 to 8) (size 9 to 14) (size 15 to 20)
#    0.000    2.000    1.667    2.000    0.000    7.333 
#    0.000    0.833    0.000    5.000    0.000    0.000 
#    0.000    0.000    0.000    0.000    0.000    0.000 
#
# Total GULP energy -595439.299461 kJ/mol
# GULP energy per Si atom -12404.985405 kJ/mol
# Density = 1.863447 g / cm^3
# Si number density = 18.676981 Si / 1000 Ang^3
#
#
#
# Elastic Constant Matrix: (Units=GPa)
#
#
# Indices 1 2 3 4 5 6 
#
# 1 56.7104 17.5819 41.7849 0.0000 0.0000 0.0000
# 2 17.5819 51.9710 13.9983 0.0000 0.0000 0.0000
# 3 41.7849 13.9983 121.8935 0.0000 0.0000 0.0000
# 4 0.0000 0.0000 0.0000 14.4716 0.0000 0.0000
# 5 0.0000 0.0000 0.0000 0.0000 32.0111 0.0000
# 6 0.0000 0.0000 0.0000 0.0000 0.0000 20.7612
#
#
#
# Elastic Compliance Matrix: (Units=1/GPa)
#
#
# Indices 1 2 3 4 5 6 
#
# 1 0.025548 -0.006485 -0.008013 0.000000 0.000000 0.000000
# 2 -0.006485 0.021502 -0.000246 0.000000 0.000000 0.000000
# 3 -0.008013 -0.000246 0.010979 0.000000 0.000000 0.000000
# 4 0.000000 0.000000 0.000000 0.069101 0.000000 0.000000
# 5 0.000000 0.000000 0.000000 0.000000 0.031239 0.000000
# 6 0.000000 0.000000 0.000000 0.000000 0.000000 0.048167
#
#
# Mechanical properties :
#
#
# Convention : Reuss Voigt Hill
#
# Bulk Modulus (GPa) = 35.03790 41.92280 38.48035
# Shear Modulus (GPa) = 20.36350 23.92943 22.14647
#
# Velocity S-wave (km/s) = 3.30555 3.58330 3.44723
# Velocity P-wave (km/s) = 5.77664 6.29405 6.04089
#
# Compressibility (1/GPa) = 0.02854052
#
# Stress axis : x y z
#
# Youngs Moduli (GPa) = 39.14199 46.50816 91.08256
#
# Poissons Ratio (x) = 0.30159 0.72985
# Poissons Ratio (y) = 0.25382 0.02244
# Poissons Ratio (z) = 0.31365 0.01146
#
# Static dielectric constant tensor:
#      x y z
#    x 3.353690 0.000000 0.000000 
#    y 0.000000 3.274830 0.000000 
#    z 0.000000 0.000000 3.568950 
# 
# 
# High freq. dielectric constant tensor:
#      x y z
#    x 1.721310 0.000000 0.000000 
#    y 0.000000 1.708750 0.000000 
#    z 0.000000 0.000000 1.738840 
# 
# From -- ./inp_files/33894.got.cif
#   From: 2010.03.12/outbox.cif.g09.slc.cpg/sg53_17_cif.got.tgz:33894.got - 2010.04.16 14:36:59.
