data_PCOD8219190
_publ_section_title
;
Structure prediction by ZEFSAII (Michael W. Deem and Ramdas Pophale) SiO2 
 PCOD8219190
Probable space group: P M N A
;
_chemical_formula_sum "Si O2"
_cell_formula_units_Z 48
_cell_length_a 13.665101
_cell_length_b 7.788654
_cell_length_c 21.798711
_cell_angle_alpha 90.000000
_cell_angle_beta 90.000000
_cell_angle_gamma 90.000000
_cell_volume 2320.096618
_symmetry_space_group_name_H-M "P M N A"
_symmetry_group_IT_number 53
_symmetry_cell_setting 'orthorhombic'
loop_
_space_group_symop_operation_xyz
x,y,z
1/2-x,-y,1/2+z
x,-y,-z
1/2-x,y,1/2-z
-x,-y,-z
1/2+x,y,1/2-z
-x,y,z
1/2+x,-y,1/2+z
loop_
_atom_site_type_symbol
_atom_site_label
_atom_site_fract_x
_atom_site_fract_y
_atom_site_fract_z
Si Si1 0.887932 0.969698 0.826767
Si Si2 0.609911 0.299152 0.999053
Si Si3 0.889161 0.328861 0.270016
Si Si4 0.796645 0.173596 0.380528
Si Si5 0.612870 0.176517 0.870381
Si Si6 0.386246 0.299771 0.743251
O O1 0.849461 0.160543 0.807101
O O2 0.000000 0.970571 0.851526
O O3 0.877593 0.842431 0.769281
O O4 0.814590 0.899413 0.878951
O O5 0.500000 0.220286 0.008534
O O6 0.684484 0.240869 0.051540
O O7 0.601324 0.500000 0.000000
O O8 0.658934 0.240678 0.934720
O O9 0.816794 0.318998 0.328692
O O10 0.863040 0.499619 0.228935
O O11 0.000000 0.350835 0.294295
O O12 0.874498 0.026480 0.364351
O O13 0.500000 0.228418 0.872665
O O14 0.661635 0.265185 0.810411
O O15 0.500000 0.258302 0.747696
#
# Coordination Sequence:
#
# PCOD8219190 Si02
#       6
#     8   8   8   8   8   8
#     4  10  22  40  55  78 117 157 199 242 287 338
#     4  10  21  37  57  86 122 154 188 236 301 367
#     4  10  19  34  56  83 115 151 187 234 296 356
#     4  12  21  34  55  86 115 152 197 241 292 349
#     4  10  19  33  56  84 113 147 182 231 295 355
#     4   9  18  35  57  81 116 153 187 231 289 352
#
# _framework density 20.688794000000001
#
# number of rings (size 3 to 8) (size 9 to 14) (size 15 to 20)
#    0.000    1.833    1.667    3.500    0.000    4.000 
#    9.000    0.000    0.000    2.500    0.000    0.000 
#    0.000    0.000    0.000    0.000    0.000    0.000 
#
# Total GULP energy -594843.721026 kJ/mol
# GULP energy per Si atom -12392.577521 kJ/mol
# Density = 2.064171 g / cm^3
# Si number density = 20.688794 Si / 1000 Ang^3
#
#
#
# Elastic Constant Matrix: (Units=GPa)
#
#
# Indices 1 2 3 4 5 6 
#
# 1 88.5693 13.6316 23.4799 0.0000 0.0000 0.0000
# 2 13.6316 98.6308 1.3310 0.0000 0.0000 0.0000
# 3 23.4799 1.3310 40.9144 0.0000 0.0000 0.0000
# 4 0.0000 0.0000 0.0000 28.0790 0.0000 0.0000
# 5 0.0000 0.0000 0.0000 0.0000 19.0019 0.0000
# 6 0.0000 0.0000 0.0000 0.0000 0.0000 10.4255
#
#
#
# Elastic Compliance Matrix: (Units=1/GPa)
#
#
# Indices 1 2 3 4 5 6 
#
# 1 0.013621 -0.001778 -0.007759 0.000000 0.000000 0.000000
# 2 -0.001778 0.010375 0.000683 0.000000 0.000000 0.000000
# 3 -0.007759 0.000683 0.028872 0.000000 0.000000 0.000000
# 4 0.000000 0.000000 0.000000 0.035614 0.000000 0.000000
# 5 0.000000 0.000000 0.000000 0.000000 0.052626 0.000000
# 6 0.000000 0.000000 0.000000 0.000000 0.000000 0.095918
#
#
# Mechanical properties :
#
#
# Convention : Reuss Voigt Hill
#
# Bulk Modulus (GPa) = 28.44142 33.88884 31.16513
# Shear Modulus (GPa) = 18.76489 24.14608 21.45548
#
# Velocity S-wave (km/s) = 3.01492 3.42000 3.22383
# Velocity P-wave (km/s) = 5.08889 5.65783 5.38089
#
# Compressibility (1/GPa) = 0.03515999
#
# Stress axis : x y z
#
# Youngs Moduli (GPa) = 73.41512 96.38252 34.63580
#
# Poissons Ratio (x) = 0.17135 0.26874
# Poissons Ratio (y) = 0.13052 -0.02365
# Poissons Ratio (z) = 0.56963 -0.06580
#
# Static dielectric constant tensor:
#      x y z
#    x 3.735000 0.000000 0.000000 
#    y 0.000000 3.904680 0.000000 
#    z 0.000000 0.000000 3.650510 
# 
# 
# High freq. dielectric constant tensor:
#      x y z
#    x 1.792520 0.000000 0.000000 
#    y 0.000000 1.825240 0.000000 
#    z 0.000000 0.000000 1.772840 
# 
# From -- ./inp_files/32254.got.cif
#   From: 2010.03.12/outbox.cif.g09.slc.cpg/sg53_17_cif.got.tgz:32254.got - 2010.04.16 14:36:59.
