data_PCOD8219229
_publ_section_title
;
Structure prediction by ZEFSAII (Michael W. Deem and Ramdas Pophale) SiO2 
 PCOD8219229
Probable space group: P M N A
;
_chemical_formula_sum "Si O2"
_cell_formula_units_Z 48
_cell_length_a 14.151854
_cell_length_b 17.452568
_cell_length_c 7.746531
_cell_angle_alpha 90.000000
_cell_angle_beta 90.000000
_cell_angle_gamma 90.000000
_cell_volume 1913.286210
_symmetry_space_group_name_H-M "P M N A"
_symmetry_group_IT_number 53
_symmetry_cell_setting 'orthorhombic'
loop_
_space_group_symop_operation_xyz
x,y,z
1/2-x,-y,1/2+z
x,-y,-z
1/2-x,y,1/2-z
-x,-y,-z
1/2+x,y,1/2-z
-x,y,z
1/2+x,-y,1/2+z
loop_
_atom_site_type_symbol
_atom_site_label
_atom_site_fract_x
_atom_site_fract_y
_atom_site_fract_z
Si Si1 0.391178 0.915883 0.188630
Si Si2 0.603720 0.458065 0.318061
Si Si3 0.395697 0.814772 0.502659
Si Si4 0.790630 0.334439 0.012520
Si Si5 0.611294 0.613823 0.168486
Si Si6 0.849943 0.910370 0.696110
O O1 0.500000 0.929923 0.225442
O O2 0.351506 0.858013 0.334221
O O3 0.343276 0.998039 0.207649
O O4 0.377137 0.882312 0.996098
O O5 0.598891 0.500000 0.500000
O O6 0.500000 0.424991 0.270556
O O7 0.678139 0.388561 0.327223
O O8 0.631745 0.521899 0.174603
O O9 0.500000 0.779804 0.456953
O O10 0.317144 0.752406 0.560843
O O11 0.417385 0.873738 0.659286
O O12 0.857116 0.350129 0.848341
O O13 0.678556 0.349077 0.978869
O O14 0.500000 0.630807 0.132732
O O15 0.750000 0.876036 0.750000
#
# Coordination Sequence:
#
# PCOD8219229 Si02
#       6
#     8   8   8   8   8   8
#     4  10  23  43  66  94 135 184 233 294 353 418
#     4   8  14  29  55  83 116 162 218 269 321 396
#     4  11  23  40  68 101 138 185 237 291 366 437
#     4  10  19  33  61  94 125 165 228 288 344 421
#     4   9  18  33  56  87 125 171 221 280 342 413
#     4  11  24  39  65  97 136 183 237 293 345 426
#
# _framework density 25.087724999999999
#
# number of rings (size 3 to 8) (size 9 to 14) (size 15 to 20)
#    0.000    2.167    0.000    5.000    4.667    4.000 
#    0.000    0.000   14.667   16.500    0.000    0.000 
#    0.000    0.000    0.000    0.000    0.000    0.000 
#
# Total GULP energy -594826.950457 kJ/mol
# GULP energy per Si atom -12392.228135 kJ/mol
# Density = 2.503062 g / cm^3
# Si number density = 25.087725 Si / 1000 Ang^3
#
#
#
# Elastic Constant Matrix: (Units=GPa)
#
#
# Indices 1 2 3 4 5 6 
#
# 1 141.4752 43.7612 31.4124 0.0000 0.0000 0.0000
# 2 43.7612 110.1953 51.3099 0.0000 0.0000 0.0000
# 3 31.4124 51.3099 129.2862 0.0000 0.0000 0.0000
# 4 0.0000 0.0000 0.0000 4.4948 0.0000 0.0000
# 5 0.0000 0.0000 0.0000 0.0000 19.7580 0.0000
# 6 0.0000 0.0000 0.0000 0.0000 0.0000 35.0689
#
#
#
# Elastic Compliance Matrix: (Units=1/GPa)
#
#
# Indices 1 2 3 4 5 6 
#
# 1 0.008134 -0.002834 -0.000852 0.000000 0.000000 0.000000
# 2 -0.002834 0.012119 -0.004121 0.000000 0.000000 0.000000
# 3 -0.000852 -0.004121 0.009577 0.000000 0.000000 0.000000
# 4 0.000000 0.000000 0.000000 0.222477 0.000000 0.000000
# 5 0.000000 0.000000 0.000000 0.000000 0.050612 0.000000
# 6 0.000000 0.000000 0.000000 0.000000 0.000000 0.028515
#
#
# Mechanical properties :
#
#
# Convention : Reuss Voigt Hill
#
# Bulk Modulus (GPa) = 70.33716 70.43596 70.38656
# Shear Modulus (GPa) = 14.21314 28.82925 21.52119
#
# Velocity S-wave (km/s) = 2.38279 3.39357 2.93206
# Velocity P-wave (km/s) = 5.97223 6.59484 6.29124
#
# Compressibility (1/GPa) = 0.01421724
#
# Stress axis : x y z
#
# Youngs Moduli (GPa) = 122.94104 82.51474 104.41351
#
# Poissons Ratio (x) = 0.23382 0.08893
# Poissons Ratio (y) = 0.34837 0.43031
# Poissons Ratio (z) = 0.10471 0.34006
#
# Static dielectric constant tensor:
#      x y z
#    x 4.493310 0.000000 0.000000 
#    y 0.000000 4.413550 0.000000 
#    z 0.000000 0.000000 4.536130 
# 
# 
# High freq. dielectric constant tensor:
#      x y z
#    x 2.010600 0.000000 0.000000 
#    y 0.000000 1.977160 0.000000 
#    z 0.000000 0.000000 1.996260 
# 
# From -- ./inp_files/8699.got.cif
#   From: 2010.03.12/outbox.cif.g09.slc.cpg/sg53_5_cif.got.tgz:8699.got - 2010.04.16 14:36:59.
