data_PCOD8219116
_publ_section_title
;
Structure prediction by ZEFSAII (Michael W. Deem and Ramdas Pophale) SiO2 
 PCOD8219116
Probable space group: P M N A
;
_chemical_formula_sum "Si O2"
_cell_formula_units_Z 64
_cell_length_a 8.745204
_cell_length_b 19.332209
_cell_length_c 20.851779
_cell_angle_alpha 90.000000
_cell_angle_beta 90.000000
_cell_angle_gamma 90.000000
_cell_volume 3525.287489
_symmetry_space_group_name_H-M "P M N A"
_symmetry_group_IT_number 53
_symmetry_cell_setting 'orthorhombic'
loop_
_space_group_symop_operation_xyz
x,y,z
1/2-x,-y,1/2+z
x,-y,-z
1/2-x,y,1/2-z
-x,-y,-z
1/2+x,y,1/2-z
-x,y,z
1/2+x,-y,1/2+z
loop_
_atom_site_type_symbol
_atom_site_label
_atom_site_fract_x
_atom_site_fract_y
_atom_site_fract_z
Si Si1 0.820109 0.541979 0.564159
Si Si2 0.177164 0.331954 0.629099
Si Si3 0.822142 0.037972 0.683991
Si Si4 0.175749 0.826002 0.985593
Si Si5 0.678745 0.670186 0.508267
Si Si6 0.824304 0.822989 0.379825
Si Si7 0.680563 0.538930 0.316797
Si Si8 0.319230 0.958188 0.938807
O O1 0.778442 0.500000 0.500000
O O2 0.736644 0.616284 0.561449
O O3 0.755942 0.502660 0.625388
O O4 0.000000 0.552641 0.571815
O O5 0.224604 0.343284 0.555688
O O6 0.206378 0.252625 0.650236
O O7 0.278016 0.380052 0.675214
O O8 0.000000 0.353220 0.635802
O O9 0.750000 0.012664 0.750000
O O10 0.786026 0.119251 0.673040
O O11 0.000000 0.024101 0.689100
O O12 0.752507 0.993016 0.625644
O O13 0.210937 0.747118 0.964712
O O14 0.217575 0.836392 0.059651
O O15 0.000000 0.844522 0.976441
O O16 0.271041 0.877978 0.940967
O O17 0.500000 0.659941 0.492708
O O18 0.000000 0.829456 0.403356
O O19 0.750000 0.511507 0.250000
O O20 0.500000 0.528293 0.316890
O O21 0.500000 0.963846 0.938858
O O22 0.252586 0.000000 0.000000
#
# Coordination Sequence:
#
# PCOD8219116 Si02
#       8
#     8   8   8   8   8   8   8   8
#     4  11  22  37  60  87 113 144 188 233 276 329
#     4  10  19  33  54  80 110 147 190 229 267 320
#     4  10  21  36  53  76 106 143 182 223 271 324
#     4  10  20  32  52  84 114 138 177 230 276 319
#     4  10  20  34  54  83 115 146 179 223 281 331
#     4   9  18  34  53  74 108 150 186 219 265 324
#     4  12  25  40  58  80 114 152 189 232 280 333
#     4  10  19  35  57  77 104 143 185 224 272 329
#
# _framework density 18.154547000000001
#
# number of rings (size 3 to 8) (size 9 to 14) (size 15 to 20)
#    0.000    1.750    2.500    2.625    0.000    4.250 
#    0.000    1.250    0.000    0.750    0.000    1.750 
#    0.000    0.000    0.000    0.000    0.000    0.000 
#
# Total GULP energy -793724.848018 kJ/mol
# GULP energy per Si atom -12401.950750 kJ/mol
# Density = 1.811323 g / cm^3
# Si number density = 18.154547 Si / 1000 Ang^3
#
#
#
# Elastic Constant Matrix: (Units=GPa)
#
#
# Indices 1 2 3 4 5 6 
#
# 1 49.6704 31.9069 31.3684 0.0000 0.0000 0.0000
# 2 31.9069 99.1353 54.2855 0.0000 0.0000 0.0000
# 3 31.3684 54.2855 114.5578 0.0000 0.0000 0.0000
# 4 0.0000 0.0000 0.0000 23.9672 0.0000 0.0000
# 5 0.0000 0.0000 0.0000 0.0000 28.3716 0.0000
# 6 0.0000 0.0000 0.0000 0.0000 0.0000 29.3968
#
#
#
# Elastic Compliance Matrix: (Units=1/GPa)
#
#
# Indices 1 2 3 4 5 6 
#
# 1 0.026936 -0.006253 -0.004413 0.000000 0.000000 0.000000
# 2 -0.006253 0.015074 -0.005431 0.000000 0.000000 0.000000
# 3 -0.004413 -0.005431 0.012511 0.000000 0.000000 0.000000
# 4 0.000000 0.000000 0.000000 0.041724 0.000000 0.000000
# 5 0.000000 0.000000 0.000000 0.000000 0.035247 0.000000
# 6 0.000000 0.000000 0.000000 0.000000 0.000000 0.034017
#
#
# Mechanical properties :
#
#
# Convention : Reuss Voigt Hill
#
# Bulk Modulus (GPa) = 44.78692 55.38724 50.08708
# Shear Modulus (GPa) = 24.37314 26.06730 25.22022
#
# Velocity S-wave (km/s) = 3.66804 3.79338 3.73124
# Velocity P-wave (km/s) = 6.53167 7.05417 6.79794
#
# Compressibility (1/GPa) = 0.02232795
#
# Stress axis : x y z
#
# Youngs Moduli (GPa) = 37.12461 66.34107 79.93039
#
# Poissons Ratio (x) = 0.41485 0.35269
# Poissons Ratio (y) = 0.23215 0.43407
# Poissons Ratio (z) = 0.16381 0.36028
#
# Static dielectric constant tensor:
#      x y z
#    x 3.347590 0.000000 0.000000 
#    y 0.000000 3.559820 0.000000 
#    z 0.000000 0.000000 3.188990 
# 
# 
# High freq. dielectric constant tensor:
#      x y z
#    x 1.708400 0.000000 0.000000 
#    y 0.000000 1.708050 0.000000 
#    z 0.000000 0.000000 1.675010 
# 
# From -- ./inp_files/31291.got.cif
#   From: 2010.03.12/outbox.cif.g09.slc.cpg/sg53_16_cif.got.tgz:31291.got - 2010.04.16 14:36:59.
