data_PCOD8219683
_publ_section_title
;
Structure prediction by ZEFSAII (Michael W. Deem and Ramdas Pophale) SiO2 
 PCOD8219683
Probable space group: P M N A
;
_chemical_formula_sum "Si O2"
_cell_formula_units_Z 40
_cell_length_a 22.720848
_cell_length_b 9.482372
_cell_length_c 10.306379
_cell_angle_alpha 90.000000
_cell_angle_beta 90.000000
_cell_angle_gamma 90.000000
_cell_volume 2220.483929
_symmetry_space_group_name_H-M "P M N A"
_symmetry_group_IT_number 53
_symmetry_cell_setting 'orthorhombic'
loop_
_space_group_symop_operation_xyz
x,y,z
1/2-x,-y,1/2+z
x,-y,-z
1/2-x,y,1/2-z
-x,-y,-z
1/2+x,y,1/2-z
-x,y,z
1/2+x,-y,1/2+z
loop_
_atom_site_type_symbol
_atom_site_label
_atom_site_fract_x
_atom_site_fract_y
_atom_site_fract_z
Si Si1 0.277715 0.142530 0.054366
Si Si2 0.655623 0.147275 0.305061
Si Si3 0.564335 0.074582 0.637202
Si Si4 0.240080 0.388328 0.896827
Si Si5 0.389810 0.345170 0.516478
O O1 0.212239 0.109890 0.107751
O O2 0.321269 0.201728 0.165729
O O3 0.274793 0.245847 0.931040
O O4 0.305635 0.000000 0.000000
O O5 0.619071 0.272608 0.374758
O O6 0.615637 0.006247 0.283010
O O7 0.500000 0.058163 0.704909
O O8 0.574922 0.241471 0.613167
O O9 0.563854 0.000000 0.500000
O O10 0.250000 0.438443 0.750000
O O11 0.171125 0.371981 0.912543
O O12 0.264979 0.500000 0.000000
O O13 0.420972 0.500000 0.500000
#
# Coordination Sequence:
#
# PCOD8219683 Si02
#       5
#     8   8   8   8   8
#     4  10  20  30  51  74 103 137 169 208 249 312
#     4   9  18  32  48  73 103 132 169 210 259 304
#     4   9  17  31  50  72  99 132 173 222 268 302
#     4  10  22  33  50  75 109 141 169 203 255 313
#     4   9  18  30  49  70 103 134 170 217 254 306
#
# _framework density 18.014092000000002
#
# number of rings (size 3 to 8) (size 9 to 14) (size 15 to 20)
#    0.000    2.600    0.000    3.000   14.000    0.400 
#    0.000    0.000    0.000    0.600    0.000    0.000 
#    0.000    3.200    0.000    0.000    0.000    0.000 
#
# Total GULP energy -495623.408957 kJ/mol
# GULP energy per Si atom -12390.585224 kJ/mol
# Density = 1.797309 g / cm^3
# Si number density = 18.014092 Si / 1000 Ang^3
#
#
#
# Elastic Constant Matrix: (Units=GPa)
#
#
# Indices 1 2 3 4 5 6 
#
# 1 63.2008 25.5785 15.8194 0.0000 0.0000 0.0000
# 2 25.5785 121.5161 29.3526 0.0000 0.0000 0.0000
# 3 15.8194 29.3526 93.7126 0.0000 0.0000 0.0000
# 4 0.0000 0.0000 0.0000 22.6886 0.0000 0.0000
# 5 0.0000 0.0000 0.0000 0.0000 9.1646 0.0000
# 6 0.0000 0.0000 0.0000 0.0000 0.0000 7.1467
#
#
#
# Elastic Compliance Matrix: (Units=1/GPa)
#
#
# Indices 1 2 3 4 5 6 
#
# 1 0.017623 -0.003236 -0.001961 0.000000 0.000000 0.000000
# 2 -0.003236 0.009497 -0.002428 0.000000 0.000000 0.000000
# 3 -0.001961 -0.002428 0.011763 0.000000 0.000000 0.000000
# 4 0.000000 0.000000 0.000000 0.044075 0.000000 0.000000
# 5 0.000000 0.000000 0.000000 0.000000 0.109116 0.000000
# 6 0.000000 0.000000 0.000000 0.000000 0.000000 0.139925
#
#
# Mechanical properties :
#
#
# Convention : Reuss Voigt Hill
#
# Bulk Modulus (GPa) = 42.31627 46.65896 44.48761
# Shear Modulus (GPa) = 14.07947 21.64524 17.86236
#
# Velocity S-wave (km/s) = 2.79871 3.47013 3.15235
# Velocity P-wave (km/s) = 5.82970 6.48177 6.16436
#
# Compressibility (1/GPa) = 0.02363157
#
# Stress axis : x y z
#
# Youngs Moduli (GPa) = 56.74368 105.29547 85.01482
#
# Poissons Ratio (x) = 0.34071 0.16675
# Poissons Ratio (y) = 0.18361 0.20645
# Poissons Ratio (z) = 0.11130 0.25570
#
# Static dielectric constant tensor:
#      x y z
#    x 3.415790 0.000000 0.000000 
#    y 0.000000 3.837020 0.000000 
#    z 0.000000 0.000000 3.080380 
# 
# 
# High freq. dielectric constant tensor:
#      x y z
#    x 1.665750 0.000000 0.000000 
#    y 0.000000 1.708320 0.000000 
#    z 0.000000 0.000000 1.663390 
# 
# From -- ./inp_files/17653.got.cif
#   From: 2010.03.12/outbox.cif.g09.slc.cpg/sg53_9_cif.got.tgz:17653.got - 2010.04.16 14:36:59.
