data_PCOD8219617
_publ_section_title
;
Structure prediction by ZEFSAII (Michael W. Deem and Ramdas Pophale) SiO2 
 PCOD8219617
Probable space group: P M N A
;
_chemical_formula_sum "Si O2"
_cell_formula_units_Z 64
_cell_length_a 18.023975
_cell_length_b 8.999562
_cell_length_c 20.835436
_cell_angle_alpha 90.000000
_cell_angle_beta 90.000000
_cell_angle_gamma 90.000000
_cell_volume 3379.671913
_symmetry_space_group_name_H-M "P M N A"
_symmetry_group_IT_number 53
_symmetry_cell_setting 'orthorhombic'
loop_
_space_group_symop_operation_xyz
x,y,z
1/2-x,-y,1/2+z
x,-y,-z
1/2-x,y,1/2-z
-x,-y,-z
1/2+x,y,1/2-z
-x,y,z
1/2+x,-y,1/2+z
loop_
_atom_site_type_symbol
_atom_site_label
_atom_site_fract_x
_atom_site_fract_y
_atom_site_fract_z
Si Si1 0.689731 0.645232 0.098187
Si Si2 0.411921 0.614926 0.900379
Si Si3 0.317827 0.841679 0.978395
Si Si4 0.726494 0.120880 0.360783
Si Si5 0.815901 0.133845 0.707389
Si Si6 0.916941 0.037979 0.204039
Si Si7 0.918504 0.362538 0.254458
Si Si8 0.215238 0.551088 0.816231
O O1 0.625553 0.535054 0.072378
O O2 0.657115 0.749400 0.154283
O O3 0.762216 0.555985 0.124492
O O4 0.712537 0.746094 0.038126
O O5 0.500000 0.610466 0.909121
O O6 0.381147 0.758433 0.937507
O O7 0.385871 0.614308 0.825967
O O8 0.244878 0.874112 0.936019
O O9 0.352218 0.000000 0.000000
O O10 0.641653 0.062606 0.354012
O O11 0.740692 0.281990 0.330885
O O12 0.783657 0.015400 0.323975
O O13 0.750000 0.206352 0.750000
O O14 0.887561 0.094406 0.750291
O O15 0.920395 0.186567 0.245573
O O16 0.000000 0.998202 0.178406
O O17 0.872936 0.447281 0.198475
O O18 0.000000 0.432284 0.250197
O O19 0.250000 0.494942 0.750000
#
# Coordination Sequence:
#
# PCOD8219617 Si02
#       8
#     8   8   8   8   8   8   8   8
#     4  12  24  34  58  83 117 155 193 238 288 338
#     4  11  24  41  58  84 119 151 190 236 289 346
#     4  12  24  41  59  80 109 156 207 239 274 337
#     4  10  19  37  60  84 114 153 198 241 278 333
#     4  10  20  34  55  87 117 151 190 241 286 336
#     4   9  18  33  60  91 118 148 188 237 294 346
#     4   9  18  34  60  88 116 149 183 230 292 356
#     4  11  18  33  60  86 114 144 186 237 292 344
#
# _framework density 18.936748999999999
#
# number of rings (size 3 to 8) (size 9 to 14) (size 15 to 20)
#    0.000    1.500    3.750    3.375    0.000    1.750 
#    0.000    0.000    0.000    1.125    0.000    3.500 
#    0.000    0.000    0.000    0.000    0.000    0.000 
#
# Total GULP energy -793359.204177 kJ/mol
# GULP energy per Si atom -12396.237565 kJ/mol
# Density = 1.889365 g / cm^3
# Si number density = 18.936749 Si / 1000 Ang^3
#
#
#
# Elastic Constant Matrix: (Units=GPa)
#
#
# Indices 1 2 3 4 5 6 
#
# 1 118.2863 45.0362 49.1081 0.0000 0.0000 0.0000
# 2 45.0362 98.6165 45.8855 0.0000 0.0000 0.0000
# 3 49.1081 45.8855 97.3187 0.0000 0.0000 0.0000
# 4 0.0000 0.0000 0.0000 40.0655 0.0000 0.0000
# 5 0.0000 0.0000 0.0000 0.0000 21.7998 0.0000
# 6 0.0000 0.0000 0.0000 0.0000 0.0000 12.3199
#
#
#
# Elastic Compliance Matrix: (Units=1/GPa)
#
#
# Indices 1 2 3 4 5 6 
#
# 1 0.011457 -0.003257 -0.004246 0.000000 0.000000 0.000000
# 2 -0.003257 0.013916 -0.004918 0.000000 0.000000 0.000000
# 3 -0.004246 -0.004918 0.014737 0.000000 0.000000 0.000000
# 4 0.000000 0.000000 0.000000 0.024959 0.000000 0.000000
# 5 0.000000 0.000000 0.000000 0.000000 0.045872 0.000000
# 6 0.000000 0.000000 0.000000 0.000000 0.000000 0.081169
#
#
# Mechanical properties :
#
#
# Convention : Reuss Voigt Hill
#
# Bulk Modulus (GPa) = 65.49317 66.03121 65.76219
# Shear Modulus (GPa) = 22.51853 26.44984 24.48419
#
# Velocity S-wave (km/s) = 3.45214 3.74136 3.59966
# Velocity P-wave (km/s) = 7.10985 7.32180 7.21660
#
# Compressibility (1/GPa) = 0.01526877
#
# Stress axis : x y z
#
# Youngs Moduli (GPa) = 87.28593 71.86098 67.85759
#
# Poissons Ratio (x) = 0.23402 0.28810
# Poissons Ratio (y) = 0.28425 0.33372
# Poissons Ratio (z) = 0.37059 0.35341
#
# Static dielectric constant tensor:
#      x y z
#    x 3.580060 0.000000 0.000000 
#    y 0.000000 3.532150 0.000000 
#    z 0.000000 0.000000 3.523660 
# 
# 
# High freq. dielectric constant tensor:
#      x y z
#    x 1.719200 0.000000 0.000000 
#    y 0.000000 1.742840 0.000000 
#    z 0.000000 0.000000 1.722440 
# 
# From -- ./inp_files/32862.got.cif
#   From: 2010.03.12/outbox.cif.g09.slc.cpg/sg53_17_cif.got.tgz:32862.got - 2010.04.16 14:36:59.
