data_PCOD8219991
_publ_section_title
;
Structure prediction by ZEFSAII (Michael W. Deem and Ramdas Pophale) SiO2 
 PCOD8219991
Probable space group: P M N A
;
_chemical_formula_sum "Si O2"
_cell_formula_units_Z 64
_cell_length_a 9.283322
_cell_length_b 17.461107
_cell_length_c 19.851112
_cell_angle_alpha 90.000000
_cell_angle_beta 90.000000
_cell_angle_gamma 90.000000
_cell_volume 3217.807265
_symmetry_space_group_name_H-M "P M N A"
_symmetry_group_IT_number 53
_symmetry_cell_setting 'orthorhombic'
loop_
_space_group_symop_operation_xyz
x,y,z
1/2-x,-y,1/2+z
x,-y,-z
1/2-x,y,1/2-z
-x,-y,-z
1/2+x,y,1/2-z
-x,y,z
1/2+x,-y,1/2+z
loop_
_atom_site_type_symbol
_atom_site_label
_atom_site_fract_x
_atom_site_fract_y
_atom_site_fract_z
Si Si1 0.670267 0.077948 0.464428
Si Si2 0.342764 0.661426 0.987996
Si Si3 0.331544 0.596786 0.401936
Si Si4 0.671555 0.726334 0.180736
Si Si5 0.844964 0.183509 0.558966
Si Si6 0.337642 0.539919 0.688989
Si Si7 0.334414 0.296903 0.362726
Si Si8 0.832732 0.128511 0.183263
O O1 0.500000 0.084558 0.464407
O O2 0.726124 0.145223 0.512149
O O3 0.723565 0.087683 0.386474
O O4 0.724057 0.000000 0.500000
O O5 0.500000 0.625657 0.969220
O O6 0.270569 0.703016 0.925396
O O7 0.237818 0.599458 0.023123
O O8 0.367378 0.728109 0.041102
O O9 0.500000 0.619324 0.405521
O O10 0.249490 0.651846 0.350266
O O11 0.310208 0.508822 0.378477
O O12 0.750000 0.744835 0.250000
O O13 0.500000 0.710817 0.189856
O O14 0.699171 0.805225 0.137235
O O15 0.000000 0.140438 0.550953
O O16 0.250000 0.503337 0.750000
O O17 0.500000 0.533248 0.712483
O O18 0.293714 0.628433 0.680104
O O19 0.500000 0.300058 0.387302
O O20 0.305702 0.219600 0.321106
O O21 0.750000 0.097643 0.250000
O O22 0.000000 0.109399 0.193623
#
# Coordination Sequence:
#
# PCOD8219991 Si02
#       8
#     8   8   8   8   8   8   8   8
#     4  10  21  38  61  89 117 148 187 226 274 338
#     4  10  20  34  54  81 108 140 184 233 280 337
#     4  10  20  34  52  74 105 147 188 236 293 341
#     4  10  20  34  53  81 111 145 193 242 287 340
#     4   9  19  35  55  81 112 143 184 230 275 330
#     4  10  22  36  51  73 103 141 187 237 288 346
#     4  10  20  36  56  79 108 144 188 232 283 341
#     4  10  21  37  60  88 116 151 189 231 279 334
#
# _framework density 19.889320000000001
#
# number of rings (size 3 to 8) (size 9 to 14) (size 15 to 20)
#    0.000    2.125    1.250    2.625    0.000    6.750 
#    0.000    3.125    0.000    3.000    0.000    0.000 
#    0.000    0.000    0.000    0.000    0.000    0.000 
#
# Total GULP energy -793057.287482 kJ/mol
# GULP energy per Si atom -12391.520117 kJ/mol
# Density = 1.984405 g / cm^3
# Si number density = 19.889320 Si / 1000 Ang^3
#
#
#
# Elastic Constant Matrix: (Units=GPa)
#
#
# Indices 1 2 3 4 5 6 
#
# 1 78.5879 25.8685 52.4982 0.0000 0.0000 0.0000
# 2 25.8685 68.1853 29.5601 0.0000 0.0000 0.0000
# 3 52.4982 29.5601 108.0904 0.0000 0.0000 0.0000
# 4 0.0000 0.0000 0.0000 18.7018 0.0000 0.0000
# 5 0.0000 0.0000 0.0000 0.0000 34.2326 0.0000
# 6 0.0000 0.0000 0.0000 0.0000 0.0000 18.6065
#
#
#
# Elastic Compliance Matrix: (Units=1/GPa)
#
#
# Indices 1 2 3 4 5 6 
#
# 1 0.019652 -0.003764 -0.008515 0.000000 0.000000 0.000000
# 2 -0.003764 0.017360 -0.002919 0.000000 0.000000 0.000000
# 3 -0.008515 -0.002919 0.014186 0.000000 0.000000 0.000000
# 4 0.000000 0.000000 0.000000 0.053471 0.000000 0.000000
# 5 0.000000 0.000000 0.000000 0.000000 0.029212 0.000000
# 6 0.000000 0.000000 0.000000 0.000000 0.000000 0.053745
#
#
# Mechanical properties :
#
#
# Convention : Reuss Voigt Hill
#
# Bulk Modulus (GPa) = 48.07722 52.30189 50.18955
# Shear Modulus (GPa) = 22.22665 24.10398 23.16531
#
# Velocity S-wave (km/s) = 3.34655 3.48502 3.41649
# Velocity P-wave (km/s) = 6.25759 6.52284 6.39159
#
# Compressibility (1/GPa) = 0.02079987
#
# Stress axis : x y z
#
# Youngs Moduli (GPa) = 50.88540 57.60527 70.49374
#
# Poissons Ratio (x) = 0.21683 0.60028
# Poissons Ratio (y) = 0.19153 0.20579
# Poissons Ratio (z) = 0.43331 0.16816
#
# Static dielectric constant tensor:
#      x y z
#    x 3.712640 0.000000 0.000000 
#    y 0.000000 3.544130 0.000000 
#    z 0.000000 0.000000 -7.282750 
# 
# 
# High freq. dielectric constant tensor:
#      x y z
#    x 1.780210 0.000000 0.000000 
#    y 0.000000 1.747170 0.000000 
#    z 0.000000 0.000000 1.781270 
# 
# From -- ./inp_files/31219.got.cif
#   From: 2010.03.12/outbox.cif.g09.slc.cpg/sg53_16_cif.got.tgz:31219.got - 2010.04.16 14:36:59.
