data_PCOD8219413
_publ_section_title
;
Structure prediction by ZEFSAII (Michael W. Deem and Ramdas Pophale) SiO2 
 PCOD8219413
Probable space group: P M N A
;
_chemical_formula_sum "Si O2"
_cell_formula_units_Z 48
_cell_length_a 8.859430
_cell_length_b 11.874067
_cell_length_c 25.372706
_cell_angle_alpha 90.000000
_cell_angle_beta 90.000000
_cell_angle_gamma 90.000000
_cell_volume 2669.144362
_symmetry_space_group_name_H-M "P M N A"
_symmetry_group_IT_number 53
_symmetry_cell_setting 'orthorhombic'
loop_
_space_group_symop_operation_xyz
x,y,z
1/2-x,-y,1/2+z
x,-y,-z
1/2-x,y,1/2-z
-x,-y,-z
1/2+x,y,1/2-z
-x,y,z
1/2+x,-y,1/2+z
loop_
_atom_site_type_symbol
_atom_site_label
_atom_site_fract_x
_atom_site_fract_y
_atom_site_fract_z
Si Si1 0.668237 0.349420 0.470901
Si Si2 0.675972 0.284611 0.927540
Si Si3 0.676659 0.952940 0.443960
Si Si4 0.177576 0.667236 0.693448
Si Si5 0.324952 0.483735 0.621763
Si Si6 0.830138 0.830002 0.882784
O O1 0.500000 0.357532 0.496014
O O2 0.791562 0.343203 0.516467
O O3 0.699891 0.457782 0.434972
O O4 0.680869 0.236181 0.437468
O O5 0.500000 0.283275 0.916231
O O6 0.737525 0.158588 0.926576
O O7 0.755490 0.358585 0.881631
O O8 0.500000 0.925567 0.449200
O O9 0.737355 0.000000 0.500000
O O10 0.709648 0.041540 0.396984
O O11 0.250000 0.682400 0.750000
O O12 0.241529 0.554804 0.666579
O O13 0.215724 0.779138 0.659791
O O14 0.000000 0.655447 0.698644
O O15 0.500000 0.478271 0.637125
O O16 0.000000 0.818687 0.859961
#
# Coordination Sequence:
#
# PCOD8219413 Si02
#       6
#     8   8   8   8   8   8
#     4   9  17  32  51  72 102 144 185 221 261 318
#     4  12  23  31  46  76 113 147 182 224 270 318
#     4  10  19  35  55  74 105 153 195 222 260 322
#     4  11  22  38  61  86 111 136 172 223 280 330
#     4  10  21  37  55  75 103 141 184 224 269 324
#     4   9  18  34  56  80 107 142 187 228 267 316
#
# _framework density 17.983291999999999
#
# number of rings (size 3 to 8) (size 9 to 14) (size 15 to 20)
#    0.000    1.833    1.667    5.000    0.000    6.333 
#    0.000    0.000    0.000    1.000    0.000    2.333 
#    0.000    0.000    0.000    0.000    0.000    0.000 
#
# Total GULP energy -595238.992243 kJ/mol
# GULP energy per Si atom -12400.812338 kJ/mol
# Density = 1.794236 g / cm^3
# Si number density = 17.983292 Si / 1000 Ang^3
#
#
#
# Elastic Constant Matrix: (Units=GPa)
#
#
# Indices 1 2 3 4 5 6 
#
# 1 112.5852 32.2147 37.4805 0.0000 0.0000 0.0000
# 2 32.2147 73.4436 25.6326 0.0000 0.0000 0.0000
# 3 37.4805 25.6326 67.7523 0.0000 0.0000 0.0000
# 4 0.0000 0.0000 0.0000 5.7468 0.0000 0.0000
# 5 0.0000 0.0000 0.0000 0.0000 27.3019 0.0000
# 6 0.0000 0.0000 0.0000 0.0000 0.0000 23.9565
#
#
#
# Elastic Compliance Matrix: (Units=1/GPa)
#
#
# Indices 1 2 3 4 5 6 
#
# 1 0.011528 -0.003261 -0.005143 0.000000 0.000000 0.000000
# 2 -0.003261 0.016610 -0.004480 0.000000 0.000000 0.000000
# 3 -0.005143 -0.004480 0.019300 0.000000 0.000000 0.000000
# 4 0.000000 0.000000 0.000000 0.174011 0.000000 0.000000
# 5 0.000000 0.000000 0.000000 0.000000 0.036628 0.000000
# 6 0.000000 0.000000 0.000000 0.000000 0.000000 0.041742
#
#
# Mechanical properties :
#
#
# Convention : Reuss Voigt Hill
#
# Bulk Modulus (GPa) = 46.14998 49.38186 47.76592
# Shear Modulus (GPa) = 15.02362 21.96459 18.49411
#
# Velocity S-wave (km/s) = 2.89350 3.49863 3.21035
# Velocity P-wave (km/s) = 6.07302 6.62118 6.35301
#
# Compressibility (1/GPa) = 0.02166848
#
# Stress axis : x y z
#
# Youngs Moduli (GPa) = 86.74868 60.20499 51.81434
#
# Poissons Ratio (x) = 0.19635 0.26649
# Poissons Ratio (y) = 0.28292 0.23212
# Poissons Ratio (z) = 0.44616 0.26971
#
# Static dielectric constant tensor:
#      x y z
#    x 3.279010 0.000000 0.000000 
#    y 0.000000 3.518240 0.000000 
#    z 0.000000 0.000000 3.065260 
# 
# 
# High freq. dielectric constant tensor:
#      x y z
#    x 1.694540 0.000000 0.000000 
#    y 0.000000 1.705890 0.000000 
#    z 0.000000 0.000000 1.661120 
# 
# From -- ./inp_files/33868.got.cif
#   From: 2010.03.12/outbox.cif.g09.slc.cpg/sg53_17_cif.got.tgz:33868.got - 2010.04.16 14:36:59.
