data_PCOD8219012
_publ_section_title
;
Structure prediction by ZEFSAII (Michael W. Deem and Ramdas Pophale) SiO2 
 PCOD8219012
Probable space group: P M N A
;
_chemical_formula_sum "Si O2"
_cell_formula_units_Z 64
_cell_length_a 9.128243
_cell_length_b 19.239588
_cell_length_c 20.539560
_cell_angle_alpha 90.000000
_cell_angle_beta 90.000000
_cell_angle_gamma 90.000000
_cell_volume 3607.232178
_symmetry_space_group_name_H-M "P M N A"
_symmetry_group_IT_number 53
_symmetry_cell_setting 'orthorhombic'
loop_
_space_group_symop_operation_xyz
x,y,z
1/2-x,-y,1/2+z
x,-y,-z
1/2-x,y,1/2-z
-x,-y,-z
1/2+x,y,1/2-z
-x,y,z
1/2+x,-y,1/2+z
loop_
_atom_site_type_symbol
_atom_site_label
_atom_site_fract_x
_atom_site_fract_y
_atom_site_fract_z
Si Si1 0.666825 0.172408 0.869931
Si Si2 0.832341 0.463710 0.066233
Si Si3 0.170301 0.821508 0.522021
Si Si4 0.167612 0.673113 0.381723
Si Si5 0.332295 0.683914 0.512345
Si Si6 0.328252 0.045103 0.438507
Si Si7 0.330181 0.467984 0.815830
Si Si8 0.671699 0.953980 0.314441
O O1 0.500000 0.151057 0.854152
O O2 0.699184 0.251961 0.849147
O O3 0.774571 0.123933 0.829255
O O4 0.699860 0.163895 0.946277
O O5 0.818318 0.380569 0.061335
O O6 0.730896 0.487011 0.125054
O O7 0.000000 0.486283 0.079711
O O8 0.776446 0.500000 0.000000
O O9 0.241859 0.748176 0.541972
O O10 0.243501 0.882263 0.564005
O O11 0.000000 0.818110 0.538858
O O12 0.272562 0.659523 0.442516
O O13 0.196286 0.613874 0.328522
O O14 0.000000 0.671876 0.407632
O O15 0.500000 0.707084 0.503461
O O16 0.500000 0.060414 0.443549
O O17 0.274620 0.000000 0.500000
O O18 0.285611 0.004346 0.373386
O O19 0.250000 0.489959 0.750000
O O20 0.500000 0.485482 0.808006
O O21 0.750000 0.983068 0.250000
O O22 0.500000 0.951448 0.302389
#
# Coordination Sequence:
#
# PCOD8219012 Si02
#       8
#     8   8   8   8   8   8   8   8
#     4   9  18  33  51  75 109 144 181 219 260 314
#     4  10  20  36  57  83 111 142 185 230 276 327
#     4  10  20  33  54  83 113 141 176 224 271 322
#     4   9  19  34  51  77 110 145 184 224 267 319
#     4  10  19  32  55  82 111 144 177 223 273 323
#     4  10  20  36  57  81 108 139 182 227 270 319
#     4  11  23  37  55  78 111 150 188 231 278 329
#     4  11  23  37  54  77 108 144 180 223 267 320
#
# _framework density 17.742135000000001
#
# number of rings (size 3 to 8) (size 9 to 14) (size 15 to 20)
#    0.000    2.000    2.500    2.250    0.000    5.500 
#    0.000    1.250    0.000    0.750    0.000    3.500 
#    0.000    0.000    0.000    0.000    0.000    0.000 
#
# Total GULP energy -793830.737696 kJ/mol
# GULP energy per Si atom -12403.605277 kJ/mol
# Density = 1.770175 g / cm^3
# Si number density = 17.742135 Si / 1000 Ang^3
#
#
#
# Elastic Constant Matrix: (Units=GPa)
#
#
# Indices 1 2 3 4 5 6 
#
# 1 99.3576 53.7369 60.2465 0.0000 0.0000 0.0000
# 2 53.7369 95.9541 50.8567 0.0000 0.0000 0.0000
# 3 60.2465 50.8567 106.1467 0.0000 0.0000 0.0000
# 4 0.0000 0.0000 0.0000 20.2273 0.0000 0.0000
# 5 0.0000 0.0000 0.0000 0.0000 29.8765 0.0000
# 6 0.0000 0.0000 0.0000 0.0000 0.0000 31.2729
#
#
#
# Elastic Compliance Matrix: (Units=1/GPa)
#
#
# Indices 1 2 3 4 5 6 
#
# 1 0.017692 -0.006147 -0.007097 0.000000 0.000000 0.000000
# 2 -0.006147 0.016104 -0.004227 0.000000 0.000000 0.000000
# 3 -0.007097 -0.004227 0.015474 0.000000 0.000000 0.000000
# 4 0.000000 0.000000 0.000000 0.049438 0.000000 0.000000
# 5 0.000000 0.000000 0.000000 0.000000 0.033471 0.000000
# 6 0.000000 0.000000 0.000000 0.000000 0.000000 0.031977
#
#
# Mechanical properties :
#
#
# Convention : Reuss Voigt Hill
#
# Bulk Modulus (GPa) = 69.78568 70.12652 69.95610
# Shear Modulus (GPa) = 24.52491 25.38324 24.95408
#
# Velocity S-wave (km/s) = 3.72196 3.78653 3.75438
# Velocity P-wave (km/s) = 7.60850 7.66344 7.63602
#
# Compressibility (1/GPa) = 0.01432959
#
# Stress axis : x y z
#
# Youngs Moduli (GPa) = 56.52189 62.09466 64.62402
#
# Poissons Ratio (x) = 0.38168 0.45862
# Poissons Ratio (y) = 0.34743 0.27317
# Poissons Ratio (z) = 0.40112 0.26248
#
# Static dielectric constant tensor:
#      x y z
#    x 3.336610 0.000000 0.000000 
#    y 0.000000 3.332190 0.000000 
#    z 0.000000 0.000000 3.055210 
# 
# 
# High freq. dielectric constant tensor:
#      x y z
#    x 1.695980 0.000000 0.000000 
#    y 0.000000 1.688720 0.000000 
#    z 0.000000 0.000000 1.657660 
# 
# From -- ./inp_files/31200.got.cif
#   From: 2010.03.12/outbox.cif.g09.slc.cpg/sg53_16_cif.got.tgz:31200.got - 2010.04.16 14:36:59.
