data_PCOD8219519
_publ_section_title
;
Structure prediction by ZEFSAII (Michael W. Deem and Ramdas Pophale) SiO2 
 PCOD8219519
Probable space group: P M N A
;
_chemical_formula_sum "Si O2"
_cell_formula_units_Z 32
_cell_length_a 32.666953
_cell_length_b 5.223045
_cell_length_c 8.282987
_cell_angle_alpha 90.000000
_cell_angle_beta 90.000000
_cell_angle_gamma 90.000000
_cell_volume 1413.251239
_symmetry_space_group_name_H-M "P M N A"
_symmetry_group_IT_number 53
_symmetry_cell_setting 'orthorhombic'
loop_
_space_group_symop_operation_xyz
x,y,z
1/2-x,-y,1/2+z
x,-y,-z
1/2-x,y,1/2-z
-x,-y,-z
1/2+x,y,1/2-z
-x,y,z
1/2+x,-y,1/2+z
loop_
_atom_site_type_symbol
_atom_site_label
_atom_site_fract_x
_atom_site_fract_y
_atom_site_fract_z
Si Si1 0.295812 0.771247 0.694096
Si Si2 0.923871 0.396981 0.834337
Si Si3 0.452583 0.103615 0.170154
Si Si4 0.329895 0.727280 0.335385
O O1 0.250000 0.824418 0.750000
O O2 0.303708 0.748740 0.501348
O O3 0.311513 0.505228 0.771659
O O4 0.323112 0.007999 0.761213
O O5 0.928312 0.632874 0.708636
O O6 0.877137 0.322422 0.868183
O O7 0.946832 0.133673 0.792049
O O8 0.943713 0.500000 0.000000
O O9 0.500000 0.180001 0.160887
O O10 0.435726 0.000000 0.000000
#
# Coordination Sequence:
#
# PCOD8219519 Si02
#       4
#     8   8   8   8
#     4  10  19  35  62  85 120 165 212 260 337 403
#     4  12  23  41  75 103 137 182 229 293 342 404
#     4  11  26  46  69  99 143 188 228 280 346 415
#     4  10  21  37  61  92 125 171 211 280 339 387
#
# _framework density 22.642821999999999
#
# number of rings (size 3 to 8) (size 9 to 14) (size 15 to 20)
#    0.000    1.250    2.500    4.500    3.500    5.000 
#    0.000    0.000   55.000    0.000    0.000    0.000 
#    0.000    0.000    0.000    0.000    0.000    0.000 
#
# Total GULP energy -396490.078838 kJ/mol
# GULP energy per Si atom -12390.314964 kJ/mol
# Density = 2.259129 g / cm^3
# Si number density = 22.642822 Si / 1000 Ang^3
#
#
#
# Elastic Constant Matrix: (Units=GPa)
#
#
# Indices 1 2 3 4 5 6 
#
# 1 87.0591 38.4333 33.8671 0.0000 0.0000 0.0000
# 2 38.4333 217.5023 9.5282 0.0000 0.0000 0.0000
# 3 33.8671 9.5282 48.4852 0.0000 0.0000 0.0000
# 4 0.0000 0.0000 0.0000 25.1575 0.0000 0.0000
# 5 0.0000 0.0000 0.0000 0.0000 30.7753 0.0000
# 6 0.0000 0.0000 0.0000 0.0000 0.0000 122.5656
#
#
#
# Elastic Compliance Matrix: (Units=1/GPa)
#
#
# Indices 1 2 3 4 5 6 
#
# 1 0.017030 -0.002510 -0.011402 0.000000 0.000000 0.000000
# 2 -0.002510 0.005007 0.000769 0.000000 0.000000 0.000000
# 3 -0.011402 0.000769 0.028438 0.000000 0.000000 0.000000
# 4 0.000000 0.000000 0.000000 0.039750 0.000000 0.000000
# 5 0.000000 0.000000 0.000000 0.000000 0.032494 0.000000
# 6 0.000000 0.000000 0.000000 0.000000 0.000000 0.008159
#
#
# Mechanical properties :
#
#
# Convention : Reuss Voigt Hill
#
# Bulk Modulus (GPa) = 41.33998 57.41152 49.37575
# Shear Modulus (GPa) = 30.26133 53.78087 42.02110
#
# Velocity S-wave (km/s) = 3.65973 4.87887 4.31260
# Velocity P-wave (km/s) = 6.01293 7.55964 6.83021
#
# Compressibility (1/GPa) = 0.02418966
#
# Stress axis : x y z
#
# Youngs Moduli (GPa) = 58.71963 199.70262 35.16380
#
# Poissons Ratio (x) = 0.50121 0.40095
# Poissons Ratio (y) = 0.14737 -0.02704
# Poissons Ratio (z) = 0.66954 -0.15358
#
# Static dielectric constant tensor:
#      x y z
#    x 3.848160 0.000000 0.000000 
#    y 0.000000 6.187360 0.000000 
#    z 0.000000 0.000000 3.860290 
# 
# 
# High freq. dielectric constant tensor:
#      x y z
#    x 1.884080 0.000000 0.000000 
#    y 0.000000 1.942580 0.000000 
#    z 0.000000 0.000000 1.847470 
# 
# From -- ./inp_files/12678.got.cif
#   From: 2010.03.12/outbox.cif.g09.slc.cpg/sg53_7_cif.got.tgz:12678.got - 2010.04.16 14:36:59.
