data_PCOD8219703
_publ_section_title
;
Structure prediction by ZEFSAII (Michael W. Deem and Ramdas Pophale) SiO2 
 PCOD8219703
Probable space group: P M N A
;
_chemical_formula_sum "Si O2"
_cell_formula_units_Z 64
_cell_length_a 9.017804
_cell_length_b 14.673404
_cell_length_c 27.453700
_cell_angle_alpha 90.000000
_cell_angle_beta 90.000000
_cell_angle_gamma 90.000000
_cell_volume 3632.725232
_symmetry_space_group_name_H-M "P M N A"
_symmetry_group_IT_number 53
_symmetry_cell_setting 'orthorhombic'
loop_
_space_group_symop_operation_xyz
x,y,z
1/2-x,-y,1/2+z
x,-y,-z
1/2-x,y,1/2-z
-x,-y,-z
1/2+x,y,1/2-z
-x,y,z
1/2+x,-y,1/2+z
loop_
_atom_site_type_symbol
_atom_site_label
_atom_site_fract_x
_atom_site_fract_y
_atom_site_fract_z
Si Si1 0.324061 0.473372 0.891170
Si Si2 0.672915 0.650300 0.582903
Si Si3 0.671544 0.834648 0.918432
Si Si4 0.324088 0.970929 0.110624
Si Si5 0.329022 0.830820 0.031550
Si Si6 0.327074 0.352858 0.530787
Si Si7 0.825100 0.854473 0.299381
Si Si8 0.826035 0.353795 0.700407
O O1 0.500000 0.476388 0.895489
O O2 0.259933 0.575118 0.885666
O O3 0.258003 0.431059 0.940308
O O4 0.271360 0.415693 0.844362
O O5 0.500000 0.644413 0.594770
O O6 0.731805 0.749256 0.599148
O O7 0.706465 0.633426 0.526120
O O8 0.500000 0.814353 0.906551
O O9 0.732381 0.924655 0.890778
O O10 0.693357 0.854674 0.975400
O O11 0.500000 0.972569 0.111171
O O12 0.271741 0.916862 0.062515
O O13 0.262300 0.919378 0.158111
O O14 0.500000 0.807268 0.043573
O O15 0.231990 0.744851 0.048045
O O16 0.500000 0.360752 0.542424
O O17 0.750000 0.888472 0.250000
O O18 0.780099 0.750324 0.311263
O O19 0.000000 0.863972 0.293795
O O20 0.750000 0.388280 0.750000
O O21 0.000000 0.363002 0.708103
#
# Coordination Sequence:
#
# PCOD8219703 Si02
#       8
#     8   8   8   8   8   8   8   8
#     4  11  21  33  52  75  96 124 165 205 240 285
#     4  10  21  35  48  67  99 134 165 201 244 286
#     4   9  17  30  49  71  94 125 164 201 238 282
#     4   9  16  28  49  73  96 124 159 199 239 279
#     4   9  16  28  47  71  98 126 159 198 238 284
#     4  10  20  32  46  69 102 135 164 196 239 289
#     4   9  17  31  49  70  98 126 151 185 231 281
#     4   9  19  34  52  75 101 126 153 190 238 291
#
# _framework density 17.617628
#
# number of rings (size 3 to 8) (size 9 to 14) (size 15 to 20)
#    0.000    2.500    0.000    2.625    0.000    7.500 
#    0.000    4.375    0.000    3.750    0.000    1.750 
#    0.000    0.000    0.000    0.000    0.000    0.000 
#
# Total GULP energy -793672.309090 kJ/mol
# GULP energy per Si atom -12401.129830 kJ/mol
# Density = 1.757753 g / cm^3
# Si number density = 17.617628 Si / 1000 Ang^3
#
#
#
# Elastic Constant Matrix: (Units=GPa)
#
#
# Indices 1 2 3 4 5 6 
#
# 1 53.5532 42.6034 30.4638 0.0000 0.0000 0.0000
# 2 42.6034 138.6912 60.4586 0.0000 0.0000 0.0000
# 3 30.4638 60.4586 72.7614 0.0000 0.0000 0.0000
# 4 0.0000 0.0000 0.0000 26.3818 0.0000 0.0000
# 5 0.0000 0.0000 0.0000 0.0000 23.7772 0.0000
# 6 0.0000 0.0000 0.0000 0.0000 0.0000 17.0538
#
#
#
# Elastic Compliance Matrix: (Units=1/GPa)
#
#
# Indices 1 2 3 4 5 6 
#
# 1 0.026725 -0.005224 -0.006848 0.000000 0.000000 0.000000
# 2 -0.005224 0.012326 -0.008055 0.000000 0.000000 0.000000
# 3 -0.006848 -0.008055 0.023304 0.000000 0.000000 0.000000
# 4 0.000000 0.000000 0.000000 0.037905 0.000000 0.000000
# 5 0.000000 0.000000 0.000000 0.000000 0.042057 0.000000
# 6 0.000000 0.000000 0.000000 0.000000 0.000000 0.058638
#
#
# Mechanical properties :
#
#
# Convention : Reuss Voigt Hill
#
# Bulk Modulus (GPa) = 45.24868 59.11750 52.18309
# Shear Modulus (GPa) = 20.11458 22.20790 21.16124
#
# Velocity S-wave (km/s) = 3.38262 3.55427 3.46951
# Velocity P-wave (km/s) = 6.40278 7.10440 6.76270
#
# Compressibility (1/GPa) = 0.02210009
#
# Stress axis : x y z
#
# Youngs Moduli (GPa) = 37.41877 81.12747 42.91136
#
# Poissons Ratio (x) = 0.42380 0.29388
# Poissons Ratio (y) = 0.19547 0.34565
# Poissons Ratio (z) = 0.25626 0.65348
#
# Static dielectric constant tensor:
#      x y z
#    x 3.130800 0.000000 0.000000 
#    y 0.000000 3.462560 0.000000 
#    z 0.000000 0.000000 3.175990 
# 
# 
# High freq. dielectric constant tensor:
#      x y z
#    x 1.668180 0.000000 0.000000 
#    y 0.000000 1.685740 0.000000 
#    z 0.000000 0.000000 1.658430 
# 
# From -- ./inp_files/34271.got.cif
#   From: 2010.03.12/outbox.cif.g09.slc.cpg/sg53_18_cif.got.tgz:34271.got - 2010.04.16 14:36:59.
