data_PCOD8219986
_publ_section_title
;
Structure prediction by ZEFSAII (Michael W. Deem and Ramdas Pophale) SiO2 
 PCOD8219986
Probable space group: P M N A
;
_chemical_formula_sum "Si O2"
_cell_formula_units_Z 40
_cell_length_a 8.856004
_cell_length_b 25.406165
_cell_length_c 9.617667
_cell_angle_alpha 90.000000
_cell_angle_beta 90.000000
_cell_angle_gamma 90.000000
_cell_volume 2163.947173
_symmetry_space_group_name_H-M "P M N A"
_symmetry_group_IT_number 53
_symmetry_cell_setting 'orthorhombic'
loop_
_space_group_symop_operation_xyz
x,y,z
1/2-x,-y,1/2+z
x,-y,-z
1/2-x,y,1/2-z
-x,-y,-z
1/2+x,y,1/2-z
-x,y,z
1/2+x,-y,1/2+z
loop_
_atom_site_type_symbol
_atom_site_label
_atom_site_fract_x
_atom_site_fract_y
_atom_site_fract_z
Si Si1 0.177949 0.047372 0.398184
Si Si2 0.677417 0.756385 0.392370
Si Si3 0.179459 0.154272 0.101126
Si Si4 0.822108 0.637759 0.105382
Si Si5 0.678185 0.452518 0.401554
O O1 0.250000 0.033934 0.250000
O O2 0.252173 0.100322 0.461379
O O3 0.000000 0.055841 0.380607
O O4 0.217711 0.000000 0.500000
O O5 0.750000 0.775763 0.250000
O O6 0.500000 0.758404 0.373567
O O7 0.732468 0.796425 0.509759
O O8 0.730699 0.697198 0.430336
O O9 0.250000 0.164852 0.250000
O O10 0.000000 0.149278 0.110646
O O11 0.750000 0.618237 0.250000
O O12 0.000000 0.633686 0.125766
O O13 0.769141 0.601223 0.977611
O O14 0.733522 0.500000 0.500000
O O15 0.750000 0.456529 0.250000
O O16 0.500000 0.454483 0.381148
#
# Coordination Sequence:
#
# PCOD8219986 Si02
#       5
#     8   8   8   8   8
#     4  10  21  36  54  76 101 131 167 205 248 298
#     4   9  19  34  52  75 102 133 168 207 250 296
#     4  10  20  34  52  74 101 132 166 205 249 296
#     4   9  18  34  53  74 102 133 168 209 251 297
#     4  10  21  35  52  76 104 134 170 211 253 300
#
# _framework density 18.484739999999999
#
# number of rings (size 3 to 8) (size 9 to 14) (size 15 to 20)
#    0.000    2.400    0.000    3.000    0.000    6.000 
#    0.000    4.000    0.000    0.000    0.000    0.000 
#    0.000    0.000    0.000    0.000    0.000    0.000 
#
# Total GULP energy -495991.641749 kJ/mol
# GULP energy per Si atom -12399.791044 kJ/mol
# Density = 1.844267 g / cm^3
# Si number density = 18.484740 Si / 1000 Ang^3
#
#
#
# Elastic Constant Matrix: (Units=GPa)
#
#
# Indices 1 2 3 4 5 6 
#
# 1 53.8673 47.3575 45.8118 0.0000 0.0000 0.0000
# 2 47.3575 149.5989 102.3239 0.0000 0.0000 0.0000
# 3 45.8118 102.3239 138.2537 0.0000 0.0000 0.0000
# 4 0.0000 0.0000 0.0000 36.9179 0.0000 0.0000
# 5 0.0000 0.0000 0.0000 0.0000 32.3571 0.0000
# 6 0.0000 0.0000 0.0000 0.0000 0.0000 16.0785
#
#
#
# Elastic Compliance Matrix: (Units=1/GPa)
#
#
# Indices 1 2 3 4 5 6 
#
# 1 0.027596 -0.005025 -0.005425 0.000000 0.000000 0.000000
# 2 -0.005025 0.014453 -0.009032 0.000000 0.000000 0.000000
# 3 -0.005425 -0.009032 0.015715 0.000000 0.000000 0.000000
# 4 0.000000 0.000000 0.000000 0.027087 0.000000 0.000000
# 5 0.000000 0.000000 0.000000 0.000000 0.030905 0.000000
# 6 0.000000 0.000000 0.000000 0.000000 0.000000 0.062195
#
#
# Mechanical properties :
#
#
# Convention : Reuss Voigt Hill
#
# Bulk Modulus (GPa) = 53.19089 81.41182 67.30135
# Shear Modulus (GPa) = 22.40333 26.81915 24.61124
#
# Velocity S-wave (km/s) = 3.48514 3.81318 3.65284
# Velocity P-wave (km/s) = 6.71066 7.97028 7.36744
#
# Compressibility (1/GPa) = 0.01880021
#
# Stress axis : x y z
#
# Youngs Moduli (GPa) = 36.23752 69.19020 63.63285
#
# Poissons Ratio (x) = 0.34770 0.34520
# Poissons Ratio (y) = 0.18210 0.57471
# Poissons Ratio (z) = 0.19658 0.62490
#
# Static dielectric constant tensor:
#      x y z
#    x 3.357480 0.000000 0.000000 
#    y 0.000000 3.810620 0.000000 
#    z 0.000000 0.000000 3.354610 
# 
# 
# High freq. dielectric constant tensor:
#      x y z
#    x 1.716270 0.000000 0.000000 
#    y 0.000000 1.731340 0.000000 
#    z 0.000000 0.000000 1.713440 
# 
# From -- ./inp_files/6437.got.cif
#   From: 2010.03.12/outbox.cif.g09.slc.cpg/sg53_4_cif.got.tgz:6437.got - 2010.04.16 14:36:59.
