data_PCOD8219211
_publ_section_title
;
Structure prediction by ZEFSAII (Michael W. Deem and Ramdas Pophale) SiO2 
 PCOD8219211
Probable space group: P M N A
;
_chemical_formula_sum "Si O2"
_cell_formula_units_Z 36
_cell_length_a 13.930610
_cell_length_b 8.934285
_cell_length_c 15.408290
_cell_angle_alpha 90.000000
_cell_angle_beta 90.000000
_cell_angle_gamma 90.000000
_cell_volume 1917.716389
_symmetry_space_group_name_H-M "P M N A"
_symmetry_group_IT_number 53
_symmetry_cell_setting 'orthorhombic'
loop_
_space_group_symop_operation_xyz
x,y,z
1/2-x,-y,1/2+z
x,-y,-z
1/2-x,y,1/2-z
-x,-y,-z
1/2+x,y,1/2-z
-x,y,z
1/2+x,-y,1/2+z
loop_
_atom_site_type_symbol
_atom_site_label
_atom_site_fract_x
_atom_site_fract_y
_atom_site_fract_z
Si Si1 0.250000 0.461767 0.750000
Si Si2 0.110293 0.171344 0.525714
Si Si3 0.389338 0.787698 0.221543
Si Si4 0.611635 0.887772 0.714611
Si Si5 0.781385 0.732315 0.633426
O O1 0.159535 0.354171 0.766684
O O2 0.264573 0.562460 0.835552
O O3 0.148273 0.191704 0.623244
O O4 0.178399 0.270903 0.463909
O O5 0.000000 0.223542 0.515529
O O6 0.121634 0.000000 0.500000
O O7 0.500000 0.751584 0.219670
O O8 0.367454 0.935829 0.277190
O O9 0.500000 0.856195 0.693271
O O10 0.680042 0.822140 0.639046
O O11 0.638479 0.808849 0.805309
#
# Coordination Sequence:
#
# PCOD8219211 Si02
#       5
#     4   8   8   8   8
#     4  10  22  34  48  78 114 148 180 206 268 334
#     4  10  19  33  57  87 111 135 175 231 281 318
#     4  10  20  34  55  80 110 142 177 225 271 320
#     4   9  17  32  54  78 102 139 187 224 262 314
#     4  10  20  32  53  81 110 146 177 226 270 323
#
# _framework density 18.772328000000002
#
# number of rings (size 3 to 8) (size 9 to 14) (size 15 to 20)
#    0.000    2.444    2.222    2.000    0.000    5.333 
#    0.000    2.222    0.000    2.000    0.000    7.778 
#    0.000    0.000    0.000    0.000    0.000    0.000 
#
# Total GULP energy -446340.307817 kJ/mol
# GULP energy per Si atom -12398.341884 kJ/mol
# Density = 1.872960 g / cm^3
# Si number density = 18.772328 Si / 1000 Ang^3
#
#
#
# Elastic Constant Matrix: (Units=GPa)
#
#
# Indices 1 2 3 4 5 6 
#
# 1 105.4093 48.2061 27.6018 0.0000 0.0000 0.0000
# 2 48.2061 119.6962 13.7868 0.0000 0.0000 0.0000
# 3 27.6018 13.7868 18.8275 0.0000 0.0000 0.0000
# 4 0.0000 0.0000 0.0000 20.6787 0.0000 0.0000
# 5 0.0000 0.0000 0.0000 0.0000 31.6444 0.0000
# 6 0.0000 0.0000 0.0000 0.0000 0.0000 17.3395
#
#
#
# Elastic Compliance Matrix: (Units=1/GPa)
#
#
# Indices 1 2 3 4 5 6 
#
# 1 0.017303 -0.004420 -0.022130 0.000000 0.000000 0.000000
# 2 -0.004420 0.010253 -0.001029 0.000000 0.000000 0.000000
# 3 -0.022130 -0.001029 0.086311 0.000000 0.000000 0.000000
# 4 0.000000 0.000000 0.000000 0.048359 0.000000 0.000000
# 5 0.000000 0.000000 0.000000 0.000000 0.031601 0.000000
# 6 0.000000 0.000000 0.000000 0.000000 0.000000 0.057672
#
#
# Mechanical properties :
#
#
# Convention : Reuss Voigt Hill
#
# Bulk Modulus (GPa) = 17.03299 47.01360 32.02330
# Shear Modulus (GPa) = 15.32682 24.22176 19.77429
#
# Velocity S-wave (km/s) = 2.86047 3.59596 3.24909
# Velocity P-wave (km/s) = 4.47246 6.50690 5.58313
#
# Compressibility (1/GPa) = 0.05870960
#
# Stress axis : x y z
#
# Youngs Moduli (GPa) = 57.79386 97.53367 11.58601
#
# Poissons Ratio (x) = 0.43105 0.25640
# Poissons Ratio (y) = 0.25542 0.01192
# Poissons Ratio (z) = 1.27900 0.10034
#
# Static dielectric constant tensor:
#      x y z
#    x 3.516680 0.000000 0.000000 
#    y 0.000000 3.436300 0.000000 
#    z 0.000000 0.000000 3.338350 
# 
# 
# High freq. dielectric constant tensor:
#      x y z
#    x 1.732890 0.000000 0.000000 
#    y 0.000000 1.730360 0.000000 
#    z 0.000000 0.000000 1.693950 
# 
# From -- ./inp_files/28013.got.cif
#   From: 2010.03.12/outbox.cif.g09.slc.cpg/sg53_15_cif.got.tgz:28013.got - 2010.04.16 14:36:59.
