data_PCOD8219429
_publ_section_title
;
Structure prediction by ZEFSAII (Michael W. Deem and Ramdas Pophale) SiO2 
 PCOD8219429
Probable space group: P M N A
;
_chemical_formula_sum "Si O2"
_cell_formula_units_Z 64
_cell_length_a 16.804968
_cell_length_b 13.701828
_cell_length_c 14.522561
_cell_angle_alpha 90.000000
_cell_angle_beta 90.000000
_cell_angle_gamma 90.000000
_cell_volume 3343.947194
_symmetry_space_group_name_H-M "P M N A"
_symmetry_group_IT_number 53
_symmetry_cell_setting 'orthorhombic'
loop_
_space_group_symop_operation_xyz
x,y,z
1/2-x,-y,1/2+z
x,-y,-z
1/2-x,y,1/2-z
-x,-y,-z
1/2+x,y,1/2-z
-x,y,z
1/2+x,-y,1/2+z
loop_
_atom_site_type_symbol
_atom_site_label
_atom_site_fract_x
_atom_site_fract_y
_atom_site_fract_z
Si Si1 0.091145 0.088447 0.712888
Si Si2 0.339808 0.399065 0.045676
Si Si3 0.092262 0.115929 0.371292
Si Si4 0.591860 0.614459 0.407193
Si Si5 0.657294 0.593053 0.599823
Si Si6 0.839943 0.199433 0.549405
Si Si7 0.193582 0.214004 0.831860
Si Si8 0.408999 0.315980 0.224768
O O1 0.101867 0.167808 0.631890
O O2 0.146452 0.117004 0.799472
O O3 0.000000 0.085961 0.745031
O O4 0.119721 0.982880 0.677967
O O5 0.246660 0.398710 0.065392
O O6 0.387860 0.386453 0.140035
O O7 0.367515 0.500000 0.000000
O O8 0.360384 0.311278 0.975734
O O9 0.145749 0.129834 0.461898
O O10 0.106907 0.203835 0.300591
O O11 0.000000 0.111004 0.401883
O O12 0.500000 0.606715 0.379985
O O13 0.599794 0.627415 0.517247
O O14 0.637761 0.518068 0.372943
O O15 0.628768 0.704917 0.353897
O O16 0.645992 0.661595 0.687812
O O17 0.747570 0.188371 0.579518
O O18 0.250000 0.253651 0.750000
O O19 0.500000 0.334780 0.252217
#
# Coordination Sequence:
#
# PCOD8219429 Si02
#       8
#     8   8   8   8   8   8   8   8
#     4  10  20  36  60  85 112 148 191 234 282 337
#     4  11  21  38  58  81 118 156 187 228 285 341
#     4   9  19  37  60  84 111 145 188 237 283 335
#     4  11  21  36  60  84 113 151 195 235 273 333
#     4  11  20  38  57  85 111 150 193 232 275 331
#     4  10  19  35  56  82 113 146 185 229 280 332
#     4  10  21  36  55  82 120 148 182 236 289 336
#     4  10  22  37  57  85 115 147 189 238 285 336
#
# _framework density 19.139059
#
# number of rings (size 3 to 8) (size 9 to 14) (size 15 to 20)
#    0.000    1.750    2.500    3.000    0.000    4.750 
#    0.000   10.000    0.000    0.000    0.000    3.500 
#    0.000    0.000    0.000    0.000    0.000    0.000 
#
# Total GULP energy -793813.093608 kJ/mol
# GULP energy per Si atom -12403.329588 kJ/mol
# Density = 1.909550 g / cm^3
# Si number density = 19.139059 Si / 1000 Ang^3
#
#
#
# Elastic Constant Matrix: (Units=GPa)
#
#
# Indices 1 2 3 4 5 6 
#
# 1 44.4439 31.9978 16.9157 0.0000 0.0000 0.0000
# 2 31.9978 113.3632 49.2280 0.0000 0.0000 0.0000
# 3 16.9157 49.2280 81.8607 0.0000 0.0000 0.0000
# 4 0.0000 0.0000 0.0000 30.0987 0.0000 0.0000
# 5 0.0000 0.0000 0.0000 0.0000 30.7055 0.0000
# 6 0.0000 0.0000 0.0000 0.0000 0.0000 25.6159
#
#
#
# Elastic Compliance Matrix: (Units=1/GPa)
#
#
# Indices 1 2 3 4 5 6 
#
# 1 0.028360 -0.007390 -0.001416 0.000000 0.000000 0.000000
# 2 -0.007390 0.013865 -0.006811 0.000000 0.000000 0.000000
# 3 -0.001416 -0.006811 0.016604 0.000000 0.000000 0.000000
# 4 0.000000 0.000000 0.000000 0.033224 0.000000 0.000000
# 5 0.000000 0.000000 0.000000 0.000000 0.032567 0.000000
# 6 0.000000 0.000000 0.000000 0.000000 0.000000 0.039038
#
#
# Mechanical properties :
#
#
# Convention : Reuss Voigt Hill
#
# Bulk Modulus (GPa) = 36.23838 48.43896 42.33867
# Shear Modulus (GPa) = 24.49903 26.71911 25.60907
#
# Velocity S-wave (km/s) = 3.58167 3.74043 3.66191
# Velocity P-wave (km/s) = 6.00665 6.63463 6.32843
#
# Compressibility (1/GPa) = 0.02759505
#
# Stress axis : x y z
#
# Youngs Moduli (GPa) = 35.26139 72.12651 60.22580
#
# Poissons Ratio (x) = 0.53300 0.08530
# Poissons Ratio (y) = 0.26057 0.41017
# Poissons Ratio (z) = 0.04994 0.49122
#
# Static dielectric constant tensor:
#      x y z
#    x 3.553570 0.000000 0.000000 
#    y 0.000000 3.558730 0.000000 
#    z 0.000000 0.000000 3.484290 
# 
# 
# High freq. dielectric constant tensor:
#      x y z
#    x 1.747140 0.000000 0.000000 
#    y 0.000000 1.741820 0.000000 
#    z 0.000000 0.000000 1.739200 
# 
# From -- ./inp_files/23887.got.cif
#   From: 2010.03.12/outbox.cif.g09.slc.cpg/sg53_12_cif.got.tgz:23887.got - 2010.04.16 14:36:59.
