data_PCOD8219797
_publ_section_title
;
Structure prediction by ZEFSAII (Michael W. Deem and Ramdas Pophale) SiO2 
 PCOD8219797
Probable space group: P M N A
;
_chemical_formula_sum "Si O2"
_cell_formula_units_Z 64
_cell_length_a 8.937534
_cell_length_b 18.106724
_cell_length_c 23.237453
_cell_angle_alpha 90.000000
_cell_angle_beta 90.000000
_cell_angle_gamma 90.000000
_cell_volume 3760.504503
_symmetry_space_group_name_H-M "P M N A"
_symmetry_group_IT_number 53
_symmetry_cell_setting 'orthorhombic'
loop_
_space_group_symop_operation_xyz
x,y,z
1/2-x,-y,1/2+z
x,-y,-z
1/2-x,y,1/2-z
-x,-y,-z
1/2+x,y,1/2-z
-x,y,z
1/2+x,-y,1/2+z
loop_
_atom_site_type_symbol
_atom_site_label
_atom_site_fract_x
_atom_site_fract_y
_atom_site_fract_z
Si Si1 0.325187 0.061827 0.312052
Si Si2 0.675473 0.637267 0.616348
Si Si3 0.173997 0.775695 0.811196
Si Si4 0.826328 0.497176 0.810323
Si Si5 0.676636 0.585245 0.998349
Si Si6 0.172364 0.924087 0.311265
Si Si7 0.674490 0.760021 0.187779
Si Si8 0.822413 0.362546 0.888457
O O1 0.250000 0.062419 0.250000
O O2 0.500000 0.047022 0.307133
O O3 0.291959 0.143008 0.338569
O O4 0.250714 0.992238 0.346784
O O5 0.500000 0.634565 0.599924
O O6 0.726553 0.715980 0.641956
O O7 0.714449 0.576906 0.664647
O O8 0.775226 0.622227 0.561067
O O9 0.250000 0.762312 0.750000
O O10 0.000000 0.765945 0.798600
O O11 0.750000 0.484144 0.750000
O O12 0.769240 0.435207 0.854423
O O13 0.000000 0.487958 0.799489
O O14 0.500000 0.591848 0.006516
O O15 0.729294 0.500000 0.000000
O O16 0.758526 0.631580 0.047595
O O17 0.250000 0.919621 0.250000
O O18 0.193583 0.842890 0.338600
O O19 0.000000 0.944150 0.303897
O O20 0.750000 0.750270 0.250000
O O21 0.500000 0.739777 0.194545
O O22 0.753704 0.708698 0.141646
O O23 0.000000 0.354727 0.891054
#
# Coordination Sequence:
#
# PCOD8219797 Si02
#       8
#     8   8   8   8   8   8   8   8
#     4   9  15  24  40  65  96 130 166 199 236 285
#     4  10  20  36  53  71  98 131 167 205 247 295
#     4   9  18  30  47  72 103 136 166 202 246 293
#     4  10  21  33  49  72  98 129 162 196 238 291
#     4  11  23  38  56  76  95 123 165 215 257 294
#     4   9  16  26  42  65  95 132 167 199 239 287
#     4  10  20  33  49  73 105 136 168 206 248 298
#     4  11  22  36  54  74  97 131 168 206 253 298
#
# _framework density 17.018992000000001
#
# number of rings (size 3 to 8) (size 9 to 14) (size 15 to 20)
#    0.000    2.125    1.250    3.375    0.000    5.500 
#    0.000    0.000    0.000    0.000    0.000    0.875 
#    0.000    7.000    0.000    0.000    0.000    0.000 
#
# Total GULP energy -793291.719658 kJ/mol
# GULP energy per Si atom -12395.183120 kJ/mol
# Density = 1.698026 g / cm^3
# Si number density = 17.018992 Si / 1000 Ang^3
#
#
#
# Elastic Constant Matrix: (Units=GPa)
#
#
# Indices 1 2 3 4 5 6 
#
# 1 84.1746 54.3299 35.1359 0.0000 0.0000 0.0000
# 2 54.3299 132.9439 33.3218 0.0000 0.0000 0.0000
# 3 35.1359 33.3218 66.6401 0.0000 0.0000 0.0000
# 4 0.0000 0.0000 0.0000 15.3782 0.0000 0.0000
# 5 0.0000 0.0000 0.0000 0.0000 26.7839 0.0000
# 6 0.0000 0.0000 0.0000 0.0000 0.0000 25.9928
#
#
#
# Elastic Compliance Matrix: (Units=1/GPa)
#
#
# Indices 1 2 3 4 5 6 
#
# 1 0.018509 -0.005851 -0.006833 0.000000 0.000000 0.000000
# 2 -0.005851 0.010450 -0.002140 0.000000 0.000000 0.000000
# 3 -0.006833 -0.002140 0.019679 0.000000 0.000000 0.000000
# 4 0.000000 0.000000 0.000000 0.065027 0.000000 0.000000
# 5 0.000000 0.000000 0.000000 0.000000 0.037336 0.000000
# 6 0.000000 0.000000 0.000000 0.000000 0.000000 0.038472
#
#
# Mechanical properties :
#
#
# Convention : Reuss Voigt Hill
#
# Bulk Modulus (GPa) = 52.66304 58.81488 55.73896
# Shear Modulus (GPa) = 22.17779 24.36237 23.27008
#
# Velocity S-wave (km/s) = 3.61379 3.78760 3.70171
# Velocity P-wave (km/s) = 6.95870 7.33221 7.14789
#
# Compressibility (1/GPa) = 0.01898865
#
# Stress axis : x y z
#
# Youngs Moduli (GPa) = 54.02772 95.69732 50.81638
#
# Poissons Ratio (x) = 0.55996 0.34723
# Poissons Ratio (y) = 0.31614 0.10874
# Poissons Ratio (z) = 0.36917 0.20479
#
# Static dielectric constant tensor:
#      x y z
#    x 3.269550 0.000000 0.000000 
#    y 0.000000 4.239340 0.000000 
#    z 0.000000 0.000000 2.784670 
# 
# 
# High freq. dielectric constant tensor:
#      x y z
#    x 1.668370 0.000000 0.000000 
#    y 0.000000 1.676370 0.000000 
#    z 0.000000 0.000000 1.609680 
# 
# From -- ./inp_files/31144.got.cif
#   From: 2010.03.12/outbox.cif.g09.slc.cpg/sg53_16_cif.got.tgz:31144.got - 2010.04.16 14:36:59.
