data_PCOD8219217
_publ_section_title
;
Structure prediction by ZEFSAII (Michael W. Deem and Ramdas Pophale) SiO2 
 PCOD8219217
Probable space group: P M N A
;
_chemical_formula_sum "Si O2"
_cell_formula_units_Z 64
_cell_length_a 8.945763
_cell_length_b 19.520738
_cell_length_c 18.956678
_cell_angle_alpha 90.000000
_cell_angle_beta 90.000000
_cell_angle_gamma 90.000000
_cell_volume 3310.364789
_symmetry_space_group_name_H-M "P M N A"
_symmetry_group_IT_number 53
_symmetry_cell_setting 'orthorhombic'
loop_
_space_group_symop_operation_xyz
x,y,z
1/2-x,-y,1/2+z
x,-y,-z
1/2-x,y,1/2-z
-x,-y,-z
1/2+x,y,1/2-z
-x,y,z
1/2+x,-y,1/2+z
loop_
_atom_site_type_symbol
_atom_site_label
_atom_site_fract_x
_atom_site_fract_y
_atom_site_fract_z
Si Si1 0.331000 0.975881 0.073264
Si Si2 0.174945 0.678776 0.955961
Si Si3 0.664504 0.540905 0.929188
Si Si4 0.176319 0.286137 0.599166
Si Si5 0.669628 0.094364 0.183087
Si Si6 0.322881 0.423708 0.825072
Si Si7 0.176654 0.763753 0.821368
Si Si8 0.822095 0.144824 0.673148
O O1 0.500000 0.953516 0.054747
O O2 0.259554 0.911990 0.116842
O O3 0.325906 0.043064 0.119457
O O4 0.249838 0.000000 0.000000
O O5 0.219009 0.600498 0.944037
O O6 0.227383 0.717197 0.885917
O O7 0.000000 0.683508 0.969136
O O8 0.253542 0.715344 0.021724
O O9 0.500000 0.569550 0.906900
O O10 0.729011 0.489273 0.870322
O O11 0.642574 0.500000 0.000000
O O12 0.235740 0.353388 0.639734
O O13 0.224568 0.219163 0.643356
O O14 0.000000 0.288815 0.589148
O O15 0.750000 0.058915 0.250000
O O16 0.500000 0.114853 0.202690
O O17 0.762384 0.161050 0.162180
O O18 0.250000 0.432252 0.750000
O O19 0.500000 0.421043 0.818073
O O20 0.250000 0.733850 0.750000
O O21 0.000000 0.765314 0.812286
O O22 0.750000 0.133519 0.750000
O O23 0.000000 0.137045 0.681858
#
# Coordination Sequence:
#
# PCOD8219217 Si02
#       8
#     8   8   8   8   8   8   8   8
#     4   9  19  34  53  84 116 146 191 237 278 334
#     4  11  24  38  58  87 118 148 186 241 290 333
#     4  10  20  39  61  81 112 151 191 229 271 337
#     4  10  21  38  60  85 114 155 198 231 281 347
#     4  10  19  33  58  82 108 147 186 229 277 329
#     4  10  21  37  58  86 116 148 189 235 280 334
#     4  10  22  39  57  82 115 147 188 234 282 339
#     4  10  21  37  60  85 116 155 194 239 287 344
#
# _framework density 19.333217000000001
#
# number of rings (size 3 to 8) (size 9 to 14) (size 15 to 20)
#    0.000    2.000    1.250    2.625    1.750    4.250 
#    0.000    3.125    0.000    1.875    0.000    0.000 
#    0.000    0.000    0.000    0.000    0.000    0.000 
#
# Total GULP energy -793440.261056 kJ/mol
# GULP energy per Si atom -12397.504079 kJ/mol
# Density = 1.928921 g / cm^3
# Si number density = 19.333217 Si / 1000 Ang^3
#
#
#
# Elastic Constant Matrix: (Units=GPa)
#
#
# Indices 1 2 3 4 5 6 
#
# 1 41.7956 21.3414 38.6506 0.0000 0.0000 0.0000
# 2 21.3414 81.8741 69.2242 0.0000 0.0000 0.0000
# 3 38.6506 69.2242 151.2732 0.0000 0.0000 0.0000
# 4 0.0000 0.0000 0.0000 35.5534 0.0000 0.0000
# 5 0.0000 0.0000 0.0000 0.0000 31.6107 0.0000
# 6 0.0000 0.0000 0.0000 0.0000 0.0000 13.9103
#
#
#
# Elastic Compliance Matrix: (Units=1/GPa)
#
#
# Indices 1 2 3 4 5 6 
#
# 1 0.031591 -0.002300 -0.007019 0.000000 0.000000 0.000000
# 2 -0.002300 0.020089 -0.008605 0.000000 0.000000 0.000000
# 3 -0.007019 -0.008605 0.012342 0.000000 0.000000 0.000000
# 4 0.000000 0.000000 0.000000 0.028127 0.000000 0.000000
# 5 0.000000 0.000000 0.000000 0.000000 0.031635 0.000000
# 6 0.000000 0.000000 0.000000 0.000000 0.000000 0.071889
#
#
# Mechanical properties :
#
#
# Convention : Reuss Voigt Hill
#
# Bulk Modulus (GPa) = 35.49442 59.26393 47.37917
# Shear Modulus (GPa) = 20.75435 25.92999 23.34217
#
# Velocity S-wave (km/s) = 3.28000 3.66623 3.47848
# Velocity P-wave (km/s) = 5.72221 6.97439 6.37910
#
# Compressibility (1/GPa) = 0.02817345
#
# Stress axis : x y z
#
# Youngs Moduli (GPa) = 31.65418 49.77799 81.02481
#
# Poissons Ratio (x) = 0.11449 0.56873
# Poissons Ratio (y) = 0.07280 0.69725
# Poissons Ratio (z) = 0.22219 0.42836
#
# Static dielectric constant tensor:
#      x y z
#    x 3.483430 0.000000 0.000000 
#    y 0.000000 3.527590 0.000000 
#    z 0.000000 0.000000 3.760100 
# 
# 
# High freq. dielectric constant tensor:
#      x y z
#    x 1.734570 0.000000 0.000000 
#    y 0.000000 1.758470 0.000000 
#    z 0.000000 0.000000 1.767160 
# 
# From -- ./inp_files/26831.got.cif
#   From: 2010.03.12/outbox.cif.g09.slc.cpg/sg53_14_cif.got.tgz:26831.got - 2010.04.16 14:36:59.
