data_PCOD8219616
_publ_section_title
;
Structure prediction by ZEFSAII (Michael W. Deem and Ramdas Pophale) SiO2 
 PCOD8219616
Probable space group: P M N A
;
_chemical_formula_sum "Si O2"
_cell_formula_units_Z 64
_cell_length_a 8.891373
_cell_length_b 15.460612
_cell_length_c 23.949801
_cell_angle_alpha 90.000000
_cell_angle_beta 90.000000
_cell_angle_gamma 90.000000
_cell_volume 3292.284975
_symmetry_space_group_name_H-M "P M N A"
_symmetry_group_IT_number 53
_symmetry_cell_setting 'orthorhombic'
loop_
_space_group_symop_operation_xyz
x,y,z
1/2-x,-y,1/2+z
x,-y,-z
1/2-x,y,1/2-z
-x,-y,-z
1/2+x,y,1/2-z
-x,y,z
1/2+x,-y,1/2+z
loop_
_atom_site_type_symbol
_atom_site_label
_atom_site_fract_x
_atom_site_fract_y
_atom_site_fract_z
Si Si1 0.822834 0.839090 0.614826
Si Si2 0.178236 0.998957 0.689729
Si Si3 0.323221 0.341720 0.617491
Si Si4 0.821640 0.499915 0.190013
Si Si5 0.176091 0.147566 0.880083
Si Si6 0.173265 0.898512 0.493448
Si Si7 0.677748 0.336851 0.382933
Si Si8 0.179190 0.597347 0.000255
O O1 0.765687 0.919166 0.652016
O O2 0.773540 0.853720 0.550767
O O3 0.749176 0.752161 0.639119
O O4 0.000000 0.831332 0.619715
O O5 0.250000 0.989177 0.750000
O O6 0.000000 0.001424 0.695346
O O7 0.230447 0.087141 0.660875
O O8 0.500000 0.356549 0.612942
O O9 0.258063 0.413682 0.659721
O O10 0.284942 0.245593 0.638664
O O11 0.256356 0.355128 0.555219
O O12 0.750000 0.493930 0.250000
O O13 0.769107 0.415926 0.155650
O O14 0.000000 0.503398 0.195440
O O15 0.221333 0.135998 0.944431
O O16 0.000000 0.127673 0.873893
O O17 0.000000 0.877264 0.479222
O O18 0.195627 0.000000 0.500000
O O19 0.500000 0.327426 0.381307
O O20 0.738959 0.353402 0.445511
O O21 0.000000 0.596008 0.998854
O O22 0.241530 0.500000 0.000000
#
# Coordination Sequence:
#
# PCOD8219616 Si02
#       8
#     8   8   8   8   8   8   8   8
#     4  10  22  39  60  83 115 154 187 229 290 348
#     4  11  24  44  63  82 111 153 197 240 291 344
#     4   9  18  33  54  83 116 145 182 229 281 335
#     4  10  21  38  57  79 110 150 189 229 276 332
#     4  11  22  36  59  92 121 149 190 241 286 338
#     4  10  19  37  60  83 117 159 191 225 286 352
#     4  10  20  34  58  87 112 142 185 233 281 334
#     4   9  14  27  54  84 112 143 177 224 280 328
#
# _framework density 19.439387
#
# number of rings (size 3 to 8) (size 9 to 14) (size 15 to 20)
#    0.000    2.000    2.500    1.500    0.000    4.250 
#    0.000    5.000    0.000    1.125    0.000    0.000 
#    0.000    0.000    0.000    0.000    0.000    0.000 
#
# Total GULP energy -793664.294420 kJ/mol
# GULP energy per Si atom -12401.004600 kJ/mol
# Density = 1.939514 g / cm^3
# Si number density = 19.439387 Si / 1000 Ang^3
#
#
#
# Elastic Constant Matrix: (Units=GPa)
#
#
# Indices 1 2 3 4 5 6 
#
# 1 34.8528 35.7098 32.4864 0.0000 0.0000 0.0000
# 2 35.7098 145.3831 57.6732 0.0000 0.0000 0.0000
# 3 32.4864 57.6732 118.1099 0.0000 0.0000 0.0000
# 4 0.0000 0.0000 0.0000 11.9151 0.0000 0.0000
# 5 0.0000 0.0000 0.0000 0.0000 32.6358 0.0000
# 6 0.0000 0.0000 0.0000 0.0000 0.0000 17.2705
#
#
#
# Elastic Compliance Matrix: (Units=1/GPa)
#
#
# Indices 1 2 3 4 5 6 
#
# 1 0.044332 -0.007506 -0.008529 0.000000 0.000000 0.000000
# 2 -0.007506 0.009802 -0.002722 0.000000 0.000000 0.000000
# 3 -0.008529 -0.002722 0.012141 0.000000 0.000000 0.000000
# 4 0.000000 0.000000 0.000000 0.083927 0.000000 0.000000
# 5 0.000000 0.000000 0.000000 0.000000 0.030641 0.000000
# 6 0.000000 0.000000 0.000000 0.000000 0.000000 0.057902
#
#
# Mechanical properties :
#
#
# Convention : Reuss Voigt Hill
#
# Bulk Modulus (GPa) = 34.76681 61.12052 47.94366
# Shear Modulus (GPa) = 17.49200 23.86271 20.67736
#
# Velocity S-wave (km/s) = 3.00296 3.50743 3.26495
# Velocity P-wave (km/s) = 5.47241 6.92190 6.23939
#
# Compressibility (1/GPa) = 0.02876307
#
# Stress axis : x y z
#
# Youngs Moduli (GPa) = 22.55713 102.02328 82.36224
#
# Poissons Ratio (x) = 0.76577 0.70243
# Poissons Ratio (y) = 0.16931 0.22416
# Poissons Ratio (z) = 0.19238 0.27768
#
# Static dielectric constant tensor:
#      x y z
#    x 3.186110 0.000000 0.000000 
#    y 0.000000 3.786920 0.000000 
#    z 0.000000 0.000000 3.748600 
# 
# 
# High freq. dielectric constant tensor:
#      x y z
#    x 1.724340 0.000000 0.000000 
#    y 0.000000 1.773870 0.000000 
#    z 0.000000 0.000000 1.758940 
# 
# From -- ./inp_files/34134.got.cif
#   From: 2010.03.12/outbox.cif.g09.slc.cpg/sg53_18_cif.got.tgz:34134.got - 2010.04.16 14:36:59.
