data_PCOD8219773
_publ_section_title
;
Structure prediction by ZEFSAII (Michael W. Deem and Ramdas Pophale) SiO2 
 PCOD8219773
Probable space group: P M N A
;
_chemical_formula_sum "Si O2"
_cell_formula_units_Z 64
_cell_length_a 8.636438
_cell_length_b 19.053705
_cell_length_c 23.392676
_cell_angle_alpha 90.000000
_cell_angle_beta 90.000000
_cell_angle_gamma 90.000000
_cell_volume 3849.408511
_symmetry_space_group_name_H-M "P M N A"
_symmetry_group_IT_number 53
_symmetry_cell_setting 'orthorhombic'
loop_
_space_group_symop_operation_xyz
x,y,z
1/2-x,-y,1/2+z
x,-y,-z
1/2-x,y,1/2-z
-x,-y,-z
1/2+x,y,1/2-z
-x,y,z
1/2+x,-y,1/2+z
loop_
_atom_site_type_symbol
_atom_site_label
_atom_site_fract_x
_atom_site_fract_y
_atom_site_fract_z
Si Si1 0.181363 0.389053 0.189229
Si Si2 0.183054 0.977900 0.585663
Si Si3 0.682701 0.111111 0.188577
Si Si4 0.181849 0.603045 0.480670
Si Si5 0.683237 0.110973 0.978404
Si Si6 0.179865 0.481565 0.083032
Si Si7 0.682813 0.254372 0.129972
Si Si8 0.818483 0.254830 0.003894
O O1 0.250000 0.411769 0.250000
O O2 0.212360 0.454089 0.146774
O O3 0.270222 0.320826 0.167297
O O4 0.000000 0.371622 0.193738
O O5 0.245354 0.950476 0.646550
O O6 0.243358 0.925470 0.536536
O O7 0.000000 0.972986 0.583005
O O8 0.231407 0.058672 0.573663
O O9 0.750000 0.095228 0.250000
O O10 0.500000 0.109399 0.192681
O O11 0.737882 0.186254 0.165060
O O12 0.263284 0.576839 0.538488
O O13 0.229878 0.554583 0.426897
O O14 0.235280 0.682384 0.469562
O O15 0.000000 0.598911 0.489834
O O16 0.500000 0.125311 0.979774
O O17 0.772192 0.183899 0.970973
O O18 0.000000 0.495172 0.072332
O O19 0.500000 0.254110 0.118771
O O20 0.766483 0.253953 0.069423
O O21 0.000000 0.266681 0.000939
#
# Coordination Sequence:
#
# PCOD8219773 Si02
#       8
#     8   8   8   8   8   8   8   8
#     4  11  23  36  52  73 103 139 175 210 250 293
#     4   8  15  30  51  71  93 125 166 207 246 290
#     4  10  20  33  48  70  97 132 170 206 244 288
#     4  11  21  33  53  75  98 132 171 207 248 304
#     4   9  16  31  53  71  92 126 166 206 247 297
#     4  10  20  35  52  74 103 132 164 210 259 294
#     4  11  21  34  51  69  98 136 180 214 241 290
#     4  12  22  32  48  74 106 134 162 204 258 306
#
# _framework density 16.62593
#
# number of rings (size 3 to 8) (size 9 to 14) (size 15 to 20)
#    0.000    1.750    2.500    5.250    0.000    3.500 
#    0.000    1.875    0.000    0.000    0.000    0.875 
#    0.000    4.000    0.000    0.000    0.000    0.000 
#
# Total GULP energy -793584.626199 kJ/mol
# GULP energy per Si atom -12399.759784 kJ/mol
# Density = 1.658809 g / cm^3
# Si number density = 16.625930 Si / 1000 Ang^3
#
#
#
# Elastic Constant Matrix: (Units=GPa)
#
#
# Indices 1 2 3 4 5 6 
#
# 1 17.6821 11.4739 16.8217 0.0000 0.0000 0.0000
# 2 11.4739 117.0921 55.3219 0.0000 0.0000 0.0000
# 3 16.8217 55.3219 88.5722 0.0000 0.0000 0.0000
# 4 0.0000 0.0000 0.0000 21.5862 0.0000 0.0000
# 5 0.0000 0.0000 0.0000 0.0000 21.8098 0.0000
# 6 0.0000 0.0000 0.0000 0.0000 0.0000 13.6741
#
#
#
# Elastic Compliance Matrix: (Units=1/GPa)
#
#
# Indices 1 2 3 4 5 6 
#
# 1 0.069080 -0.000809 -0.012614 0.000000 0.000000 0.000000
# 2 -0.000809 0.012125 -0.007420 0.000000 0.000000 0.000000
# 3 -0.012614 -0.007420 0.018320 0.000000 0.000000 0.000000
# 4 0.000000 0.000000 0.000000 0.046326 0.000000 0.000000
# 5 0.000000 0.000000 0.000000 0.000000 0.045851 0.000000
# 6 0.000000 0.000000 0.000000 0.000000 0.000000 0.073131
#
#
# Mechanical properties :
#
#
# Convention : Reuss Voigt Hill
#
# Bulk Modulus (GPa) = 17.28935 43.39792 30.34364
# Shear Modulus (GPa) = 15.34686 20.72926 18.03806
#
# Velocity S-wave (km/s) = 3.04150 3.53484 3.29741
# Velocity P-wave (km/s) = 4.77031 6.54365 5.72605
#
# Compressibility (1/GPa) = 0.05783906
#
# Stress axis : x y z
#
# Youngs Moduli (GPa) = 14.47594 82.47360 54.58464
#
# Poissons Ratio (x) = 0.06675 0.68854
# Poissons Ratio (y) = 0.01172 0.40499
# Poissons Ratio (z) = 0.18260 0.61192
#
# Static dielectric constant tensor:
#      x y z
#    x 3.084180 0.000000 0.000000 
#    y 0.000000 3.350660 0.000000 
#    z 0.000000 0.000000 3.304790 
# 
# 
# High freq. dielectric constant tensor:
#      x y z
#    x 1.641490 0.000000 0.000000 
#    y 0.000000 1.640940 0.000000 
#    z 0.000000 0.000000 1.613500 
# 
# From -- ./inp_files/34521.got.cif
#   From: 2010.03.12/outbox.cif.g09.slc.cpg/sg53_18_cif.got.tgz:34521.got - 2010.04.16 14:36:59.
