data_PCOD8219168
_publ_section_title
;
Structure prediction by ZEFSAII (Michael W. Deem and Ramdas Pophale) SiO2 
 PCOD8219168
Probable space group: P M N A
;
_chemical_formula_sum "Si O2"
_cell_formula_units_Z 64
_cell_length_a 8.472962
_cell_length_b 12.075493
_cell_length_c 31.966128
_cell_angle_alpha 90.000000
_cell_angle_beta 90.000000
_cell_angle_gamma 90.000000
_cell_volume 3270.620566
_symmetry_space_group_name_H-M "P M N A"
_symmetry_group_IT_number 53
_symmetry_cell_setting 'orthorhombic'
loop_
_space_group_symop_operation_xyz
x,y,z
1/2-x,-y,1/2+z
x,-y,-z
1/2-x,y,1/2-z
-x,-y,-z
1/2+x,y,1/2-z
-x,y,z
1/2+x,-y,1/2+z
loop_
_atom_site_type_symbol
_atom_site_label
_atom_site_fract_x
_atom_site_fract_y
_atom_site_fract_z
Si Si1 0.816215 0.010909 0.547519
Si Si2 0.680120 0.627540 0.005749
Si Si3 0.181068 0.236779 0.924005
Si Si4 0.186946 0.562036 0.793217
Si Si5 0.813129 0.815169 0.794331
Si Si6 0.812851 0.564749 0.127704
Si Si7 0.687364 0.847018 0.880057
Si Si8 0.184768 0.644322 0.921603
O O1 0.788763 0.131334 0.567442
O O2 0.000000 0.989611 0.542908
O O3 0.741626 0.000000 0.500000
O O4 0.747569 0.925482 0.582118
O O5 0.500000 0.649707 0.019773
O O6 0.803872 0.679007 0.037601
O O7 0.721296 0.500000 0.000000
O O8 0.712707 0.684805 0.961140
O O9 0.240506 0.309186 0.883651
O O10 0.000000 0.199034 0.919176
O O11 0.250000 0.512347 0.750000
O O12 0.246873 0.688039 0.798917
O O13 0.257303 0.479279 0.828508
O O14 0.000000 0.561316 0.794285
O O15 0.750000 0.863236 0.750000
O O16 0.740458 0.885958 0.833362
O O17 0.000000 0.826185 0.795244
O O18 0.758491 0.478564 0.091795
O O19 0.000000 0.561430 0.129823
O O20 0.500000 0.838075 0.882033
O O21 0.773289 0.728769 0.884599
O O22 0.000000 0.647432 0.931734
#
# Coordination Sequence:
#
# PCOD8219168 Si02
#       8
#     8   8   8   8   8   8   8   8
#     4  10  23  43  61  78 111 153 193 245 298 343
#     4  11  22  34  49  75 110 145 179 222 273 329
#     4  11  22  37  59  82 106 143 190 235 277 333
#     4   9  17  32  51  77 113 150 180 216 270 330
#     4  10  19  33  55  84 118 154 189 235 289 345
#     4   9  18  33  52  78 113 144 174 221 278 327
#     4  11  22  36  57  84 115 152 193 238 290 344
#     4  11  20  34  54  78 111 147 184 227 276 332
#
# _framework density 19.568152000000001
#
# number of rings (size 3 to 8) (size 9 to 14) (size 15 to 20)
#    0.000    1.750    2.500    2.625    0.000    3.250 
#    0.000    1.250    0.000    0.750    0.000    3.500 
#    0.000    0.000    0.000    0.000    0.000    0.000 
#
# Total GULP energy -793213.500972 kJ/mol
# GULP energy per Si atom -12393.960953 kJ/mol
# Density = 1.952361 g / cm^3
# Si number density = 19.568152 Si / 1000 Ang^3
#
#
#
# Elastic Constant Matrix: (Units=GPa)
#
#
# Indices 1 2 3 4 5 6 
#
# 1 31.4209 11.5651 15.0903 0.0000 0.0000 0.0000
# 2 11.5651 75.0995 36.4800 0.0000 0.0000 0.0000
# 3 15.0903 36.4800 142.5974 0.0000 0.0000 0.0000
# 4 0.0000 0.0000 0.0000 15.1855 0.0000 0.0000
# 5 0.0000 0.0000 0.0000 0.0000 29.3677 0.0000
# 6 0.0000 0.0000 0.0000 0.0000 0.0000 21.7907
#
#
#
# Elastic Compliance Matrix: (Units=1/GPa)
#
#
# Indices 1 2 3 4 5 6 
#
# 1 0.034576 -0.004051 -0.002623 0.000000 0.000000 0.000000
# 2 -0.004051 0.015680 -0.003583 0.000000 0.000000 0.000000
# 3 -0.002623 -0.003583 0.008207 0.000000 0.000000 0.000000
# 4 0.000000 0.000000 0.000000 0.065852 0.000000 0.000000
# 5 0.000000 0.000000 0.000000 0.000000 0.034051 0.000000
# 6 0.000000 0.000000 0.000000 0.000000 0.000000 0.045891
#
#
# Mechanical properties :
#
#
# Convention : Reuss Voigt Hill
#
# Bulk Modulus (GPa) = 26.34978 41.70983 34.02981
# Shear Modulus (GPa) = 21.05973 25.66761 23.36367
#
# Velocity S-wave (km/s) = 3.28415 3.62567 3.45913
# Velocity P-wave (km/s) = 5.27974 6.23609 5.77774
#
# Compressibility (1/GPa) = 0.03795098
#
# Stress axis : x y z
#
# Youngs Moduli (GPa) = 28.92138 63.77666 121.84976
#
# Poissons Ratio (x) = 0.25834 0.31959
# Poissons Ratio (y) = 0.11715 0.43654
# Poissons Ratio (z) = 0.07585 0.22849
#
# Static dielectric constant tensor:
#      x y z
#    x 3.242690 0.000000 0.000000 
#    y 0.000000 3.486360 0.000000 
#    z 0.000000 0.000000 5.249460 
# 
# 
# High freq. dielectric constant tensor:
#      x y z
#    x 1.747020 0.000000 0.000000 
#    y 0.000000 1.730820 0.000000 
#    z 0.000000 0.000000 1.772040 
# 
# From -- ./inp_files/38113.got.cif
#   From: 2010.03.12/outbox.cif.g09.slc.cpg/sg53_20_cif.got.tgz:38113.got - 2010.04.16 14:36:59.
