data_PCOD8219446
_publ_section_title
;
Structure prediction by ZEFSAII (Michael W. Deem and Ramdas Pophale) SiO2 
 PCOD8219446
Probable space group: P M N A
;
_chemical_formula_sum "Si O2"
_cell_formula_units_Z 64
_cell_length_a 18.042648
_cell_length_b 8.954671
_cell_length_c 20.108910
_cell_angle_alpha 90.000000
_cell_angle_beta 90.000000
_cell_angle_gamma 90.000000
_cell_volume 3248.915687
_symmetry_space_group_name_H-M "P M N A"
_symmetry_group_IT_number 53
_symmetry_cell_setting 'orthorhombic'
loop_
_space_group_symop_operation_xyz
x,y,z
1/2-x,-y,1/2+z
x,-y,-z
1/2-x,y,1/2-z
-x,-y,-z
1/2+x,y,1/2-z
-x,y,z
1/2+x,-y,1/2+z
loop_
_atom_site_type_symbol
_atom_site_label
_atom_site_fract_x
_atom_site_fract_y
_atom_site_fract_z
Si Si1 0.917014 0.793239 0.815094
Si Si2 0.366428 0.521065 0.344521
Si Si3 0.084517 0.280747 0.965246
Si Si4 0.344512 0.026646 0.605761
Si Si5 0.778331 0.621222 0.950616
Si Si6 0.834635 0.794118 0.235833
Si Si7 0.412662 0.027427 0.186354
Si Si8 0.309226 0.077425 0.065546
O O1 0.914923 0.614629 0.815849
O O2 0.887907 0.857538 0.744596
O O3 0.000000 0.851410 0.824845
O O4 0.870272 0.856850 0.878400
O O5 0.410413 0.618540 0.398857
O O6 0.291196 0.454074 0.378051
O O7 0.346547 0.618909 0.279179
O O8 0.108737 0.108549 0.951926
O O9 0.000000 0.285680 0.991727
O O10 0.139303 0.339714 0.021967
O O11 0.361233 0.119292 0.671216
O O12 0.258236 0.029528 0.587723
O O13 0.721433 0.757198 0.947821
O O14 0.741269 0.500000 0.000000
O O15 0.750000 0.830548 0.250000
O O16 0.884823 0.858867 0.296058
O O17 0.500000 0.025874 0.173787
O O18 0.373320 0.085153 0.119920
O O19 0.343461 0.000000 0.000000
#
# Coordination Sequence:
#
# PCOD8219446 Si02
#       8
#     8   8   8   8   8   8   8   8
#     4  10  20  35  55  86 123 155 191 239 294 358
#     4  10  21  33  55  86 123 161 202 224 296 356
#     4  10  20  35  53  80 125 165 199 238 283 344
#     4  10  19  35  57  86 110 152 196 239 290 346
#     4  10  22  37  53  85 124 164 203 239 287 350
#     4  10  20  37  62  88 118 150 189 237 295 355
#     4  10  24  42  63  89 117 149 198 256 307 351
#     4  12  22  40  65  82 113 154 206 257 297 348
#
# _framework density 19.698879000000002
#
# number of rings (size 3 to 8) (size 9 to 14) (size 15 to 20)
#    0.000    1.750    3.750    0.750    0.000    7.500 
#    0.000    0.625    0.000    0.375    0.000    0.000 
#    0.000    0.000    0.000    0.000    0.000    0.000 
#
# Total GULP energy -793458.172764 kJ/mol
# GULP energy per Si atom -12397.783949 kJ/mol
# Density = 1.965404 g / cm^3
# Si number density = 19.698879 Si / 1000 Ang^3
#
#
#
# Elastic Constant Matrix: (Units=GPa)
#
#
# Indices 1 2 3 4 5 6 
#
# 1 86.5249 42.2121 36.6798 0.0000 0.0000 0.0000
# 2 42.2121 123.3896 44.5697 0.0000 0.0000 0.0000
# 3 36.6798 44.5697 80.0533 0.0000 0.0000 0.0000
# 4 0.0000 0.0000 0.0000 25.0391 0.0000 0.0000
# 5 0.0000 0.0000 0.0000 0.0000 26.4878 0.0000
# 6 0.0000 0.0000 0.0000 0.0000 0.0000 14.3129
#
#
#
# Elastic Compliance Matrix: (Units=1/GPa)
#
#
# Indices 1 2 3 4 5 6 
#
# 1 0.015408 -0.003406 -0.005163 0.000000 0.000000 0.000000
# 2 -0.003406 0.010897 -0.004507 0.000000 0.000000 0.000000
# 3 -0.005163 -0.004507 0.017367 0.000000 0.000000 0.000000
# 4 0.000000 0.000000 0.000000 0.039937 0.000000 0.000000
# 5 0.000000 0.000000 0.000000 0.000000 0.037753 0.000000
# 6 0.000000 0.000000 0.000000 0.000000 0.000000 0.069867
#
#
# Mechanical properties :
#
#
# Convention : Reuss Voigt Hill
#
# Bulk Modulus (GPa) = 57.07813 59.65455 58.36634
# Shear Modulus (GPa) = 22.39923 24.26837 23.33380
#
# Velocity S-wave (km/s) = 3.37572 3.51375 3.44543
# Velocity P-wave (km/s) = 6.65073 6.84185 6.74696
#
# Compressibility (1/GPa) = 0.01751984
#
# Stress axis : x y z
#
# Youngs Moduli (GPa) = 64.90163 91.76469 57.58194
#
# Poissons Ratio (x) = 0.31255 0.29732
# Poissons Ratio (y) = 0.22106 0.25950
# Poissons Ratio (z) = 0.33512 0.41354
#
# Static dielectric constant tensor:
#      x y z
#    x 3.207750 0.000000 0.000000 
#    y 0.000000 3.952140 0.000000 
#    z 0.000000 0.000000 3.608740 
# 
# 
# High freq. dielectric constant tensor:
#      x y z
#    x 1.733700 0.000000 0.000000 
#    y 0.000000 1.780850 0.000000 
#    z 0.000000 0.000000 1.760000 
# 
# From -- ./inp_files/32847.got.cif
#   From: 2010.03.12/outbox.cif.g09.slc.cpg/sg53_17_cif.got.tgz:32847.got - 2010.04.16 14:36:59.
