data_PCOD8219701
_publ_section_title
;
Structure prediction by ZEFSAII (Michael W. Deem and Ramdas Pophale) SiO2 
 PCOD8219701
Probable space group: P M N A
;
_chemical_formula_sum "Si O2"
_cell_formula_units_Z 56
_cell_length_a 9.283887
_cell_length_b 14.160858
_cell_length_c 23.910957
_cell_angle_alpha 90.000000
_cell_angle_beta 90.000000
_cell_angle_gamma 90.000000
_cell_volume 3143.521044
_symmetry_space_group_name_H-M "P M N A"
_symmetry_group_IT_number 53
_symmetry_cell_setting 'orthorhombic'
loop_
_space_group_symop_operation_xyz
x,y,z
1/2-x,-y,1/2+z
x,-y,-z
1/2-x,y,1/2-z
-x,-y,-z
1/2+x,y,1/2-z
-x,y,z
1/2+x,-y,1/2+z
loop_
_atom_site_type_symbol
_atom_site_label
_atom_site_fract_x
_atom_site_fract_y
_atom_site_fract_z
Si Si1 0.166329 0.164597 0.593376
Si Si2 0.666352 0.692651 0.866361
Si Si3 0.335183 0.971428 0.589565
Si Si4 0.164585 0.186729 0.469278
Si Si5 0.166364 0.510674 0.695402
Si Si6 0.335242 0.153806 0.303179
Si Si7 0.830456 0.297478 0.693882
O O1 0.187323 0.217148 0.533641
O O2 0.221550 0.233787 0.642090
O O3 0.000000 0.137386 0.602828
O O4 0.259377 0.071151 0.593604
O O5 0.500000 0.716093 0.853544
O O6 0.706246 0.723976 0.929819
O O7 0.697684 0.581288 0.856721
O O8 0.763806 0.748907 0.822757
O O9 0.500000 0.985136 0.571381
O O10 0.261191 0.904811 0.543440
O O11 0.321450 0.925406 0.650078
O O12 0.000000 0.156301 0.458215
O O13 0.250000 0.546364 0.750000
O O14 0.213934 0.404927 0.678509
O O15 0.000000 0.512013 0.711858
O O16 0.250000 0.113805 0.250000
O O17 0.500000 0.174472 0.287350
O O18 0.750000 0.263602 0.750000
O O19 0.000000 0.287535 0.704135
#
# Coordination Sequence:
#
# PCOD8219701 Si02
#       7
#     8   8   8   8   8   8   8
#     4  10  20  34  52  71  94 127 162 197 239 284
#     4   9  17  30  49  72  98 127 158 193 235 284
#     4  10  21  34  49  71  97 126 162 202 240 281
#     4   9  18  33  51  72  98 127 159 194 236 287
#     4   9  17  30  49  72  97 126 159 195 235 280
#     4  10  20  32  46  68  98 128 158 195 240 287
#     4   9  19  35  52  72  98 126 160 200 239 281
#
# _framework density 17.814418
#
# number of rings (size 3 to 8) (size 9 to 14) (size 15 to 20)
#    0.000    2.571    0.000    1.714    0.000    6.857 
#    0.000    3.571    0.000    4.286    0.000    0.000 
#    0.000   10.286    0.000    0.000    0.000    0.000 
#
# Total GULP energy -694342.823858 kJ/mol
# GULP energy per Si atom -12398.978997 kJ/mol
# Density = 1.777387 g / cm^3
# Si number density = 17.814418 Si / 1000 Ang^3
#
#
#
# Elastic Constant Matrix: (Units=GPa)
#
#
# Indices 1 2 3 4 5 6 
#
# 1 70.6902 39.0877 49.8861 0.0000 0.0000 0.0000
# 2 39.0877 103.3776 71.1468 0.0000 0.0000 0.0000
# 3 49.8861 71.1468 122.7596 0.0000 0.0000 0.0000
# 4 0.0000 0.0000 0.0000 17.8845 0.0000 0.0000
# 5 0.0000 0.0000 0.0000 0.0000 25.3418 0.0000
# 6 0.0000 0.0000 0.0000 0.0000 0.0000 19.9723
#
#
#
# Elastic Compliance Matrix: (Units=1/GPa)
#
#
# Indices 1 2 3 4 5 6 
#
# 1 0.020512 -0.003359 -0.006389 0.000000 0.000000 0.000000
# 2 -0.003359 0.016642 -0.008280 0.000000 0.000000 0.000000
# 3 -0.006389 -0.008280 0.015541 0.000000 0.000000 0.000000
# 4 0.000000 0.000000 0.000000 0.055914 0.000000 0.000000
# 5 0.000000 0.000000 0.000000 0.000000 0.039460 0.000000
# 6 0.000000 0.000000 0.000000 0.000000 0.000000 0.050069
#
#
# Mechanical properties :
#
#
# Convention : Reuss Voigt Hill
#
# Bulk Modulus (GPa) = 60.09794 68.56317 64.33056
# Shear Modulus (GPa) = 20.85584 21.75351 21.30468
#
# Velocity S-wave (km/s) = 3.42530 3.49824 3.46196
# Velocity P-wave (km/s) = 7.03224 7.40864 7.22289
#
# Compressibility (1/GPa) = 0.01663951
#
# Stress axis : x y z
#
# Youngs Moduli (GPa) = 48.75170 60.08996 64.34564
#
# Poissons Ratio (x) = 0.20183 0.41110
# Poissons Ratio (y) = 0.16374 0.53278
# Poissons Ratio (z) = 0.31147 0.49755
#
# Static dielectric constant tensor:
#      x y z
#    x 3.381710 0.000000 0.000000 
#    y 0.000000 3.260890 0.000000 
#    z 0.000000 0.000000 3.461000 
# 
# 
# High freq. dielectric constant tensor:
#      x y z
#    x 1.690340 0.000000 0.000000 
#    y 0.000000 1.676670 0.000000 
#    z 0.000000 0.000000 1.689340 
# 
# From -- ./inp_files/30772.got.cif
#   From: 2010.03.12/outbox.cif.g09.slc.cpg/sg53_16_cif.got.tgz:30772.got - 2010.04.16 14:36:59.
