data_PCOD8219221
_publ_section_title
;
Structure prediction by ZEFSAII (Michael W. Deem and Ramdas Pophale) SiO2 
 PCOD8219221
Probable space group: P M N A
;
_chemical_formula_sum "Si O2"
_cell_formula_units_Z 48
_cell_length_a 13.599684
_cell_length_b 15.292100
_cell_length_c 12.306278
_cell_angle_alpha 90.000000
_cell_angle_beta 90.000000
_cell_angle_gamma 90.000000
_cell_volume 2559.308672
_symmetry_space_group_name_H-M "P M N A"
_symmetry_group_IT_number 53
_symmetry_cell_setting 'orthorhombic'
loop_
_space_group_symop_operation_xyz
x,y,z
1/2-x,-y,1/2+z
x,-y,-z
1/2-x,y,1/2-z
-x,-y,-z
1/2+x,y,1/2-z
-x,y,z
1/2+x,-y,1/2+z
loop_
_atom_site_type_symbol
_atom_site_label
_atom_site_fract_x
_atom_site_fract_y
_atom_site_fract_z
Si Si1 0.250000 0.092609 0.250000
Si Si2 0.112846 0.023264 0.619312
Si Si3 0.223096 0.749822 0.608318
Si Si4 0.888873 0.529015 0.122192
Si Si5 0.250000 0.653440 0.250000
Si Si6 0.389190 0.340691 0.304834
Si Si7 0.113850 0.225152 0.614067
O O1 0.235534 0.155272 0.145602
O O2 0.340870 0.030309 0.219391
O O3 0.128008 0.124699 0.646991
O O4 0.000000 0.995089 0.617515
O O5 0.158138 0.000000 0.500000
O O6 0.151593 0.704998 0.696703
O O7 0.320644 0.690123 0.593689
O O8 0.161202 0.757468 0.501443
O O9 0.805168 0.596208 0.159312
O O10 0.883961 0.445546 0.203015
O O11 0.000000 0.568897 0.127572
O O12 0.864794 0.500000 0.000000
O O13 0.334351 0.713644 0.200594
O O14 0.500000 0.308951 0.326316
O O15 0.000000 0.251073 0.608237
#
# Coordination Sequence:
#
# PCOD8219221 Si02
#       7
#     4   8   8   8   4   8   8
#     4  10  19  33  58  86 108 146 194 229 269 340
#     4  10  20  36  59  83 113 153 190 229 287 349
#     4  10  20  33  56  86 114 146 187 242 290 340
#     4  10  21  38  58  79 112 158 197 231 288 352
#     4  12  23  37  60  88 116 148 196 249 287 338
#     4   9  18  33  54  82 113 148 191 237 284 339
#     4  11  23  39  58  84 115 149 189 235 293 352
#
# _framework density 18.755064000000001
#
# number of rings (size 3 to 8) (size 9 to 14) (size 15 to 20)
#    0.000    2.000    1.667    3.500    0.000    2.667 
#    0.000    0.833    0.000    6.500    0.000    0.000 
#    0.000    0.000    0.000    0.000    0.000    0.000 
#
# Total GULP energy -594893.879175 kJ/mol
# GULP energy per Si atom -12393.622483 kJ/mol
# Density = 1.871238 g / cm^3
# Si number density = 18.755064 Si / 1000 Ang^3
#
#
#
# Elastic Constant Matrix: (Units=GPa)
#
#
# Indices 1 2 3 4 5 6 
#
# 1 137.1825 56.3482 43.7958 0.0000 0.0000 0.0000
# 2 56.3482 83.3801 35.6139 0.0000 0.0000 0.0000
# 3 43.7958 35.6139 81.9695 0.0000 0.0000 0.0000
# 4 0.0000 0.0000 0.0000 24.4192 0.0000 0.0000
# 5 0.0000 0.0000 0.0000 0.0000 30.5515 0.0000
# 6 0.0000 0.0000 0.0000 0.0000 0.0000 37.4109
#
#
#
# Elastic Compliance Matrix: (Units=1/GPa)
#
#
# Indices 1 2 3 4 5 6 
#
# 1 0.010721 -0.005892 -0.003168 0.000000 0.000000 0.000000
# 2 -0.005892 0.017964 -0.004657 0.000000 0.000000 0.000000
# 3 -0.003168 -0.004657 0.015916 0.000000 0.000000 0.000000
# 4 0.000000 0.000000 0.000000 0.040951 0.000000 0.000000
# 5 0.000000 0.000000 0.000000 0.000000 0.032732 0.000000
# 6 0.000000 0.000000 0.000000 0.000000 0.000000 0.026730
#
#
# Mechanical properties :
#
#
# Convention : Reuss Voigt Hill
#
# Bulk Modulus (GPa) = 58.25275 63.78309 61.01792
# Shear Modulus (GPa) = 28.06284 29.59459 28.82872
#
# Velocity S-wave (km/s) = 3.87238 3.97665 3.92486
# Velocity P-wave (km/s) = 7.14989 7.42747 7.29000
#
# Compressibility (1/GPa) = 0.01716657
#
# Stress axis : x y z
#
# Youngs Moduli (GPa) = 93.27248 55.66602 62.83072
#
# Poissons Ratio (x) = 0.32799 0.19907
# Poissons Ratio (y) = 0.54958 0.29260
# Poissons Ratio (z) = 0.29551 0.25923
#
# Static dielectric constant tensor:
#      x y z
#    x 3.599970 0.000000 0.000000 
#    y 0.000000 3.648720 0.000000 
#    z 0.000000 0.000000 3.174860 
# 
# 
# High freq. dielectric constant tensor:
#      x y z
#    x 1.733930 0.000000 0.000000 
#    y 0.000000 1.739450 0.000000 
#    z 0.000000 0.000000 1.710520 
# 
# From -- ./inp_files/15988.got.cif
#   From: 2010.03.12/outbox.cif.g09.slc.cpg/sg53_8_cif.got.tgz:15988.got - 2010.04.16 14:36:59.
