data_PCOD8219146
_publ_section_title
;
Structure prediction by ZEFSAII (Michael W. Deem and Ramdas Pophale) SiO2 
 PCOD8219146
Probable space group: P M N A
;
_chemical_formula_sum "Si O2"
_cell_formula_units_Z 64
_cell_length_a 9.074723
_cell_length_b 11.977195
_cell_length_c 31.170707
_cell_angle_alpha 90.000000
_cell_angle_beta 90.000000
_cell_angle_gamma 90.000000
_cell_volume 3387.935632
_symmetry_space_group_name_H-M "P M N A"
_symmetry_group_IT_number 53
_symmetry_cell_setting 'orthorhombic'
loop_
_space_group_symop_operation_xyz
x,y,z
1/2-x,-y,1/2+z
x,-y,-z
1/2-x,y,1/2-z
-x,-y,-z
1/2+x,y,1/2-z
-x,y,z
1/2+x,-y,1/2+z
loop_
_atom_site_type_symbol
_atom_site_label
_atom_site_fract_x
_atom_site_fract_y
_atom_site_fract_z
Si Si1 0.172389 0.483263 0.793550
Si Si2 0.828419 0.099702 0.631440
Si Si3 0.172842 0.226892 0.793414
Si Si4 0.834107 0.886299 0.978429
Si Si5 0.166465 0.238801 0.936784
Si Si6 0.825064 0.368515 0.126694
Si Si7 0.670873 0.149892 0.107429
Si Si8 0.825085 0.515259 0.047897
O O1 0.250000 0.524313 0.750000
O O2 0.212609 0.355068 0.803922
O O3 0.229087 0.555917 0.833593
O O4 0.000000 0.498367 0.786341
O O5 0.733044 0.149431 0.669384
O O6 0.776196 0.155386 0.587173
O O7 0.000000 0.125679 0.638264
O O8 0.797326 0.967803 0.630206
O O9 0.250000 0.187570 0.750000
O O10 0.000000 0.208691 0.788550
O O11 0.724289 0.852381 0.941289
O O12 0.000000 0.903083 0.959977
O O13 0.832721 0.787255 0.012769
O O14 0.777792 0.000000 0.000000
O O15 0.222198 0.365657 0.932064
O O16 0.000000 0.224954 0.918227
O O17 0.756089 0.246416 0.133080
O O18 0.769361 0.421420 0.081454
O O19 0.000000 0.358331 0.126535
O O20 0.500000 0.179170 0.107538
O O21 0.000000 0.510909 0.044351
O O22 0.756733 0.500000 0.000000
#
# Coordination Sequence:
#
# PCOD8219146 Si02
#       8
#     8   8   8   8   8   8   8   8
#     4   9  19  36  60  89 115 142 178 226 280 335
#     4  11  23  37  53  78 111 145 183 225 271 323
#     4  10  20  37  62  89 116 142 173 217 273 333
#     4  10  19  33  55  81 106 141 190 233 273 328
#     4  10  19  33  56  82 107 139 182 230 278 328
#     4  10  20  36  57  80 109 146 190 232 276 333
#     4  11  24  38  53  76 111 152 189 230 279 326
#     4   9  17  31  53  80 109 141 179 228 281 333
#
# _framework density 18.890560000000001
#
# number of rings (size 3 to 8) (size 9 to 14) (size 15 to 20)
#    0.000    2.000    1.250    2.625    0.000    7.250 
#    0.000    2.500    0.000    3.000    0.000    0.000 
#    0.000    0.000    0.000    0.000    0.000    0.000 
#
# Total GULP energy -793735.811309 kJ/mol
# GULP energy per Si atom -12402.122052 kJ/mol
# Density = 1.884756 g / cm^3
# Si number density = 18.890560 Si / 1000 Ang^3
#
#
#
# Elastic Constant Matrix: (Units=GPa)
#
#
# Indices 1 2 3 4 5 6 
#
# 1 60.2974 43.4786 44.9348 0.0000 0.0000 0.0000
# 2 43.4786 108.9608 50.9959 0.0000 0.0000 0.0000
# 3 44.9348 50.9959 121.6510 0.0000 0.0000 0.0000
# 4 0.0000 0.0000 0.0000 28.7453 0.0000 0.0000
# 5 0.0000 0.0000 0.0000 0.0000 29.9460 0.0000
# 6 0.0000 0.0000 0.0000 0.0000 0.0000 20.9080
#
#
#
# Elastic Compliance Matrix: (Units=1/GPa)
#
#
# Indices 1 2 3 4 5 6 
#
# 1 0.027199 -0.007652 -0.006839 0.000000 0.000000 0.000000
# 2 -0.007652 0.013571 -0.002862 0.000000 0.000000 0.000000
# 3 -0.006839 -0.002862 0.011946 0.000000 0.000000 0.000000
# 4 0.000000 0.000000 0.000000 0.034788 0.000000 0.000000
# 5 0.000000 0.000000 0.000000 0.000000 0.033393 0.000000
# 6 0.000000 0.000000 0.000000 0.000000 0.000000 0.047829
#
#
# Mechanical properties :
#
#
# Convention : Reuss Voigt Hill
#
# Bulk Modulus (GPa) = 55.52796 63.30309 59.41553
# Shear Modulus (GPa) = 23.87372 26.01985 24.94679
#
# Velocity S-wave (km/s) = 3.55884 3.71536 3.63794
# Velocity P-wave (km/s) = 6.80775 7.21030 7.01191
#
# Compressibility (1/GPa) = 0.01800894
#
# Stress axis : x y z
#
# Youngs Moduli (GPa) = 36.76651 73.68792 83.70957
#
# Poissons Ratio (x) = 0.56389 0.57246
# Poissons Ratio (y) = 0.28135 0.23959
# Poissons Ratio (z) = 0.25143 0.21091
#
# Static dielectric constant tensor:
#      x y z
#    x 3.321490 0.000000 0.000000 
#    y 0.000000 3.610460 0.000000 
#    z 0.000000 0.000000 3.536340 
# 
# 
# High freq. dielectric constant tensor:
#      x y z
#    x 1.715300 0.000000 0.000000 
#    y 0.000000 1.740410 0.000000 
#    z 0.000000 0.000000 1.730000 
# 
# From -- ./inp_files/38239.got.cif
#   From: 2010.03.12/outbox.cif.g09.slc.cpg/sg53_20_cif.got.tgz:38239.got - 2010.04.16 14:36:59.
