data_PCOD8219645
_publ_section_title
;
Structure prediction by ZEFSAII (Michael W. Deem and Ramdas Pophale) SiO2 
 PCOD8219645
Probable space group: P M N A
;
_chemical_formula_sum "Si O2"
_cell_formula_units_Z 32
_cell_length_a 17.717876
_cell_length_b 11.154985
_cell_length_c 7.491515
_cell_angle_alpha 90.000000
_cell_angle_beta 90.000000
_cell_angle_gamma 90.000000
_cell_volume 1480.642810
_symmetry_space_group_name_H-M "P M N A"
_symmetry_group_IT_number 53
_symmetry_cell_setting 'orthorhombic'
loop_
_space_group_symop_operation_xyz
x,y,z
1/2-x,-y,1/2+z
x,-y,-z
1/2-x,y,1/2-z
-x,-y,-z
1/2+x,y,1/2-z
-x,y,z
1/2+x,-y,1/2+z
loop_
_atom_site_type_symbol
_atom_site_label
_atom_site_fract_x
_atom_site_fract_y
_atom_site_fract_z
Si Si1 0.813966 0.864487 0.029712
Si Si2 0.586941 0.268754 0.248802
Si Si3 0.156974 0.237840 0.625307
Si Si4 0.665954 0.496204 0.793194
O O1 0.858096 0.862278 0.222174
O O2 0.740553 0.778545 0.041096
O O3 0.866348 0.824142 0.867300
O O4 0.787074 0.000000 0.000000
O O5 0.500000 0.252456 0.295900
O O6 0.610656 0.406075 0.297110
O O7 0.598710 0.237821 0.038499
O O8 0.150740 0.357546 0.752417
O O9 0.750000 0.538600 0.750000
O O10 0.650927 0.500000 0.000000
#
# Coordination Sequence:
#
# PCOD8219645 Si02
#       4
#     8   8   8   8
#     4  11  24  42  69  96 124 167 230 267 309 370
#     4  11  25  41  63  98 137 171 203 256 329 396
#     4  10  23  41  68  96 124 164 216 276 317 366
#     4  10  19  37  65  92 126 159 213 265 322 375
#
# _framework density 21.612235999999999
#
# number of rings (size 3 to 8) (size 9 to 14) (size 15 to 20)
#    0.000    1.500    2.500    3.750    7.000    6.000 
#    0.000    2.500    0.000    0.000    0.000    0.000 
#    0.000    0.000    0.000    0.000    0.000    0.000 
#
# Total GULP energy -396502.136769 kJ/mol
# GULP energy per Si atom -12390.691774 kJ/mol
# Density = 2.156305 g / cm^3
# Si number density = 21.612236 Si / 1000 Ang^3
#
#
#
# Elastic Constant Matrix: (Units=GPa)
#
#
# Indices 1 2 3 4 5 6 
#
# 1 61.2364 20.4345 12.8387 0.0000 0.0000 0.0000
# 2 20.4345 100.8981 25.0875 0.0000 0.0000 0.0000
# 3 12.8387 25.0875 78.9823 0.0000 0.0000 0.0000
# 4 0.0000 0.0000 0.0000 34.9331 0.0000 0.0000
# 5 0.0000 0.0000 0.0000 0.0000 24.1404 0.0000
# 6 0.0000 0.0000 0.0000 0.0000 0.0000 50.4516
#
#
#
# Elastic Compliance Matrix: (Units=1/GPa)
#
#
# Indices 1 2 3 4 5 6 
#
# 1 0.017771 -0.003128 -0.001895 0.000000 0.000000 0.000000
# 2 -0.003128 0.011311 -0.003084 0.000000 0.000000 0.000000
# 3 -0.001895 -0.003084 0.013949 0.000000 0.000000 0.000000
# 4 0.000000 0.000000 0.000000 0.028626 0.000000 0.000000
# 5 0.000000 0.000000 0.000000 0.000000 0.041424 0.000000
# 6 0.000000 0.000000 0.000000 0.000000 0.000000 0.019821
#
#
# Mechanical properties :
#
#
# Convention : Reuss Voigt Hill
#
# Bulk Modulus (GPa) = 37.29064 39.75980 38.52522
# Shear Modulus (GPa) = 31.63415 34.08875 32.86145
#
# Velocity S-wave (km/s) = 3.83000 3.97582 3.90359
# Velocity P-wave (km/s) = 6.07046 6.28594 6.17914
#
# Compressibility (1/GPa) = 0.02681638
#
# Stress axis : x y z
#
# Youngs Moduli (GPa) = 56.27051 88.40643 71.69044
#
# Poissons Ratio (x) = 0.27653 0.13587
# Poissons Ratio (y) = 0.17601 0.22112
# Poissons Ratio (z) = 0.10665 0.27268
#
# Static dielectric constant tensor:
#      x y z
#    x 3.453360 0.000000 0.000000 
#    y 0.000000 5.195980 0.000000 
#    z 0.000000 0.000000 3.927930 
# 
# 
# High freq. dielectric constant tensor:
#      x y z
#    x 1.805780 0.000000 0.000000 
#    y 0.000000 1.854380 0.000000 
#    z 0.000000 0.000000 1.860600 
# 
# From -- ./inp_files/8030.got.cif
#   From: 2010.03.12/outbox.cif.g09.slc.cpg/sg53_5_cif.got.tgz:8030.got - 2010.04.16 14:36:59.
