data_PCOD8219678
_publ_section_title
;
Structure prediction by ZEFSAII (Michael W. Deem and Ramdas Pophale) SiO2 
 PCOD8219678
Probable space group: P M N A
;
_chemical_formula_sum "Si O2"
_cell_formula_units_Z 56
_cell_length_a 25.105046
_cell_length_b 5.133939
_cell_length_c 20.198633
_cell_angle_alpha 90.000000
_cell_angle_beta 90.000000
_cell_angle_gamma 90.000000
_cell_volume 2603.356860
_symmetry_space_group_name_H-M "P M N A"
_symmetry_group_IT_number 53
_symmetry_cell_setting 'orthorhombic'
loop_
_space_group_symop_operation_xyz
x,y,z
1/2-x,-y,1/2+z
x,-y,-z
1/2-x,y,1/2-z
-x,-y,-z
1/2+x,y,1/2-z
-x,y,z
1/2+x,-y,1/2+z
loop_
_atom_site_type_symbol
_atom_site_label
_atom_site_fract_x
_atom_site_fract_y
_atom_site_fract_z
Si Si1 0.362421 0.841856 0.748954
Si Si2 0.362906 0.537807 0.869477
Si Si3 0.558993 0.475735 0.330193
Si Si4 0.148608 0.423752 0.924779
Si Si5 0.058479 0.222791 0.696717
Si Si6 0.685768 0.018553 0.924301
Si Si7 0.202588 0.070781 0.129921
O O1 0.340552 0.602134 0.794308
O O2 0.407900 0.771213 0.695566
O O3 0.315054 0.977262 0.706855
O O4 0.391789 0.022477 0.804050
O O5 0.424376 0.446926 0.856283
O O6 0.360138 0.798638 0.914396
O O7 0.330814 0.310897 0.906400
O O8 0.500000 0.386942 0.353307
O O9 0.590332 0.601418 0.391791
O O10 0.553977 0.680457 0.271440
O O11 0.184683 0.639089 0.889073
O O12 0.177550 0.145736 0.918573
O O13 0.140264 0.500000 0.000000
O O14 0.000000 0.111308 0.675883
O O15 0.733837 0.939670 0.875393
O O16 0.704911 0.000000 0.000000
#
# Coordination Sequence:
#
# PCOD8219678 Si02
#       7
#     8   8   8   8   8   8   8
#     4  10  20  40  63  96 129 158 206 269 318 375
#     4  11  24  43  65 101 125 162 210 264 317 380
#     4   9  19  33  56  88 123 166 209 259 322 376
#     4  11  21  37  58  85 125 170 222 266 299 366
#     4  10  19  39  68  94 128 163 204 260 332 391
#     4  12  25  45  67  90 129 176 215 257 313 383
#     4  11  24  41  64  91 125 169 217 261 316 372
#
# _framework density 21.51069
#
# number of rings (size 3 to 8) (size 9 to 14) (size 15 to 20)
#    0.000    1.429    2.857    3.000    0.000    1.429 
#    2.571    0.000    0.000    5.143    0.000    0.000 
#    0.000    0.000    0.000    0.000    0.000    0.000 
#
# Total GULP energy -693940.574032 kJ/mol
# GULP energy per Si atom -12391.795965 kJ/mol
# Density = 2.146173 g / cm^3
# Si number density = 21.510690 Si / 1000 Ang^3
#
#
#
# Elastic Constant Matrix: (Units=GPa)
#
#
# Indices 1 2 3 4 5 6 
#
# 1 57.0597 25.8359 35.9801 0.0000 0.0000 0.0000
# 2 25.8359 95.2773 26.1490 0.0000 0.0000 0.0000
# 3 35.9801 26.1490 74.4915 0.0000 0.0000 0.0000
# 4 0.0000 0.0000 0.0000 36.7864 0.0000 0.0000
# 5 0.0000 0.0000 0.0000 0.0000 17.6872 0.0000
# 6 0.0000 0.0000 0.0000 0.0000 0.0000 26.1535
#
#
#
# Elastic Compliance Matrix: (Units=1/GPa)
#
#
# Indices 1 2 3 4 5 6 
#
# 1 0.026557 -0.004073 -0.011397 0.000000 0.000000 0.000000
# 2 -0.004073 0.012239 -0.002329 0.000000 0.000000 0.000000
# 3 -0.011397 -0.002329 0.019747 0.000000 0.000000 0.000000
# 4 0.000000 0.000000 0.000000 0.027184 0.000000 0.000000
# 5 0.000000 0.000000 0.000000 0.000000 0.056538 0.000000
# 6 0.000000 0.000000 0.000000 0.000000 0.000000 0.038236
#
#
# Mechanical properties :
#
#
# Convention : Reuss Voigt Hill
#
# Bulk Modulus (GPa) = 43.58462 44.75094 44.16778
# Shear Modulus (GPa) = 22.34660 25.38297 23.86479
#
# Velocity S-wave (km/s) = 3.22663 3.43886 3.33444
# Velocity P-wave (km/s) = 5.84700 6.05119 5.94997
#
# Compressibility (1/GPa) = 0.02294388
#
# Stress axis : x y z
#
# Youngs Moduli (GPa) = 37.65544 81.70329 50.64086
#
# Poissons Ratio (x) = 0.33280 0.57717
# Poissons Ratio (y) = 0.15338 0.11794
# Poissons Ratio (z) = 0.42917 0.19029
#
# Static dielectric constant tensor:
#      x y z
#    x 4.018840 0.000000 0.000000 
#    y 0.000000 3.948330 0.000000 
#    z 0.000000 0.000000 3.828990 
# 
# 
# High freq. dielectric constant tensor:
#      x y z
#    x 1.830580 0.000000 0.000000 
#    y 0.000000 1.849200 0.000000 
#    z 0.000000 0.000000 1.829560 
# 
# From -- ./inp_files/33191.got.cif
#   From: 2010.03.12/outbox.cif.g09.slc.cpg/sg53_17_cif.got.tgz:33191.got - 2010.04.16 14:36:59.
