data_PCOD8219877
_publ_section_title
;
Structure prediction by ZEFSAII (Michael W. Deem and Ramdas Pophale) SiO2 
 PCOD8219877
Probable space group: P M N A
;
_chemical_formula_sum "Si O2"
_cell_formula_units_Z 64
_cell_length_a 8.924488
_cell_length_b 23.038222
_cell_length_c 15.238005
_cell_angle_alpha 90.000000
_cell_angle_beta 90.000000
_cell_angle_gamma 90.000000
_cell_volume 3132.999897
_symmetry_space_group_name_H-M "P M N A"
_symmetry_group_IT_number 53
_symmetry_cell_setting 'orthorhombic'
loop_
_space_group_symop_operation_xyz
x,y,z
1/2-x,-y,1/2+z
x,-y,-z
1/2-x,y,1/2-z
-x,-y,-z
1/2+x,y,1/2-z
-x,y,z
1/2+x,-y,1/2+z
loop_
_atom_site_type_symbol
_atom_site_label
_atom_site_fract_x
_atom_site_fract_y
_atom_site_fract_z
Si Si1 0.169796 0.922633 0.167912
Si Si2 0.172016 0.625110 0.512550
Si Si3 0.327858 0.201785 0.655767
Si Si4 0.678502 0.849093 0.844851
Si Si5 0.676396 0.973571 0.911238
Si Si6 0.174877 0.414573 0.840502
Si Si7 0.825986 0.550052 0.839886
Si Si8 0.670802 0.756604 0.988136
O O1 0.250000 0.892847 0.250000
O O2 0.178807 0.863794 0.110476
O O3 0.000000 0.944944 0.179410
O O4 0.276594 0.977736 0.156690
O O5 0.247918 0.621060 0.417756
O O6 0.256821 0.583900 0.579325
O O7 0.184043 0.691060 0.547206
O O8 0.000000 0.605156 0.505520
O O9 0.250000 0.212589 0.750000
O O10 0.500000 0.219064 0.670647
O O11 0.257804 0.241222 0.580010
O O12 0.750000 0.837772 0.750000
O O13 0.500000 0.850150 0.833755
O O14 0.738808 0.910738 0.883747
O O15 0.733225 0.799090 0.911655
O O16 0.500000 0.969615 0.921336
O O17 0.750569 0.000000 0.000000
O O18 0.250000 0.394268 0.750000
O O19 0.203326 0.482492 0.856782
O O20 0.000000 0.399694 0.837197
O O21 0.750000 0.570997 0.750000
O O22 0.000000 0.564872 0.833433
O O23 0.500000 0.774459 0.007730
#
# Coordination Sequence:
#
# PCOD8219877 Si02
#       8
#     8   8   8   8   8   8   8   8
#     4  10  20  33  51  77 106 134 169 215 269 331
#     4  11  23  38  59  87 118 154 197 245 295 346
#     4  10  21  37  59  85 113 149 189 234 292 353
#     4  10  22  40  60  82 112 152 197 244 292 344
#     4  10  20  34  55  81 108 141 179 224 283 344
#     4  10  21  38  61  90 123 158 194 234 287 349
#     4  10  21  38  61  89 121 156 194 238 288 344
#     4  10  23  42  60  81 112 152 199 246 289 339
#
# _framework density 20.427705
#
# number of rings (size 3 to 8) (size 9 to 14) (size 15 to 20)
#    0.000    1.875    0.000    3.375    0.000    9.750 
#    0.000    1.250    0.000    0.000    0.000    0.000 
#    0.000    0.000    0.000    0.000    0.000    0.000 
#
# Total GULP energy -793119.650033 kJ/mol
# GULP energy per Si atom -12392.494532 kJ/mol
# Density = 2.038121 g / cm^3
# Si number density = 20.427705 Si / 1000 Ang^3
#
#
#
# Elastic Constant Matrix: (Units=GPa)
#
#
# Indices 1 2 3 4 5 6 
#
# 1 74.2402 29.9739 43.1024 0.0000 0.0000 0.0000
# 2 29.9739 66.8119 36.0504 0.0000 0.0000 0.0000
# 3 43.1024 36.0504 124.1471 0.0000 0.0000 0.0000
# 4 0.0000 0.0000 0.0000 24.7099 0.0000 0.0000
# 5 0.0000 0.0000 0.0000 0.0000 37.4252 0.0000
# 6 0.0000 0.0000 0.0000 0.0000 0.0000 108.9349
#
#
#
# Elastic Compliance Matrix: (Units=1/GPa)
#
#
# Indices 1 2 3 4 5 6 
#
# 1 0.018564 -0.005752 -0.004775 0.000000 0.000000 0.000000
# 2 -0.005752 0.019531 -0.003674 0.000000 0.000000 0.000000
# 3 -0.004775 -0.003674 0.010780 0.000000 0.000000 0.000000
# 4 0.000000 0.000000 0.000000 0.040470 0.000000 0.000000
# 5 0.000000 0.000000 0.000000 0.000000 0.026720 0.000000
# 6 0.000000 0.000000 0.000000 0.000000 0.000000 0.009180
#
#
# Mechanical properties :
#
#
# Convention : Reuss Voigt Hill
#
# Bulk Modulus (GPa) = 48.84747 53.71695 51.28221
# Shear Modulus (GPa) = 31.15829 44.61883 37.88856
#
# Velocity S-wave (km/s) = 3.90974 4.67865 4.31137
# Velocity P-wave (km/s) = 6.65926 7.45248 7.06701
#
# Compressibility (1/GPa) = 0.02047189
#
# Stress axis : x y z
#
# Youngs Moduli (GPa) = 53.86639 51.20188 92.76636
#
# Poissons Ratio (x) = 0.29452 0.44296
# Poissons Ratio (y) = 0.30984 0.34085
# Poissons Ratio (z) = 0.25722 0.18813
#
# Static dielectric constant tensor:
#      x y z
#    x 3.647480 0.000000 0.000000 
#    y 0.000000 3.713710 0.000000 
#    z 0.000000 0.000000 3.861390 
# 
# 
# High freq. dielectric constant tensor:
#      x y z
#    x 1.798210 0.000000 0.000000 
#    y 0.000000 1.803290 0.000000 
#    z 0.000000 0.000000 1.797630 
# 
# From -- ./inp_files/21035.got.cif
#   From: 2010.03.12/outbox.cif.g09.slc.cpg/sg53_11_cif.got.tgz:21035.got - 2010.04.16 14:36:59.
