data_PCOD8219395
_publ_section_title
;
Structure prediction by ZEFSAII (Michael W. Deem and Ramdas Pophale) SiO2 
 PCOD8219395
Probable space group: P M N A
;
_chemical_formula_sum "Si O2"
_cell_formula_units_Z 40
_cell_length_a 24.447761
_cell_length_b 10.239731
_cell_length_c 7.704360
_cell_angle_alpha 90.000000
_cell_angle_beta 90.000000
_cell_angle_gamma 90.000000
_cell_volume 1928.697897
_symmetry_space_group_name_H-M "P M N A"
_symmetry_group_IT_number 53
_symmetry_cell_setting 'orthorhombic'
loop_
_space_group_symop_operation_xyz
x,y,z
1/2-x,-y,1/2+z
x,-y,-z
1/2-x,y,1/2-z
-x,-y,-z
1/2+x,y,1/2-z
-x,y,z
1/2+x,-y,1/2+z
loop_
_atom_site_type_symbol
_atom_site_label
_atom_site_fract_x
_atom_site_fract_y
_atom_site_fract_z
Si Si1 0.139439 0.357308 0.481399
Si Si2 0.898296 0.014003 0.194130
Si Si3 0.062697 0.269226 0.779177
Si Si4 0.938860 0.288479 0.175350
Si Si5 0.205658 0.885078 0.612576
O O1 0.167502 0.500000 0.500000
O O2 0.099114 0.347797 0.644405
O O3 0.105512 0.353622 0.301125
O O4 0.185933 0.245125 0.489328
O O5 0.928904 0.884328 0.255831
O O6 0.941021 0.132856 0.208377
O O7 0.846302 0.041041 0.311103
O O8 0.875973 0.000000 0.000000
O O9 0.000000 0.303804 0.742297
O O10 0.078640 0.313057 0.974967
O O11 0.000000 0.343672 0.210532
O O12 0.250000 0.835093 0.750000
O O13 0.234318 0.000000 0.500000
#
# Coordination Sequence:
#
# PCOD8219395 Si02
#       5
#     8   8   8   8   8
#     4  11  24  41  60  87 130 165 203 248 303 365
#     4   9  17  33  57  89 125 154 195 257 308 352
#     4  10  19  34  60  93 130 171 205 242 298 363
#     4   9  19  33  56  90 126 165 207 245 290 354
#     4  11  22  41  67  90 111 147 205 264 317 366
#
# _framework density 20.739381000000002
#
# number of rings (size 3 to 8) (size 9 to 14) (size 15 to 20)
#    0.000    2.000    2.000    1.800    0.000    4.800 
#    0.000    6.000    0.000    0.000    0.000    0.000 
#    0.000    0.000    0.000    0.000    0.000    0.000 
#
# Total GULP energy -495870.211422 kJ/mol
# GULP energy per Si atom -12396.755286 kJ/mol
# Density = 2.069218 g / cm^3
# Si number density = 20.739381 Si / 1000 Ang^3
#
#
#
# Elastic Constant Matrix: (Units=GPa)
#
#
# Indices 1 2 3 4 5 6 
#
# 1 57.6168 22.0183 24.3695 0.0000 0.0000 0.0000
# 2 22.0183 133.1011 35.2917 0.0000 0.0000 0.0000
# 3 24.3695 35.2917 87.3486 0.0000 0.0000 0.0000
# 4 0.0000 0.0000 0.0000 19.9856 0.0000 0.0000
# 5 0.0000 0.0000 0.0000 0.0000 24.0626 0.0000
# 6 0.0000 0.0000 0.0000 0.0000 0.0000 -6.8981
#
#
#
# Elastic Compliance Matrix: (Units=1/GPa)
#
#
# Indices 1 2 3 4 5 6 
#
# 1 0.020173 -0.002066 -0.004793 0.000000 0.000000 0.000000
# 2 -0.002066 0.008626 -0.002909 0.000000 0.000000 0.000000
# 3 -0.004793 -0.002909 0.013961 0.000000 0.000000 0.000000
# 4 0.000000 0.000000 0.000000 0.050036 0.000000 0.000000
# 5 0.000000 0.000000 0.000000 0.000000 0.041558 0.000000
# 6 0.000000 0.000000 0.000000 0.000000 0.000000 -0.144967
#
#
# Mechanical properties :
#
#
# Convention : Reuss Voigt Hill
#
# Bulk Modulus (GPa) = 43.05980 49.04728 46.05354
# Shear Modulus (GPa) = 300.02276 20.52247 160.27262
#
# Velocity S-wave (km/s) = 12.04065 3.14911 8.80041
# Velocity P-wave (km/s) = 14.63252 6.07645 11.20343
#
# Compressibility (1/GPa) = 0.02322352
#
# Stress axis : x y z
#
# Youngs Moduli (GPa) = 49.57124 115.92655 71.62852
#
# Poissons Ratio (x) = 0.23953 0.34334
# Poissons Ratio (y) = 0.10242 0.20835
# Poissons Ratio (z) = 0.23761 0.33721
#
# Static dielectric constant tensor:
#      x y z
#    x 3.457960 0.000000 0.000000 
#    y 0.000000 3.760440 0.000000 
#    z 0.000000 0.000000 3.871890 
# 
# 
# High freq. dielectric constant tensor:
#      x y z
#    x 1.782230 0.000000 0.000000 
#    y 0.000000 1.809840 0.000000 
#    z 0.000000 0.000000 1.818850 
# 
# From -- ./inp_files/11523.got.cif
#   From: 2010.03.12/outbox.cif.g09.slc.cpg/sg53_6_cif.got.tgz:11523.got - 2010.04.16 14:36:59.
