data_PCOD8219810
_publ_section_title
;
Structure prediction by ZEFSAII (Michael W. Deem and Ramdas Pophale) SiO2 
 PCOD8219810
Probable space group: P M N A
;
_chemical_formula_sum "Si O2"
_cell_formula_units_Z 64
_cell_length_a 9.315169
_cell_length_b 24.911598
_cell_length_c 13.982660
_cell_angle_alpha 90.000000
_cell_angle_beta 90.000000
_cell_angle_gamma 90.000000
_cell_volume 3244.756589
_symmetry_space_group_name_H-M "P M N A"
_symmetry_group_IT_number 53
_symmetry_cell_setting 'orthorhombic'
loop_
_space_group_symop_operation_xyz
x,y,z
1/2-x,-y,1/2+z
x,-y,-z
1/2-x,y,1/2-z
-x,-y,-z
1/2+x,y,1/2-z
-x,y,z
1/2+x,-y,1/2+z
loop_
_atom_site_type_symbol
_atom_site_label
_atom_site_fract_x
_atom_site_fract_y
_atom_site_fract_z
Si Si1 0.168186 0.372551 0.655729
Si Si2 0.666471 0.974574 0.652484
Si Si3 0.346630 0.508646 0.106993
Si Si4 0.835144 0.273979 0.527637
Si Si5 0.332288 0.171141 0.849498
Si Si6 0.839980 0.410065 0.162039
Si Si7 0.334941 0.293414 0.349770
Si Si8 0.332326 0.917792 0.458321
O O1 0.250000 0.353688 0.750000
O O2 0.219333 0.432657 0.627013
O O3 0.206864 0.332056 0.570519
O O4 0.000000 0.371499 0.677298
O O5 0.750000 0.961251 0.750000
O O6 0.500000 0.969921 0.677400
O O7 0.706691 0.932891 0.567898
O O8 0.703270 0.033732 0.614001
O O9 0.500000 0.501127 0.163608
O O10 0.227526 0.464432 0.124646
O O11 0.390408 0.500000 0.000000
O O12 0.808826 0.230861 0.610866
O O13 0.739906 0.259439 0.434385
O O14 0.000000 0.273898 0.493808
O O15 0.250000 0.164521 0.750000
O O16 0.500000 0.158241 0.833411
O O17 0.267568 0.131337 0.928441
O O18 0.750000 0.389791 0.250000
O O19 0.834080 0.354229 0.103910
O O20 0.000000 0.425821 0.190362
O O21 0.250000 0.285298 0.250000
O O22 0.500000 0.274948 0.333576
O O23 0.500000 0.902494 0.450790
#
# Coordination Sequence:
#
# PCOD8219810 Si02
#       8
#     8   8   8   8   8   8   8   8
#     4  10  21  36  54  76 104 140 179 223 274 327
#     4   9  18  33  55  84 119 158 197 237 283 333
#     4  10  20  33  50  72  99 133 170 210 263 323
#     4  10  22  40  59  80 108 142 184 231 276 326
#     4  11  23  38  59  86 114 148 190 235 282 330
#     4  10  20  33  50  73  99 127 161 203 254 314
#     4  10  21  37  59  84 108 138 176 220 273 331
#     4   9  19  36  56  82 118 157 196 238 283 332
#
# _framework density 19.724129000000001
#
# number of rings (size 3 to 8) (size 9 to 14) (size 15 to 20)
#    0.000    2.125    0.000    3.750    0.000    7.750 
#    0.000    1.875    0.000    1.500    0.000    0.000 
#    0.000    0.000    0.000    0.000    0.000    0.000 
#
# Total GULP energy -792931.218296 kJ/mol
# GULP energy per Si atom -12389.550286 kJ/mol
# Density = 1.967924 g / cm^3
# Si number density = 19.724129 Si / 1000 Ang^3
#
#
#
# Elastic Constant Matrix: (Units=GPa)
#
#
# Indices 1 2 3 4 5 6 
#
# 1 112.0200 29.6841 59.3493 0.0000 0.0000 0.0000
# 2 29.6841 50.8619 26.9988 0.0000 0.0000 0.0000
# 3 59.3493 26.9988 120.9033 0.0000 0.0000 0.0000
# 4 0.0000 0.0000 0.0000 26.5791 0.0000 0.0000
# 5 0.0000 0.0000 0.0000 0.0000 38.4220 0.0000
# 6 0.0000 0.0000 0.0000 0.0000 0.0000 28.5509
#
#
#
# Elastic Compliance Matrix: (Units=1/GPa)
#
#
# Indices 1 2 3 4 5 6 
#
# 1 0.013010 -0.004768 -0.005322 0.000000 0.000000 0.000000
# 2 -0.004768 0.024053 -0.003031 0.000000 0.000000 0.000000
# 3 -0.005322 -0.003031 0.011560 0.000000 0.000000 0.000000
# 4 0.000000 0.000000 0.000000 0.037624 0.000000 0.000000
# 5 0.000000 0.000000 0.000000 0.000000 0.026027 0.000000
# 6 0.000000 0.000000 0.000000 0.000000 0.000000 0.035025
#
#
# Mechanical properties :
#
#
# Convention : Reuss Voigt Hill
#
# Bulk Modulus (GPa) = 44.67858 57.31663 50.99761
# Shear Modulus (GPa) = 27.62446 29.89394 28.75920
#
# Velocity S-wave (km/s) = 3.74644 3.89730 3.82261
# Velocity P-wave (km/s) = 6.43548 7.02667 6.73756
#
# Compressibility (1/GPa) = 0.02238209
#
# Stress axis : x y z
#
# Youngs Moduli (GPa) = 76.86466 41.57570 86.50448
#
# Poissons Ratio (x) = 0.19823 0.46034
# Poissons Ratio (y) = 0.36649 0.26216
# Poissons Ratio (z) = 0.40904 0.12600
#
# Static dielectric constant tensor:
#      x y z
#    x 3.534000 0.000000 0.000000 
#    y 0.000000 3.418260 0.000000 
#    z 0.000000 0.000000 3.440440 
# 
# 
# High freq. dielectric constant tensor:
#      x y z
#    x 1.773510 0.000000 0.000000 
#    y 0.000000 1.757270 0.000000 
#    z 0.000000 0.000000 1.765400 
# 
# From -- ./inp_files/20965.got.cif
#   From: 2010.03.12/outbox.cif.g09.slc.cpg/sg53_11_cif.got.tgz:20965.got - 2010.04.16 14:36:59.
