data_PCOD8219724
_publ_section_title
;
Structure prediction by ZEFSAII (Michael W. Deem and Ramdas Pophale) SiO2 
 PCOD8219724
Probable space group: P M N A
;
_chemical_formula_sum "Si O2"
_cell_formula_units_Z 40
_cell_length_a 8.711708
_cell_length_b 26.303018
_cell_length_c 9.159991
_cell_angle_alpha 90.000000
_cell_angle_beta 90.000000
_cell_angle_gamma 90.000000
_cell_volume 2098.958923
_symmetry_space_group_name_H-M "P M N A"
_symmetry_group_IT_number 53
_symmetry_cell_setting 'orthorhombic'
loop_
_space_group_symop_operation_xyz
x,y,z
1/2-x,-y,1/2+z
x,-y,-z
1/2-x,y,1/2-z
-x,-y,-z
1/2+x,y,1/2-z
-x,y,z
1/2+x,-y,1/2+z
loop_
_atom_site_type_symbol
_atom_site_label
_atom_site_fract_x
_atom_site_fract_y
_atom_site_fract_z
Si Si1 0.679509 0.648539 0.090356
Si Si2 0.681082 0.859823 0.411255
Si Si3 0.818655 0.451643 0.910327
Si Si4 0.677702 0.050301 0.093446
Si Si5 0.820207 0.758609 0.409282
O O1 0.750000 0.651409 0.250000
O O2 0.500000 0.637610 0.102959
O O3 0.759172 0.600421 0.009892
O O4 0.709314 0.703603 0.011802
O O5 0.750000 0.867279 0.250000
O O6 0.500000 0.860067 0.397739
O O7 0.733468 0.904287 0.516516
O O8 0.737545 0.806592 0.486075
O O9 0.750000 0.455784 0.750000
O O10 0.000000 0.450445 0.902026
O O11 0.758595 0.500000 0.000000
O O12 0.750000 0.039757 0.250000
O O13 0.500000 0.064963 0.109278
O O14 0.701013 0.000000 0.000000
O O15 0.750000 0.754878 0.250000
O O16 0.000000 0.770164 0.398342
#
# Coordination Sequence:
#
# PCOD8219724 Si02
#       5
#     8   8   8   8   8
#     4   9  16  26  44  69  97 130 166 209 256 302
#     4  11  21  34  55  82 112 144 177 216 262 310
#     4  10  20  32  48  71  98 130 168 210 256 308
#     4  11  24  41  61  84 111 143 179 219 262 310
#     4   9  16  27  45  72 103 133 169 211 256 306
#
# _framework density 19.057065999999999
#
# number of rings (size 3 to 8) (size 9 to 14) (size 15 to 20)
#    0.000    2.000    0.000    7.200    0.000    7.200 
#    0.000    0.000    0.000    1.200    0.000    2.800 
#    0.000    0.000    0.000    0.000    0.000    0.000 
#
# Total GULP energy -495651.904717 kJ/mol
# GULP energy per Si atom -12391.297618 kJ/mol
# Density = 1.901369 g / cm^3
# Si number density = 19.057066 Si / 1000 Ang^3
#
#
#
# Elastic Constant Matrix: (Units=GPa)
#
#
# Indices 1 2 3 4 5 6 
#
# 1 141.9399 75.0490 35.1414 0.0000 0.0000 0.0000
# 2 75.0490 166.8254 37.4351 0.0000 0.0000 0.0000
# 3 35.1414 37.4351 53.4602 0.0000 0.0000 0.0000
# 4 0.0000 0.0000 0.0000 30.1952 0.0000 0.0000
# 5 0.0000 0.0000 0.0000 0.0000 19.9912 0.0000
# 6 0.0000 0.0000 0.0000 0.0000 0.0000 89.5752
#
#
#
# Elastic Compliance Matrix: (Units=1/GPa)
#
#
# Indices 1 2 3 4 5 6 
#
# 1 0.009926 -0.003561 -0.004031 0.000000 0.000000 0.000000
# 2 -0.003561 0.008389 -0.003534 0.000000 0.000000 0.000000
# 3 -0.004031 -0.003534 0.023830 0.000000 0.000000 0.000000
# 4 0.000000 0.000000 0.000000 0.033118 0.000000 0.000000
# 5 0.000000 0.000000 0.000000 0.000000 0.050022 0.000000
# 6 0.000000 0.000000 0.000000 0.000000 0.000000 0.011164
#
#
# Mechanical properties :
#
#
# Convention : Reuss Voigt Hill
#
# Bulk Modulus (GPa) = 50.26818 73.05295 61.66057
# Shear Modulus (GPa) = 30.24222 42.25899 36.25061
#
# Velocity S-wave (km/s) = 3.98795 4.71414 4.36617
# Velocity P-wave (km/s) = 6.90217 8.24911 7.60552
#
# Compressibility (1/GPa) = 0.01989330
#
# Stress axis : x y z
#
# Youngs Moduli (GPa) = 100.74522 119.20191 41.96395
#
# Poissons Ratio (x) = 0.42445 0.16917
# Poissons Ratio (y) = 0.35873 0.14829
# Poissons Ratio (z) = 0.40614 0.42124
#
# Static dielectric constant tensor:
#      x y z
#    x 3.701560 0.000000 0.000000 
#    y 0.000000 4.814880 0.000000 
#    z 0.000000 0.000000 2.987970 
# 
# 
# High freq. dielectric constant tensor:
#      x y z
#    x 1.761610 0.000000 0.000000 
#    y 0.000000 1.778510 0.000000 
#    z 0.000000 0.000000 1.673810 
# 
# From -- ./inp_files/6499.got.cif
#   From: 2010.03.12/outbox.cif.g09.slc.cpg/sg53_4_cif.got.tgz:6499.got - 2010.04.16 14:36:59.
