data_PCOD8219610
_publ_section_title
;
Structure prediction by ZEFSAII (Michael W. Deem and Ramdas Pophale) SiO2 
 PCOD8219610
Probable space group: P M N A
;
_chemical_formula_sum "Si O2"
_cell_formula_units_Z 64
_cell_length_a 8.867153
_cell_length_b 24.834472
_cell_length_c 14.358641
_cell_angle_alpha 90.000000
_cell_angle_beta 90.000000
_cell_angle_gamma 90.000000
_cell_volume 3161.931596
_symmetry_space_group_name_H-M "P M N A"
_symmetry_group_IT_number 53
_symmetry_cell_setting 'orthorhombic'
loop_
_space_group_symop_operation_xyz
x,y,z
1/2-x,-y,1/2+z
x,-y,-z
1/2-x,y,1/2-z
-x,-y,-z
1/2+x,y,1/2-z
-x,y,z
1/2+x,-y,1/2+z
loop_
_atom_site_type_symbol
_atom_site_label
_atom_site_fract_x
_atom_site_fract_y
_atom_site_fract_z
Si Si1 0.675006 0.632454 0.156092
Si Si2 0.322459 0.409138 0.341821
Si Si3 0.164022 0.021405 0.397416
Si Si4 0.823824 0.878492 0.963918
Si Si5 0.823389 0.675826 0.537447
Si Si6 0.172441 0.513278 0.392381
Si Si7 0.677689 0.227491 0.351558
Si Si8 0.178922 0.906857 0.343563
O O1 0.750000 0.654608 0.250000
O O2 0.500000 0.627852 0.174960
O O3 0.734882 0.572947 0.129194
O O4 0.707226 0.675381 0.073651
O O5 0.250000 0.381761 0.250000
O O6 0.500000 0.398924 0.345128
O O7 0.239706 0.381415 0.428427
O O8 0.283579 0.472404 0.339628
O O9 0.279336 0.071137 0.397698
O O10 0.000000 0.040543 0.358732
O O11 0.138928 0.000000 0.500000
O O12 0.226677 0.970158 0.340361
O O13 0.740764 0.878025 0.063598
O O14 0.000000 0.881042 0.984113
O O15 0.775413 0.826017 0.906878
O O16 0.734110 0.723335 0.586474
O O17 0.000000 0.680519 0.560054
O O18 0.184144 0.500000 0.500000
O O19 0.000000 0.505363 0.357951
O O20 0.750000 0.227515 0.250000
O O21 0.500000 0.232317 0.338890
O O22 0.250000 0.880431 0.250000
O O23 0.000000 0.899618 0.343201
#
# Coordination Sequence:
#
# PCOD8219610 Si02
#       8
#     8   8   8   8   8   8   8   8
#     4  10  22  39  62  88 118 155 192 235 287 342
#     4  12  24  37  57  86 118 154 194 236 286 344
#     4   8  16  31  51  78 114 155 197 240 287 340
#     4  10  21  37  58  85 119 156 198 245 297 354
#     4  11  23  43  65  86 114 152 193 240 297 347
#     4  10  19  37  59  84 121 157 191 235 284 340
#     4  11  25  44  65  91 117 148 190 243 298 353
#     4  10  20  34  55  85 122 162 203 245 293 347
#
# _framework density 20.240791999999999
#
# number of rings (size 3 to 8) (size 9 to 14) (size 15 to 20)
#    0.000    1.750    1.250    4.125    0.000    8.000 
#    0.000    3.125    0.000    1.500    0.000    0.000 
#    0.000    0.000    0.000    0.000    0.000    0.000 
#
# Total GULP energy -793469.739748 kJ/mol
# GULP energy per Si atom -12397.964684 kJ/mol
# Density = 2.019472 g / cm^3
# Si number density = 20.240792 Si / 1000 Ang^3
#
#
#
# Elastic Constant Matrix: (Units=GPa)
#
#
# Indices 1 2 3 4 5 6 
#
# 1 67.7566 40.5981 55.6934 0.0000 0.0000 0.0000
# 2 40.5981 99.1089 51.3511 0.0000 0.0000 0.0000
# 3 55.6934 51.3511 133.5466 0.0000 0.0000 0.0000
# 4 0.0000 0.0000 0.0000 25.5142 0.0000 0.0000
# 5 0.0000 0.0000 0.0000 0.0000 29.7421 0.0000
# 6 0.0000 0.0000 0.0000 0.0000 0.0000 24.0758
#
#
#
# Elastic Compliance Matrix: (Units=1/GPa)
#
#
# Indices 1 2 3 4 5 6 
#
# 1 0.025066 -0.006059 -0.008124 0.000000 0.000000 0.000000
# 2 -0.006059 0.014065 -0.002881 0.000000 0.000000 0.000000
# 3 -0.008124 -0.002881 0.011984 0.000000 0.000000 0.000000
# 4 0.000000 0.000000 0.000000 0.039194 0.000000 0.000000
# 5 0.000000 0.000000 0.000000 0.000000 0.033622 0.000000
# 6 0.000000 0.000000 0.000000 0.000000 0.000000 0.041535
#
#
# Mechanical properties :
#
#
# Convention : Reuss Voigt Hill
#
# Bulk Modulus (GPa) = 58.86867 66.18858 62.52862
# Shear Modulus (GPa) = 24.35967 26.05106 25.20536
#
# Velocity S-wave (km/s) = 3.47290 3.59145 3.53267
# Velocity P-wave (km/s) = 6.72523 7.06892 6.89921
#
# Compressibility (1/GPa) = 0.01698697
#
# Stress axis : x y z
#
# Youngs Moduli (GPa) = 39.89392 71.09976 83.44537
#
# Poissons Ratio (x) = 0.43078 0.67790
# Poissons Ratio (y) = 0.24171 0.24044
# Poissons Ratio (z) = 0.32409 0.20487
#
# Static dielectric constant tensor:
#      x y z
#    x 3.621130 0.000000 0.000000 
#    y 0.000000 3.659830 0.000000 
#    z 0.000000 0.000000 3.904000 
# 
# 
# High freq. dielectric constant tensor:
#      x y z
#    x 1.792630 0.000000 0.000000 
#    y 0.000000 1.770150 0.000000 
#    z 0.000000 0.000000 1.799880 
# 
# From -- ./inp_files/20837.got.cif
#   From: 2010.03.12/outbox.cif.g09.slc.cpg/sg53_11_cif.got.tgz:20837.got - 2010.04.16 14:36:59.
