data_PCOD8219535
_publ_section_title
;
Structure prediction by ZEFSAII (Michael W. Deem and Ramdas Pophale) SiO2 
 PCOD8219535
Probable space group: P M N A
;
_chemical_formula_sum "Si O2"
_cell_formula_units_Z 44
_cell_length_a 13.440298
_cell_length_b 9.974696
_cell_length_c 18.185422
_cell_angle_alpha 90.000000
_cell_angle_beta 90.000000
_cell_angle_gamma 90.000000
_cell_volume 2437.990169
_symmetry_space_group_name_H-M "P M N A"
_symmetry_group_IT_number 53
_symmetry_cell_setting 'orthorhombic'
loop_
_space_group_symop_operation_xyz
x,y,z
1/2-x,-y,1/2+z
x,-y,-z
1/2-x,y,1/2-z
-x,-y,-z
1/2+x,y,1/2-z
-x,y,z
1/2+x,-y,1/2+z
loop_
_atom_site_type_symbol
_atom_site_label
_atom_site_fract_x
_atom_site_fract_y
_atom_site_fract_z
Si Si1 0.883360 0.109782 0.631684
Si Si2 0.757327 0.000000 0.500000
Si Si3 0.763083 0.690701 0.167972
Si Si4 0.885087 0.170825 0.088141
Si Si5 0.111004 0.475908 0.085897
Si Si6 0.614362 0.946298 0.295730
O O1 0.828521 0.029672 0.568054
O O2 0.844223 0.264176 0.634996
O O3 0.854731 0.038926 0.709894
O O4 0.000000 0.110008 0.615813
O O5 0.685153 0.123788 0.479030
O O6 0.750000 0.635308 0.250000
O O7 0.808674 0.572157 0.121490
O O8 0.828755 0.825745 0.164231
O O9 0.859144 0.324249 0.106061
O O10 0.000000 0.157604 0.062438
O O11 0.864216 0.084306 0.161498
O O12 0.000000 0.507325 0.116110
O O13 0.114011 0.500000 0.000000
O O14 0.500000 0.905303 0.299754
#
# Coordination Sequence:
#
# PCOD8219535 Si02
#       6
#     8   4   8   8   8   8
#     4  10  21  35  55  80 108 145 190 232 267 315
#     4  12  20  34  56  82 114 144 180 222 282 336
#     4  10  19  36  57  81 104 149 186 224 271 323
#     4  10  21  35  57  87 115 141 175 231 284 333
#     4  10  21  36  55  85 119 144 173 222 285 338
#     4   9  18  35  58  82 107 137 185 232 273 327
#
# _framework density 18.047654000000001
#
# number of rings (size 3 to 8) (size 9 to 14) (size 15 to 20)
#    0.000    2.000    1.818    2.182    0.000    0.727 
#    3.273    0.000    0.000    6.000    0.000    0.000 
#    0.000    0.000    0.000    0.000    0.000    0.000 
#
# Total GULP energy -545542.088968 kJ/mol
# GULP energy per Si atom -12398.683840 kJ/mol
# Density = 1.800658 g / cm^3
# Si number density = 18.047654 Si / 1000 Ang^3
#
#
#
# Elastic Constant Matrix: (Units=GPa)
#
#
# Indices 1 2 3 4 5 6 
#
# 1 87.4415 56.1251 49.3469 0.0000 0.0000 0.0000
# 2 56.1251 117.3986 48.3493 0.0000 0.0000 0.0000
# 3 49.3469 48.3493 79.3573 0.0000 0.0000 0.0000
# 4 0.0000 0.0000 0.0000 28.2452 0.0000 0.0000
# 5 0.0000 0.0000 0.0000 0.0000 30.7945 0.0000
# 6 0.0000 0.0000 0.0000 0.0000 0.0000 19.2875
#
#
#
# Elastic Compliance Matrix: (Units=1/GPa)
#
#
# Indices 1 2 3 4 5 6 
#
# 1 0.020394 -0.006043 -0.009000 0.000000 0.000000 0.000000
# 2 -0.006043 0.013162 -0.004261 0.000000 0.000000 0.000000
# 3 -0.009000 -0.004261 0.020794 0.000000 0.000000 0.000000
# 4 0.000000 0.000000 0.000000 0.035404 0.000000 0.000000
# 5 0.000000 0.000000 0.000000 0.000000 0.032473 0.000000
# 6 0.000000 0.000000 0.000000 0.000000 0.000000 0.051847
#
#
# Mechanical properties :
#
#
# Convention : Reuss Voigt Hill
#
# Bulk Modulus (GPa) = 63.52694 65.76000 64.64347
# Shear Modulus (GPa) = 22.94309 24.35715 23.65012
#
# Velocity S-wave (km/s) = 3.56933 3.67768 3.62391
# Velocity P-wave (km/s) = 7.22930 7.38578 7.30796
#
# Compressibility (1/GPa) = 0.01574135
#
# Stress axis : x y z
#
# Youngs Moduli (GPa) = 49.03360 75.97563 48.09149
#
# Poissons Ratio (x) = 0.45916 0.43281
# Poissons Ratio (y) = 0.29633 0.20492
# Poissons Ratio (z) = 0.44129 0.32374
#
# Static dielectric constant tensor:
#      x y z
#    x 3.604170 0.000000 0.000000 
#    y 0.000000 3.273130 0.000000 
#    z 0.000000 0.000000 3.350560 
# 
# 
# High freq. dielectric constant tensor:
#      x y z
#    x 1.709860 0.000000 0.000000 
#    y 0.000000 1.678970 0.000000 
#    z 0.000000 0.000000 1.701760 
# 
# From -- ./inp_files/28176.got.cif
#   From: 2010.03.12/outbox.cif.g09.slc.cpg/sg53_15_cif.got.tgz:28176.got - 2010.04.16 14:36:59.
