data_PCOD8219842
_publ_section_title
;
Structure prediction by ZEFSAII (Michael W. Deem and Ramdas Pophale) SiO2 
 PCOD8219842
Probable space group: P M N A
;
_chemical_formula_sum "Si O2"
_cell_formula_units_Z 64
_cell_length_a 14.445209
_cell_length_b 9.460993
_cell_length_c 26.249329
_cell_angle_alpha 90.000000
_cell_angle_beta 90.000000
_cell_angle_gamma 90.000000
_cell_volume 3587.391354
_symmetry_space_group_name_H-M "P M N A"
_symmetry_group_IT_number 53
_symmetry_cell_setting 'orthorhombic'
loop_
_space_group_symop_operation_xyz
x,y,z
1/2-x,-y,1/2+z
x,-y,-z
1/2-x,y,1/2-z
-x,-y,-z
1/2+x,y,1/2-z
-x,y,z
1/2+x,-y,1/2+z
loop_
_atom_site_type_symbol
_atom_site_label
_atom_site_fract_x
_atom_site_fract_y
_atom_site_fract_z
Si Si1 0.350446 0.298702 0.270268
Si Si2 0.105534 0.144828 0.971182
Si Si3 0.896412 0.019337 0.783236
Si Si4 0.210494 0.185507 0.867848
Si Si5 0.099768 0.505051 0.681304
Si Si6 0.605170 0.185117 0.816399
Si Si7 0.293740 0.488696 0.361178
Si Si8 0.398074 0.613545 0.543034
O O1 0.250000 0.260764 0.250000
O O2 0.405063 0.384628 0.227433
O O3 0.348680 0.398983 0.319457
O O4 0.398513 0.150751 0.283056
O O5 0.176049 0.146498 0.924051
O O6 0.000000 0.181822 0.953058
O O7 0.141469 0.249751 0.014754
O O8 0.107962 0.000000 0.000000
O O9 0.833826 0.076730 0.828428
O O10 0.862659 0.081505 0.729075
O O11 0.000000 0.073731 0.793417
O O12 0.322322 0.165910 0.863259
O O13 0.181705 0.346165 0.854332
O O14 0.112392 0.346592 0.703728
O O15 0.183357 0.539099 0.642827
O O16 0.000000 0.515545 0.652614
O O17 0.500000 0.149706 0.834721
O O18 0.323567 0.435364 0.416136
O O19 0.410296 0.500000 0.500000
O O20 0.500000 0.641388 0.568011
#
# Coordination Sequence:
#
# PCOD8219842 Si02
#       8
#     8   8   8   8   8   8   8   8
#     4  10  20  33  50  77 109 141 173 210 254 304
#     4  10  22  38  55  77 104 134 169 211 262 312
#     4  11  22  33  49  77 110 141 174 211 255 308
#     4  11  20  35  56  77 104 138 175 216 256 305
#     4   9  18  35  55  76 106 139 173 213 256 303
#     4   9  19  35  55  77 103 139 177 212 254 305
#     4  10  21  34  55  80 103 136 177 213 256 310
#     4  10  20  36  55  76 103 134 168 209 258 310
#
# _framework density 17.840261999999999
#
# number of rings (size 3 to 8) (size 9 to 14) (size 15 to 20)
#    0.000    2.000    1.250    2.625    1.750    3.500 
#    0.000    0.000    0.000    1.500    0.000    0.000 
#    0.000    0.000    0.000    0.000    0.000    0.000 
#
# Total GULP energy -793317.674495 kJ/mol
# GULP energy per Si atom -12395.588664 kJ/mol
# Density = 1.779966 g / cm^3
# Si number density = 17.840262 Si / 1000 Ang^3
#
#
#
# Elastic Constant Matrix: (Units=GPa)
#
#
# Indices 1 2 3 4 5 6 
#
# 1 97.1324 30.8200 55.6272 0.0000 0.0000 0.0000
# 2 30.8200 93.5812 39.1788 0.0000 0.0000 0.0000
# 3 55.6272 39.1788 89.5270 0.0000 0.0000 0.0000
# 4 0.0000 0.0000 0.0000 24.3952 0.0000 0.0000
# 5 0.0000 0.0000 0.0000 0.0000 27.2129 0.0000
# 6 0.0000 0.0000 0.0000 0.0000 0.0000 22.5321
#
#
#
# Elastic Compliance Matrix: (Units=1/GPa)
#
#
# Indices 1 2 3 4 5 6 
#
# 1 0.016124 -0.001366 -0.009421 0.000000 0.000000 0.000000
# 2 -0.001366 0.013199 -0.004927 0.000000 0.000000 0.000000
# 3 -0.009421 -0.004927 0.019179 0.000000 0.000000 0.000000
# 4 0.000000 0.000000 0.000000 0.040992 0.000000 0.000000
# 5 0.000000 0.000000 0.000000 0.000000 0.036747 0.000000
# 6 0.000000 0.000000 0.000000 0.000000 0.000000 0.044381
#
#
# Mechanical properties :
#
#
# Convention : Reuss Voigt Hill
#
# Bulk Modulus (GPa) = 58.56810 59.05473 58.81142
# Shear Modulus (GPa) = 24.06841 25.13569 24.60205
#
# Velocity S-wave (km/s) = 3.67700 3.75764 3.71754
# Velocity P-wave (km/s) = 7.13636 7.21113 7.17384
#
# Compressibility (1/GPa) = 0.01707414
#
# Stress axis : x y z
#
# Youngs Moduli (GPa) = 62.01998 75.76543 52.13903
#
# Poissons Ratio (x) = 0.10351 0.49118
# Poissons Ratio (y) = 0.08473 0.25690
# Poissons Ratio (z) = 0.58427 0.37331
#
# Static dielectric constant tensor:
#      x y z
#    x 3.483070 0.000000 0.000000 
#    y 0.000000 3.408270 0.000000 
#    z 0.000000 0.000000 2.994240 
# 
# 
# High freq. dielectric constant tensor:
#      x y z
#    x 1.693660 0.000000 0.000000 
#    y 0.000000 1.705260 0.000000 
#    z 0.000000 0.000000 1.659350 
# 
# From -- ./inp_files/35363.got.cif
#   From: 2010.03.12/outbox.cif.g09.slc.cpg/sg53_18_cif.got.tgz:35363.got - 2010.04.16 14:36:59.
