data_PCOD8219655
_publ_section_title
;
Structure prediction by ZEFSAII (Michael W. Deem and Ramdas Pophale) SiO2 
 PCOD8219655
Probable space group: P M N A
;
_chemical_formula_sum "Si O2"
_cell_formula_units_Z 64
_cell_length_a 8.799276
_cell_length_b 20.057292
_cell_length_c 18.861809
_cell_angle_alpha 90.000000
_cell_angle_beta 90.000000
_cell_angle_gamma 90.000000
_cell_volume 3328.914033
_symmetry_space_group_name_H-M "P M N A"
_symmetry_group_IT_number 53
_symmetry_cell_setting 'orthorhombic'
loop_
_space_group_symop_operation_xyz
x,y,z
1/2-x,-y,1/2+z
x,-y,-z
1/2-x,y,1/2-z
-x,-y,-z
1/2+x,y,1/2-z
-x,y,z
1/2+x,-y,1/2+z
loop_
_atom_site_type_symbol
_atom_site_label
_atom_site_fract_x
_atom_site_fract_y
_atom_site_fract_z
Si Si1 0.180285 0.787168 0.437010
Si Si2 0.178975 0.838974 0.918257
Si Si3 0.178723 0.103046 0.673202
Si Si4 0.319576 0.636609 0.067483
Si Si5 0.320337 0.398514 0.085657
Si Si6 0.180651 0.524460 0.327330
Si Si7 0.179818 0.729182 0.674741
Si Si8 0.323370 0.021782 0.079947
O O1 0.254370 0.816051 0.507228
O O2 0.231883 0.831988 0.370634
O O3 0.239245 0.712174 0.422586
O O4 0.000000 0.789902 0.448750
O O5 0.250356 0.797049 0.854513
O O6 0.220746 0.915056 0.901968
O O7 0.000000 0.829519 0.918695
O O8 0.250000 0.105533 0.750000
O O9 0.000000 0.103279 0.681716
O O10 0.231528 0.037022 0.631808
O O11 0.500000 0.637171 0.063311
O O12 0.264495 0.591883 0.133353
O O13 0.255482 0.604618 0.994474
O O14 0.500000 0.405710 0.083607
O O15 0.254064 0.461980 0.127799
O O16 0.270885 0.330618 0.123401
O O17 0.250000 0.523221 0.250000
O O18 0.000000 0.521143 0.321103
O O19 0.250000 0.712066 0.750000
O O20 0.000000 0.736439 0.680666
O O21 0.500000 0.039596 0.091095
O O22 0.292616 0.000000 0.000000
#
# Coordination Sequence:
#
# PCOD8219655 Si02
#       8
#     8   8   8   8   8   8   8   8
#     4  10  19  38  62  84 112 155 201 239 285 346
#     4  12  24  37  58  89 119 150 188 240 294 347
#     4  10  22  38  60  87 117 152 192 238 289 343
#     4   9  17  32  59  86 108 144 198 243 278 335
#     4   9  17  32  58  85 109 146 193 241 285 338
#     4  10  20  34  54  83 116 150 190 236 290 347
#     4  11  22  38  59  84 116 153 191 235 288 348
#     4  10  20  39  64  85 111 154 198 236 282 344
#
# _framework density 19.225487000000001
#
# number of rings (size 3 to 8) (size 9 to 14) (size 15 to 20)
#    0.000    1.875    2.500    2.250    0.000    3.750 
#    0.000    2.500    0.000    0.750    0.000    0.000 
#    0.000    0.000    0.000    0.000    0.000    0.000 
#
# Total GULP energy -793702.437581 kJ/mol
# GULP energy per Si atom -12401.600587 kJ/mol
# Density = 1.918173 g / cm^3
# Si number density = 19.225487 Si / 1000 Ang^3
#
#
#
# Elastic Constant Matrix: (Units=GPa)
#
#
# Indices 1 2 3 4 5 6 
#
# 1 38.0507 27.0902 21.0041 0.0000 0.0000 0.0000
# 2 27.0902 151.5511 63.4746 0.0000 0.0000 0.0000
# 3 21.0041 63.4746 122.4175 0.0000 0.0000 0.0000
# 4 0.0000 0.0000 0.0000 32.2227 0.0000 0.0000
# 5 0.0000 0.0000 0.0000 0.0000 30.7410 0.0000
# 6 0.0000 0.0000 0.0000 0.0000 0.0000 10.7119
#
#
#
# Elastic Compliance Matrix: (Units=1/GPa)
#
#
# Indices 1 2 3 4 5 6 
#
# 1 0.031022 -0.004236 -0.003126 0.000000 0.000000 0.000000
# 2 -0.004236 0.009007 -0.003944 0.000000 0.000000 0.000000
# 3 -0.003126 -0.003944 0.010750 0.000000 0.000000 0.000000
# 4 0.000000 0.000000 0.000000 0.031034 0.000000 0.000000
# 5 0.000000 0.000000 0.000000 0.000000 0.032530 0.000000
# 6 0.000000 0.000000 0.000000 0.000000 0.000000 0.093354
#
#
# Mechanical properties :
#
#
# Convention : Reuss Voigt Hill
#
# Bulk Modulus (GPa) = 35.50150 59.46189 47.48169
# Shear Modulus (GPa) = 20.85952 28.09848 24.47900
#
# Velocity S-wave (km/s) = 3.29750 3.82713 3.57214
# Velocity P-wave (km/s) = 5.74490 7.10810 6.46255
#
# Compressibility (1/GPa) = 0.02816783
#
# Stress axis : x y z
#
# Youngs Moduli (GPa) = 32.23492 111.02085 93.02351
#
# Poissons Ratio (x) = 0.47027 0.29083
# Poissons Ratio (y) = 0.13654 0.36685
# Poissons Ratio (z) = 0.10078 0.43782
#
# Static dielectric constant tensor:
#      x y z
#    x 3.195060 0.000000 0.000000 
#    y 0.000000 4.304500 0.000000 
#    z 0.000000 0.000000 3.764270 
# 
# 
# High freq. dielectric constant tensor:
#      x y z
#    x 1.713760 0.000000 0.000000 
#    y 0.000000 1.765910 0.000000 
#    z 0.000000 0.000000 1.755570 
# 
# From -- ./inp_files/26836.got.cif
#   From: 2010.03.12/outbox.cif.g09.slc.cpg/sg53_14_cif.got.tgz:26836.got - 2010.04.16 14:36:59.
