data_PCOD8219307
_publ_section_title
;
Structure prediction by ZEFSAII (Michael W. Deem and Ramdas Pophale) SiO2 
 PCOD8219307
Probable space group: P M N A
;
_chemical_formula_sum "Si O2"
_cell_formula_units_Z 48
_cell_length_a 8.918840
_cell_length_b 31.086376
_cell_length_c 9.098273
_cell_angle_alpha 90.000000
_cell_angle_beta 90.000000
_cell_angle_gamma 90.000000
_cell_volume 2522.536347
_symmetry_space_group_name_H-M "P M N A"
_symmetry_group_IT_number 53
_symmetry_cell_setting 'orthorhombic'
loop_
_space_group_symop_operation_xyz
x,y,z
1/2-x,-y,1/2+z
x,-y,-z
1/2-x,y,1/2-z
-x,-y,-z
1/2+x,y,1/2-z
-x,y,z
1/2+x,-y,1/2+z
loop_
_atom_site_type_symbol
_atom_site_label
_atom_site_fract_x
_atom_site_fract_y
_atom_site_fract_z
Si Si1 0.823049 0.123699 0.906352
Si Si2 0.823362 0.802105 0.589379
Si Si3 0.175807 0.959678 0.907412
Si Si4 0.171249 0.708646 0.597917
Si Si5 0.326667 0.541997 0.403381
Si Si6 0.677058 0.384697 0.089889
O O1 0.750000 0.114615 0.750000
O O2 0.000000 0.129544 0.888042
O O3 0.753676 0.166311 0.975526
O O4 0.781130 0.083867 0.009536
O O5 0.750000 0.807136 0.750000
O O6 0.795204 0.754183 0.517327
O O7 0.000000 0.812188 0.603584
O O8 0.250000 0.959045 0.750000
O O9 0.000000 0.964280 0.884164
O O10 0.238504 0.000000 0.000000
O O11 0.250000 0.711662 0.750000
O O12 0.214303 0.663130 0.521129
O O13 0.000000 0.706047 0.640027
O O14 0.303905 0.500000 0.500000
O O15 0.250000 0.531788 0.250000
O O16 0.500000 0.553226 0.379786
O O17 0.247188 0.582302 0.477151
O O18 0.750000 0.390383 0.250000
O O19 0.500000 0.393150 0.103984
#
# Coordination Sequence:
#
# PCOD8219307 Si02
#       6
#     8   8   8   8   8   8
#     4  11  23  38  56  80 110 145 186 229 276 327
#     4  10  19  34  56  82 112 145 184 227 272 322
#     4  10  22  39  59  84 112 143 180 222 270 324
#     4   8  16  30  51  79 109 142 179 221 267 318
#     4  11  24  40  58  81 109 142 180 222 270 323
#     4  10  19  34  57  84 113 144 181 223 269 321
#
# _framework density 19.028466999999999
#
# number of rings (size 3 to 8) (size 9 to 14) (size 15 to 20)
#    0.000    2.000    0.000    3.500    0.000    7.000 
#    0.000    0.833    0.000    0.000    0.000    0.000 
#    0.000    0.000    0.000    0.000    0.000    0.000 
#
# Total GULP energy -594894.657030 kJ/mol
# GULP energy per Si atom -12393.638688 kJ/mol
# Density = 1.898516 g / cm^3
# Si number density = 19.028467 Si / 1000 Ang^3
#
#
#
# Elastic Constant Matrix: (Units=GPa)
#
#
# Indices 1 2 3 4 5 6 
#
# 1 96.4491 68.9310 61.8439 0.0000 0.0000 0.0000
# 2 68.9310 139.5944 61.0070 0.0000 0.0000 0.0000
# 3 61.8439 61.0070 120.2619 0.0000 0.0000 0.0000
# 4 0.0000 0.0000 0.0000 31.0586 0.0000 0.0000
# 5 0.0000 0.0000 0.0000 0.0000 33.9492 0.0000
# 6 0.0000 0.0000 0.0000 0.0000 0.0000 34.2924
#
#
#
# Elastic Compliance Matrix: (Units=1/GPa)
#
#
# Indices 1 2 3 4 5 6 
#
# 1 0.019356 -0.006691 -0.006559 0.000000 0.000000 0.000000
# 2 -0.006691 0.011517 -0.002402 0.000000 0.000000 0.000000
# 3 -0.006559 -0.002402 0.012907 0.000000 0.000000 0.000000
# 4 0.000000 0.000000 0.000000 0.032197 0.000000 0.000000
# 5 0.000000 0.000000 0.000000 0.000000 0.029456 0.000000
# 6 0.000000 0.000000 0.000000 0.000000 0.000000 0.029161
#
#
# Mechanical properties :
#
#
# Convention : Reuss Voigt Hill
#
# Bulk Modulus (GPa) = 80.15699 82.20769 81.18234
# Shear Modulus (GPa) = 29.40178 30.82826 30.11502
#
# Velocity S-wave (km/s) = 3.93510 4.02943 3.98254
# Velocity P-wave (km/s) = 7.92861 8.05883 7.99398
#
# Compressibility (1/GPa) = 0.01247552
#
# Stress axis : x y z
#
# Youngs Moduli (GPa) = 51.66251 86.82548 77.47970
#
# Poissons Ratio (x) = 0.58099 0.50822
# Poissons Ratio (y) = 0.34570 0.18607
# Poissons Ratio (z) = 0.33888 0.20852
#
# Static dielectric constant tensor:
#      x y z
#    x 3.632780 0.000000 0.000000 
#    y 0.000000 4.427320 0.000000 
#    z 0.000000 0.000000 3.117500 
# 
# 
# High freq. dielectric constant tensor:
#      x y z
#    x 1.752730 0.000000 0.000000 
#    y 0.000000 1.768550 0.000000 
#    z 0.000000 0.000000 1.715970 
# 
# From -- ./inp_files/6617.got.cif
#   From: 2010.03.12/outbox.cif.g09.slc.cpg/sg53_4_cif.got.tgz:6617.got - 2010.04.16 14:36:59.
