data_PCOD8219107
_publ_section_title
;
Structure prediction by ZEFSAII (Michael W. Deem and Ramdas Pophale) SiO2 
 PCOD8219107
Probable space group: P M N A
;
_chemical_formula_sum "Si O2"
_cell_formula_units_Z 64
_cell_length_a 8.923676
_cell_length_b 23.347369
_cell_length_c 15.283891
_cell_angle_alpha 90.000000
_cell_angle_beta 90.000000
_cell_angle_gamma 90.000000
_cell_volume 3184.312434
_symmetry_space_group_name_H-M "P M N A"
_symmetry_group_IT_number 53
_symmetry_cell_setting 'orthorhombic'
loop_
_space_group_symop_operation_xyz
x,y,z
1/2-x,-y,1/2+z
x,-y,-z
1/2-x,y,1/2-z
-x,-y,-z
1/2+x,y,1/2-z
-x,y,z
1/2+x,-y,1/2+z
loop_
_atom_site_type_symbol
_atom_site_label
_atom_site_fract_x
_atom_site_fract_y
_atom_site_fract_z
Si Si1 0.823606 0.047512 0.161702
Si Si2 0.677810 0.255217 0.021657
Si Si3 0.677143 0.862918 0.517546
Si Si4 0.670039 0.428661 0.831924
Si Si5 0.328444 0.694224 0.156844
Si Si6 0.675678 0.469295 0.411367
Si Si7 0.323328 0.917289 0.338570
Si Si8 0.322076 0.354590 0.154247
O O1 0.750000 0.071727 0.250000
O O2 0.769755 0.086134 0.081006
O O3 0.000000 0.050668 0.173223
O O4 0.770481 0.982492 0.143997
O O5 0.500000 0.252428 0.020640
O O6 0.745364 0.194858 0.050774
O O7 0.729903 0.301834 0.093750
O O8 0.738757 0.268387 0.923236
O O9 0.500000 0.854744 0.521596
O O10 0.730851 0.878742 0.419719
O O11 0.750000 0.398889 0.750000
O O12 0.500000 0.451442 0.821769
O O13 0.676727 0.370371 0.888660
O O14 0.781176 0.481879 0.843444
O O15 0.250000 0.706752 0.250000
O O16 0.500000 0.709762 0.175693
O O17 0.729911 0.500000 0.500000
O O18 0.500000 0.455532 0.409585
O O19 0.767259 0.412167 0.393776
O O20 0.250000 0.892753 0.250000
O O21 0.500000 0.914498 0.327776
O O22 0.250000 0.348657 0.250000
O O23 0.500000 0.358144 0.165317
#
# Coordination Sequence:
#
# PCOD8219107 Si02
#       8
#     8   8   8   8   8   8   8   8
#     4   9  18  34  56  82 112 145 183 226 274 330
#     4  10  23  41  58  79 110 148 191 237 282 331
#     4  10  21  36  56  81 110 147 188 230 278 331
#     4  10  19  33  54  78 105 135 170 213 265 327
#     4   9  19  36  57  81 109 144 184 227 280 339
#     4  11  23  37  56  84 114 142 177 225 280 338
#     4   9  18  34  56  83 115 149 183 223 274 332
#     4  11  24  43  64  84 112 153 198 242 289 339
#
# _framework density 20.098528999999999
#
# number of rings (size 3 to 8) (size 9 to 14) (size 15 to 20)
#    0.000    2.125    0.000    2.625    0.000    7.500 
#    0.000    5.000    0.000    3.750    0.000    0.000 
#    0.000    0.000    0.000    0.000    0.000    0.000 
#
# Total GULP energy -792994.089081 kJ/mol
# GULP energy per Si atom -12390.532642 kJ/mol
# Density = 2.005278 g / cm^3
# Si number density = 20.098529 Si / 1000 Ang^3
#
#
#
# Elastic Constant Matrix: (Units=GPa)
#
#
# Indices 1 2 3 4 5 6 
#
# 1 43.4813 27.3251 39.0124 0.0000 0.0000 0.0000
# 2 27.3251 89.1499 45.4362 0.0000 0.0000 0.0000
# 3 39.0124 45.4362 121.9080 0.0000 0.0000 0.0000
# 4 0.0000 0.0000 0.0000 32.3549 0.0000 0.0000
# 5 0.0000 0.0000 0.0000 0.0000 29.4056 0.0000
# 6 0.0000 0.0000 0.0000 0.0000 0.0000 31.5750
#
#
#
# Elastic Compliance Matrix: (Units=1/GPa)
#
#
# Indices 1 2 3 4 5 6 
#
# 1 0.034803 -0.006161 -0.008841 0.000000 0.000000 0.000000
# 2 -0.006161 0.014938 -0.003596 0.000000 0.000000 0.000000
# 3 -0.008841 -0.003596 0.012372 0.000000 0.000000 0.000000
# 4 0.000000 0.000000 0.000000 0.030907 0.000000 0.000000
# 5 0.000000 0.000000 0.000000 0.000000 0.034007 0.000000
# 6 0.000000 0.000000 0.000000 0.000000 0.000000 0.031671
#
#
# Mechanical properties :
#
#
# Convention : Reuss Voigt Hill
#
# Bulk Modulus (GPa) = 40.13346 53.12074 46.62710
# Shear Modulus (GPa) = 24.48572 28.18480 26.33526
#
# Velocity S-wave (km/s) = 3.49418 3.74883 3.62374
# Velocity P-wave (km/s) = 6.02418 6.72502 6.38422
#
# Compressibility (1/GPa) = 0.02491687
#
# Stress axis : x y z
#
# Youngs Moduli (GPa) = 28.73330 66.94224 80.82507
#
# Poissons Ratio (x) = 0.41246 0.71458
# Poissons Ratio (y) = 0.17704 0.29064
# Poissons Ratio (z) = 0.25403 0.24072
#
# Static dielectric constant tensor:
#      x y z
#    x 3.473830 0.000000 0.000000 
#    y 0.000000 3.727050 0.000000 
#    z 0.000000 0.000000 3.594610 
# 
# 
# High freq. dielectric constant tensor:
#      x y z
#    x 1.774630 0.000000 0.000000 
#    y 0.000000 1.787550 0.000000 
#    z 0.000000 0.000000 1.790060 
# 
# From -- ./inp_files/20882.got.cif
#   From: 2010.03.12/outbox.cif.g09.slc.cpg/sg53_11_cif.got.tgz:20882.got - 2010.04.16 14:36:59.
