data_PCOD8219717
_publ_section_title
;
Structure prediction by ZEFSAII (Michael W. Deem and Ramdas Pophale) SiO2 
 PCOD8219717
Probable space group: P M N A
;
_chemical_formula_sum "Si O2"
_cell_formula_units_Z 32
_cell_length_a 9.104846
_cell_length_b 9.695334
_cell_length_c 22.897332
_cell_angle_alpha 90.000000
_cell_angle_beta 90.000000
_cell_angle_gamma 90.000000
_cell_volume 2021.251060
_symmetry_space_group_name_H-M "P M N A"
_symmetry_group_IT_number 53
_symmetry_cell_setting 'orthorhombic'
loop_
_space_group_symop_operation_xyz
x,y,z
1/2-x,-y,1/2+z
x,-y,-z
1/2-x,y,1/2-z
-x,-y,-z
1/2+x,y,1/2-z
-x,y,z
1/2+x,-y,1/2+z
loop_
_atom_site_type_symbol
_atom_site_label
_atom_site_fract_x
_atom_site_fract_y
_atom_site_fract_z
Si Si1 0.833999 0.011995 0.691296
Si Si2 0.170417 0.344063 0.004732
Si Si3 0.170851 0.869056 0.092856
Si Si4 0.166163 0.871286 0.577228
O O1 0.750000 0.973189 0.750000
O O2 0.832572 0.877521 0.648543
O O3 0.000000 0.058251 0.705742
O O4 0.751602 0.137139 0.656315
O O5 0.198220 0.271758 0.942274
O O6 0.000000 0.339176 0.022196
O O7 0.227850 0.500000 0.000000
O O8 0.259882 0.269583 0.056038
O O9 0.000000 0.899118 0.102529
O O10 0.241778 0.994741 0.054917
O O11 0.000000 0.879886 0.553221
#
# Coordination Sequence:
#
# PCOD8219717 Si02
#       4
#     8   8   8   8
#     4   9  18  30  48  73  96 119 156 199 237 278
#     4  10  20  32  47  70  99 130 161 191 233 286
#     4   9  17  30  49  70  96 126 157 195 235 276
#     4   9  19  31  47  71  97 123 158 198 236 280
#
# _framework density 15.831778
#
# number of rings (size 3 to 8) (size 9 to 14) (size 15 to 20)
#    1.500    1.250    0.000    2.250    0.000    5.500 
#    0.000    0.000    0.000    1.500    0.000    3.500 
#    0.000    0.000    0.000    0.000    0.000    0.000 
#
# Total GULP energy -396428.969149 kJ/mol
# GULP energy per Si atom -12388.405286 kJ/mol
# Density = 1.579574 g / cm^3
# Si number density = 15.831778 Si / 1000 Ang^3
#
#
#
# Elastic Constant Matrix: (Units=GPa)
#
#
# Indices 1 2 3 4 5 6 
#
# 1 121.8915 49.6236 46.7408 0.0000 0.0000 0.0000
# 2 49.6236 105.6357 32.1872 0.0000 0.0000 0.0000
# 3 46.7408 32.1872 72.4463 0.0000 0.0000 0.0000
# 4 0.0000 0.0000 0.0000 5.0773 0.0000 0.0000
# 5 0.0000 0.0000 0.0000 0.0000 27.6163 0.0000
# 6 0.0000 0.0000 0.0000 0.0000 0.0000 12.3710
#
#
#
# Elastic Compliance Matrix: (Units=1/GPa)
#
#
# Indices 1 2 3 4 5 6 
#
# 1 0.012104 -0.003824 -0.006110 0.000000 0.000000 0.000000
# 2 -0.003824 0.012157 -0.002934 0.000000 0.000000 0.000000
# 3 -0.006110 -0.002934 0.019049 0.000000 0.000000 0.000000
# 4 0.000000 0.000000 0.000000 0.196955 0.000000 0.000000
# 5 0.000000 0.000000 0.000000 0.000000 0.036210 0.000000
# 6 0.000000 0.000000 0.000000 0.000000 0.000000 0.080834
#
#
# Mechanical properties :
#
#
# Convention : Reuss Voigt Hill
#
# Bulk Modulus (GPa) = 56.90446 61.89740 59.40093
# Shear Modulus (GPa) = 12.85667 20.44108 16.64887
#
# Velocity S-wave (km/s) = 2.85279 3.59714 3.24637
# Velocity P-wave (km/s) = 6.84635 7.51228 7.18703
#
# Compressibility (1/GPa) = 0.01757331
#
# Stress axis : x y z
#
# Youngs Moduli (GPa) = 82.61809 82.25774 52.49637
#
# Poissons Ratio (x) = 0.31457 0.32076
# Poissons Ratio (y) = 0.31595 0.15402
# Poissons Ratio (z) = 0.50481 0.24134
#
# Static dielectric constant tensor:
#      x y z
#    x 3.129380 0.000000 0.000000 
#    y 0.000000 2.710150 0.000000 
#    z 0.000000 0.000000 2.834510 
# 
# 
# High freq. dielectric constant tensor:
#      x y z
#    x 1.626940 0.000000 0.000000 
#    y 0.000000 1.565230 0.000000 
#    z 0.000000 0.000000 1.598020 
# 
# From -- ./inp_files/30239.got.cif
#   From: 2010.03.12/outbox.cif.g09.slc.cpg/sg53_16_cif.got.tgz:30239.got - 2010.04.16 14:36:59.
