data_PCOD8219754
_publ_section_title
;
Structure prediction by ZEFSAII (Michael W. Deem and Ramdas Pophale) SiO2 
 PCOD8219754
Probable space group: P M N A
;
_chemical_formula_sum "Si O2"
_cell_formula_units_Z 52
_cell_length_a 26.109240
_cell_length_b 11.144239
_cell_length_c 9.672245
_cell_angle_alpha 90.000000
_cell_angle_beta 90.000000
_cell_angle_gamma 90.000000
_cell_volume 2814.310017
_symmetry_space_group_name_H-M "P M N A"
_symmetry_group_IT_number 53
_symmetry_cell_setting 'orthorhombic'
loop_
_space_group_symop_operation_xyz
x,y,z
1/2-x,-y,1/2+z
x,-y,-z
1/2-x,y,1/2-z
-x,-y,-z
1/2+x,y,1/2-z
-x,y,z
1/2+x,-y,1/2+z
loop_
_atom_site_type_symbol
_atom_site_label
_atom_site_fract_x
_atom_site_fract_y
_atom_site_fract_z
Si Si1 0.000000 0.340973 0.621803
Si Si2 0.169915 0.697299 0.044652
Si Si3 0.000000 0.620963 0.685827
Si Si4 0.389684 0.659332 0.206029
Si Si5 0.105981 0.612406 0.802428
Si Si6 0.246575 0.500000 0.000000
Si Si7 0.246767 0.121347 0.085152
Si Si8 0.325584 0.317224 0.067480
O O1 0.000000 0.482501 0.644340
O O2 0.000000 0.307095 0.459232
O O3 0.052347 0.288753 0.689954
O O4 0.123726 0.638881 0.957183
O O5 0.196002 0.805611 0.960624
O O6 0.143559 0.741846 0.188153
O O7 0.211275 0.593657 0.084776
O O8 0.048103 0.656489 0.780088
O O9 0.389736 0.527046 0.268889
O O10 0.362669 0.650712 0.058478
O O11 0.141535 0.693208 0.704743
O O12 0.283179 0.579206 0.901393
O O13 0.250000 0.099332 0.250000
O O14 0.297434 0.192190 0.037998
O O15 0.246478 0.000000 0.000000
#
# Coordination Sequence:
#
# PCOD8219754 Si02
#       8
#     4   8   4   8   8   4   8   8
#     4   9  18  31  49  79 118 153 186 229 264 334
#     4  11  23  35  54  81 119 147 184 233 280 331
#     4   9  18  29  53  75 116 157 189 222 270 330
#     4  11  20  33  54  87 118 152 188 220 281 337
#     4  11  18  35  51  86 116 154 186 224 276 331
#     4  10  20  32  50  80 112 148 178 224 270 328
#     4  11  26  43  58  81 111 147 193 234 280 334
#     4  11  21  33  59  79 113 149 187 228 275 331
#
# _framework density 18.476997000000001
#
# number of rings (size 3 to 8) (size 9 to 14) (size 15 to 20)
#    0.000    1.385    6.154    0.000    2.154    3.692 
#    0.000    2.308    0.000    0.000    0.000    6.462 
#    0.000    0.000    0.000    0.000    0.000    0.000 
#
# Total GULP energy -644528.138779 kJ/mol
# GULP energy per Si atom -12394.771900 kJ/mol
# Density = 1.843494 g / cm^3
# Si number density = 18.476997 Si / 1000 Ang^3
#
#
#
# Elastic Constant Matrix: (Units=GPa)
#
#
# Indices 1 2 3 4 5 6 
#
# 1 142.9560 29.8570 45.4950 0.0000 0.0000 0.0000
# 2 29.8570 67.4960 17.3604 0.0000 0.0000 0.0000
# 3 45.4950 17.3604 87.2522 0.0000 0.0000 0.0000
# 4 0.0000 0.0000 0.0000 23.7540 0.0000 0.0000
# 5 0.0000 0.0000 0.0000 0.0000 23.3598 0.0000
# 6 0.0000 0.0000 0.0000 0.0000 0.0000 11.7696
#
#
#
# Elastic Compliance Matrix: (Units=1/GPa)
#
#
# Indices 1 2 3 4 5 6 
#
# 1 0.008891 -0.002888 -0.004061 0.000000 0.000000 0.000000
# 2 -0.002888 0.016553 -0.001788 0.000000 0.000000 0.000000
# 3 -0.004061 -0.001788 0.013934 0.000000 0.000000 0.000000
# 4 0.000000 0.000000 0.000000 0.042098 0.000000 0.000000
# 5 0.000000 0.000000 0.000000 0.000000 0.042809 0.000000
# 6 0.000000 0.000000 0.000000 0.000000 0.000000 0.084965
#
#
# Mechanical properties :
#
#
# Convention : Reuss Voigt Hill
#
# Bulk Modulus (GPa) = 45.65338 53.68101 49.66720
# Shear Modulus (GPa) = 21.36524 25.44280 23.40402
#
# Velocity S-wave (km/s) = 3.40415 3.71482 3.56287
# Velocity P-wave (km/s) = 6.34136 6.89317 6.62302
#
# Compressibility (1/GPa) = 0.02190418
#
# Stress axis : x y z
#
# Youngs Moduli (GPa) = 112.47522 60.41161 71.76557
#
# Poissons Ratio (x) = 0.17449 0.29145
# Poissons Ratio (y) = 0.32487 0.12828
# Poissons Ratio (z) = 0.45678 0.10799
#
# Static dielectric constant tensor:
#      x y z
#    x 3.832450 0.000000 0.000000 
#    y 0.000000 2.928550 0.000000 
#    z 0.000000 0.000000 3.564450 
# 
# 
# High freq. dielectric constant tensor:
#      x y z
#    x 1.733640 0.000000 0.000000 
#    y 0.000000 1.652060 0.000000 
#    z 0.000000 0.000000 1.721190 
# 
# From -- ./inp_files/12526.got.cif
#   From: 2010.03.12/outbox.cif.g09.slc.cpg/sg53_7_cif.got.tgz:12526.got - 2010.04.16 14:36:59.
