data_PCOD8219094
_publ_section_title
;
Structure prediction by ZEFSAII (Michael W. Deem and Ramdas Pophale) SiO2 
 PCOD8219094
Probable space group: P M N A
;
_chemical_formula_sum "Si O2"
_cell_formula_units_Z 48
_cell_length_a 9.001537
_cell_length_b 30.978456
_cell_length_c 9.603169
_cell_angle_alpha 90.000000
_cell_angle_beta 90.000000
_cell_angle_gamma 90.000000
_cell_volume 2677.879379
_symmetry_space_group_name_H-M "P M N A"
_symmetry_group_IT_number 53
_symmetry_cell_setting 'orthorhombic'
loop_
_space_group_symop_operation_xyz
x,y,z
1/2-x,-y,1/2+z
x,-y,-z
1/2-x,y,1/2-z
-x,-y,-z
1/2+x,y,1/2-z
-x,y,z
1/2+x,-y,1/2+z
loop_
_atom_site_type_symbol
_atom_site_label
_atom_site_fract_x
_atom_site_fract_y
_atom_site_fract_z
Si Si1 0.175994 0.776150 0.097783
Si Si2 0.825084 0.465260 0.608601
Si Si3 0.325325 0.036663 0.600900
Si Si4 0.830128 0.870244 0.106525
Si Si5 0.676251 0.706739 0.900585
Si Si6 0.673085 0.368093 0.892239
O O1 0.250000 0.770611 0.250000
O O2 0.205192 0.824437 0.032201
O O3 0.000000 0.766073 0.109727
O O4 0.254512 0.745443 0.988155
O O5 0.763798 0.500000 0.500000
O O6 0.750000 0.479357 0.750000
O O7 0.777052 0.416618 0.566432
O O8 0.000000 0.468653 0.625860
O O9 0.250000 0.032040 0.750000
O O10 0.500000 0.029738 0.621708
O O11 0.290166 0.084182 0.530445
O O12 0.258933 0.000000 0.500000
O O13 0.750000 0.869884 0.250000
O O14 0.000000 0.871167 0.147269
O O15 0.750000 0.704888 0.750000
O O16 0.500000 0.713316 0.886097
O O17 0.717090 0.662428 0.979672
O O18 0.750000 0.352261 0.750000
O O19 0.500000 0.365796 0.860745
#
# Coordination Sequence:
#
# PCOD8219094 Si02
#       6
#     8   8   8   8   8   8
#     4  10  19  33  54  77 100 128 165 206 248 295
#     4   9  18  33  52  75 103 132 164 202 243 289
#     4   9  17  30  48  70  97 127 160 198 239 285
#     4   8  15  28  47  70  95 124 159 199 239 282
#     4  11  23  37  52  73 102 133 166 205 252 300
#     4   9  19  35  54  75  99 130 167 205 243 288
#
# _framework density 17.924628999999999
#
# number of rings (size 3 to 8) (size 9 to 14) (size 15 to 20)
#    0.000    2.667    0.000    1.500    0.000    4.667 
#    0.000    0.833    0.000    2.000    0.000    0.000 
#    0.000    0.000    0.000    0.000    0.000    0.000 
#
# Total GULP energy -594673.515582 kJ/mol
# GULP energy per Si atom -12389.031575 kJ/mol
# Density = 1.788383 g / cm^3
# Si number density = 17.924629 Si / 1000 Ang^3
#
#
#
# Elastic Constant Matrix: (Units=GPa)
#
#
# Indices 1 2 3 4 5 6 
#
# 1 54.3662 54.2905 47.7001 0.0000 0.0000 0.0000
# 2 54.2905 159.7955 95.7202 0.0000 0.0000 0.0000
# 3 47.7001 95.7202 125.0038 0.0000 0.0000 0.0000
# 4 0.0000 0.0000 0.0000 31.3307 0.0000 0.0000
# 5 0.0000 0.0000 0.0000 0.0000 30.0618 0.0000
# 6 0.0000 0.0000 0.0000 0.0000 0.0000 23.4095
#
#
#
# Elastic Compliance Matrix: (Units=1/GPa)
#
#
# Indices 1 2 3 4 5 6 
#
# 1 0.030754 -0.006316 -0.006899 0.000000 0.000000 0.000000
# 2 -0.006316 0.012858 -0.007436 0.000000 0.000000 0.000000
# 3 -0.006899 -0.007436 0.016326 0.000000 0.000000 0.000000
# 4 0.000000 0.000000 0.000000 0.031918 0.000000 0.000000
# 5 0.000000 0.000000 0.000000 0.000000 0.033265 0.000000
# 6 0.000000 0.000000 0.000000 0.000000 0.000000 0.042718
#
#
# Mechanical properties :
#
#
# Convention : Reuss Voigt Hill
#
# Bulk Modulus (GPa) = 53.65750 81.62077 67.63913
# Shear Modulus (GPa) = 23.21778 26.39072 24.80425
#
# Velocity S-wave (km/s) = 3.60293 3.84124 3.72399
# Velocity P-wave (km/s) = 6.87810 8.08133 7.50387
#
# Compressibility (1/GPa) = 0.01863672
#
# Stress axis : x y z
#
# Youngs Moduli (GPa) = 32.51595 77.77254 61.25159
#
# Poissons Ratio (x) = 0.49122 0.42257
# Poissons Ratio (y) = 0.20537 0.45545
# Poissons Ratio (z) = 0.22433 0.57829
#
# Static dielectric constant tensor:
#      x y z
#    x 3.246940 0.000000 0.000000 
#    y 0.000000 4.305000 0.000000 
#    z 0.000000 0.000000 3.181960 
# 
# 
# High freq. dielectric constant tensor:
#      x y z
#    x 1.697240 0.000000 0.000000 
#    y 0.000000 1.720180 0.000000 
#    z 0.000000 0.000000 1.661780 
# 
# From -- ./inp_files/6695.got.cif
#   From: 2010.03.12/outbox.cif.g09.slc.cpg/sg53_4_cif.got.tgz:6695.got - 2010.04.16 14:36:59.
