data_PCOD8219019
_publ_section_title
;
Structure prediction by ZEFSAII (Michael W. Deem and Ramdas Pophale) SiO2 
 PCOD8219019
Probable space group: P M N A
;
_chemical_formula_sum "Si O2"
_cell_formula_units_Z 64
_cell_length_a 9.030006
_cell_length_b 19.760269
_cell_length_c 19.808319
_cell_angle_alpha 90.000000
_cell_angle_beta 90.000000
_cell_angle_gamma 90.000000
_cell_volume 3534.504287
_symmetry_space_group_name_H-M "P M N A"
_symmetry_group_IT_number 53
_symmetry_cell_setting 'orthorhombic'
loop_
_space_group_symop_operation_xyz
x,y,z
1/2-x,-y,1/2+z
x,-y,-z
1/2-x,y,1/2-z
-x,-y,-z
1/2+x,y,1/2-z
-x,y,z
1/2+x,-y,1/2+z
loop_
_atom_site_type_symbol
_atom_site_label
_atom_site_fract_x
_atom_site_fract_y
_atom_site_fract_z
Si Si1 0.823999 0.912498 0.179326
Si Si2 0.330367 0.158012 0.055835
Si Si3 0.170390 0.306721 0.419462
Si Si4 0.671365 0.576201 0.820987
Si Si5 0.169683 0.481968 0.925263
Si Si6 0.673796 0.199335 0.904542
Si Si7 0.169712 0.329205 0.945551
Si Si8 0.825567 0.975653 0.928055
O O1 0.750000 0.930442 0.250000
O O2 0.760388 0.841690 0.152620
O O3 0.000000 0.906962 0.186545
O O4 0.774543 0.972190 0.129052
O O5 0.500000 0.137447 0.064322
O O6 0.293473 0.227874 0.094917
O O7 0.234974 0.098703 0.089296
O O8 0.289540 0.167036 0.977165
O O9 0.199272 0.349222 0.351862
O O10 0.274720 0.335978 0.477662
O O11 0.000000 0.312895 0.444391
O O12 0.750000 0.571656 0.750000
O O13 0.500000 0.561933 0.809408
O O14 0.730846 0.519104 0.870731
O O15 0.184581 0.402143 0.910815
O O16 0.000000 0.506283 0.918017
O O17 0.228387 0.500000 0.000000
O O18 0.500000 0.198920 0.888556
O O19 0.732272 0.276272 0.903156
O O20 0.000000 0.304480 0.946565
O O21 0.000000 0.970599 0.931900
O O22 0.760107 0.000000 0.000000
#
# Coordination Sequence:
#
# PCOD8219019 Si02
#       8
#     8   8   8   8   8   8   8   8
#     4  11  23  39  58  81 113 150 188 230 282 340
#     4   9  18  32  54  82 111 140 179 228 275 324
#     4   9  19  35  53  80 112 145 184 230 280 335
#     4  11  23  38  58  81 114 154 193 236 287 344
#     4  10  20  36  57  85 117 148 188 235 283 337
#     4  10  20  35  55  82 114 145 182 228 277 333
#     4  10  19  32  56  85 113 144 181 231 280 329
#     4  10  20  35  55  82 113 144 184 233 277 328
#
# _framework density 18.107206999999999
#
# number of rings (size 3 to 8) (size 9 to 14) (size 15 to 20)
#    0.000    2.000    2.500    2.250    0.000    5.000 
#    0.000    1.250    0.000    6.000    0.000    0.000 
#    0.000    0.000    0.000    0.000    0.000    0.000 
#
# Total GULP energy -793781.651556 kJ/mol
# GULP energy per Si atom -12402.838306 kJ/mol
# Density = 1.806599 g / cm^3
# Si number density = 18.107207 Si / 1000 Ang^3
#
#
#
# Elastic Constant Matrix: (Units=GPa)
#
#
# Indices 1 2 3 4 5 6 
#
# 1 82.4940 52.0460 56.8819 0.0000 0.0000 0.0000
# 2 52.0460 118.8257 61.4056 0.0000 0.0000 0.0000
# 3 56.8819 61.4056 118.6807 0.0000 0.0000 0.0000
# 4 0.0000 0.0000 0.0000 22.9371 0.0000 0.0000
# 5 0.0000 0.0000 0.0000 0.0000 25.7090 0.0000
# 6 0.0000 0.0000 0.0000 0.0000 0.0000 34.3892
#
#
#
# Elastic Compliance Matrix: (Units=1/GPa)
#
#
# Indices 1 2 3 4 5 6 
#
# 1 0.020261 -0.005263 -0.006987 0.000000 0.000000 0.000000
# 2 -0.005263 0.012854 -0.004128 0.000000 0.000000 0.000000
# 3 -0.006987 -0.004128 0.013911 0.000000 0.000000 0.000000
# 4 0.000000 0.000000 0.000000 0.043598 0.000000 0.000000
# 5 0.000000 0.000000 0.000000 0.000000 0.038897 0.000000
# 6 0.000000 0.000000 0.000000 0.000000 0.000000 0.029079
#
#
# Mechanical properties :
#
#
# Convention : Reuss Voigt Hill
#
# Bulk Modulus (GPa) = 70.08677 73.40750 71.74714
# Shear Modulus (GPa) = 25.49544 26.58485 26.04014
#
# Velocity S-wave (km/s) = 3.75644 3.83586 3.79636
# Velocity P-wave (km/s) = 7.58980 7.76189 7.67632
#
# Compressibility (1/GPa) = 0.01426803
#
# Stress axis : x y z
#
# Youngs Moduli (GPa) = 49.35635 77.79426 71.88613
#
# Poissons Ratio (x) = 0.40946 0.50230
# Poissons Ratio (y) = 0.25978 0.29676
# Poissons Ratio (z) = 0.34487 0.32115
#
# Static dielectric constant tensor:
#      x y z
#    x 3.370950 0.000000 0.000000 
#    y 0.000000 3.460590 0.000000 
#    z 0.000000 0.000000 3.151470 
# 
# 
# High freq. dielectric constant tensor:
#      x y z
#    x 1.708610 0.000000 0.000000 
#    y 0.000000 1.713020 0.000000 
#    z 0.000000 0.000000 1.672430 
# 
# From -- ./inp_files/26771.got.cif
#   From: 2010.03.12/outbox.cif.g09.slc.cpg/sg53_14_cif.got.tgz:26771.got - 2010.04.16 14:36:59.
