data_PCOD8219117
_publ_section_title
;
Structure prediction by ZEFSAII (Michael W. Deem and Ramdas Pophale) SiO2 
 PCOD8219117
Probable space group: P M N A
;
_chemical_formula_sum "Si O2"
_cell_formula_units_Z 40
_cell_length_a 8.564893
_cell_length_b 9.241740
_cell_length_c 25.738479
_cell_angle_alpha 90.000000
_cell_angle_beta 90.000000
_cell_angle_gamma 90.000000
_cell_volume 2037.316802
_symmetry_space_group_name_H-M "P M N A"
_symmetry_group_IT_number 53
_symmetry_cell_setting 'orthorhombic'
loop_
_space_group_symop_operation_xyz
x,y,z
1/2-x,-y,1/2+z
x,-y,-z
1/2-x,y,1/2-z
-x,-y,-z
1/2+x,y,1/2-z
-x,y,z
1/2+x,-y,1/2+z
loop_
_atom_site_type_symbol
_atom_site_label
_atom_site_fract_x
_atom_site_fract_y
_atom_site_fract_z
Si Si1 0.184895 0.344860 0.694511
Si Si2 0.814763 0.162557 0.597603
Si Si3 0.314191 0.336764 0.000831
Si Si4 0.683683 0.656741 0.694992
Si Si5 0.314830 0.833257 0.897508
O O1 0.250000 0.293906 0.750000
O O2 0.246700 0.233692 0.650987
O O3 0.242284 0.503860 0.678873
O O4 0.000000 0.347357 0.697308
O O5 0.745470 0.250401 0.548588
O O6 0.000000 0.170907 0.595731
O O7 0.759113 0.997506 0.594023
O O8 0.500000 0.337645 0.998498
O O9 0.257526 0.258690 0.053153
O O10 0.248202 0.500000 0.000000
O O11 0.750000 0.710279 0.750000
O O12 0.500000 0.637545 0.699540
O O13 0.727781 0.776233 0.653072
O O14 0.500000 0.821802 0.889364
#
# Coordination Sequence:
#
# PCOD8219117 Si02
#       5
#     8   8   8   8   8
#     4  10  19  34  55  78 105 136 176 220 264 313
#     4   9  18  31  51  81 111 141 177 218 263 313
#     4   9  16  28  51  81 109 139 178 220 259 305
#     4  11  22  37  56  78 105 138 179 220 264 315
#     4  10  19  33  54  80 111 142 175 218 266 313
#
# _framework density 19.633666000000002
#
# number of rings (size 3 to 8) (size 9 to 14) (size 15 to 20)
#    0.000    2.200    0.000    5.400    0.000    6.400 
#    0.000    4.000    0.000    9.000    0.000    0.000 
#    0.000    0.000    0.000    0.000    0.000    0.000 
#
# Total GULP energy -496077.949359 kJ/mol
# GULP energy per Si atom -12401.948734 kJ/mol
# Density = 1.958898 g / cm^3
# Si number density = 19.633666 Si / 1000 Ang^3
#
#
#
# Elastic Constant Matrix: (Units=GPa)
#
#
# Indices 1 2 3 4 5 6 
#
# 1 53.8660 18.1123 29.8234 0.0000 0.0000 0.0000
# 2 18.1123 163.6032 106.6487 0.0000 0.0000 0.0000
# 3 29.8234 106.6487 168.4194 0.0000 0.0000 0.0000
# 4 0.0000 0.0000 0.0000 35.6005 0.0000 0.0000
# 5 0.0000 0.0000 0.0000 0.0000 24.8689 0.0000
# 6 0.0000 0.0000 0.0000 0.0000 0.0000 87.4168
#
#
#
# Elastic Compliance Matrix: (Units=1/GPa)
#
#
# Indices 1 2 3 4 5 6 
#
# 1 0.020585 0.000166 -0.003750 0.000000 0.000000 0.000000
# 2 0.000166 0.010410 -0.006622 0.000000 0.000000 0.000000
# 3 -0.003750 -0.006622 0.010795 0.000000 0.000000 0.000000
# 4 0.000000 0.000000 0.000000 0.028089 0.000000 0.000000
# 5 0.000000 0.000000 0.000000 0.000000 0.040211 0.000000
# 6 0.000000 0.000000 0.000000 0.000000 0.000000 0.011439
#
#
# Mechanical properties :
#
#
# Convention : Reuss Voigt Hill
#
# Bulk Modulus (GPa) = 46.77664 77.22860 62.00262
# Shear Modulus (GPa) = 33.54175 44.99753 39.26964
#
# Velocity S-wave (km/s) = 4.13774 4.79253 4.47712
# Velocity P-wave (km/s) = 6.83405 8.36926 7.64032
#
# Compressibility (1/GPa) = 0.02137819
#
# Stress axis : x y z
#
# Youngs Moduli (GPa) = 48.57871 96.05745 92.63893
#
# Poissons Ratio (x) = -0.01591 0.34740
# Poissons Ratio (y) = -0.00804 0.61341
# Poissons Ratio (z) = 0.18217 0.63605
#
# Static dielectric constant tensor:
#      x y z
#    x 3.146650 0.000000 0.000000 
#    y 0.000000 3.718250 0.000000 
#    z 0.000000 0.000000 3.810660 
# 
# 
# High freq. dielectric constant tensor:
#      x y z
#    x 1.724240 0.000000 0.000000 
#    y 0.000000 1.771040 0.000000 
#    z 0.000000 0.000000 1.782460 
# 
# From -- ./inp_files/33637.got.cif
#   From: 2010.03.12/outbox.cif.g09.slc.cpg/sg53_17_cif.got.tgz:33637.got - 2010.04.16 14:36:59.
