data_PCOD8219285
_publ_section_title
;
Structure prediction by ZEFSAII (Michael W. Deem and Ramdas Pophale) SiO2 
 PCOD8219285
Probable space group: P M N A
;
_chemical_formula_sum "Si O2"
_cell_formula_units_Z 48
_cell_length_a 8.826519
_cell_length_b 9.580299
_cell_length_c 30.662797
_cell_angle_alpha 90.000000
_cell_angle_beta 90.000000
_cell_angle_gamma 90.000000
_cell_volume 2592.867307
_symmetry_space_group_name_H-M "P M N A"
_symmetry_group_IT_number 53
_symmetry_cell_setting 'orthorhombic'
loop_
_space_group_symop_operation_xyz
x,y,z
1/2-x,-y,1/2+z
x,-y,-z
1/2-x,y,1/2-z
-x,-y,-z
1/2+x,y,1/2-z
-x,y,z
1/2+x,-y,1/2+z
loop_
_atom_site_type_symbol
_atom_site_label
_atom_site_fract_x
_atom_site_fract_y
_atom_site_fract_z
Si Si1 0.174533 0.512025 0.364120
Si Si2 0.322607 0.705881 0.296976
Si Si3 0.178278 0.057748 0.863312
Si Si4 0.323807 0.252991 0.931346
Si Si5 0.677649 0.843335 0.513531
Si Si6 0.178336 0.793082 0.606500
O O1 0.269904 0.570711 0.323760
O O2 0.206159 0.598858 0.408259
O O3 0.224393 0.353924 0.372383
O O4 0.000000 0.523085 0.350584
O O5 0.250000 0.708996 0.250000
O O6 0.500000 0.696547 0.291396
O O7 0.274442 0.846785 0.322324
O O8 0.227536 0.132513 0.907868
O O9 0.000000 0.029601 0.865199
O O10 0.267424 0.911677 0.859479
O O11 0.500000 0.211915 0.929955
O O12 0.264422 0.262343 0.980843
O O13 0.500000 0.815206 0.510508
O O14 0.732918 0.811918 0.561779
O O15 0.720843 0.000000 0.500000
O O16 0.000000 0.802737 0.597813
#
# Coordination Sequence:
#
# PCOD8219285 Si02
#       6
#     8   8   8   8   8   8
#     4   9  21  39  57  82 114 146 183 228 278 331
#     4  10  21  38  63  88 111 141 178 221 270 330
#     4  10  20  35  55  82 112 141 179 225 272 322
#     4  10  19  34  56  78 105 145 190 232 272 321
#     4  11  22  34  51  77 112 149 189 236 277 321
#     4  11  22  36  56  81 111 148 186 227 276 326
#
# _framework density 18.512324
#
# number of rings (size 3 to 8) (size 9 to 14) (size 15 to 20)
#    0.000    1.833    1.667    2.500    0.000    5.333 
#    0.000    4.167    0.000    2.000    0.000    0.000 
#    0.000    0.000    0.000    0.000    0.000    0.000 
#
# Total GULP energy -595385.601346 kJ/mol
# GULP energy per Si atom -12403.866695 kJ/mol
# Density = 1.847019 g / cm^3
# Si number density = 18.512324 Si / 1000 Ang^3
#
#
#
# Elastic Constant Matrix: (Units=GPa)
#
#
# Indices 1 2 3 4 5 6 
#
# 1 59.5240 43.7846 41.2940 0.0000 0.0000 0.0000
# 2 43.7846 135.3365 55.5472 0.0000 0.0000 0.0000
# 3 41.2940 55.5472 122.2055 0.0000 0.0000 0.0000
# 4 0.0000 0.0000 0.0000 3.2191 0.0000 0.0000
# 5 0.0000 0.0000 0.0000 0.0000 30.7867 0.0000
# 6 0.0000 0.0000 0.0000 0.0000 0.0000 27.3402
#
#
#
# Elastic Compliance Matrix: (Units=1/GPa)
#
#
# Indices 1 2 3 4 5 6 
#
# 1 0.025071 -0.005697 -0.005882 0.000000 0.000000 0.000000
# 2 -0.005697 0.010378 -0.002792 0.000000 0.000000 0.000000
# 3 -0.005882 -0.002792 0.011440 0.000000 0.000000 0.000000
# 4 0.000000 0.000000 0.000000 0.310648 0.000000 0.000000
# 5 0.000000 0.000000 0.000000 0.000000 0.032482 0.000000
# 6 0.000000 0.000000 0.000000 0.000000 0.000000 0.036576
#
#
# Mechanical properties :
#
#
# Convention : Reuss Voigt Hill
#
# Bulk Modulus (GPa) = 55.10756 66.47975 60.79365
# Shear Modulus (GPa) = 10.83690 24.03188 17.43439
#
# Velocity S-wave (km/s) = 2.42211 3.60690 3.07216
# Velocity P-wave (km/s) = 6.13635 7.30311 6.74500
#
# Compressibility (1/GPa) = 0.01814633
#
# Stress axis : x y z
#
# Youngs Moduli (GPa) = 39.88646 96.35673 87.41417
#
# Poissons Ratio (x) = 0.54893 0.51419
# Poissons Ratio (y) = 0.22723 0.24408
# Poissons Ratio (z) = 0.23462 0.26905
#
# Static dielectric constant tensor:
#      x y z
#    x 3.462710 0.000000 0.000000 
#    y 0.000000 3.579050 0.000000 
#    z 0.000000 0.000000 3.181490 
# 
# 
# High freq. dielectric constant tensor:
#      x y z
#    x 1.731370 0.000000 0.000000 
#    y 0.000000 1.714710 0.000000 
#    z 0.000000 0.000000 1.707180 
# 
# From -- ./inp_files/37683.got.cif
#   From: 2010.03.12/outbox.cif.g09.slc.cpg/sg53_19_cif.got.tgz:37683.got - 2010.04.16 14:36:59.
