data_PCOD8219994
_publ_section_title
;
Structure prediction by ZEFSAII (Michael W. Deem and Ramdas Pophale) SiO2 
 PCOD8219994
Probable space group: P M N A
;
_chemical_formula_sum "Si O2"
_cell_formula_units_Z 48
_cell_length_a 9.067182
_cell_length_b 10.063061
_cell_length_c 29.535331
_cell_angle_alpha 90.000000
_cell_angle_beta 90.000000
_cell_angle_gamma 90.000000
_cell_volume 2694.910092
_symmetry_space_group_name_H-M "P M N A"
_symmetry_group_IT_number 53
_symmetry_cell_setting 'orthorhombic'
loop_
_space_group_symop_operation_xyz
x,y,z
1/2-x,-y,1/2+z
x,-y,-z
1/2-x,y,1/2-z
-x,-y,-z
1/2+x,y,1/2-z
-x,y,z
1/2+x,-y,1/2+z
loop_
_atom_site_type_symbol
_atom_site_label
_atom_site_fract_x
_atom_site_fract_y
_atom_site_fract_z
Si Si1 0.174502 0.091410 0.796896
Si Si2 0.173147 0.109539 0.363414
Si Si3 0.828241 0.604702 0.204395
Si Si4 0.328320 0.116663 0.031993
Si Si5 0.672225 0.383534 0.468505
Si Si6 0.827630 0.619329 0.864929
O O1 0.250000 0.048095 0.750000
O O2 0.214125 0.244298 0.808328
O O3 0.000000 0.068006 0.793255
O O4 0.241499 0.004170 0.836752
O O5 0.207723 0.082799 0.416022
O O6 0.234727 0.253334 0.348703
O O7 0.000000 0.103668 0.352563
O O8 0.750000 0.557353 0.250000
O O9 0.777594 0.507874 0.164102
O O10 0.000000 0.592334 0.213577
O O11 0.500000 0.140265 0.024596
O O12 0.247599 0.248591 0.015681
O O13 0.268264 0.000000 0.000000
O O14 0.736155 0.500000 0.500000
O O15 0.500000 0.365646 0.476398
O O16 0.710069 0.417091 0.416585
O O17 0.000000 0.652301 0.858678
#
# Coordination Sequence:
#
# PCOD8219994 Si02
#       6
#     8   8   8   8   8   8
#     4  10  20  35  54  76 102 132 166 205 250 298
#     4  10  20  34  52  75 102 133 170 209 249 296
#     4   9  19  34  52  73  98 128 162 201 244 292
#     4   9  19  35  52  72 101 135 170 208 250 298
#     4   9  18  32  51  75 101 129 164 206 250 299
#     4   9  18  34  52  72 101 133 164 203 251 299
#
# _framework density 17.811354000000001
#
# number of rings (size 3 to 8) (size 9 to 14) (size 15 to 20)
#    0.000    2.667    0.000    1.000    0.000    4.667 
#    0.000    3.333    0.000    0.000    0.000    0.000 
#    0.000    0.000    0.000    0.000    0.000    0.000 
#
# Total GULP energy -595308.535564 kJ/mol
# GULP energy per Si atom -12402.261158 kJ/mol
# Density = 1.777081 g / cm^3
# Si number density = 17.811354 Si / 1000 Ang^3
#
#
#
# Elastic Constant Matrix: (Units=GPa)
#
#
# Indices 1 2 3 4 5 6 
#
# 1 60.2340 57.2091 45.9222 0.0000 0.0000 0.0000
# 2 57.2091 147.6614 94.0130 0.0000 0.0000 0.0000
# 3 45.9222 94.0130 100.9775 0.0000 0.0000 0.0000
# 4 0.0000 0.0000 0.0000 40.6671 0.0000 0.0000
# 5 0.0000 0.0000 0.0000 0.0000 24.4099 0.0000
# 6 0.0000 0.0000 0.0000 0.0000 0.0000 29.2223
#
#
#
# Elastic Compliance Matrix: (Units=1/GPa)
#
#
# Indices 1 2 3 4 5 6 
#
# 1 0.027874 -0.006700 -0.006438 0.000000 0.000000 0.000000
# 2 -0.006700 0.018240 -0.013935 0.000000 0.000000 0.000000
# 3 -0.006438 -0.013935 0.025805 0.000000 0.000000 0.000000
# 4 0.000000 0.000000 0.000000 0.024590 0.000000 0.000000
# 5 0.000000 0.000000 0.000000 0.000000 0.040967 0.000000
# 6 0.000000 0.000000 0.000000 0.000000 0.000000 0.034220
#
#
# Mechanical properties :
#
#
# Convention : Reuss Voigt Hill
#
# Bulk Modulus (GPa) = 56.26759 78.12906 67.19832
# Shear Modulus (GPa) = 21.57314 26.30844 23.94079
#
# Velocity S-wave (km/s) = 3.48401 3.84742 3.67022
# Velocity P-wave (km/s) = 6.91692 7.98103 7.46796
#
# Compressibility (1/GPa) = 0.01777222
#
# Stress axis : x y z
#
# Youngs Moduli (GPa) = 35.87530 54.82306 38.75153
#
# Poissons Ratio (x) = 0.36733 0.24950
# Poissons Ratio (y) = 0.24037 0.54001
# Poissons Ratio (z) = 0.23098 0.76398
#
# Static dielectric constant tensor:
#      x y z
#    x 3.286180 0.000000 0.000000 
#    y 0.000000 3.430650 0.000000 
#    z 0.000000 0.000000 3.356430 
# 
# 
# High freq. dielectric constant tensor:
#      x y z
#    x 1.689920 0.000000 0.000000 
#    y 0.000000 1.693360 0.000000 
#    z 0.000000 0.000000 1.688520 
# 
# From -- ./inp_files/37736.got.cif
#   From: 2010.03.12/outbox.cif.g09.slc.cpg/sg53_19_cif.got.tgz:37736.got - 2010.04.16 14:36:59.
