data_PCOD8219136
_publ_section_title
;
Structure prediction by ZEFSAII (Michael W. Deem and Ramdas Pophale) SiO2 
 PCOD8219136
Probable space group: P M N A
;
_chemical_formula_sum "Si O2"
_cell_formula_units_Z 48
_cell_length_a 8.804085
_cell_length_b 31.229313
_cell_length_c 9.508265
_cell_angle_alpha 90.000000
_cell_angle_beta 90.000000
_cell_angle_gamma 90.000000
_cell_volume 2614.254923
_symmetry_space_group_name_H-M "P M N A"
_symmetry_group_IT_number 53
_symmetry_cell_setting 'orthorhombic'
loop_
_space_group_symop_operation_xyz
x,y,z
1/2-x,-y,1/2+z
x,-y,-z
1/2-x,y,1/2-z
-x,-y,-z
1/2+x,y,1/2-z
-x,y,z
1/2+x,-y,1/2+z
loop_
_atom_site_type_symbol
_atom_site_label
_atom_site_fract_x
_atom_site_fract_y
_atom_site_fract_z
Si Si1 0.320198 0.777361 0.095078
Si Si2 0.821273 0.373194 0.899643
Si Si3 0.179100 0.037355 0.597220
Si Si4 0.179248 0.538478 0.398918
Si Si5 0.678615 0.705567 0.597119
Si Si6 0.824202 0.129464 0.601209
O O1 0.250000 0.770654 0.250000
O O2 0.500000 0.769579 0.106016
O O3 0.279691 0.824941 0.030831
O O4 0.248413 0.745321 0.984759
O O5 0.750000 0.360058 0.750000
O O6 0.750421 0.417431 0.956754
O O7 0.000000 0.378814 0.878724
O O8 0.780548 0.337375 0.013082
O O9 0.250000 0.032966 0.750000
O O10 0.218466 0.084214 0.525211
O O11 0.000000 0.031433 0.613183
O O12 0.248543 0.000000 0.500000
O O13 0.225288 0.500000 0.500000
O O14 0.250000 0.526760 0.250000
O O15 0.000000 0.544253 0.385221
O O16 0.750000 0.701837 0.750000
O O17 0.500000 0.712458 0.610848
O O18 0.750000 0.127658 0.750000
O O19 0.000000 0.130327 0.631344
#
# Coordination Sequence:
#
# PCOD8219136 Si02
#       6
#     8   8   8   8   8   8
#     4  10  19  33  55  79 103 133 171 214 258 308
#     4  10  21  37  58  81 105 137 176 216 256 302
#     4   9  17  30  48  70  98 130 165 206 250 298
#     4  10  21  36  56  82 110 141 176 214 256 302
#     4  11  24  39  55  78 107 139 174 214 263 313
#     4   8  15  28  47  71  97 127 165 207 249 295
#
# _framework density 18.360873000000002
#
# number of rings (size 3 to 8) (size 9 to 14) (size 15 to 20)
#    0.000    2.333    0.000    3.500    0.000    7.000 
#    0.000    4.167    0.000    2.000    0.000    0.000 
#    0.000    0.000    0.000    0.000    0.000    0.000 
#
# Total GULP energy -594754.117260 kJ/mol
# GULP energy per Si atom -12390.710776 kJ/mol
# Density = 1.831908 g / cm^3
# Si number density = 18.360873 Si / 1000 Ang^3
#
#
#
# Elastic Constant Matrix: (Units=GPa)
#
#
# Indices 1 2 3 4 5 6 
#
# 1 76.4415 75.2468 49.1466 0.0000 0.0000 0.0000
# 2 75.2468 201.8040 101.0394 0.0000 0.0000 0.0000
# 3 49.1466 101.0394 105.0369 0.0000 0.0000 0.0000
# 4 0.0000 0.0000 0.0000 31.5954 0.0000 0.0000
# 5 0.0000 0.0000 0.0000 0.0000 26.9788 0.0000
# 6 0.0000 0.0000 0.0000 0.0000 0.0000 22.7802
#
#
#
# Elastic Compliance Matrix: (Units=1/GPa)
#
#
# Indices 1 2 3 4 5 6 
#
# 1 0.021755 -0.005817 -0.004584 0.000000 0.000000 0.000000
# 2 -0.005817 0.011115 -0.007970 0.000000 0.000000 0.000000
# 3 -0.004584 -0.007970 0.019332 0.000000 0.000000 0.000000
# 4 0.000000 0.000000 0.000000 0.031650 0.000000 0.000000
# 5 0.000000 0.000000 0.000000 0.000000 0.037066 0.000000
# 6 0.000000 0.000000 0.000000 0.000000 0.000000 0.043898
#
#
# Mechanical properties :
#
#
# Convention : Reuss Voigt Hill
#
# Bulk Modulus (GPa) = 64.68130 92.68313 78.68221
# Shear Modulus (GPa) = 24.18858 26.79420 25.49139
#
# Velocity S-wave (km/s) = 3.63354 3.82424 3.73010
# Velocity P-wave (km/s) = 7.27377 8.37185 7.84205
#
# Compressibility (1/GPa) = 0.01546042
#
# Stress axis : x y z
#
# Youngs Moduli (GPa) = 45.96711 89.97161 51.72835
#
# Poissons Ratio (x) = 0.52334 0.23710
# Poissons Ratio (y) = 0.26738 0.41227
# Poissons Ratio (z) = 0.21069 0.71707
#
# Static dielectric constant tensor:
#      x y z
#    x -24.705160 0.000000 0.000000 
#    y 0.000000 4.192210 0.000000 
#    z 0.000000 0.000000 3.049670 
# 
# 
# High freq. dielectric constant tensor:
#      x y z
#    x 1.723300 0.000000 0.000000 
#    y 0.000000 1.740750 0.000000 
#    z 0.000000 0.000000 1.680030 
# 
# From -- ./inp_files/6745.got.cif
#   From: 2010.03.12/outbox.cif.g09.slc.cpg/sg53_4_cif.got.tgz:6745.got - 2010.04.16 14:36:59.
