data_PCOD8219189
_publ_section_title
;
Structure prediction by ZEFSAII (Michael W. Deem and Ramdas Pophale) SiO2 
 PCOD8219189
Probable space group: P M N A
;
_chemical_formula_sum "Si O2"
_cell_formula_units_Z 64
_cell_length_a 9.002404
_cell_length_b 21.318260
_cell_length_c 17.671992
_cell_angle_alpha 90.000000
_cell_angle_beta 90.000000
_cell_angle_gamma 90.000000
_cell_volume 3391.530755
_symmetry_space_group_name_H-M "P M N A"
_symmetry_group_IT_number 53
_symmetry_cell_setting 'orthorhombic'
loop_
_space_group_symop_operation_xyz
x,y,z
1/2-x,-y,1/2+z
x,-y,-z
1/2-x,y,1/2-z
-x,-y,-z
1/2+x,y,1/2-z
-x,y,z
1/2+x,-y,1/2+z
loop_
_atom_site_type_symbol
_atom_site_label
_atom_site_fract_x
_atom_site_fract_y
_atom_site_fract_z
Si Si1 0.171280 0.102924 0.578558
Si Si2 0.169592 0.114183 0.402077
Si Si3 0.672561 0.432911 0.468522
Si Si4 0.324974 0.998513 0.671446
Si Si5 0.330100 0.746016 0.911473
Si Si6 0.671832 0.622101 0.827509
Si Si7 0.327175 0.307944 0.551594
Si Si8 0.174075 0.771753 0.330416
O O1 0.206095 0.109621 0.490481
O O2 0.212480 0.167384 0.619883
O O3 0.000000 0.085024 0.592963
O O4 0.274615 0.047376 0.607997
O O5 0.277866 0.071152 0.353136
O O6 0.198331 0.185659 0.375802
O O7 0.000000 0.093719 0.386077
O O8 0.721073 0.500000 0.500000
O O9 0.500000 0.430752 0.446421
O O10 0.766004 0.421833 0.393279
O O11 0.708542 0.380373 0.531825
O O12 0.250000 0.017938 0.750000
O O13 0.500000 0.001126 0.681653
O O14 0.500000 0.740869 0.941474
O O15 0.297676 0.695031 0.846704
O O16 0.222714 0.735834 0.982283
O O17 0.750000 0.604145 0.750000
O O18 0.500000 0.607463 0.818262
O O19 0.500000 0.296738 0.566345
O O20 0.238751 0.289423 0.627325
O O21 0.250000 0.780158 0.250000
O O22 0.000000 0.762526 0.318803
#
# Coordination Sequence:
#
# PCOD8219189 Si02
#       8
#     8   8   8   8   8   8   8   8
#     4  10  21  39  62  83 108 144 183 227 281 339
#     4  10  20  38  61  84 111 145 183 225 281 339
#     4   9  19  37  60  85 115 152 193 234 278 330
#     4  12  26  41  56  78 109 145 187 235 284 334
#     4   9  18  35  57  82 111 147 183 223 275 333
#     4  10  20  34  56  85 119 152 191 235 280 331
#     4  10  19  33  56  84 113 145 182 226 274 328
#     4  11  22  37  57  84 114 147 185 230 283 334
#
# _framework density 18.870535
#
# number of rings (size 3 to 8) (size 9 to 14) (size 15 to 20)
#    0.000    1.875    1.250    3.000    0.000    6.250 
#    0.000    1.875    0.000    0.000    0.000    0.000 
#    0.000    0.000    0.000    0.000    0.000    0.000 
#
# Total GULP energy -793884.391873 kJ/mol
# GULP energy per Si atom -12404.443623 kJ/mol
# Density = 1.882758 g / cm^3
# Si number density = 18.870535 Si / 1000 Ang^3
#
#
#
# Elastic Constant Matrix: (Units=GPa)
#
#
# Indices 1 2 3 4 5 6 
#
# 1 97.7995 43.5820 41.9140 0.0000 0.0000 0.0000
# 2 43.5820 104.3143 27.8946 0.0000 0.0000 0.0000
# 3 41.9140 27.8946 69.5175 0.0000 0.0000 0.0000
# 4 0.0000 0.0000 0.0000 14.5736 0.0000 0.0000
# 5 0.0000 0.0000 0.0000 0.0000 34.4586 0.0000
# 6 0.0000 0.0000 0.0000 0.0000 0.0000 27.5794
#
#
#
# Elastic Compliance Matrix: (Units=1/GPa)
#
#
# Indices 1 2 3 4 5 6 
#
# 1 0.015423 -0.004433 -0.007521 0.000000 0.000000 0.000000
# 2 -0.004433 0.012013 -0.002148 0.000000 0.000000 0.000000
# 3 -0.007521 -0.002148 0.019781 0.000000 0.000000 0.000000
# 4 0.000000 0.000000 0.000000 0.068617 0.000000 0.000000
# 5 0.000000 0.000000 0.000000 0.000000 0.029020 0.000000
# 6 0.000000 0.000000 0.000000 0.000000 0.000000 0.036259
#
#
# Mechanical properties :
#
#
# Convention : Reuss Voigt Hill
#
# Bulk Modulus (GPa) = 52.58916 55.37916 53.98416
# Shear Modulus (GPa) = 23.18533 25.87170 24.52851
#
# Velocity S-wave (km/s) = 3.50902 3.70673 3.60923
# Velocity P-wave (km/s) = 6.65932 6.90872 6.78516
#
# Compressibility (1/GPa) = 0.01901532
#
# Stress axis : x y z
#
# Youngs Moduli (GPa) = 64.83636 83.24533 50.55374
#
# Poissons Ratio (x) = 0.36901 0.38019
# Poissons Ratio (y) = 0.28741 0.10857
# Poissons Ratio (z) = 0.48760 0.17877
#
# Static dielectric constant tensor:
#      x y z
#    x 3.487060 0.000000 0.000000 
#    y 0.000000 3.521950 0.000000 
#    z 0.000000 0.000000 3.385970 
# 
# 
# High freq. dielectric constant tensor:
#      x y z
#    x 1.736550 0.000000 0.000000 
#    y 0.000000 1.731760 0.000000 
#    z 0.000000 0.000000 1.728330 
# 
# From -- ./inp_files/20901.got.cif
#   From: 2010.03.12/outbox.cif.g09.slc.cpg/sg53_11_cif.got.tgz:20901.got - 2010.04.16 14:36:59.
