data_PCOD8219400
_publ_section_title
;
Structure prediction by ZEFSAII (Michael W. Deem and Ramdas Pophale) SiO2 
 PCOD8219400
Probable space group: P M N A
;
_chemical_formula_sum "Si O2"
_cell_formula_units_Z 24
_cell_length_a 7.446051
_cell_length_b 10.214067
_cell_length_c 17.337089
_cell_angle_alpha 90.000000
_cell_angle_beta 90.000000
_cell_angle_gamma 90.000000
_cell_volume 1318.563008
_symmetry_space_group_name_H-M "P M N A"
_symmetry_group_IT_number 53
_symmetry_cell_setting 'orthorhombic'
loop_
_space_group_symop_operation_xyz
x,y,z
1/2-x,-y,1/2+z
x,-y,-z
1/2-x,y,1/2-z
-x,-y,-z
1/2+x,y,1/2-z
-x,y,z
1/2+x,-y,1/2+z
loop_
_atom_site_type_symbol
_atom_site_label
_atom_site_fract_x
_atom_site_fract_y
_atom_site_fract_z
Si Si1 0.500000 0.620281 0.443560
Si Si2 0.792921 0.477619 0.663772
Si Si3 0.000000 0.869857 0.950459
Si Si4 0.791925 0.780501 0.663036
O O1 0.500000 0.500000 0.500000
O O2 0.678921 0.614333 0.392064
O O3 0.500000 0.754123 0.488654
O O4 0.750000 0.432213 0.750000
O O5 0.735617 0.628856 0.653242
O O6 0.000000 0.456409 0.643334
O O7 0.823829 0.865516 0.896495
O O8 0.000000 0.000000 0.000000
O O9 0.750000 0.826437 0.750000
O O10 0.000000 0.802742 0.643836
#
# Coordination Sequence:
#
# PCOD8219400 Si02
#       4
#     4   8   4   8
#     4  12  22  38  60  92 124 149 196 257 311 339
#     4  10  19  34  63  94 120 155 201 248 301 362
#     4  12  26  42  58  92 128 160 200 257 302 349
#     4  10  19  36  66  92 114 156 209 245 293 366
#
# _framework density 18.201632
#
# number of rings (size 3 to 8) (size 9 to 14) (size 15 to 20)
#    0.000    1.333    6.667    0.000    0.000    2.667 
#    0.000    1.667    0.000    0.000    0.000    0.000 
#    0.000    0.000    0.000    0.000    0.000    0.000 
#
# Total GULP energy -297694.885801 kJ/mol
# GULP energy per Si atom -12403.953575 kJ/mol
# Density = 1.816020 g / cm^3
# Si number density = 18.201632 Si / 1000 Ang^3
#
#
#
# Elastic Constant Matrix: (Units=GPa)
#
#
# Indices 1 2 3 4 5 6 
#
# 1 135.1102 40.1293 73.0998 0.0000 0.0000 0.0000
# 2 40.1293 90.9269 71.3087 0.0000 0.0000 0.0000
# 3 73.0998 71.3087 146.1773 0.0000 0.0000 0.0000
# 4 0.0000 0.0000 0.0000 32.5121 0.0000 0.0000
# 5 0.0000 0.0000 0.0000 0.0000 43.3673 0.0000
# 6 0.0000 0.0000 0.0000 0.0000 0.0000 9.8999
#
#
#
# Elastic Compliance Matrix: (Units=1/GPa)
#
#
# Indices 1 2 3 4 5 6 
#
# 1 0.010183 -0.000811 -0.004697 0.000000 0.000000 0.000000
# 2 -0.000811 0.017877 -0.008315 0.000000 0.000000 0.000000
# 3 -0.004697 -0.008315 0.013246 0.000000 0.000000 0.000000
# 4 0.000000 0.000000 0.000000 0.030758 0.000000 0.000000
# 5 0.000000 0.000000 0.000000 0.000000 0.023059 0.000000
# 6 0.000000 0.000000 0.000000 0.000000 0.000000 0.101011
#
#
# Mechanical properties :
#
#
# Convention : Reuss Voigt Hill
#
# Bulk Modulus (GPa) = 73.20393 82.36555 77.78474
# Shear Modulus (GPa) = 21.89773 29.66762 25.78267
#
# Velocity S-wave (km/s) = 3.47228 4.04163 3.76773
# Velocity P-wave (km/s) = 7.50875 8.19327 7.85847
#
# Compressibility (1/GPa) = 0.01366047
#
# Stress axis : x y z
#
# Youngs Moduli (GPa) = 98.19882 55.93811 75.49277
#
# Poissons Ratio (x) = 0.04535 0.35459
# Poissons Ratio (y) = 0.07961 0.62775
# Poissons Ratio (z) = 0.46124 0.46515
#
# Static dielectric constant tensor:
#      x y z
#    x 3.400390 0.000000 0.000000 
#    y 0.000000 2.768030 0.000000 
#    z 0.000000 0.000000 3.549280 
# 
# 
# High freq. dielectric constant tensor:
#      x y z
#    x 1.725750 0.000000 0.000000 
#    y 0.000000 1.651360 0.000000 
#    z 0.000000 0.000000 1.721710 
# 
# From -- ./inp_files/19340.got.cif
#   From: 2010.03.12/outbox.cif.g09.slc.cpg/sg53_10_cif.got.tgz:19340.got - 2010.04.16 14:36:59.
