data_PCOD8219161
_publ_section_title
;
Structure prediction by ZEFSAII (Michael W. Deem and Ramdas Pophale) SiO2 
 PCOD8219161
Probable space group: P M N A
;
_chemical_formula_sum "Si O2"
_cell_formula_units_Z 64
_cell_length_a 9.129133
_cell_length_b 11.079226
_cell_length_c 33.963357
_cell_angle_alpha 90.000000
_cell_angle_beta 90.000000
_cell_angle_gamma 90.000000
_cell_volume 3435.180532
_symmetry_space_group_name_H-M "P M N A"
_symmetry_group_IT_number 53
_symmetry_cell_setting 'orthorhombic'
loop_
_space_group_symop_operation_xyz
x,y,z
1/2-x,-y,1/2+z
x,-y,-z
1/2-x,y,1/2-z
-x,-y,-z
1/2+x,y,1/2-z
-x,y,z
1/2+x,-y,1/2+z
loop_
_atom_site_type_symbol
_atom_site_label
_atom_site_fract_x
_atom_site_fract_y
_atom_site_fract_z
Si Si1 0.169116 0.212921 0.470085
Si Si2 0.331908 0.536877 0.929289
Si Si3 0.168062 0.896791 0.899281
Si Si4 0.825459 0.872333 0.369983
Si Si5 0.166992 0.641424 0.859534
Si Si6 0.827336 0.728920 0.445623
Si Si7 0.828924 0.534566 0.710638
Si Si8 0.328789 0.743239 0.209900
O O1 0.188185 0.353819 0.459548
O O2 0.262927 0.125083 0.442413
O O3 0.227687 0.200916 0.515078
O O4 0.000000 0.173449 0.465859
O O5 0.500000 0.530359 0.914116
O O6 0.224871 0.551351 0.892642
O O7 0.283487 0.411568 0.949288
O O8 0.183726 0.778147 0.873225
O O9 0.000000 0.935177 0.905042
O O10 0.255140 0.997117 0.875147
O O11 0.764913 0.788514 0.405685
O O12 0.773744 0.818979 0.327923
O O13 0.000000 0.882598 0.371261
O O14 0.267857 0.624498 0.821894
O O15 0.000000 0.607964 0.849765
O O16 0.000000 0.740140 0.445017
O O17 0.750000 0.575284 0.750000
O O18 0.791327 0.395795 0.700507
O O19 0.000000 0.555520 0.715369
O O20 0.250000 0.787216 0.250000
O O21 0.500000 0.761893 0.216912
#
# Coordination Sequence:
#
# PCOD8219161 Si02
#       8
#     8   8   8   8   8   8   8   8
#     4   9  17  31  53  77 101 134 172 210 257 310
#     4   9  16  29  51  77 103 131 166 209 259 313
#     4  10  22  38  52  69  99 137 177 220 258 295
#     4  10  20  35  54  75 101 135 176 215 252 298
#     4  10  20  34  51  72 100 135 173 212 256 303
#     4   9  17  30  51  79 106 131 167 215 259 306
#     4  10  19  33  55  83 112 136 161 199 250 309
#     4   9  19  35  56  82 109 135 162 200 250 302
#
# _framework density 18.630752999999999
#
# number of rings (size 3 to 8) (size 9 to 14) (size 15 to 20)
#    0.000    2.500    0.000    2.250    0.000    6.500 
#    0.000    6.250    0.000    4.500    0.000    0.000 
#    0.000    0.000    0.000    0.000    0.000    0.000 
#
# Total GULP energy -793535.058320 kJ/mol
# GULP energy per Si atom -12398.985286 kJ/mol
# Density = 1.858835 g / cm^3
# Si number density = 18.630753 Si / 1000 Ang^3
#
#
#
# Elastic Constant Matrix: (Units=GPa)
#
#
# Indices 1 2 3 4 5 6 
#
# 1 65.8972 25.1826 50.1780 0.0000 0.0000 0.0000
# 2 25.1826 44.5627 38.9542 0.0000 0.0000 0.0000
# 3 50.1780 38.9542 150.2725 0.0000 0.0000 0.0000
# 4 0.0000 0.0000 0.0000 23.5768 0.0000 0.0000
# 5 0.0000 0.0000 0.0000 0.0000 28.4901 0.0000
# 6 0.0000 0.0000 0.0000 0.0000 0.0000 -17.4680
#
#
#
# Elastic Compliance Matrix: (Units=1/GPa)
#
#
# Indices 1 2 3 4 5 6 
#
# 1 0.022301 -0.007878 -0.005404 0.000000 0.000000 0.000000
# 2 -0.007878 0.031798 -0.005612 0.000000 0.000000 0.000000
# 3 -0.005404 -0.005612 0.009914 0.000000 0.000000 0.000000
# 4 0.000000 0.000000 0.000000 0.042415 0.000000 0.000000
# 5 0.000000 0.000000 0.000000 0.000000 0.035100 0.000000
# 6 0.000000 0.000000 0.000000 0.000000 0.000000 -0.057248
#
#
# Mechanical properties :
#
#
# Convention : Reuss Voigt Hill
#
# Bulk Modulus (GPa) = 38.13358 54.37355 46.25356
# Shear Modulus (GPa) = 38.22312 16.68095 27.45204
#
# Velocity S-wave (km/s) = 4.53439 2.99548 3.84276
# Velocity P-wave (km/s) = 6.92292 6.41966 6.67603
#
# Compressibility (1/GPa) = 0.02622361
#
# Stress axis : x y z
#
# Youngs Moduli (GPa) = 44.84098 31.44834 100.86744
#
# Poissons Ratio (x) = 0.24776 0.54513
# Poissons Ratio (y) = 0.35327 0.56609
# Poissons Ratio (z) = 0.24234 0.17649
#
# Static dielectric constant tensor:
#      x y z
#    x 3.347170 0.000000 0.000000 
#    y 0.000000 3.294610 0.000000 
#    z 0.000000 0.000000 8.517900 
# 
# 
# High freq. dielectric constant tensor:
#      x y z
#    x 1.707070 0.000000 0.000000 
#    y 0.000000 1.712310 0.000000 
#    z 0.000000 0.000000 1.730680 
# 
# From -- ./inp_files/38133.got.cif
#   From: 2010.03.12/outbox.cif.g09.slc.cpg/sg53_20_cif.got.tgz:38133.got - 2010.04.16 14:36:59.
