data_PCOD8219538
_publ_section_title
;
Structure prediction by ZEFSAII (Michael W. Deem and Ramdas Pophale) SiO2 
 PCOD8219538
Probable space group: P M N A
;
_chemical_formula_sum "Si O2"
_cell_formula_units_Z 56
_cell_length_a 18.557582
_cell_length_b 16.480225
_cell_length_c 9.750688
_cell_angle_alpha 90.000000
_cell_angle_beta 90.000000
_cell_angle_gamma 90.000000
_cell_volume 2982.083400
_symmetry_space_group_name_H-M "P M N A"
_symmetry_group_IT_number 53
_symmetry_cell_setting 'orthorhombic'
loop_
_space_group_symop_operation_xyz
x,y,z
1/2-x,-y,1/2+z
x,-y,-z
1/2-x,y,1/2-z
-x,-y,-z
1/2+x,y,1/2-z
-x,y,z
1/2+x,-y,1/2+z
loop_
_atom_site_type_symbol
_atom_site_label
_atom_site_fract_x
_atom_site_fract_y
_atom_site_fract_z
Si Si1 0.915749 0.244463 0.502487
Si Si2 0.585693 0.575877 0.089105
Si Si3 0.177617 0.995012 0.836379
Si Si4 0.083477 0.839565 0.782167
Si Si5 0.582145 0.562470 0.395541
Si Si6 0.335344 0.166443 0.760921
Si Si7 0.081325 0.257911 0.956644
O O1 0.890245 0.337926 0.522991
O O2 0.900905 0.216259 0.348480
O O3 0.865686 0.182782 0.587913
O O4 0.000000 0.234804 0.543246
O O5 0.500000 0.574309 0.093502
O O6 0.617771 0.567408 0.243803
O O7 0.615364 0.500000 0.000000
O O8 0.250000 0.983696 0.750000
O O9 0.126310 0.923006 0.788828
O O10 0.138691 0.078312 0.791190
O O11 0.192727 0.000000 0.000000
O O12 0.000000 0.862722 0.791799
O O13 0.110024 0.784748 0.907502
O O14 0.621557 0.500000 0.500000
O O15 0.500000 0.533928 0.372929
O O16 0.585930 0.646487 0.476630
O O17 0.250000 0.172349 0.750000
O O18 0.368372 0.236632 0.669193
O O19 0.000000 0.230577 0.921914
#
# Coordination Sequence:
#
# PCOD8219538 Si02
#       7
#     8   8   8   8   8   8   8
#     4  10  21  38  57  85 119 150 185 233 287 339
#     4   9  17  29  49  79 114 148 182 225 278 332
#     4  11  25  42  61  83 114 150 193 238 282 338
#     4  10  23  37  58  87 117 148 185 238 290 340
#     4   9  17  28  49  81 113 146 183 227 276 331
#     4  11  23  38  60  83 107 150 195 233 279 337
#     4  10  19  36  57  84 117 149 186 233 286 336
#
# _framework density 18.778817
#
# number of rings (size 3 to 8) (size 9 to 14) (size 15 to 20)
#    0.000    2.000    2.857    0.429    6.000    1.429 
#    0.000    1.429    0.000    0.857    0.000    0.000 
#    0.000    0.000    0.000    0.000    0.000    0.000 
#
# Total GULP energy -694199.282896 kJ/mol
# GULP energy per Si atom -12396.415766 kJ/mol
# Density = 1.873608 g / cm^3
# Si number density = 18.778817 Si / 1000 Ang^3
#
#
#
# Elastic Constant Matrix: (Units=GPa)
#
#
# Indices 1 2 3 4 5 6 
#
# 1 34.8137 23.2897 16.8985 0.0000 0.0000 0.0000
# 2 23.2897 117.0576 38.8798 0.0000 0.0000 0.0000
# 3 16.8985 38.8798 73.3844 0.0000 0.0000 0.0000
# 4 0.0000 0.0000 0.0000 40.2703 0.0000 0.0000
# 5 0.0000 0.0000 0.0000 0.0000 20.8547 0.0000
# 6 0.0000 0.0000 0.0000 0.0000 0.0000 10.8669
#
#
#
# Elastic Compliance Matrix: (Units=1/GPa)
#
#
# Indices 1 2 3 4 5 6 
#
# 1 0.034732 -0.005162 -0.005263 0.000000 0.000000 0.000000
# 2 -0.005162 0.011134 -0.004710 0.000000 0.000000 0.000000
# 3 -0.005263 -0.004710 0.017334 0.000000 0.000000 0.000000
# 4 0.000000 0.000000 0.000000 0.024832 0.000000 0.000000
# 5 0.000000 0.000000 0.000000 0.000000 0.047951 0.000000
# 6 0.000000 0.000000 0.000000 0.000000 0.000000 0.092022
#
#
# Mechanical properties :
#
#
# Convention : Reuss Voigt Hill
#
# Bulk Modulus (GPa) = 30.36743 42.59908 36.48325
# Shear Modulus (GPa) = 18.56979 24.14423 21.35701
#
# Velocity S-wave (km/s) = 3.14804 3.58958 3.37604
# Velocity P-wave (km/s) = 5.42400 6.31775 5.88786
#
# Compressibility (1/GPa) = 0.03293002
#
# Stress axis : x y z
#
# Youngs Moduli (GPa) = 28.79153 89.81162 57.68877
#
# Poissons Ratio (x) = 0.46363 0.30361
# Poissons Ratio (y) = 0.14863 0.27174
# Poissons Ratio (z) = 0.15153 0.42305
#
# Static dielectric constant tensor:
#      x y z
#    x 3.183470 0.000000 0.000000 
#    y 0.000000 3.635150 0.000000 
#    z 0.000000 0.000000 3.724380 
# 
# 
# High freq. dielectric constant tensor:
#      x y z
#    x 1.683790 0.000000 0.000000 
#    y 0.000000 1.743640 0.000000 
#    z 0.000000 0.000000 1.744690 
# 
# From -- ./inp_files/11072.got.cif
#   From: 2010.03.12/outbox.cif.g09.slc.cpg/sg53_6_cif.got.tgz:11072.got - 2010.04.16 14:36:59.
