data_PCOD8219381
_publ_section_title
;
Structure prediction by ZEFSAII (Michael W. Deem and Ramdas Pophale) SiO2 
 PCOD8219381
Probable space group: P M N A
;
_chemical_formula_sum "Si O2"
_cell_formula_units_Z 48
_cell_length_a 9.321791
_cell_length_b 12.147322
_cell_length_c 21.363646
_cell_angle_alpha 90.000000
_cell_angle_beta 90.000000
_cell_angle_gamma 90.000000
_cell_volume 2419.108116
_symmetry_space_group_name_H-M "P M N A"
_symmetry_group_IT_number 53
_symmetry_cell_setting 'orthorhombic'
loop_
_space_group_symop_operation_xyz
x,y,z
1/2-x,-y,1/2+z
x,-y,-z
1/2-x,y,1/2-z
-x,-y,-z
1/2+x,y,1/2-z
-x,y,z
1/2+x,-y,1/2+z
loop_
_atom_site_type_symbol
_atom_site_label
_atom_site_fract_x
_atom_site_fract_y
_atom_site_fract_z
Si Si1 0.838789 0.151447 0.357279
Si Si2 0.169367 0.275060 0.601208
Si Si3 0.163072 0.916885 0.310307
Si Si4 0.169481 0.649933 0.812039
Si Si5 0.168072 0.489105 0.926717
Si Si6 0.335923 0.120247 0.003843
O O1 0.725798 0.224538 0.318820
O O2 0.824274 0.179946 0.429926
O O3 0.000000 0.178216 0.332860
O O4 0.807740 0.020701 0.355412
O O5 0.208281 0.199602 0.660550
O O6 0.251904 0.388690 0.606324
O O7 0.234821 0.207772 0.542713
O O8 0.000000 0.298501 0.595488
O O9 0.250000 0.943654 0.250000
O O10 0.000000 0.910996 0.290084
O O11 0.250000 0.599136 0.750000
O O12 0.204541 0.588958 0.878439
O O13 0.000000 0.649097 0.798934
O O14 0.000000 0.465553 0.927193
O O15 0.220571 0.500000 0.000000
O O16 0.500000 0.103344 0.981185
O O17 0.259999 0.000000 0.000000
#
# Coordination Sequence:
#
# PCOD8219381 Si02
#       6
#     8   8   8   8   8   8
#     4  10  19  34  59  87 117 151 188 234 287 344
#     4  10  20  35  58  86 112 143 187 232 277 336
#     4  10  21  35  52  79 114 150 185 226 277 333
#     4  11  24  41  61  85 116 155 200 248 298 352
#     4  10  23  43  63  84 116 154 191 241 301 352
#     4   9  15  29  55  85 116 147 181 226 281 337
#
# _framework density 19.842023999999999
#
# number of rings (size 3 to 8) (size 9 to 14) (size 15 to 20)
#    0.000    2.000    1.667    2.000    0.000    5.000 
#    0.000    3.333    0.000    1.000    0.000    0.000 
#    0.000    0.000    0.000    0.000    0.000    0.000 
#
# Total GULP energy -594809.465532 kJ/mol
# GULP energy per Si atom -12391.863865 kJ/mol
# Density = 1.979686 g / cm^3
# Si number density = 19.842024 Si / 1000 Ang^3
#
#
#
# Elastic Constant Matrix: (Units=GPa)
#
#
# Indices 1 2 3 4 5 6 
#
# 1 55.2786 40.2922 34.3239 0.0000 0.0000 0.0000
# 2 40.2922 93.9535 15.9648 0.0000 0.0000 0.0000
# 3 34.3239 15.9648 87.5983 0.0000 0.0000 0.0000
# 4 0.0000 0.0000 0.0000 29.9370 0.0000 0.0000
# 5 0.0000 0.0000 0.0000 0.0000 20.5462 0.0000
# 6 0.0000 0.0000 0.0000 0.0000 0.0000 17.2490
#
#
#
# Elastic Compliance Matrix: (Units=1/GPa)
#
#
# Indices 1 2 3 4 5 6 
#
# 1 0.034359 -0.012845 -0.011122 0.000000 0.000000 0.000000
# 2 -0.012845 0.015786 0.002156 0.000000 0.000000 0.000000
# 3 -0.011122 0.002156 0.015381 0.000000 0.000000 0.000000
# 4 0.000000 0.000000 0.000000 0.033404 0.000000 0.000000
# 5 0.000000 0.000000 0.000000 0.000000 0.048671 0.000000
# 6 0.000000 0.000000 0.000000 0.000000 0.000000 0.057974
#
#
# Mechanical properties :
#
#
# Convention : Reuss Voigt Hill
#
# Bulk Modulus (GPa) = 45.65428 46.44357 46.04893
# Shear Modulus (GPa) = 19.49346 23.29640 21.39493
#
# Velocity S-wave (km/s) = 3.13778 3.43022 3.28725
# Velocity P-wave (km/s) = 6.01551 6.25668 6.13728
#
# Compressibility (1/GPa) = 0.02190375
#
# Stress axis : x y z
#
# Youngs Moduli (GPa) = 29.10479 63.34814 65.01655
#
# Poissons Ratio (x) = 0.81370 0.72310
# Poissons Ratio (y) = 0.37385 -0.14018
# Poissons Ratio (z) = 0.32370 -0.13659
#
# Static dielectric constant tensor:
#      x y z
#    x 3.308000 0.000000 0.000000 
#    y 0.000000 3.629480 0.000000 
#    z 0.000000 0.000000 3.753020 
# 
# 
# High freq. dielectric constant tensor:
#      x y z
#    x 1.742750 0.000000 0.000000 
#    y 0.000000 1.773270 0.000000 
#    z 0.000000 0.000000 1.786380 
# 
# From -- ./inp_files/33880.got.cif
#   From: 2010.03.12/outbox.cif.g09.slc.cpg/sg53_17_cif.got.tgz:33880.got - 2010.04.16 14:36:59.
