data_PCOD8219058
_publ_section_title
;
Structure prediction by ZEFSAII (Michael W. Deem and Ramdas Pophale) SiO2 
 PCOD8219058
Probable space group: P M N A
;
_chemical_formula_sum "Si O2"
_cell_formula_units_Z 64
_cell_length_a 18.937572
_cell_length_b 9.015563
_cell_length_c 20.146873
_cell_angle_alpha 90.000000
_cell_angle_beta 90.000000
_cell_angle_gamma 90.000000
_cell_volume 3439.733518
_symmetry_space_group_name_H-M "P M N A"
_symmetry_group_IT_number 53
_symmetry_cell_setting 'orthorhombic'
loop_
_space_group_symop_operation_xyz
x,y,z
1/2-x,-y,1/2+z
x,-y,-z
1/2-x,y,1/2-z
-x,-y,-z
1/2+x,y,1/2-z
-x,y,z
1/2+x,-y,1/2+z
loop_
_atom_site_type_symbol
_atom_site_label
_atom_site_fract_x
_atom_site_fract_y
_atom_site_fract_z
Si Si1 0.204370 0.951441 0.926741
Si Si2 0.298514 0.566976 0.186415
Si Si3 0.291782 0.778133 0.818921
Si Si4 0.917769 0.731502 0.249364
Si Si5 0.580887 0.220548 0.383518
Si Si6 0.680428 0.266542 0.625828
Si Si7 0.575190 0.540753 0.426286
Si Si8 0.920153 0.918516 0.740998
O O1 0.256412 0.845310 0.885105
O O2 0.130226 0.865610 0.936263
O O3 0.191835 0.093295 0.880578
O O4 0.233054 0.000000 0.000000
O O5 0.250000 0.596539 0.250000
O O6 0.303057 0.395293 0.168325
O O7 0.376697 0.638659 0.193405
O O8 0.256889 0.656393 0.129466
O O9 0.250000 0.809869 0.750000
O O10 0.368686 0.851665 0.814190
O O11 0.876739 0.689040 0.182534
O O12 0.000000 0.683382 0.248299
O O13 0.909491 0.906007 0.259469
O O14 0.500000 0.190429 0.403831
O O15 0.598677 0.395513 0.383461
O O16 0.599187 0.155032 0.311395
O O17 0.637842 0.339288 0.565230
O O18 0.557175 0.500000 0.500000
O O19 0.500000 0.601586 0.396392
O O20 0.000000 0.877219 0.721426
#
# Coordination Sequence:
#
# PCOD8219058 Si02
#       8
#     8   8   8   8   8   8   8   8
#     4  12  24  36  57  84 114 155 199 239 286 345
#     4   9  21  33  53  81 107 145 187 236 287 338
#     4  11  20  38  58  79 112 148 190 241 291 341
#     4  10  19  33  52  80 110 139 180 227 281 338
#     4  10  20  35  52  77 113 154 199 235 279 338
#     4  11  20  34  51  74 109 147 185 230 283 327
#     4  10  21  34  48  70 107 154 197 233 270 324
#     4  10  20  34  57  84 110 146 187 235 290 343
#
# _framework density 18.606093000000001
#
# number of rings (size 3 to 8) (size 9 to 14) (size 15 to 20)
#    0.000    1.625    2.500    2.625    3.500    2.250 
#    0.000    0.000    0.000    0.375    0.000    0.000 
#    0.000    4.500    0.000    0.000    0.000    0.000 
#
# Total GULP energy -793138.084797 kJ/mol
# GULP energy per Si atom -12392.782575 kJ/mol
# Density = 1.856374 g / cm^3
# Si number density = 18.606093 Si / 1000 Ang^3
#
#
#
# Elastic Constant Matrix: (Units=GPa)
#
#
# Indices 1 2 3 4 5 6 
#
# 1 115.4281 49.0417 36.9691 0.0000 0.0000 0.0000
# 2 49.0417 95.7976 22.6621 0.0000 0.0000 0.0000
# 3 36.9691 22.6621 50.1191 0.0000 0.0000 0.0000
# 4 0.0000 0.0000 0.0000 22.0547 0.0000 0.0000
# 5 0.0000 0.0000 0.0000 0.0000 22.0039 0.0000
# 6 0.0000 0.0000 0.0000 0.0000 0.0000 36.5845
#
#
#
# Elastic Compliance Matrix: (Units=1/GPa)
#
#
# Indices 1 2 3 4 5 6 
#
# 1 0.013168 -0.004975 -0.007463 0.000000 0.000000 0.000000
# 2 -0.004975 0.013569 -0.002465 0.000000 0.000000 0.000000
# 3 -0.007463 -0.002465 0.026572 0.000000 0.000000 0.000000
# 4 0.000000 0.000000 0.000000 0.045342 0.000000 0.000000
# 5 0.000000 0.000000 0.000000 0.000000 0.045447 0.000000
# 6 0.000000 0.000000 0.000000 0.000000 0.000000 0.027334
#
#
# Mechanical properties :
#
#
# Convention : Reuss Voigt Hill
#
# Bulk Modulus (GPa) = 42.55144 53.18785 47.86964
# Shear Modulus (GPa) = 23.91519 26.30674 25.11097
#
# Velocity S-wave (km/s) = 3.58906 3.76424 3.67769
# Velocity P-wave (km/s) = 6.33201 6.89499 6.61949
#
# Compressibility (1/GPa) = 0.02350097
#
# Stress axis : x y z
#
# Youngs Moduli (GPa) = 75.94450 73.69769 37.63341
#
# Poissons Ratio (x) = 0.36667 0.28086
# Poissons Ratio (y) = 0.37785 0.09278
# Poissons Ratio (z) = 0.56677 0.18170
#
# Static dielectric constant tensor:
#      x y z
#    x 3.583400 0.000000 0.000000 
#    y 0.000000 3.560020 0.000000 
#    z 0.000000 0.000000 3.099800 
# 
# 
# High freq. dielectric constant tensor:
#      x y z
#    x 1.723710 0.000000 0.000000 
#    y 0.000000 1.738610 0.000000 
#    z 0.000000 0.000000 1.676240 
# 
# From -- ./inp_files/32845.got.cif
#   From: 2010.03.12/outbox.cif.g09.slc.cpg/sg53_17_cif.got.tgz:32845.got - 2010.04.16 14:36:59.
