data_PCOD8219464
_publ_section_title
;
Structure prediction by ZEFSAII (Michael W. Deem and Ramdas Pophale) SiO2 
 PCOD8219464
Probable space group: P M N A
;
_chemical_formula_sum "Si O2"
_cell_formula_units_Z 64
_cell_length_a 8.915585
_cell_length_b 12.505930
_cell_length_c 30.611793
_cell_angle_alpha 90.000000
_cell_angle_beta 90.000000
_cell_angle_gamma 90.000000
_cell_volume 3413.143959
_symmetry_space_group_name_H-M "P M N A"
_symmetry_group_IT_number 53
_symmetry_cell_setting 'orthorhombic'
loop_
_space_group_symop_operation_xyz
x,y,z
1/2-x,-y,1/2+z
x,-y,-z
1/2-x,y,1/2-z
-x,-y,-z
1/2+x,y,1/2-z
-x,y,z
1/2+x,-y,1/2+z
loop_
_atom_site_type_symbol
_atom_site_label
_atom_site_fract_x
_atom_site_fract_y
_atom_site_fract_z
Si Si1 0.821374 0.490972 0.949185
Si Si2 0.172123 0.334941 0.117993
Si Si3 0.335348 0.874495 0.003070
Si Si4 0.663107 0.380491 0.289890
Si Si5 0.834206 0.625567 0.208473
Si Si6 0.824860 0.125596 0.910507
Si Si7 0.829257 0.114216 0.081296
Si Si8 0.678157 0.329387 0.881483
O O1 0.764921 0.598629 0.923683
O O2 0.748572 0.390384 0.923519
O O3 0.000000 0.475432 0.948377
O O4 0.766777 0.500000 0.000000
O O5 0.250564 0.367541 0.163722
O O6 0.187615 0.206455 0.117001
O O7 0.000000 0.371174 0.120567
O O8 0.500000 0.822912 0.011995
O O9 0.216458 0.843182 0.039933
O O10 0.270191 0.836160 0.957278
O O11 0.352304 0.000000 0.000000
O O12 0.750000 0.323645 0.250000
O O13 0.500000 0.324341 0.292962
O O14 0.641553 0.503636 0.278395
O O15 0.750000 0.681728 0.250000
O O16 0.737689 0.625920 0.164262
O O17 0.000000 0.678472 0.201714
O O18 0.727915 0.204686 0.880634
O O19 0.000000 0.144607 0.902186
O O20 0.776734 0.001920 0.900779
O O21 0.000000 0.101404 0.064513
O O22 0.500000 0.339465 0.883495
#
# Coordination Sequence:
#
# PCOD8219464 Si02
#       8
#     8   8   8   8   8   8   8   8
#     4  10  21  37  56  79 110 151 188 220 270 331
#     4   9  17  33  54  79 108 139 177 221 266 319
#     4   9  17  30  47  70 101 134 172 222 274 315
#     4   9  17  31  53  78 107 135 167 211 261 314
#     4  10  19  35  58  84 111 141 177 222 276 327
#     4  10  20  34  52  74 101 139 188 233 270 316
#     4   9  18  32  53  77 100 137 186 227 266 319
#     4  12  24  37  55  80 112 147 185 229 276 327
#
# _framework density 18.751041000000001
#
# number of rings (size 3 to 8) (size 9 to 14) (size 15 to 20)
#    0.000    2.250    1.250    2.250    1.750    2.750 
#    0.000    1.250    0.000    0.750    0.000    1.750 
#    0.000    0.000    0.000    0.000    0.000    0.000 
#
# Total GULP energy -792894.900165 kJ/mol
# GULP energy per Si atom -12388.982815 kJ/mol
# Density = 1.870836 g / cm^3
# Si number density = 18.751041 Si / 1000 Ang^3
#
#
#
# Elastic Constant Matrix: (Units=GPa)
#
#
# Indices 1 2 3 4 5 6 
#
# 1 81.3134 24.3988 39.3609 0.0000 0.0000 0.0000
# 2 24.3988 77.0952 32.1228 0.0000 0.0000 0.0000
# 3 39.3609 32.1228 139.6311 0.0000 0.0000 0.0000
# 4 0.0000 0.0000 0.0000 15.9790 0.0000 0.0000
# 5 0.0000 0.0000 0.0000 0.0000 27.8938 0.0000
# 6 0.0000 0.0000 0.0000 0.0000 0.0000 17.3797
#
#
#
# Elastic Compliance Matrix: (Units=1/GPa)
#
#
# Indices 1 2 3 4 5 6 
#
# 1 0.014961 -0.003293 -0.003460 0.000000 0.000000 0.000000
# 2 -0.003293 0.015071 -0.002539 0.000000 0.000000 0.000000
# 3 -0.003460 -0.002539 0.008721 0.000000 0.000000 0.000000
# 4 0.000000 0.000000 0.000000 0.062582 0.000000 0.000000
# 5 0.000000 0.000000 0.000000 0.000000 0.035850 0.000000
# 6 0.000000 0.000000 0.000000 0.000000 0.000000 0.057539
#
#
# Mechanical properties :
#
#
# Convention : Reuss Voigt Hill
#
# Bulk Modulus (GPa) = 49.57988 54.42273 52.00131
# Shear Modulus (GPa) = 22.72407 25.72763 24.22585
#
# Velocity S-wave (km/s) = 3.48499 3.70816 3.59830
# Velocity P-wave (km/s) = 6.53392 6.88627 6.71241
#
# Compressibility (1/GPa) = 0.02016947
#
# Stress axis : x y z
#
# Youngs Moduli (GPa) = 66.84038 66.35237 114.66473
#
# Poissons Ratio (x) = 0.21851 0.39671
# Poissons Ratio (y) = 0.22012 0.29111
# Poissons Ratio (z) = 0.23125 0.16846
#
# Static dielectric constant tensor:
#      x y z
#    x 3.627240 0.000000 0.000000 
#    y 0.000000 3.275080 0.000000 
#    z 0.000000 0.000000 3.506340 
# 
# 
# High freq. dielectric constant tensor:
#      x y z
#    x 1.717910 0.000000 0.000000 
#    y 0.000000 1.702910 0.000000 
#    z 0.000000 0.000000 1.720030 
# 
# From -- ./inp_files/38186.got.cif
#   From: 2010.03.12/outbox.cif.g09.slc.cpg/sg53_20_cif.got.tgz:38186.got - 2010.04.16 14:36:59.
