data_PCOD8219497
_publ_section_title
;
Structure prediction by ZEFSAII (Michael W. Deem and Ramdas Pophale) SiO2 
 PCOD8219497
Probable space group: P M N A
;
_chemical_formula_sum "Si O2"
_cell_formula_units_Z 48
_cell_length_a 19.033690
_cell_length_b 13.481887
_cell_length_c 8.651792
_cell_angle_alpha 90.000000
_cell_angle_beta 90.000000
_cell_angle_gamma 90.000000
_cell_volume 2220.136845
_symmetry_space_group_name_H-M "P M N A"
_symmetry_group_IT_number 53
_symmetry_cell_setting 'orthorhombic'
loop_
_space_group_symop_operation_xyz
x,y,z
1/2-x,-y,1/2+z
x,-y,-z
1/2-x,y,1/2-z
-x,-y,-z
1/2+x,y,1/2-z
-x,y,z
1/2+x,-y,1/2+z
loop_
_atom_site_type_symbol
_atom_site_label
_atom_site_fract_x
_atom_site_fract_y
_atom_site_fract_z
Si Si1 0.655877 0.242114 0.639067
Si Si2 0.815625 0.561403 0.653292
Si Si3 0.304451 0.749736 0.036759
Si Si4 0.579950 0.667400 0.638790
Si Si5 0.418285 0.959224 0.341499
Si Si6 0.920573 0.853712 0.641904
O O1 0.671184 0.300380 0.800244
O O2 0.727751 0.201939 0.560280
O O3 0.614615 0.318505 0.529598
O O4 0.613846 0.146597 0.695502
O O5 0.836382 0.500000 0.500000
O O6 0.750000 0.515018 0.750000
O O7 0.792402 0.669105 0.595146
O O8 0.882336 0.578710 0.765784
O O9 0.362724 0.830455 0.987416
O O10 0.500000 0.632748 0.617492
O O11 0.584260 0.774129 0.720409
O O12 0.500000 0.941716 0.365587
O O13 0.384951 0.000000 0.500000
O O14 0.403305 0.036945 0.204633
O O15 0.000000 0.850845 0.571340
#
# Coordination Sequence:
#
# PCOD8219497 Si02
#       6
#     8   8   8   8   8   8
#     4  11  21  38  58  90 130 169 214 263 312 380
#     4  11  24  42  72  97 123 163 208 266 326 399
#     4  10  24  41  58  92 130 164 212 263 327 388
#     4  10  20  39  66  94 128 172 211 256 321 384
#     4  10  19  35  59  88 122 168 224 265 303 367
#     4   9  19  37  60  86 123 171 218 264 314 365
#
# _framework density 21.620287999999999
#
# number of rings (size 3 to 8) (size 9 to 14) (size 15 to 20)
#    0.000    1.833    3.333    0.500    2.333    2.333 
#    6.000    1.667    0.000    3.500    0.000    0.000 
#    0.000    0.000    0.000    0.000    0.000    0.000 
#
# Total GULP energy -595006.396810 kJ/mol
# GULP energy per Si atom -12395.966600 kJ/mol
# Density = 2.157108 g / cm^3
# Si number density = 21.620288 Si / 1000 Ang^3
#
#
#
# Elastic Constant Matrix: (Units=GPa)
#
#
# Indices 1 2 3 4 5 6 
#
# 1 134.1213 26.5492 66.4963 0.0000 0.0000 0.0000
# 2 26.5492 44.8732 18.6640 0.0000 0.0000 0.0000
# 3 66.4963 18.6640 109.7243 0.0000 0.0000 0.0000
# 4 0.0000 0.0000 0.0000 30.3615 0.0000 0.0000
# 5 0.0000 0.0000 0.0000 0.0000 28.5809 0.0000
# 6 0.0000 0.0000 0.0000 0.0000 0.0000 24.0335
#
#
#
# Elastic Compliance Matrix: (Units=1/GPa)
#
#
# Indices 1 2 3 4 5 6 
#
# 1 0.011331 -0.004141 -0.006163 0.000000 0.000000 0.000000
# 2 -0.004141 0.025495 -0.001827 0.000000 0.000000 0.000000
# 3 -0.006163 -0.001827 0.013159 0.000000 0.000000 0.000000
# 4 0.000000 0.000000 0.000000 0.032936 0.000000 0.000000
# 5 0.000000 0.000000 0.000000 0.000000 0.034988 0.000000
# 6 0.000000 0.000000 0.000000 0.000000 0.000000 0.041609
#
#
# Mechanical properties :
#
#
# Convention : Reuss Voigt Hill
#
# Bulk Modulus (GPa) = 38.87419 56.90420 47.88920
# Shear Modulus (GPa) = 25.99369 28.39579 27.19474
#
# Velocity S-wave (km/s) = 3.47116 3.62800 3.55044
# Velocity P-wave (km/s) = 5.83821 6.62773 6.24546
#
# Compressibility (1/GPa) = 0.02572401
#
# Stress axis : x y z
#
# Youngs Moduli (GPa) = 88.25386 39.22347 75.99213
#
# Poissons Ratio (x) = 0.16242 0.46831
# Poissons Ratio (y) = 0.36544 0.13886
# Poissons Ratio (z) = 0.54387 0.07167
#
# Static dielectric constant tensor:
#      x y z
#    x 3.994840 0.000000 0.000000 
#    y 0.000000 3.511670 0.000000 
#    z 0.000000 0.000000 4.038060 
# 
# 
# High freq. dielectric constant tensor:
#      x y z
#    x 1.850660 0.000000 0.000000 
#    y 0.000000 1.819300 0.000000 
#    z 0.000000 0.000000 1.862740 
# 
# From -- ./inp_files/10010.got.cif
#   From: 2010.03.12/outbox.cif.g09.slc.cpg/sg53_6_cif.got.tgz:10010.got - 2010.04.16 14:36:59.
