data_PCOD8219249
_publ_section_title
;
Structure prediction by ZEFSAII (Michael W. Deem and Ramdas Pophale) SiO2 
 PCOD8219249
Probable space group: P M N A
;
_chemical_formula_sum "Si O2"
_cell_formula_units_Z 48
_cell_length_a 10.144886
_cell_length_b 28.036216
_cell_length_c 8.726865
_cell_angle_alpha 90.000000
_cell_angle_beta 90.000000
_cell_angle_gamma 90.000000
_cell_volume 2482.131729
_symmetry_space_group_name_H-M "P M N A"
_symmetry_group_IT_number 53
_symmetry_cell_setting 'orthorhombic'
loop_
_space_group_symop_operation_xyz
x,y,z
1/2-x,-y,1/2+z
x,-y,-z
1/2-x,y,1/2-z
-x,-y,-z
1/2+x,y,1/2-z
-x,y,z
1/2+x,-y,1/2+z
loop_
_atom_site_type_symbol
_atom_site_label
_atom_site_fract_x
_atom_site_fract_y
_atom_site_fract_z
Si Si1 0.500000 0.386399 0.569086
Si Si2 0.000000 0.722227 0.070541
Si Si3 0.500000 0.289494 0.933124
Si Si4 0.757830 0.448461 0.931837
Si Si5 0.346782 0.869478 0.887404
Si Si6 0.758938 0.235196 0.428713
Si Si7 0.500000 0.396597 0.932397
Si Si8 0.650097 0.043298 0.889476
O O1 0.500000 0.332071 0.506903
O O2 0.628665 0.413318 0.507595
O O3 0.500000 0.390171 0.751018
O O4 0.000000 0.718018 0.252261
O O5 0.876099 0.752247 0.012800
O O6 0.500000 0.343290 0.995972
O O7 0.630341 0.267160 0.998725
O O8 0.750000 0.452545 0.750000
O O9 0.623645 0.426042 0.995619
O O10 0.784515 0.500000 0.000000
O O11 0.250000 0.885335 0.750000
O O12 0.500000 0.865503 0.831042
O O13 0.295913 0.819773 0.956395
O O14 0.333707 0.907326 0.021926
O O15 0.750000 0.246582 0.250000
O O16 0.750000 0.042754 0.750000
O O17 0.500000 0.037417 0.829143
O O18 0.687767 0.000000 0.000000
#
# Coordination Sequence:
#
# PCOD8219249 Si02
#       8
#     4   4   4   8   8   8   4   8
#     4   9  19  36  54  78 106 143 185 230 283 350
#     4  11  23  38  64  88 111 157 208 242 297 356
#     4  11  21  40  62  86 115 153 204 250 287 358
#     4  10  19  34  54  77 106 140 179 227 283 344
#     4  10  22  40  62  87 120 164 205 244 300 369
#     4  11  23  40  59  87 123 159 194 250 311 364
#     4   9  19  34  56  76 106 145 183 228 285 346
#     4  10  22  40  62  93 128 163 209 262 311 363
#
# _framework density 19.338215000000002
#
# number of rings (size 3 to 8) (size 9 to 14) (size 15 to 20)
#    0.000    1.833    0.833    3.000    3.500    5.000 
#    0.000    5.000    0.000    0.000    0.000    0.000 
#    0.000    0.000    0.000    0.000    0.000    0.000 
#
# Total GULP energy -595226.943313 kJ/mol
# GULP energy per Si atom -12400.561319 kJ/mol
# Density = 1.929420 g / cm^3
# Si number density = 19.338215 Si / 1000 Ang^3
#
#
#
# Elastic Constant Matrix: (Units=GPa)
#
#
# Indices 1 2 3 4 5 6 
#
# 1 184.1897 77.3736 55.1366 0.0000 0.0000 0.0000
# 2 77.3736 126.6072 58.0522 0.0000 0.0000 0.0000
# 3 55.1366 58.0522 72.9296 0.0000 0.0000 0.0000
# 4 0.0000 0.0000 0.0000 29.9503 0.0000 0.0000
# 5 0.0000 0.0000 0.0000 0.0000 24.2999 0.0000
# 6 0.0000 0.0000 0.0000 0.0000 0.0000 41.4161
#
#
#
# Elastic Compliance Matrix: (Units=1/GPa)
#
#
# Indices 1 2 3 4 5 6 
#
# 1 0.007779 -0.003240 -0.003302 0.000000 0.000000 0.000000
# 2 -0.003240 0.013788 -0.008526 0.000000 0.000000 0.000000
# 3 -0.003302 -0.008526 0.022995 0.000000 0.000000 0.000000
# 4 0.000000 0.000000 0.000000 0.033389 0.000000 0.000000
# 5 0.000000 0.000000 0.000000 0.000000 0.041153 0.000000
# 6 0.000000 0.000000 0.000000 0.000000 0.000000 0.024145
#
#
# Mechanical properties :
#
#
# Convention : Reuss Voigt Hill
#
# Bulk Modulus (GPa) = 69.31855 84.98346 77.15101
# Shear Modulus (GPa) = 28.05990 32.01087 30.03539
#
# Velocity S-wave (km/s) = 3.81334 4.07297 3.94529
# Velocity P-wave (km/s) = 7.43720 8.13388 7.79333
#
# Compressibility (1/GPa) = 0.01442615
#
# Stress axis : x y z
#
# Youngs Moduli (GPa) = 128.55911 72.52944 43.48835
#
# Poissons Ratio (x) = 0.23497 0.14360
# Poissons Ratio (y) = 0.41649 0.37077
# Poissons Ratio (z) = 0.42450 0.61836
#
# Static dielectric constant tensor:
#      x y z
#    x 3.779670 0.000000 0.000000 
#    y 0.000000 3.755650 0.000000 
#    z 0.000000 0.000000 3.292660 
# 
# 
# High freq. dielectric constant tensor:
#      x y z
#    x 1.773900 0.000000 0.000000 
#    y 0.000000 1.772170 0.000000 
#    z 0.000000 0.000000 1.730820 
# 
# From -- ./inp_files/6876.got.cif
#   From: 2010.03.12/outbox.cif.g09.slc.cpg/sg53_4_cif.got.tgz:6876.got - 2010.04.16 14:36:59.
