data_PCOD8219334
_publ_section_title
;
Structure prediction by ZEFSAII (Michael W. Deem and Ramdas Pophale) SiO2 
 PCOD8219334
Probable space group: P M N A
;
_chemical_formula_sum "Si O2"
_cell_formula_units_Z 48
_cell_length_a 8.995905
_cell_length_b 15.249502
_cell_length_c 17.908657
_cell_angle_alpha 90.000000
_cell_angle_beta 90.000000
_cell_angle_gamma 90.000000
_cell_volume 2456.764570
_symmetry_space_group_name_H-M "P M N A"
_symmetry_group_IT_number 53
_symmetry_cell_setting 'orthorhombic'
loop_
_space_group_symop_operation_xyz
x,y,z
1/2-x,-y,1/2+z
x,-y,-z
1/2-x,y,1/2-z
-x,-y,-z
1/2+x,y,1/2-z
-x,y,z
1/2+x,-y,1/2+z
loop_
_atom_site_type_symbol
_atom_site_label
_atom_site_fract_x
_atom_site_fract_y
_atom_site_fract_z
Si Si1 0.825316 0.832215 0.096849
Si Si2 0.826847 0.179601 0.075284
Si Si3 0.675119 0.347736 0.329185
Si Si4 0.328267 0.673318 0.175253
Si Si5 0.667257 0.006771 0.088552
Si Si6 0.671165 0.501228 0.084846
O O1 0.748323 0.762160 0.149485
O O2 0.000000 0.830360 0.110507
O O3 0.763867 0.927149 0.121428
O O4 0.783761 0.809984 0.011412
O O5 0.779472 0.268204 0.116675
O O6 0.738680 0.099148 0.113067
O O7 0.000000 0.158780 0.084116
O O8 0.750000 0.331470 0.250000
O O9 0.500000 0.354060 0.317558
O O10 0.730011 0.437666 0.365216
O O11 0.250000 0.638727 0.250000
O O12 0.500000 0.692185 0.191577
O O13 0.307211 0.599943 0.112518
O O14 0.500000 0.001427 0.120092
O O15 0.669263 0.000000 0.000000
O O16 0.500000 0.470745 0.090462
O O17 0.728427 0.500000 0.000000
#
# Coordination Sequence:
#
# PCOD8219334 Si02
#       6
#     8   8   8   8   8   8
#     4  10  19  34  57  82 110 144 184 231 279 329
#     4   9  19  35  55  81 111 145 186 231 279 329
#     4  11  23  38  57  82 114 150 187 228 276 331
#     4  11  23  38  56  80 112 147 183 224 272 328
#     4   9  17  30  52  82 112 143 182 229 278 327
#     4  10  22  40  62  87 113 143 182 229 278 329
#
# _framework density 19.537891999999999
#
# number of rings (size 3 to 8) (size 9 to 14) (size 15 to 20)
#    0.000    2.000    0.000    3.500    0.000    7.000 
#    0.000    0.833    0.000    2.000    0.000    0.000 
#    0.000    0.000    0.000    0.000    0.000    0.000 
#
# Total GULP energy -595425.042842 kJ/mol
# GULP energy per Si atom -12404.688393 kJ/mol
# Density = 1.949342 g / cm^3
# Si number density = 19.537892 Si / 1000 Ang^3
#
#
#
# Elastic Constant Matrix: (Units=GPa)
#
#
# Indices 1 2 3 4 5 6 
#
# 1 99.9195 46.6119 31.6692 0.0000 0.0000 0.0000
# 2 46.6119 95.4022 15.2447 0.0000 0.0000 0.0000
# 3 31.6692 15.2447 66.7866 0.0000 0.0000 0.0000
# 4 0.0000 0.0000 0.0000 15.0187 0.0000 0.0000
# 5 0.0000 0.0000 0.0000 0.0000 20.9355 0.0000
# 6 0.0000 0.0000 0.0000 0.0000 0.0000 33.3426
#
#
#
# Elastic Compliance Matrix: (Units=1/GPa)
#
#
# Indices 1 2 3 4 5 6 
#
# 1 0.014700 -0.006298 -0.005533 0.000000 0.000000 0.000000
# 2 -0.006298 0.013577 -0.000113 0.000000 0.000000 0.000000
# 3 -0.005533 -0.000113 0.017622 0.000000 0.000000 0.000000
# 4 0.000000 0.000000 0.000000 0.066584 0.000000 0.000000
# 5 0.000000 0.000000 0.000000 0.000000 0.047766 0.000000
# 6 0.000000 0.000000 0.000000 0.000000 0.000000 0.029992
#
#
# Mechanical properties :
#
#
# Convention : Reuss Voigt Hill
#
# Bulk Modulus (GPa) = 45.42936 49.90665 47.66800
# Shear Modulus (GPa) = 22.57702 25.09819 23.83760
#
# Velocity S-wave (km/s) = 3.40303 3.58801 3.49674
# Velocity P-wave (km/s) = 6.22440 6.53942 6.38386
#
# Compressibility (1/GPa) = 0.02201220
#
# Stress axis : x y z
#
# Youngs Moduli (GPa) = 68.02917 73.65404 56.74610
#
# Poissons Ratio (x) = 0.46386 0.31396
# Poissons Ratio (y) = 0.42844 0.00640
# Poissons Ratio (z) = 0.37639 0.00830
#
# Static dielectric constant tensor:
#      x y z
#    x 3.660720 0.000000 0.000000 
#    y 0.000000 3.619260 0.000000 
#    z 0.000000 0.000000 3.523310 
# 
# 
# High freq. dielectric constant tensor:
#      x y z
#    x 1.769650 0.000000 0.000000 
#    y 0.000000 1.773080 0.000000 
#    z 0.000000 0.000000 1.744700 
# 
# From -- ./inp_files/26237.got.cif
#   From: 2010.03.12/outbox.cif.g09.slc.cpg/sg53_14_cif.got.tgz:26237.got - 2010.04.16 14:36:59.
