data_PCOD8219084
_publ_section_title
;
Structure prediction by ZEFSAII (Michael W. Deem and Ramdas Pophale) SiO2 
 PCOD8219084
Probable space group: P M N A
;
_chemical_formula_sum "Si O2"
_cell_formula_units_Z 48
_cell_length_a 17.865022
_cell_length_b 17.317500
_cell_length_c 7.411625
_cell_angle_alpha 90.000000
_cell_angle_beta 90.000000
_cell_angle_gamma 90.000000
_cell_volume 2292.990150
_symmetry_space_group_name_H-M "P M N A"
_symmetry_group_IT_number 53
_symmetry_cell_setting 'orthorhombic'
loop_
_space_group_symop_operation_xyz
x,y,z
1/2-x,-y,1/2+z
x,-y,-z
1/2-x,y,1/2-z
-x,-y,-z
1/2+x,y,1/2-z
-x,y,z
1/2+x,-y,1/2+z
loop_
_atom_site_type_symbol
_atom_site_label
_atom_site_fract_x
_atom_site_fract_y
_atom_site_fract_z
Si Si1 0.084398 0.651996 0.785632
Si Si2 0.415602 0.651996 0.285633
Si Si3 0.662819 0.807833 0.710420
Si Si4 0.662819 0.807833 0.289581
Si Si5 0.413203 0.090684 0.000000
Si Si6 0.163005 0.500000 0.789400
O O1 0.128465 0.727374 0.718705
O O2 0.125380 0.576463 0.704150
O O3 0.000000 0.654825 0.710423
O O4 0.084683 0.648997 1.000000
O O5 0.500000 0.654826 0.210424
O O6 0.371534 0.727374 0.218706
O O7 0.374621 0.576463 0.204150
O O8 0.750000 0.806066 0.750000
O O9 0.646258 0.821702 0.500000
O O10 0.624747 0.876851 0.819436
O O11 0.750000 0.806068 0.250000
O O12 0.624746 0.876851 0.180565
O O13 0.500000 0.113045 0.000002
O O14 0.400093 0.000000 0.000000
O O15 0.250000 0.499999 0.750000
O O16 0.147213 0.500000 0.000000
#
# Coordination Sequence:
#
# PCOD8219084 Si02
#       6
#     8   8   8   8   8   8
#     4   9  18  33  57  85 117 159 208 254 308 368
#     4   9  18  33  57  85 117 159 208 254 308 368
#     4  11  22  41  66  96 128 168 211 262 315 379
#     4  11  22  41  66  96 128 168 211 262 315 379
#     4  11  26  46  68  97 130 164 207 261 324 386
#     4  10  19  33  53  79 115 158 202 255 304 360
#
# _framework density 20.933364999999998
#
# number of rings (size 3 to 8) (size 9 to 14) (size 15 to 20)
#    0.000    1.833    1.667    2.500    0.000    5.333 
#    3.000    1.667    0.000    1.000    0.000    0.000 
#    0.000    0.000    0.000    0.000    0.000    0.000 
#
# Total GULP energy -595327.672072 kJ/mol
# GULP energy per Si atom -12402.659835 kJ/mol
# Density = 2.088572 g / cm^3
# Si number density = 20.933365 Si / 1000 Ang^3
#
#
#
# Elastic Constant Matrix: (Units=GPa)
#
#
# Indices 1 2 3 4 5 6 
#
# 1 209.3008 105.7881 30.6974 0.0000 0.0000 0.0000
# 2 105.7881 156.4582 43.6047 0.0000 0.0000 0.0000
# 3 30.6974 43.6047 85.2558 0.0000 0.0000 0.0000
# 4 0.0000 0.0000 0.0000 -42.2289 0.0000 0.0000
# 5 0.0000 0.0000 0.0000 0.0000 7.8559 0.0000
# 6 0.0000 0.0000 0.0000 0.0000 0.0000 38.9978
#
#
#
# Elastic Compliance Matrix: (Units=1/GPa)
#
#
# Indices 1 2 3 4 5 6 
#
# 1 0.007259 -0.004875 -0.000121 0.000000 0.000000 0.000000
# 2 -0.004875 0.010727 -0.003731 0.000000 0.000000 0.000000
# 3 -0.000121 -0.003731 0.013681 0.000000 0.000000 0.000000
# 4 0.000000 0.000000 0.000000 -0.023680 0.000000 0.000000
# 5 0.000000 0.000000 0.000000 0.000000 0.127293 0.000000
# 6 0.000000 0.000000 0.000000 0.000000 0.000000 0.025642
#
#
# Mechanical properties :
#
#
# Convention : Reuss Voigt Hill
#
# Bulk Modulus (GPa) = 70.35033 90.13279 80.24156
# Shear Modulus (GPa) = 27.30522 18.98660 23.14591
#
# Velocity S-wave (km/s) = 3.61555 3.01491 3.32881
# Velocity P-wave (km/s) = 7.14908 7.43439 7.29313
#
# Compressibility (1/GPa) = 0.01421457
#
# Stress axis : x y z
#
# Youngs Moduli (GPa) = 137.75277 93.21872 73.09254
#
# Poissons Ratio (x) = 0.45442 0.00881
# Poissons Ratio (y) = 0.67151 0.27274
# Poissons Ratio (z) = 0.01661 0.34784
#
# Static dielectric constant tensor:
#      x y z
#    x 3.928150 0.000000 0.000000 
#    y 0.000000 3.929640 0.000000 
#    z 0.000000 0.000000 3.612140 
# 
# 
# High freq. dielectric constant tensor:
#      x y z
#    x 1.836280 0.000000 0.000000 
#    y 0.000000 1.823800 0.000000 
#    z 0.000000 0.000000 1.811980 
# 
# From -- ./inp_files/10098.got.cif
#   From: 2010.03.12/outbox.cif.g09.slc.cpg/sg53_6_cif.got.tgz:10098.got - 2010.04.16 14:36:59.
