data_PCOD8219288
_publ_section_title
;
Structure prediction by ZEFSAII (Michael W. Deem and Ramdas Pophale) SiO2 
 PCOD8219288
Probable space group: P M N A
;
_chemical_formula_sum "Si O2"
_cell_formula_units_Z 64
_cell_length_a 8.726847
_cell_length_b 11.075897
_cell_length_c 33.831560
_cell_angle_alpha 90.000000
_cell_angle_beta 90.000000
_cell_angle_gamma 90.000000
_cell_volume 3270.079373
_symmetry_space_group_name_H-M "P M N A"
_symmetry_group_IT_number 53
_symmetry_cell_setting 'orthorhombic'
loop_
_space_group_symop_operation_xyz
x,y,z
1/2-x,-y,1/2+z
x,-y,-z
1/2-x,y,1/2-z
-x,-y,-z
1/2+x,y,1/2-z
-x,y,z
1/2+x,-y,1/2+z
loop_
_atom_site_type_symbol
_atom_site_label
_atom_site_fract_x
_atom_site_fract_y
_atom_site_fract_z
Si Si1 0.819850 0.228205 0.019095
Si Si2 0.675745 0.552734 0.939845
Si Si3 0.320036 0.648473 0.635026
Si Si4 0.320649 0.749391 0.208029
Si Si5 0.820021 0.470895 0.291627
Si Si6 0.324455 0.724418 0.059353
Si Si7 0.319940 0.103834 0.402852
Si Si8 0.181496 0.852682 0.130211
O O1 0.782378 0.364024 0.033048
O O2 0.759839 0.135146 0.052839
O O3 0.000000 0.216644 0.012543
O O4 0.738415 0.197356 0.977571
O O5 0.500000 0.594240 0.944859
O O6 0.726231 0.562284 0.894346
O O7 0.695819 0.414761 0.952861
O O8 0.500000 0.625725 0.629085
O O9 0.267538 0.616484 0.678650
O O10 0.276623 0.787756 0.626769
O O11 0.250000 0.788638 0.250000
O O12 0.500000 0.772953 0.210233
O O13 0.282865 0.610057 0.198586
O O14 0.250093 0.829996 0.173377
O O15 0.750000 0.434597 0.250000
O O16 0.000000 0.445167 0.292443
O O17 0.500000 0.757719 0.067504
O O18 0.230446 0.749998 0.099214
O O19 0.500000 0.088715 0.405660
O O20 0.249993 0.979634 0.386152
O O21 0.000000 0.854415 0.134292
#
# Coordination Sequence:
#
# PCOD8219288 Si02
#       8
#     8   8   8   8   8   8   8   8
#     4  10  20  36  57  79 105 140 183 227 272 322
#     4  10  20  34  52  76 109 143 174 217 273 327
#     4  10  19  34  56  79 105 138 178 220 265 319
#     4  10  21  38  59  85 115 143 174 215 265 318
#     4  10  20  34  54  82 114 142 170 211 264 321
#     4  11  23  36  51  78 114 145 177 222 273 323
#     4   8  19  38  56  76 104 140 181 227 271 312
#     4  11  22  38  59  80 106 143 186 226 267 315
#
# _framework density 19.571390999999998
#
# number of rings (size 3 to 8) (size 9 to 14) (size 15 to 20)
#    0.000    2.000    0.000    4.500    0.000    8.500 
#    0.000   10.625    0.000    0.000    0.000    0.000 
#    0.000    0.000    0.000    0.000    0.000    0.000 
#
# Total GULP energy -793708.524011 kJ/mol
# GULP energy per Si atom -12401.695688 kJ/mol
# Density = 1.952685 g / cm^3
# Si number density = 19.571391 Si / 1000 Ang^3
#
#
#
# Elastic Constant Matrix: (Units=GPa)
#
#
# Indices 1 2 3 4 5 6 
#
# 1 59.0037 21.8354 28.8916 0.0000 0.0000 0.0000
# 2 21.8354 49.3743 29.7698 0.0000 0.0000 0.0000
# 3 28.8916 29.7698 129.4051 0.0000 0.0000 0.0000
# 4 0.0000 0.0000 0.0000 27.5717 0.0000 0.0000
# 5 0.0000 0.0000 0.0000 0.0000 38.0100 0.0000
# 6 0.0000 0.0000 0.0000 0.0000 0.0000 17.2497
#
#
#
# Elastic Compliance Matrix: (Units=1/GPa)
#
#
# Indices 1 2 3 4 5 6 
#
# 1 0.021219 -0.007579 -0.002994 0.000000 0.000000 0.000000
# 2 -0.007579 0.026222 -0.004340 0.000000 0.000000 0.000000
# 3 -0.002994 -0.004340 0.009395 0.000000 0.000000 0.000000
# 4 0.000000 0.000000 0.000000 0.036269 0.000000 0.000000
# 5 0.000000 0.000000 0.000000 0.000000 0.026309 0.000000
# 6 0.000000 0.000000 0.000000 0.000000 0.000000 0.057972
#
#
# Mechanical properties :
#
#
# Convention : Reuss Voigt Hill
#
# Bulk Modulus (GPa) = 37.02402 44.30853 40.66627
# Shear Modulus (GPa) = 23.12520 27.05202 25.08861
#
# Velocity S-wave (km/s) = 3.44114 3.72186 3.58425
# Velocity P-wave (km/s) = 5.89467 6.41547 6.16057
#
# Compressibility (1/GPa) = 0.02700949
#
# Stress axis : x y z
#
# Youngs Moduli (GPa) = 47.12830 38.13592 106.44404
#
# Poissons Ratio (x) = 0.28902 0.31868
# Poissons Ratio (y) = 0.35717 0.46201
# Poissons Ratio (z) = 0.14110 0.16552
#
# Static dielectric constant tensor:
#      x y z
#    x 3.534680 0.000000 0.000000 
#    y 0.000000 3.569180 0.000000 
#    z 0.000000 0.000000 3.652950 
# 
# 
# High freq. dielectric constant tensor:
#      x y z
#    x 1.763610 0.000000 0.000000 
#    y 0.000000 1.745380 0.000000 
#    z 0.000000 0.000000 1.772700 
# 
# From -- ./inp_files/38197.got.cif
#   From: 2010.03.12/outbox.cif.g09.slc.cpg/sg53_20_cif.got.tgz:38197.got - 2010.04.16 14:36:59.
