data_PCOD8219859
_publ_section_title
;
Structure prediction by ZEFSAII (Michael W. Deem and Ramdas Pophale) SiO2 
 PCOD8219859
Probable space group: P M N A
;
_chemical_formula_sum "Si O2"
_cell_formula_units_Z 40
_cell_length_a 8.663446
_cell_length_b 25.695674
_cell_length_c 9.793471
_cell_angle_alpha 90.000000
_cell_angle_beta 90.000000
_cell_angle_gamma 90.000000
_cell_volume 2180.154784
_symmetry_space_group_name_H-M "P M N A"
_symmetry_group_IT_number 53
_symmetry_cell_setting 'orthorhombic'
loop_
_space_group_symop_operation_xyz
x,y,z
1/2-x,-y,1/2+z
x,-y,-z
1/2-x,y,1/2-z
-x,-y,-z
1/2+x,y,1/2-z
-x,y,z
1/2+x,-y,1/2+z
loop_
_atom_site_type_symbol
_atom_site_label
_atom_site_fract_x
_atom_site_fract_y
_atom_site_fract_z
Si Si1 0.317672 0.955373 0.895730
Si Si2 0.682106 0.154198 0.396619
Si Si3 0.178210 0.351181 0.602694
Si Si4 0.680008 0.236323 0.900361
Si Si5 0.817913 0.454579 0.901364
O O1 0.250000 0.971293 0.750000
O O2 0.500000 0.949359 0.884284
O O3 0.247850 0.900988 0.947625
O O4 0.267590 0.000000 0.000000
O O5 0.750000 0.169506 0.250000
O O6 0.500000 0.150183 0.383883
O O7 0.727396 0.197638 0.504297
O O8 0.250000 0.345553 0.750000
O O9 0.200747 0.294405 0.533979
O O10 0.264630 0.399539 0.529731
O O11 0.000000 0.366177 0.614663
O O12 0.750000 0.232452 0.750000
O O13 0.500000 0.221291 0.894153
O O14 0.750000 0.461669 0.750000
O O15 0.000000 0.456086 0.890451
O O16 0.755736 0.500000 0.000000
#
# Coordination Sequence:
#
# PCOD8219859 Si02
#       5
#     8   8   8   8   8
#     4  10  21  37  57  80 107 139 176 217 260 310
#     4  11  22  37  57  79 108 144 177 215 264 315
#     4   9  17  30  51  75 101 134 169 210 257 305
#     4  10  20  35  55  81 108 136 176 219 261 310
#     4  10  20  33  51  75 102 134 171 211 256 307
#
# _framework density 18.347321000000001
#
# number of rings (size 3 to 8) (size 9 to 14) (size 15 to 20)
#    0.000    2.000    0.000    6.600    0.000    6.400 
#    0.000    3.000    0.000    2.400    0.000    0.000 
#    0.000    0.000    0.000    0.000    0.000    0.000 
#
# Total GULP energy -495844.965569 kJ/mol
# GULP energy per Si atom -12396.124139 kJ/mol
# Density = 1.830556 g / cm^3
# Si number density = 18.347321 Si / 1000 Ang^3
#
#
#
# Elastic Constant Matrix: (Units=GPa)
#
#
# Indices 1 2 3 4 5 6 
#
# 1 97.5268 49.7416 31.8243 0.0000 0.0000 0.0000
# 2 49.7416 151.9950 73.3822 0.0000 0.0000 0.0000
# 3 31.8243 73.3822 71.4690 0.0000 0.0000 0.0000
# 4 0.0000 0.0000 0.0000 69.4414 0.0000 0.0000
# 5 0.0000 0.0000 0.0000 0.0000 28.4930 0.0000
# 6 0.0000 0.0000 0.0000 0.0000 0.0000 -602.1744
#
#
#
# Elastic Compliance Matrix: (Units=1/GPa)
#
#
# Indices 1 2 3 4 5 6 
#
# 1 0.012570 -0.002799 -0.002724 0.000000 0.000000 0.000000
# 2 -0.002799 0.013670 -0.012789 0.000000 0.000000 0.000000
# 3 -0.002724 -0.012789 0.028337 0.000000 0.000000 0.000000
# 4 0.000000 0.000000 0.000000 0.014401 0.000000 0.000000
# 5 0.000000 0.000000 0.000000 0.000000 0.035096 0.000000
# 6 0.000000 0.000000 0.000000 0.000000 0.000000 -0.001661
#
#
# Mechanical properties :
#
#
# Convention : Reuss Voigt Hill
#
# Bulk Modulus (GPa) = 55.70174 70.09854 62.90014
# Shear Modulus (GPa) = 34.47802 -89.77849 -27.65023
#
# Velocity S-wave (km/s) = 4.33966 -7.00278 -3.88628
# Velocity P-wave (km/s) = 7.45223 5.20538 3.77093
#
# Compressibility (1/GPa) = 0.01795276
#
# Stress axis : x y z
#
# Youngs Moduli (GPa) = 79.55630 73.15464 35.28996
#
# Poissons Ratio (x) = 0.20473 0.09612
# Poissons Ratio (y) = 0.22265 0.45134
# Poissons Ratio (z) = 0.21668 0.93561
#
# Static dielectric constant tensor:
#      x y z
#    x 3.553330 0.000000 0.000000 
#    y 0.000000 3.998620 0.000000 
#    z 0.000000 0.000000 3.033840 
# 
# 
# High freq. dielectric constant tensor:
#      x y z
#    x 1.733020 0.000000 0.000000 
#    y 0.000000 1.731280 0.000000 
#    z 0.000000 0.000000 1.679160 
# 
# From -- ./inp_files/6435.got.cif
#   From: 2010.03.12/outbox.cif.g09.slc.cpg/sg53_4_cif.got.tgz:6435.got - 2010.04.16 14:36:59.
