data_PCOD8219922
_publ_section_title
;
Structure prediction by ZEFSAII (Michael W. Deem and Ramdas Pophale) SiO2 
 PCOD8219922
Probable space group: P M N A
;
_chemical_formula_sum "Si O2"
_cell_formula_units_Z 64
_cell_length_a 9.361616
_cell_length_b 23.433269
_cell_length_c 14.849228
_cell_angle_alpha 90.000000
_cell_angle_beta 90.000000
_cell_angle_gamma 90.000000
_cell_volume 3257.523644
_symmetry_space_group_name_H-M "P M N A"
_symmetry_group_IT_number 53
_symmetry_cell_setting 'orthorhombic'
loop_
_space_group_symop_operation_xyz
x,y,z
1/2-x,-y,1/2+z
x,-y,-z
1/2-x,y,1/2-z
-x,-y,-z
1/2+x,y,1/2-z
-x,y,z
1/2+x,-y,1/2+z
loop_
_atom_site_type_symbol
_atom_site_label
_atom_site_fract_x
_atom_site_fract_y
_atom_site_fract_z
Si Si1 0.164453 0.066841 0.499690
Si Si2 0.835745 0.569097 0.832816
Si Si3 0.162987 0.375935 0.490242
Si Si4 0.334018 0.847325 0.844267
Si Si5 0.658035 0.543002 0.416055
Si Si6 0.656787 0.222476 0.670907
Si Si7 0.156942 0.092773 0.829083
Si Si8 0.162497 0.241282 0.496089
O O1 0.202884 0.096098 0.403666
O O2 0.263579 0.093221 0.575842
O O3 0.000000 0.080079 0.523723
O O4 0.195440 0.000000 0.500000
O O5 0.750000 0.595185 0.750000
O O6 0.770568 0.599365 0.918473
O O7 0.816813 0.500063 0.832595
O O8 0.000000 0.587158 0.825544
O O9 0.223746 0.405888 0.582011
O O10 0.176159 0.308611 0.486553
O O11 0.000000 0.395537 0.475076
O O12 0.250000 0.847849 0.750000
O O13 0.500000 0.846308 0.818666
O O14 0.293282 0.791266 0.903802
O O15 0.668528 0.500000 0.500000
O O16 0.500000 0.570910 0.411702
O O17 0.750000 0.253107 0.750000
O O18 0.500000 0.252161 0.664190
O O19 0.633027 0.157590 0.700419
O O20 0.734117 0.222897 0.575390
O O21 0.250000 0.061924 0.750000
O O22 0.000000 0.063022 0.836411
O O23 0.000000 0.223820 0.520895
#
# Coordination Sequence:
#
# PCOD8219922 Si02
#       8
#     8   8   8   8   8   8   8   8
#     4  10  21  38  60  85 114 151 193 238 292 345
#     4  10  20  34  53  77 107 142 182 229 279 330
#     4  10  20  33  53  80 108 140 183 228 277 333
#     4  10  22  40  60  81 114 154 193 239 284 338
#     4   8  16  32  51  72 100 135 172 212 265 319
#     4  10  20  34  57  85 110 141 182 229 282 342
#     4  10  20  34  56  85 113 143 181 228 282 339
#     4  10  21  38  58  82 114 154 194 237 287 339
#
# _framework density 19.646826000000001
#
# number of rings (size 3 to 8) (size 9 to 14) (size 15 to 20)
#    0.000    2.250    1.250    2.250    0.000    7.000 
#    0.000    3.125    0.000    1.500    0.000    0.000 
#    0.000    0.000    0.000    0.000    0.000    0.000 
#
# Total GULP energy -793018.048159 kJ/mol
# GULP energy per Si atom -12390.907002 kJ/mol
# Density = 1.960211 g / cm^3
# Si number density = 19.646826 Si / 1000 Ang^3
#
#
#
# Elastic Constant Matrix: (Units=GPa)
#
#
# Indices 1 2 3 4 5 6 
#
# 1 151.2227 36.5803 75.0567 0.0000 0.0000 0.0000
# 2 36.5803 74.7324 15.1957 0.0000 0.0000 0.0000
# 3 75.0567 15.1957 113.8150 0.0000 0.0000 0.0000
# 4 0.0000 0.0000 0.0000 10.1739 0.0000 0.0000
# 5 0.0000 0.0000 0.0000 0.0000 31.3966 0.0000
# 6 0.0000 0.0000 0.0000 0.0000 0.0000 22.9573
#
#
#
# Elastic Compliance Matrix: (Units=1/GPa)
#
#
# Indices 1 2 3 4 5 6 
#
# 1 0.010867 -0.003970 -0.006636 0.000000 0.000000 0.000000
# 2 -0.003970 0.015205 0.000588 0.000000 0.000000 0.000000
# 3 -0.006636 0.000588 0.013084 0.000000 0.000000 0.000000
# 4 0.000000 0.000000 0.000000 0.098291 0.000000 0.000000
# 5 0.000000 0.000000 0.000000 0.000000 0.031851 0.000000
# 6 0.000000 0.000000 0.000000 0.000000 0.000000 0.043559
#
#
# Mechanical properties :
#
#
# Convention : Reuss Voigt Hill
#
# Bulk Modulus (GPa) = 52.30311 65.93728 59.12020
# Shear Modulus (GPa) = 20.89732 27.10139 23.99936
#
# Velocity S-wave (km/s) = 3.26490 3.71810 3.49884
# Velocity P-wave (km/s) = 6.39470 7.21571 6.81758
#
# Compressibility (1/GPa) = 0.01911932
#
# Stress axis : x y z
#
# Youngs Moduli (GPa) = 92.02335 65.76929 76.42900
#
# Poissons Ratio (x) = 0.26109 0.50720
# Poissons Ratio (y) = 0.36531 -0.04493
# Poissons Ratio (z) = 0.61069 -0.03867
#
# Static dielectric constant tensor:
#      x y z
#    x 3.976470 0.000000 0.000000 
#    y 0.000000 3.718910 0.000000 
#    z 0.000000 0.000000 3.722350 
# 
# 
# High freq. dielectric constant tensor:
#      x y z
#    x 1.777530 0.000000 0.000000 
#    y 0.000000 1.744570 0.000000 
#    z 0.000000 0.000000 1.755060 
# 
# From -- ./inp_files/21023.got.cif
#   From: 2010.03.12/outbox.cif.g09.slc.cpg/sg53_11_cif.got.tgz:21023.got - 2010.04.16 14:36:59.
