data_PCOD8219378
_publ_section_title
;
Structure prediction by ZEFSAII (Michael W. Deem and Ramdas Pophale) SiO2 
 PCOD8219378
Probable space group: P M N A
;
_chemical_formula_sum "Si O2"
_cell_formula_units_Z 32
_cell_length_a 11.944135
_cell_length_b 8.485343
_cell_length_c 16.981198
_cell_angle_alpha 90.000000
_cell_angle_beta 90.000000
_cell_angle_gamma 90.000000
_cell_volume 1721.045815
_symmetry_space_group_name_H-M "P M N A"
_symmetry_group_IT_number 53
_symmetry_cell_setting 'orthorhombic'
loop_
_space_group_symop_operation_xyz
x,y,z
1/2-x,-y,1/2+z
x,-y,-z
1/2-x,y,1/2-z
-x,-y,-z
1/2+x,y,1/2-z
-x,y,z
1/2+x,-y,1/2+z
loop_
_atom_site_type_symbol
_atom_site_label
_atom_site_fract_x
_atom_site_fract_y
_atom_site_fract_z
Si Si1 0.707396 0.104662 0.927136
Si Si2 0.769342 0.198409 0.340527
Si Si3 0.500000 0.691208 0.082289
Si Si4 0.130580 0.320869 0.021085
Si Si5 0.000000 0.339859 0.396141
O O1 0.610318 0.214265 0.892076
O O2 0.746308 0.987976 0.857585
O O3 0.811657 0.208857 0.956496
O O4 0.660710 0.000000 0.000000
O O5 0.750000 0.235858 0.250000
O O6 0.678945 0.293698 0.391799
O O7 0.893247 0.252357 0.362057
O O8 0.500000 0.524330 0.127632
O O9 0.500000 0.669387 0.989395
O O10 0.000000 0.281654 0.020430
O O11 0.156867 0.500000 0.000000
#
# Coordination Sequence:
#
# PCOD8219378 Si02
#       5
#     8   8   4   8   4
#     4  10  19  34  59  87 112 148 186 238 275 339
#     4  11  24  38  58  85 121 152 187 233 294 343
#     4  11  18  35  64  91 108 137 200 241 281 330
#     4  10  21  39  62  85 111 153 200 236 277 337
#     4  11  21  36  63  88 112 149 186 239 289 338
#
# _framework density 18.593347000000001
#
# number of rings (size 3 to 8) (size 9 to 14) (size 15 to 20)
#    0.000    1.500    5.000    2.625    1.750    4.500 
#    0.000    5.000    0.000    0.000    0.000    0.000 
#    0.000    0.000    0.000    0.000    0.000    0.000 
#
# Total GULP energy -396870.611695 kJ/mol
# GULP energy per Si atom -12402.206615 kJ/mol
# Density = 1.855103 g / cm^3
# Si number density = 18.593347 Si / 1000 Ang^3
#
#
#
# Elastic Constant Matrix: (Units=GPa)
#
#
# Indices 1 2 3 4 5 6 
#
# 1 131.6600 77.0565 50.0707 0.0000 0.0000 0.0000
# 2 77.0565 133.5919 47.1857 0.0000 0.0000 0.0000
# 3 50.0707 47.1857 90.3932 0.0000 0.0000 0.0000
# 4 0.0000 0.0000 0.0000 17.2199 0.0000 0.0000
# 5 0.0000 0.0000 0.0000 0.0000 6.8036 0.0000
# 6 0.0000 0.0000 0.0000 0.0000 0.0000 35.6614
#
#
#
# Elastic Compliance Matrix: (Units=1/GPa)
#
#
# Indices 1 2 3 4 5 6 
#
# 1 0.012480 -0.005832 -0.003868 0.000000 0.000000 0.000000
# 2 -0.005832 0.011903 -0.002983 0.000000 0.000000 0.000000
# 3 -0.003868 -0.002983 0.014763 0.000000 0.000000 0.000000
# 4 0.000000 0.000000 0.000000 0.058072 0.000000 0.000000
# 5 0.000000 0.000000 0.000000 0.000000 0.146982 0.000000
# 6 0.000000 0.000000 0.000000 0.000000 0.000000 0.028041
#
#
# Mechanical properties :
#
#
# Convention : Reuss Voigt Hill
#
# Bulk Modulus (GPa) = 72.57614 78.25231 75.41422
# Shear Modulus (GPa) = 16.54529 24.02580 20.28555
#
# Velocity S-wave (km/s) = 2.98627 3.59858 3.30663
# Velocity P-wave (km/s) = 7.14203 7.70999 7.43144
#
# Compressibility (1/GPa) = 0.01377863
#
# Stress axis : x y z
#
# Youngs Moduli (GPa) = 80.12923 84.01220 67.73814
#
# Poissons Ratio (x) = 0.48996 0.26204
# Poissons Ratio (y) = 0.46732 0.20206
# Poissons Ratio (z) = 0.30998 0.25060
#
# Static dielectric constant tensor:
#      x y z
#    x 3.319640 0.000000 0.000000 
#    y 0.000000 3.871980 0.000000 
#    z 0.000000 0.000000 3.164330 
# 
# 
# High freq. dielectric constant tensor:
#      x y z
#    x 1.729900 0.000000 0.000000 
#    y 0.000000 1.743180 0.000000 
#    z 0.000000 0.000000 1.682480 
# 
# From -- ./inp_files/21487.got.cif
#   From: 2010.03.12/outbox.cif.g09.slc.cpg/sg53_11_cif.got.tgz:21487.got - 2010.04.16 14:36:59.
