data_PCOD8219917
_publ_section_title
;
Structure prediction by ZEFSAII (Michael W. Deem and Ramdas Pophale) SiO2 
 PCOD8219917
Probable space group: P M N A
;
_chemical_formula_sum "Si O2"
_cell_formula_units_Z 64
_cell_length_a 8.824542
_cell_length_b 22.170176
_cell_length_c 17.592917
_cell_angle_alpha 90.000000
_cell_angle_beta 90.000000
_cell_angle_gamma 90.000000
_cell_volume 3441.907297
_symmetry_space_group_name_H-M "P M N A"
_symmetry_group_IT_number 53
_symmetry_cell_setting 'orthorhombic'
loop_
_space_group_symop_operation_xyz
x,y,z
1/2-x,-y,1/2+z
x,-y,-z
1/2-x,y,1/2-z
-x,-y,-z
1/2+x,y,1/2-z
-x,y,z
1/2+x,-y,1/2+z
loop_
_atom_site_type_symbol
_atom_site_label
_atom_site_fract_x
_atom_site_fract_y
_atom_site_fract_z
Si Si1 0.820946 0.945248 0.167511
Si Si2 0.175336 0.388573 0.975788
Si Si3 0.821667 0.291447 0.328420
Si Si4 0.177457 0.545279 0.174889
Si Si5 0.323527 0.253796 0.480273
Si Si6 0.679963 0.862109 0.039786
Si Si7 0.176122 0.574574 0.624131
Si Si8 0.167119 0.041097 0.426284
O O1 0.750000 0.935524 0.250000
O O2 0.756737 0.894051 0.111815
O O3 0.000000 0.939186 0.172862
O O4 0.779635 0.012120 0.135667
O O5 0.228960 0.412760 0.894518
O O6 0.000000 0.403793 0.992298
O O7 0.205354 0.317424 0.978753
O O8 0.275994 0.424295 0.036277
O O9 0.750000 0.267950 0.250000
O O10 0.748531 0.253263 0.396453
O O11 0.781065 0.361805 0.337829
O O12 0.000000 0.279921 0.328651
O O13 0.250000 0.574341 0.250000
O O14 0.231999 0.476682 0.167105
O O15 0.000000 0.544646 0.184419
O O16 0.500000 0.238512 0.473246
O O17 0.241428 0.205540 0.534114
O O18 0.500000 0.863395 0.052284
O O19 0.724036 0.894607 0.959331
O O20 0.000000 0.559949 0.630479
O O21 0.000000 0.046694 0.388595
O O22 0.155220 0.000000 0.500000
#
# Coordination Sequence:
#
# PCOD8219917 Si02
#       8
#     8   8   8   8   8   8   8   8
#     4  11  21  34  55  83 114 145 180 221 265 309
#     4   9  20  37  54  73 101 137 174 216 264 315
#     4  10  20  34  52  76 105 135 169 213 265 318
#     4  11  22  35  51  73 102 134 169 212 265 319
#     4  10  20  36  57  78 103 139 182 222 263 313
#     4  10  20  36  57  81 110 143 181 221 262 311
#     4  10  20  33  53  79 103 130 167 211 262 322
#     4   8  16  32  53  77 107 139 168 205 255 306
#
# _framework density 18.594342999999999
#
# number of rings (size 3 to 8) (size 9 to 14) (size 15 to 20)
#    0.000    2.125    0.000    4.500    0.000    8.250 
#    0.000    1.250    0.000    4.500    0.000    0.000 
#    0.000    0.000    0.000    0.000    0.000    0.000 
#
# Total GULP energy -793665.416608 kJ/mol
# GULP energy per Si atom -12401.022135 kJ/mol
# Density = 1.855202 g / cm^3
# Si number density = 18.594343 Si / 1000 Ang^3
#
#
#
# Elastic Constant Matrix: (Units=GPa)
#
#
# Indices 1 2 3 4 5 6 
#
# 1 95.9464 27.2439 53.3641 0.0000 0.0000 0.0000
# 2 27.2439 58.2070 34.0087 0.0000 0.0000 0.0000
# 3 53.3641 34.0087 121.9138 0.0000 0.0000 0.0000
# 4 0.0000 0.0000 0.0000 19.2110 0.0000 0.0000
# 5 0.0000 0.0000 0.0000 0.0000 34.8333 0.0000
# 6 0.0000 0.0000 0.0000 0.0000 0.0000 21.1488
#
#
#
# Elastic Compliance Matrix: (Units=1/GPa)
#
#
# Indices 1 2 3 4 5 6 
#
# 1 0.014398 -0.003652 -0.005284 0.000000 0.000000 0.000000
# 2 -0.003652 0.021452 -0.004386 0.000000 0.000000 0.000000
# 3 -0.005284 -0.004386 0.011739 0.000000 0.000000 0.000000
# 4 0.000000 0.000000 0.000000 0.052054 0.000000 0.000000
# 5 0.000000 0.000000 0.000000 0.000000 0.028708 0.000000
# 6 0.000000 0.000000 0.000000 0.000000 0.000000 0.047284
#
#
# Mechanical properties :
#
#
# Convention : Reuss Voigt Hill
#
# Bulk Modulus (GPa) = 47.74140 56.14452 51.94296
# Shear Modulus (GPa) = 23.89387 25.80199 24.84793
#
# Velocity S-wave (km/s) = 3.58859 3.72913 3.65953
# Velocity P-wave (km/s) = 6.54993 6.98583 6.77139
#
# Compressibility (1/GPa) = 0.02094618
#
# Stress axis : x y z
#
# Youngs Moduli (GPa) = 69.45342 46.61625 85.18875
#
# Poissons Ratio (x) = 0.17024 0.45010
# Poissons Ratio (y) = 0.25364 0.37360
# Poissons Ratio (z) = 0.36696 0.20444
#
# Static dielectric constant tensor:
#      x y z
#    x 3.461990 0.000000 0.000000 
#    y 0.000000 3.485070 0.000000 
#    z 0.000000 0.000000 3.456800 
# 
# 
# High freq. dielectric constant tensor:
#      x y z
#    x 1.731580 0.000000 0.000000 
#    y 0.000000 1.707520 0.000000 
#    z 0.000000 0.000000 1.717530 
# 
# From -- ./inp_files/20890.got.cif
#   From: 2010.03.12/outbox.cif.g09.slc.cpg/sg53_11_cif.got.tgz:20890.got - 2010.04.16 14:36:59.
