data_PCOD8219279
_publ_section_title
;
Structure prediction by ZEFSAII (Michael W. Deem and Ramdas Pophale) SiO2 
 PCOD8219279
Probable space group: P M N A
;
_chemical_formula_sum "Si O2"
_cell_formula_units_Z 64
_cell_length_a 8.870933
_cell_length_b 11.903203
_cell_length_c 31.571034
_cell_angle_alpha 90.000000
_cell_angle_beta 90.000000
_cell_angle_gamma 90.000000
_cell_volume 3333.664922
_symmetry_space_group_name_H-M "P M N A"
_symmetry_group_IT_number 53
_symmetry_cell_setting 'orthorhombic'
loop_
_space_group_symop_operation_xyz
x,y,z
1/2-x,-y,1/2+z
x,-y,-z
1/2-x,y,1/2-z
-x,-y,-z
1/2+x,y,1/2-z
-x,y,z
1/2+x,-y,1/2+z
loop_
_atom_site_type_symbol
_atom_site_label
_atom_site_fract_x
_atom_site_fract_y
_atom_site_fract_z
Si Si1 0.323364 0.691610 0.792693
Si Si2 0.175081 0.649644 0.615368
Si Si3 0.821690 0.513435 0.049296
Si Si4 0.333543 0.868300 0.996381
Si Si5 0.326154 0.921978 0.367732
Si Si6 0.323495 0.260347 0.919763
Si Si7 0.321775 0.052851 0.207250
Si Si8 0.829545 0.144788 0.085625
O O1 0.250000 0.638729 0.750000
O O2 0.500000 0.692827 0.784904
O O3 0.286009 0.618127 0.835316
O O4 0.264363 0.819116 0.799663
O O5 0.274756 0.590576 0.579123
O O6 0.212953 0.782372 0.613325
O O7 0.000000 0.627216 0.605849
O O8 0.744255 0.617919 0.072131
O O9 0.000000 0.527959 0.050220
O O10 0.767270 0.500000 0.000000
O O11 0.500000 0.823855 0.982691
O O12 0.207355 0.830782 0.963280
O O13 0.284770 0.815463 0.040253
O O14 0.339125 0.000000 0.000000
O O15 0.500000 0.903869 0.355884
O O16 0.255782 0.801773 0.380409
O O17 0.236470 0.969739 0.328372
O O18 0.306909 0.012924 0.405380
O O19 0.500000 0.271956 0.910359
O O20 0.250000 0.005197 0.250000
O O21 0.500000 0.046548 0.209219
O O22 0.000000 0.183312 0.095191
#
# Coordination Sequence:
#
# PCOD8219279 Si02
#       8
#     8   8   8   8   8   8   8   8
#     4   9  19  33  54  85 119 153 189 236 288 347
#     4  11  22  38  60  85 115 153 197 241 291 348
#     4  11  25  44  63  85 115 153 200 252 303 356
#     4  10  20  34  52  76 108 145 185 229 279 335
#     4  11  22  35  54  83 118 154 191 235 287 347
#     4  11  23  39  60  83 111 151 195 240 288 343
#     4  10  19  34  55  83 120 158 194 234 286 348
#     4  11  22  33  51  81 115 151 189 232 286 339
#
# _framework density 19.198091999999999
#
# number of rings (size 3 to 8) (size 9 to 14) (size 15 to 20)
#    0.000    1.500    2.500    3.000    0.000    6.750 
#    0.000    0.000    0.000    0.750    0.000    3.500 
#    0.000    0.000    0.000    0.000    0.000    0.000 
#
# Total GULP energy -793387.710844 kJ/mol
# GULP energy per Si atom -12396.682982 kJ/mol
# Density = 1.915440 g / cm^3
# Si number density = 19.198092 Si / 1000 Ang^3
#
#
#
# Elastic Constant Matrix: (Units=GPa)
#
#
# Indices 1 2 3 4 5 6 
#
# 1 76.9537 21.3851 43.6788 0.0000 0.0000 0.0000
# 2 21.3851 58.7695 19.9558 0.0000 0.0000 0.0000
# 3 43.6788 19.9558 115.7765 0.0000 0.0000 0.0000
# 4 0.0000 0.0000 0.0000 35.8639 0.0000 0.0000
# 5 0.0000 0.0000 0.0000 0.0000 36.7523 0.0000
# 6 0.0000 0.0000 0.0000 0.0000 0.0000 29.5178
#
#
#
# Elastic Compliance Matrix: (Units=1/GPa)
#
#
# Indices 1 2 3 4 5 6 
#
# 1 0.017542 -0.004393 -0.005861 0.000000 0.000000 0.000000
# 2 -0.004393 0.019174 -0.001647 0.000000 0.000000 0.000000
# 3 -0.005861 -0.001647 0.011132 0.000000 0.000000 0.000000
# 4 0.000000 0.000000 0.000000 0.027883 0.000000 0.000000
# 5 0.000000 0.000000 0.000000 0.000000 0.027209 0.000000
# 6 0.000000 0.000000 0.000000 0.000000 0.000000 0.033878
#
#
# Mechanical properties :
#
#
# Convention : Reuss Voigt Hill
#
# Bulk Modulus (GPa) = 41.58820 46.83766 44.21293
# Shear Modulus (GPa) = 29.64949 31.52544 30.58746
#
# Velocity S-wave (km/s) = 3.93415 4.05670 3.99589
# Velocity P-wave (km/s) = 6.50741 6.81120 6.66103
#
# Compressibility (1/GPa) = 0.02404528
#
# Stress axis : x y z
#
# Youngs Moduli (GPa) = 57.00498 52.15492 89.82757
#
# Poissons Ratio (x) = 0.22913 0.52647
# Poissons Ratio (y) = 0.25043 0.14799
# Poissons Ratio (z) = 0.33410 0.08592
#
# Static dielectric constant tensor:
#      x y z
#    x 3.541790 0.000000 0.000000 
#    y 0.000000 3.615180 0.000000 
#    z 0.000000 0.000000 2.379730 
# 
# 
# High freq. dielectric constant tensor:
#      x y z
#    x 1.754860 0.000000 0.000000 
#    y 0.000000 1.717150 0.000000 
#    z 0.000000 0.000000 1.749940 
# 
# From -- ./inp_files/38210.got.cif
#   From: 2010.03.12/outbox.cif.g09.slc.cpg/sg53_20_cif.got.tgz:38210.got - 2010.04.16 14:36:59.
