data_PCOD8219122
_publ_section_title
;
Structure prediction by ZEFSAII (Michael W. Deem and Ramdas Pophale) SiO2 
 PCOD8219122
Probable space group: P M N A
;
_chemical_formula_sum "Si O2"
_cell_formula_units_Z 56
_cell_length_a 8.759259
_cell_length_b 22.535420
_cell_length_c 14.221021
_cell_angle_alpha 90.000000
_cell_angle_beta 90.000000
_cell_angle_gamma 90.000000
_cell_volume 2807.138253
_symmetry_space_group_name_H-M "P M N A"
_symmetry_group_IT_number 53
_symmetry_cell_setting 'orthorhombic'
loop_
_space_group_symop_operation_xyz
x,y,z
1/2-x,-y,1/2+z
x,-y,-z
1/2-x,y,1/2-z
-x,-y,-z
1/2+x,y,1/2-z
-x,y,z
1/2+x,-y,1/2+z
loop_
_atom_site_type_symbol
_atom_site_label
_atom_site_fract_x
_atom_site_fract_y
_atom_site_fract_z
Si Si1 0.169553 0.519197 0.893232
Si Si2 0.320082 0.754260 0.852857
Si Si3 0.318323 0.967296 0.848066
Si Si4 0.178798 0.402576 0.657142
Si Si5 0.319703 0.634125 0.952597
Si Si6 0.675821 0.135966 0.457213
Si Si7 0.176292 0.905787 0.156770
O O1 0.273234 0.471671 0.839411
O O2 0.244464 0.584170 0.886403
O O3 0.000000 0.520878 0.848483
O O4 0.160009 0.500000 0.000000
O O5 0.250000 0.752670 0.750000
O O6 0.500000 0.756556 0.841938
O O7 0.266794 0.697084 0.911962
O O8 0.266920 0.811196 0.909887
O O9 0.250000 0.943545 0.750000
O O10 0.500000 0.962387 0.847940
O O11 0.248812 0.926631 0.929228
O O12 0.267769 0.034405 0.866792
O O13 0.250000 0.371093 0.750000
O O14 0.237400 0.371094 0.561145
O O15 0.000000 0.397170 0.664842
O O16 0.500000 0.624870 0.948280
O O17 0.500000 0.138730 0.425461
O O18 0.691115 0.140130 0.570493
O O19 0.250000 0.875955 0.250000
O O20 0.000000 0.922367 0.175989
#
# Coordination Sequence:
#
# PCOD8219122 Si02
#       7
#     8   8   8   8   8   8   8
#     4   9  17  30  51  79 109 142 180 222 268 319
#     4  11  24  42  62  83 108 141 184 231 278 329
#     4  11  21  34  56  85 117 151 186 227 275 328
#     4  10  19  33  54  81 113 147 183 224 273 327
#     4   9  20  38  57  78 109 148 185 226 276 328
#     4  11  23  39  58  82 113 148 186 229 277 326
#     4  10  21  37  58  84 115 148 183 226 274 328
#
# _framework density 19.949141999999998
#
# number of rings (size 3 to 8) (size 9 to 14) (size 15 to 20)
#    0.000    1.857    0.000    5.143    0.000    8.000 
#    0.000    2.143    0.000    3.429    0.000    0.000 
#    0.000    0.000    0.000    0.000    0.000    0.000 
#
# Total GULP energy -694405.747711 kJ/mol
# GULP energy per Si atom -12400.102638 kJ/mol
# Density = 1.990374 g / cm^3
# Si number density = 19.949142 Si / 1000 Ang^3
#
#
#
# Elastic Constant Matrix: (Units=GPa)
#
#
# Indices 1 2 3 4 5 6 
#
# 1 59.8269 24.5469 30.4276 0.0000 0.0000 0.0000
# 2 24.5469 69.7549 52.6771 0.0000 0.0000 0.0000
# 3 30.4276 52.6771 122.4995 0.0000 0.0000 0.0000
# 4 0.0000 0.0000 0.0000 25.1668 0.0000 0.0000
# 5 0.0000 0.0000 0.0000 0.0000 33.1715 0.0000
# 6 0.0000 0.0000 0.0000 0.0000 0.0000 17.4697
#
#
#
# Elastic Compliance Matrix: (Units=1/GPa)
#
#
# Indices 1 2 3 4 5 6 
#
# 1 0.020210 -0.004918 -0.002905 0.000000 0.000000 0.000000
# 2 -0.004918 0.022427 -0.008422 0.000000 0.000000 0.000000
# 3 -0.002905 -0.008422 0.012507 0.000000 0.000000 0.000000
# 4 0.000000 0.000000 0.000000 0.039735 0.000000 0.000000
# 5 0.000000 0.000000 0.000000 0.000000 0.030146 0.000000
# 6 0.000000 0.000000 0.000000 0.000000 0.000000 0.057242
#
#
# Mechanical properties :
#
#
# Convention : Reuss Voigt Hill
#
# Bulk Modulus (GPa) = 44.14503 51.93162 48.03832
# Shear Modulus (GPa) = 22.49115 24.79024 23.64070
#
# Velocity S-wave (km/s) = 3.36136 3.52898 3.44619
# Velocity P-wave (km/s) = 6.10260 6.53402 6.32199
#
# Compressibility (1/GPa) = 0.02265261
#
# Stress axis : x y z
#
# Youngs Moduli (GPa) = 49.47962 44.58917 79.95722
#
# Poissons Ratio (x) = 0.21930 0.23229
# Poissons Ratio (y) = 0.24335 0.67343
# Poissons Ratio (z) = 0.14375 0.37555
#
# Static dielectric constant tensor:
#      x y z
#    x 3.759610 0.000000 0.000000 
#    y 0.000000 3.435900 0.000000 
#    z 0.000000 0.000000 3.978000 
# 
# 
# High freq. dielectric constant tensor:
#      x y z
#    x 1.790480 0.000000 0.000000 
#    y 0.000000 1.750080 0.000000 
#    z 0.000000 0.000000 1.791090 
# 
# From -- ./inp_files/20601.got.cif
#   From: 2010.03.12/outbox.cif.g09.slc.cpg/sg53_11_cif.got.tgz:20601.got - 2010.04.16 14:36:59.
