data_PCOD8219469
_publ_section_title
;
Structure prediction by ZEFSAII (Michael W. Deem and Ramdas Pophale) SiO2 
 PCOD8219469
Probable space group: P M N A
;
_chemical_formula_sum "Si O2"
_cell_formula_units_Z 64
_cell_length_a 8.949774
_cell_length_b 23.822600
_cell_length_c 15.445064
_cell_angle_alpha 90.000000
_cell_angle_beta 90.000000
_cell_angle_gamma 90.000000
_cell_volume 3292.994001
_symmetry_space_group_name_H-M "P M N A"
_symmetry_group_IT_number 53
_symmetry_cell_setting 'orthorhombic'
loop_
_space_group_symop_operation_xyz
x,y,z
1/2-x,-y,1/2+z
x,-y,-z
1/2-x,y,1/2-z
-x,-y,-z
1/2+x,y,1/2-z
-x,y,z
1/2+x,-y,1/2+z
loop_
_atom_site_type_symbol
_atom_site_label
_atom_site_fract_x
_atom_site_fract_y
_atom_site_fract_z
Si Si1 0.677541 0.362738 0.161660
Si Si2 0.172309 0.249811 0.588228
Si Si3 0.675632 0.130502 0.340070
Si Si4 0.326387 0.368775 0.837553
Si Si5 0.824868 0.252814 0.093339
Si Si6 0.326689 0.869622 0.161905
Si Si7 0.822191 0.563179 0.501130
Si Si8 0.173548 0.934269 0.506602
O O1 0.750000 0.385309 0.250000
O O2 0.500000 0.362173 0.169824
O O3 0.732702 0.299988 0.143392
O O4 0.733924 0.404433 0.086370
O O5 0.206897 0.303323 0.647458
O O6 0.280303 0.250994 0.506600
O O7 0.208561 0.195665 0.645613
O O8 0.000000 0.250163 0.555937
O O9 0.750000 0.113190 0.250000
O O10 0.500000 0.122671 0.331942
O O11 0.719327 0.194075 0.363327
O O12 0.734307 0.088749 0.413080
O O13 0.250000 0.389540 0.750000
O O14 0.500000 0.381055 0.828107
O O15 0.259390 0.404395 0.917297
O O16 0.000000 0.265668 0.101178
O O17 0.250000 0.889876 0.250000
O O18 0.500000 0.881271 0.173896
O O19 0.265184 0.905631 0.081229
O O20 0.758512 0.500000 0.500000
O O21 0.000000 0.563320 0.499746
O O22 0.000000 0.919023 0.520363
O O23 0.200822 0.000000 0.500000
#
# Coordination Sequence:
#
# PCOD8219469 Si02
#       8
#     8   8   8   8   8   8   8   8
#     4  11  22  38  60  86 118 154 193 238 290 349
#     4  10  19  35  58  84 114 152 189 231 291 349
#     4  11  24  40  61  89 119 155 195 241 295 351
#     4  10  20  35  56  84 113 147 188 228 282 339
#     4  11  22  36  59  90 119 151 192 239 294 350
#     4  10  21  36  58  85 117 152 188 235 287 344
#     4   9  19  37  59  81 111 153 195 235 284 342
#     4  10  22  41  63  87 117 155 199 244 291 341
#
# _framework density 19.435200999999999
#
# number of rings (size 3 to 8) (size 9 to 14) (size 15 to 20)
#    0.000    1.750    2.500    1.875    0.000    5.250 
#    0.000    1.250    0.000    2.625    0.000    0.000 
#    0.000    0.000    0.000    0.000    0.000    0.000 
#
# Total GULP energy -793875.569628 kJ/mol
# GULP energy per Si atom -12404.305775 kJ/mol
# Density = 1.939097 g / cm^3
# Si number density = 19.435201 Si / 1000 Ang^3
#
#
#
# Elastic Constant Matrix: (Units=GPa)
#
#
# Indices 1 2 3 4 5 6 
#
# 1 55.7045 36.9016 50.3372 0.0000 0.0000 0.0000
# 2 36.9016 121.6851 64.1679 0.0000 0.0000 0.0000
# 3 50.3372 64.1679 179.9710 0.0000 0.0000 0.0000
# 4 0.0000 0.0000 0.0000 10.8504 0.0000 0.0000
# 5 0.0000 0.0000 0.0000 0.0000 40.2589 0.0000
# 6 0.0000 0.0000 0.0000 0.0000 0.0000 5.7939
#
#
#
# Elastic Compliance Matrix: (Units=1/GPa)
#
#
# Indices 1 2 3 4 5 6 
#
# 1 0.026323 -0.005050 -0.005562 0.000000 0.000000 0.000000
# 2 -0.005050 0.011089 -0.002542 0.000000 0.000000 0.000000
# 3 -0.005562 -0.002542 0.008018 0.000000 0.000000 0.000000
# 4 0.000000 0.000000 0.000000 0.092162 0.000000 0.000000
# 5 0.000000 0.000000 0.000000 0.000000 0.024839 0.000000
# 6 0.000000 0.000000 0.000000 0.000000 0.000000 0.172596
#
#
# Mechanical properties :
#
#
# Convention : Reuss Voigt Hill
#
# Bulk Modulus (GPa) = 52.28890 73.35266 62.82078
# Shear Modulus (GPa) = 13.59767 25.11089 19.35428
#
# Velocity S-wave (km/s) = 2.64794 3.59838 3.15911
# Velocity P-wave (km/s) = 6.02590 7.42217 6.76018
#
# Compressibility (1/GPa) = 0.01912452
#
# Stress axis : x y z
#
# Youngs Moduli (GPa) = 37.98939 90.17561 124.71440
#
# Poissons Ratio (x) = 0.45535 0.69367
# Poissons Ratio (y) = 0.19183 0.31697
# Poissons Ratio (z) = 0.21130 0.22919
#
# Static dielectric constant tensor:
#      x y z
#    x 3.358240 0.000000 0.000000 
#    y 0.000000 3.651580 0.000000 
#    z 0.000000 0.000000 3.638650 
# 
# 
# High freq. dielectric constant tensor:
#      x y z
#    x 1.739970 0.000000 0.000000 
#    y 0.000000 1.757740 0.000000 
#    z 0.000000 0.000000 1.770120 
# 
# From -- ./inp_files/21031.got.cif
#   From: 2010.03.12/outbox.cif.g09.slc.cpg/sg53_11_cif.got.tgz:21031.got - 2010.04.16 14:36:59.
