data_PCOD8219180
_publ_section_title
;
Structure prediction by ZEFSAII (Michael W. Deem and Ramdas Pophale) SiO2 
 PCOD8219180
Probable space group: P M N A
;
_chemical_formula_sum "Si O2"
_cell_formula_units_Z 56
_cell_length_a 34.320346
_cell_length_b 4.949302
_cell_length_c 16.430398
_cell_angle_alpha 90.000000
_cell_angle_beta 90.000000
_cell_angle_gamma 90.000000
_cell_volume 2790.896274
_symmetry_space_group_name_H-M "P M N A"
_symmetry_group_IT_number 53
_symmetry_cell_setting 'orthorhombic'
loop_
_space_group_symop_operation_xyz
x,y,z
1/2-x,-y,1/2+z
x,-y,-z
1/2-x,y,1/2-z
-x,-y,-z
1/2+x,y,1/2-z
-x,y,z
1/2+x,-y,1/2+z
loop_
_atom_site_type_symbol
_atom_site_label
_atom_site_fract_x
_atom_site_fract_y
_atom_site_fract_z
Si Si1 0.615981 0.076633 0.644775
Si Si2 0.109440 0.251140 0.552909
Si Si3 0.456289 0.632055 0.176155
Si Si4 0.794859 0.450105 0.247844
Si Si5 0.657803 0.572444 0.588311
Si Si6 0.956712 0.139578 0.215577
Si Si7 0.337419 0.941985 0.194383
O O1 0.621138 0.373662 0.606936
O O2 0.628559 0.086563 0.739119
O O3 0.642597 0.877922 0.591028
O O4 0.571629 0.968190 0.643901
O O5 0.126485 0.500000 0.500000
O O6 0.073519 0.382346 0.601800
O O7 0.144145 0.129674 0.607800
O O8 0.093752 0.000000 0.500000
O O9 0.500000 0.548391 0.147271
O O10 0.442534 0.427369 0.248060
O O11 0.456645 0.934171 0.209381
O O12 0.750000 0.368116 0.250000
O O13 0.807938 0.461243 0.153768
O O14 0.801449 0.742941 0.286902
O O15 0.820346 0.243586 0.302013
O O16 0.675304 0.500000 0.500000
O O17 0.000000 0.165017 0.177486
#
# Coordination Sequence:
#
# PCOD8219180 Si02
#       7
#     8   8   8   8   8   8   8
#     4  10  19  34  61  80 110 151 184 235 281 336
#     4  12  24  36  55  80 119 161 198 247 293 339
#     4  10  21  35  53  78 113 152 199 253 294 335
#     4  10  21  39  64  88 113 150 186 231 282 347
#     4  10  21  36  58  90 116 142 184 232 285 336
#     4  10  19  33  56  83 109 144 197 248 290 335
#     4  10  21  37  58  83 112 145 199 232 276 348
#
# _framework density 20.065238000000001
#
# number of rings (size 3 to 8) (size 9 to 14) (size 15 to 20)
#    0.000    1.714    1.429    3.429    4.000    0.571 
#    0.000    2.143    0.000    4.286    0.000    0.000 
#    0.000    0.000    0.000    0.000    0.000    0.000 
#
# Total GULP energy -694462.510649 kJ/mol
# GULP energy per Si atom -12401.116262 kJ/mol
# Density = 2.001957 g / cm^3
# Si number density = 20.065238 Si / 1000 Ang^3
#
#
#
# Elastic Constant Matrix: (Units=GPa)
#
#
# Indices 1 2 3 4 5 6 
#
# 1 91.5397 10.2614 37.2164 0.0000 0.0000 0.0000
# 2 10.2614 84.2103 19.7348 0.0000 0.0000 0.0000
# 3 37.2164 19.7348 85.7915 0.0000 0.0000 0.0000
# 4 0.0000 0.0000 0.0000 28.1811 0.0000 0.0000
# 5 0.0000 0.0000 0.0000 0.0000 14.4693 0.0000
# 6 0.0000 0.0000 0.0000 0.0000 0.0000 21.7544
#
#
#
# Elastic Compliance Matrix: (Units=1/GPa)
#
#
# Indices 1 2 3 4 5 6 
#
# 1 0.013270 -0.000283 -0.005691 0.000000 0.000000 0.000000
# 2 -0.000283 0.012558 -0.002766 0.000000 0.000000 0.000000
# 3 -0.005691 -0.002766 0.014761 0.000000 0.000000 0.000000
# 4 0.000000 0.000000 0.000000 0.035485 0.000000 0.000000
# 5 0.000000 0.000000 0.000000 0.000000 0.069112 0.000000
# 6 0.000000 0.000000 0.000000 0.000000 0.000000 0.045968
#
#
# Mechanical properties :
#
#
# Convention : Reuss Voigt Hill
#
# Bulk Modulus (GPa) = 43.27478 43.99628 43.63553
# Shear Modulus (GPa) = 23.11214 25.83622 24.47418
#
# Velocity S-wave (km/s) = 3.39757 3.59222 3.49625
# Velocity P-wave (km/s) = 6.08319 6.25936 6.17191
#
# Compressibility (1/GPa) = 0.02310815
#
# Stress axis : x y z
#
# Youngs Moduli (GPa) = 75.35889 79.63230 67.74474
#
# Poissons Ratio (x) = 0.02255 0.38556
# Poissons Ratio (y) = 0.02134 0.18737
# Poissons Ratio (z) = 0.42889 0.22025
#
# Static dielectric constant tensor:
#      x y z
#    x 3.465540 0.000000 0.000000 
#    y 0.000000 3.828950 0.000000 
#    z 0.000000 0.000000 3.384380 
# 
# 
# High freq. dielectric constant tensor:
#      x y z
#    x 1.765570 0.000000 0.000000 
#    y 0.000000 1.808150 0.000000 
#    z 0.000000 0.000000 1.752670 
# 
# From -- ./inp_files/25123.got.cif
#   From: 2010.03.12/outbox.cif.g09.slc.cpg/sg53_13_cif.got.tgz:25123.got - 2010.04.16 14:36:59.
