data_PCOD8219389
_publ_section_title
;
Structure prediction by ZEFSAII (Michael W. Deem and Ramdas Pophale) SiO2 
 PCOD8219389
Probable space group: P M N A
;
_chemical_formula_sum "Si O2"
_cell_formula_units_Z 56
_cell_length_a 8.790147
_cell_length_b 16.366132
_cell_length_c 19.260257
_cell_angle_alpha 90.000000
_cell_angle_beta 90.000000
_cell_angle_gamma 90.000000
_cell_volume 2770.794172
_symmetry_space_group_name_H-M "P M N A"
_symmetry_group_IT_number 53
_symmetry_cell_setting 'orthorhombic'
loop_
_space_group_symop_operation_xyz
x,y,z
1/2-x,-y,1/2+z
x,-y,-z
1/2-x,y,1/2-z
-x,-y,-z
1/2+x,y,1/2-z
-x,y,z
1/2+x,-y,1/2+z
loop_
_atom_site_type_symbol
_atom_site_label
_atom_site_fract_x
_atom_site_fract_y
_atom_site_fract_z
Si Si1 0.822529 0.188151 0.676851
Si Si2 0.820253 0.642144 0.826194
Si Si3 0.829190 0.315362 0.914738
Si Si4 0.178093 0.932446 0.556062
Si Si5 0.673163 0.235353 0.443414
Si Si6 0.176626 0.501083 0.076831
Si Si7 0.679255 0.978911 0.323904
O O1 0.750000 0.212329 0.750000
O O2 0.795094 0.261000 0.623705
O O3 0.000000 0.172045 0.686266
O O4 0.746183 0.106105 0.646665
O O5 0.750000 0.648388 0.750000
O O6 0.778012 0.723501 0.870356
O O7 0.752764 0.563743 0.868412
O O8 0.000000 0.633747 0.817540
O O9 0.799566 0.408485 0.892475
O O10 0.000000 0.288857 0.892406
O O11 0.810591 0.305043 0.997667
O O12 0.220187 0.840372 0.534195
O O13 0.272677 0.948315 0.625752
O O14 0.000000 0.939285 0.570674
O O15 0.229282 0.000000 0.500000
O O16 0.500000 0.203660 0.439173
O O17 0.000000 0.478193 0.067805
O O18 0.253430 0.500000 0.000000
O O19 0.750000 0.999257 0.250000
O O20 0.500000 0.972205 0.317387
#
# Coordination Sequence:
#
# PCOD8219389 Si02
#       7
#     8   8   8   8   8   8   8
#     4  11  22  37  56  82 118 154 191 237 292 350
#     4  10  21  38  60  88 120 156 199 246 298 351
#     4  10  19  34  60  88 114 150 197 243 292 350
#     4  11  24  40  59  86 121 157 196 245 299 352
#     4  10  21  37  59  85 114 154 201 245 293 353
#     4   9  16  33  61  87 113 151 198 244 288 347
#     4  11  22  39  62  85 113 150 194 241 294 355
#
# _framework density 20.210811
#
# number of rings (size 3 to 8) (size 9 to 14) (size 15 to 20)
#    0.000    1.714    1.429    4.714    0.000    5.714 
#    0.000    3.571    0.000    0.857    0.000    0.000 
#    0.000    0.000    0.000    0.000    0.000    0.000 
#
# Total GULP energy -694457.111452 kJ/mol
# GULP energy per Si atom -12401.019847 kJ/mol
# Density = 2.016481 g / cm^3
# Si number density = 20.210811 Si / 1000 Ang^3
#
#
#
# Elastic Constant Matrix: (Units=GPa)
#
#
# Indices 1 2 3 4 5 6 
#
# 1 97.4215 33.0706 33.2346 0.0000 0.0000 0.0000
# 2 33.0706 105.2511 48.6831 0.0000 0.0000 0.0000
# 3 33.2346 48.6831 90.2220 0.0000 0.0000 0.0000
# 4 0.0000 0.0000 0.0000 36.8340 0.0000 0.0000
# 5 0.0000 0.0000 0.0000 0.0000 31.1450 0.0000
# 6 0.0000 0.0000 0.0000 0.0000 0.0000 19.6614
#
#
#
# Elastic Compliance Matrix: (Units=1/GPa)
#
#
# Indices 1 2 3 4 5 6 
#
# 1 0.012154 -0.002329 -0.003220 0.000000 0.000000 0.000000
# 2 -0.002329 0.013108 -0.006215 0.000000 0.000000 0.000000
# 3 -0.003220 -0.006215 0.015623 0.000000 0.000000 0.000000
# 4 0.000000 0.000000 0.000000 0.027149 0.000000 0.000000
# 5 0.000000 0.000000 0.000000 0.000000 0.032108 0.000000
# 6 0.000000 0.000000 0.000000 0.000000 0.000000 0.050861
#
#
# Mechanical properties :
#
#
# Convention : Reuss Voigt Hill
#
# Bulk Modulus (GPa) = 57.61562 58.09679 57.85620
# Shear Modulus (GPa) = 27.72901 29.38851 28.55876
#
# Velocity S-wave (km/s) = 3.70806 3.81740 3.76313
# Velocity P-wave (km/s) = 6.84851 6.94535 6.89710
#
# Compressibility (1/GPa) = 0.01735641
#
# Stress axis : x y z
#
# Youngs Moduli (GPa) = 82.27788 76.29194 64.00676
#
# Poissons Ratio (x) = 0.17771 0.20611
# Poissons Ratio (y) = 0.19166 0.39778
# Poissons Ratio (z) = 0.26495 0.47413
#
# Static dielectric constant tensor:
#      x y z
#    x 3.418650 0.000000 0.000000 
#    y 0.000000 3.652990 0.000000 
#    z 0.000000 0.000000 3.675490 
# 
# 
# High freq. dielectric constant tensor:
#      x y z
#    x 1.767230 0.000000 0.000000 
#    y 0.000000 1.794250 0.000000 
#    z 0.000000 0.000000 1.791410 
# 
# From -- ./inp_files/30854.got.cif
#   From: 2010.03.12/outbox.cif.g09.slc.cpg/sg53_16_cif.got.tgz:30854.got - 2010.04.16 14:36:59.
