data_PCOD8219147
_publ_section_title
;
Structure prediction by ZEFSAII (Michael W. Deem and Ramdas Pophale) SiO2 
 PCOD8219147
Probable space group: P M N A
;
_chemical_formula_sum "Si O2"
_cell_formula_units_Z 48
_cell_length_a 18.348595
_cell_length_b 8.902208
_cell_length_c 15.041557
_cell_angle_alpha 90.000000
_cell_angle_beta 90.000000
_cell_angle_gamma 90.000000
_cell_volume 2456.933183
_symmetry_space_group_name_H-M "P M N A"
_symmetry_group_IT_number 53
_symmetry_cell_setting 'orthorhombic'
loop_
_space_group_symop_operation_xyz
x,y,z
1/2-x,-y,1/2+z
x,-y,-z
1/2-x,y,1/2-z
-x,-y,-z
1/2+x,y,1/2-z
-x,y,z
1/2+x,-y,1/2+z
loop_
_atom_site_type_symbol
_atom_site_label
_atom_site_fract_x
_atom_site_fract_y
_atom_site_fract_z
Si Si1 0.416354 0.932765 0.729594
Si Si2 0.654790 0.421416 0.090095
Si Si3 0.713060 0.115691 0.657168
Si Si4 0.307831 0.439515 0.596013
Si Si5 0.083037 0.412908 0.227995
Si Si6 0.843331 0.926454 0.587998
O O1 0.500000 0.974940 0.710202
O O2 0.399432 0.759994 0.705423
O O3 0.400223 0.958376 0.833505
O O4 0.365278 0.037912 0.670406
O O5 0.730903 0.489572 0.123135
O O6 0.596427 0.446520 0.167886
O O7 0.668231 0.248075 0.069758
O O8 0.626260 0.500000 0.000000
O O9 0.750000 0.165298 0.750000
O O10 0.700935 0.259661 0.594729
O O11 0.764516 0.996920 0.608186
O O12 0.333130 0.500000 0.500000
O O13 0.367659 0.480644 0.668554
O O14 0.000000 0.452872 0.206772
O O15 0.877504 0.000000 0.500000
#
# Coordination Sequence:
#
# PCOD8219147 Si02
#       6
#     8   8   8   8   8   8
#     4   9  20  37  55  77 106 144 182 217 269 326
#     4  10  20  35  57  84 111 143 182 222 270 326
#     4  10  20  35  56  80 106 140 184 229 272 322
#     4  11  22  36  56  81 109 141 183 232 276 322
#     4  10  21  38  57  78 112 150 181 221 272 327
#     4  10  19  33  55  81 109 139 175 222 270 320
#
# _framework density 19.536550999999999
#
# number of rings (size 3 to 8) (size 9 to 14) (size 15 to 20)
#    0.000    2.000    0.000    4.500    0.000    5.667 
#    0.000    0.000    0.000    2.500    0.000    0.000 
#    0.000    0.000    0.000    0.000    0.000    0.000 
#
# Total GULP energy -595349.699326 kJ/mol
# GULP energy per Si atom -12403.118736 kJ/mol
# Density = 1.949208 g / cm^3
# Si number density = 19.536551 Si / 1000 Ang^3
#
#
#
# Elastic Constant Matrix: (Units=GPa)
#
#
# Indices 1 2 3 4 5 6 
#
# 1 67.1743 23.3765 2.9862 0.0000 0.0000 0.0000
# 2 23.3765 112.2878 32.8242 0.0000 0.0000 0.0000
# 3 2.9862 32.8242 63.3167 0.0000 0.0000 0.0000
# 4 0.0000 0.0000 0.0000 38.7961 0.0000 0.0000
# 5 0.0000 0.0000 0.0000 0.0000 20.0962 0.0000
# 6 0.0000 0.0000 0.0000 0.0000 0.0000 20.5506
#
#
#
# Elastic Compliance Matrix: (Units=1/GPa)
#
#
# Indices 1 2 3 4 5 6 
#
# 1 0.016121 -0.003694 0.001154 0.000000 0.000000 0.000000
# 2 -0.003694 0.011343 -0.005706 0.000000 0.000000 0.000000
# 3 0.001154 -0.005706 0.018697 0.000000 0.000000 0.000000
# 4 0.000000 0.000000 0.000000 0.025776 0.000000 0.000000
# 5 0.000000 0.000000 0.000000 0.000000 0.049761 0.000000
# 6 0.000000 0.000000 0.000000 0.000000 0.000000 0.048660
#
#
# Mechanical properties :
#
#
# Convention : Reuss Voigt Hill
#
# Bulk Modulus (GPa) = 33.70357 40.12807 36.91582
# Shear Modulus (GPa) = 25.41458 28.12803 26.77131
#
# Velocity S-wave (km/s) = 3.61068 3.79854 3.70580
# Velocity P-wave (km/s) = 5.88826 6.31056 6.10306
#
# Compressibility (1/GPa) = 0.02967045
#
# Stress axis : x y z
#
# Youngs Moduli (GPa) = 62.03220 88.16317 53.48390
#
# Poissons Ratio (x) = 0.32563 -0.06175
# Poissons Ratio (y) = 0.22912 0.30518
# Poissons Ratio (z) = -0.07162 0.50306
#
# Static dielectric constant tensor:
#      x y z
#    x 3.395220 0.000000 0.000000 
#    y 0.000000 3.623660 0.000000 
#    z 0.000000 0.000000 3.540450 
# 
# 
# High freq. dielectric constant tensor:
#      x y z
#    x 1.750540 0.000000 0.000000 
#    y 0.000000 1.769300 0.000000 
#    z 0.000000 0.000000 1.759350 
# 
# From -- ./inp_files/23607.got.cif
#   From: 2010.03.12/outbox.cif.g09.slc.cpg/sg53_12_cif.got.tgz:23607.got - 2010.04.16 14:36:59.
