data_PCOD8219514
_publ_section_title
;
Structure prediction by ZEFSAII (Michael W. Deem and Ramdas Pophale) SiO2 
 PCOD8219514
Probable space group: P M N A
;
_chemical_formula_sum "Si O2"
_cell_formula_units_Z 40
_cell_length_a 15.552265
_cell_length_b 13.219095
_cell_length_c 9.384211
_cell_angle_alpha 90.000000
_cell_angle_beta 90.000000
_cell_angle_gamma 90.000000
_cell_volume 1929.270553
_symmetry_space_group_name_H-M "P M N A"
_symmetry_group_IT_number 53
_symmetry_cell_setting 'orthorhombic'
loop_
_space_group_symop_operation_xyz
x,y,z
1/2-x,-y,1/2+z
x,-y,-z
1/2-x,y,1/2-z
-x,-y,-z
1/2+x,y,1/2-z
-x,y,z
1/2+x,-y,1/2+z
loop_
_atom_site_type_symbol
_atom_site_label
_atom_site_fract_x
_atom_site_fract_y
_atom_site_fract_z
Si Si1 0.902957 0.713333 0.029199
Si Si2 0.761515 0.597251 0.415417
Si Si3 0.600053 0.920659 0.616432
Si Si4 0.095234 0.245011 0.640429
Si Si5 0.679383 0.042431 0.853732
O O1 0.829595 0.628227 0.011629
O O2 0.900628 0.750400 0.190221
O O3 0.000000 0.673125 0.991954
O O4 0.876837 0.806499 0.927990
O O5 0.795919 0.500000 0.500000
O O6 0.750000 0.569584 0.250000
O O7 0.833298 0.684476 0.433548
O O8 0.500000 0.934557 0.634547
O O9 0.634752 0.000000 0.500000
O O10 0.641545 0.946135 0.768797
O O11 0.110452 0.127574 0.603072
O O12 0.000000 0.276122 0.585247
O O13 0.750000 0.094583 0.750000
O O14 0.719844 0.000000 0.000000
#
# Coordination Sequence:
#
# PCOD8219514 Si02
#       5
#     8   8   8   8   8
#     4   9  18  36  65  92 120 162 209 250 307 382
#     4  10  22  41  64  88 121 161 210 267 322 372
#     4  10  19  35  61  89 123 164 202 244 300 375
#     4  10  21  39  63  87 120 167 211 255 311 378
#     4  12  25  37  58  90 128 168 208 254 311 376
#
# _framework density 20.733225000000001
#
# number of rings (size 3 to 8) (size 9 to 14) (size 15 to 20)
#    0.000    1.800    2.000    3.000    2.800    2.400 
#    3.600    0.000    0.000    0.000    0.000    0.000 
#    0.000    0.000    0.000    0.000    0.000    0.000 
#
# Total GULP energy -495853.885805 kJ/mol
# GULP energy per Si atom -12396.347145 kJ/mol
# Density = 2.068604 g / cm^3
# Si number density = 20.733225 Si / 1000 Ang^3
#
#
#
# Elastic Constant Matrix: (Units=GPa)
#
#
# Indices 1 2 3 4 5 6 
#
# 1 126.7730 60.4736 34.4033 0.0000 0.0000 0.0000
# 2 60.4736 96.3770 43.5568 0.0000 0.0000 0.0000
# 3 34.4033 43.5568 85.4758 0.0000 0.0000 0.0000
# 4 0.0000 0.0000 0.0000 35.2805 0.0000 0.0000
# 5 0.0000 0.0000 0.0000 0.0000 20.8206 0.0000
# 6 0.0000 0.0000 0.0000 0.0000 0.0000 22.7435
#
#
#
# Elastic Compliance Matrix: (Units=1/GPa)
#
#
# Indices 1 2 3 4 5 6 
#
# 1 0.011355 -0.006573 -0.001221 0.000000 0.000000 0.000000
# 2 -0.006573 0.017286 -0.006163 0.000000 0.000000 0.000000
# 3 -0.001221 -0.006163 0.015331 0.000000 0.000000 0.000000
# 4 0.000000 0.000000 0.000000 0.028344 0.000000 0.000000
# 5 0.000000 0.000000 0.000000 0.000000 0.048029 0.000000
# 6 0.000000 0.000000 0.000000 0.000000 0.000000 0.043969
#
#
# Mechanical properties :
#
#
# Convention : Reuss Voigt Hill
#
# Bulk Modulus (GPa) = 62.27341 65.05479 63.66410
# Shear Modulus (GPa) = 25.30623 27.11506 26.21065
#
# Velocity S-wave (km/s) = 3.49745 3.62028 3.55940
# Velocity P-wave (km/s) = 6.81251 6.99432 6.90401
#
# Compressibility (1/GPa) = 0.01605822
#
# Stress axis : x y z
#
# Youngs Moduli (GPa) = 88.06734 57.85164 65.22747
#
# Poissons Ratio (x) = 0.38027 0.07962
# Poissons Ratio (y) = 0.57888 0.40198
# Poissons Ratio (z) = 0.10750 0.35653
#
# Static dielectric constant tensor:
#      x y z
#    x 4.148860 0.000000 0.000000 
#    y 0.000000 3.538100 0.000000 
#    z 0.000000 0.000000 3.545830 
# 
# 
# High freq. dielectric constant tensor:
#      x y z
#    x 1.830250 0.000000 0.000000 
#    y 0.000000 1.787010 0.000000 
#    z 0.000000 0.000000 1.787670 
# 
# From -- ./inp_files/8372.got.cif
#   From: 2010.03.12/outbox.cif.g09.slc.cpg/sg53_5_cif.got.tgz:8372.got - 2010.04.16 14:36:59.
