data_PCOD8219933
_publ_section_title
;
Structure prediction by ZEFSAII (Michael W. Deem and Ramdas Pophale) SiO2 
 PCOD8219933
Probable space group: P M N A
;
_chemical_formula_sum "Si O2"
_cell_formula_units_Z 64
_cell_length_a 9.085129
_cell_length_b 19.793226
_cell_length_c 19.951836
_cell_angle_alpha 90.000000
_cell_angle_beta 90.000000
_cell_angle_gamma 90.000000
_cell_volume 3587.819187
_symmetry_space_group_name_H-M "P M N A"
_symmetry_group_IT_number 53
_symmetry_cell_setting 'orthorhombic'
loop_
_space_group_symop_operation_xyz
x,y,z
1/2-x,-y,1/2+z
x,-y,-z
1/2-x,y,1/2-z
-x,-y,-z
1/2+x,y,1/2-z
-x,y,z
1/2+x,-y,1/2+z
loop_
_atom_site_type_symbol
_atom_site_label
_atom_site_fract_x
_atom_site_fract_y
_atom_site_fract_z
Si Si1 0.828238 0.668818 0.952801
Si Si2 0.671180 0.465424 0.068080
Si Si3 0.671038 0.825429 0.084540
Si Si4 0.828235 0.195889 0.432817
Si Si5 0.327664 0.690950 0.393245
Si Si6 0.827427 0.426584 0.681978
Si Si7 0.328285 0.942141 0.183188
Si Si8 0.826637 0.904853 0.682349
O O1 0.759546 0.603096 0.918203
O O2 0.757671 0.734837 0.919363
O O3 0.000000 0.670403 0.938127
O O4 0.792254 0.666500 0.031674
O O5 0.500000 0.447267 0.061566
O O6 0.705065 0.515063 0.128858
O O7 0.728801 0.500000 0.000000
O O8 0.500000 0.807257 0.095159
O O9 0.768333 0.766499 0.117238
O O10 0.714838 0.895219 0.120484
O O11 0.708053 0.833946 0.006124
O O12 0.772883 0.141162 0.379144
O O13 0.000000 0.211391 0.424950
O O14 0.500000 0.688932 0.377162
O O15 0.242526 0.643465 0.341879
O O16 0.750000 0.450019 0.750000
O O17 0.000000 0.415554 0.693269
O O18 0.250000 0.915057 0.250000
O O19 0.500000 0.939329 0.197759
O O20 0.277665 0.018375 0.166113
O O21 0.750000 0.878722 0.750000
O O22 0.000000 0.899430 0.692555
#
# Coordination Sequence:
#
# PCOD8219933 Si02
#       8
#     8   8   8   8   8   8   8   8
#     4  10  20  33  54  82 108 134 171 218 260 306
#     4  10  20  36  59  82 104 137 177 215 259 313
#     4   9  18  32  51  75 104 138 174 216 261 307
#     4   9  18  33  53  76 104 136 173 217 263 312
#     4  10  20  34  52  76 106 139 174 212 257 310
#     4  11  23  38  56  79 109 141 175 217 262 311
#     4   9  18  32  50  73 101 134 174 215 260 313
#     4   9  18  33  53  76 101 134 174 217 265 318
#
# _framework density 17.838134
#
# number of rings (size 3 to 8) (size 9 to 14) (size 15 to 20)
#    0.000    2.375    1.250    1.125    0.000    4.250 
#    0.000    4.375    0.000    0.000    0.000    7.000 
#    0.000    0.000    0.000    0.000    0.000    0.000 
#
# Total GULP energy -793824.113625 kJ/mol
# GULP energy per Si atom -12403.501775 kJ/mol
# Density = 1.779753 g / cm^3
# Si number density = 17.838134 Si / 1000 Ang^3
#
#
#
# Elastic Constant Matrix: (Units=GPa)
#
#
# Indices 1 2 3 4 5 6 
#
# 1 66.5277 55.9579 51.4663 0.0000 0.0000 0.0000
# 2 55.9579 129.0391 77.7757 0.0000 0.0000 0.0000
# 3 51.4663 77.7757 112.6717 0.0000 0.0000 0.0000
# 4 0.0000 0.0000 0.0000 27.3659 0.0000 0.0000
# 5 0.0000 0.0000 0.0000 0.0000 29.3916 0.0000
# 6 0.0000 0.0000 0.0000 0.0000 0.0000 25.1644
#
#
#
# Elastic Compliance Matrix: (Units=1/GPa)
#
#
# Indices 1 2 3 4 5 6 
#
# 1 0.026682 -0.007235 -0.007194 0.000000 0.000000 0.000000
# 2 -0.007235 0.015233 -0.007210 0.000000 0.000000 0.000000
# 3 -0.007194 -0.007210 0.017138 0.000000 0.000000 0.000000
# 4 0.000000 0.000000 0.000000 0.036542 0.000000 0.000000
# 5 0.000000 0.000000 0.000000 0.000000 0.034023 0.000000
# 6 0.000000 0.000000 0.000000 0.000000 0.000000 0.039739
#
#
# Mechanical properties :
#
#
# Convention : Reuss Voigt Hill
#
# Bulk Modulus (GPa) = 63.38917 75.40424 69.39671
# Shear Modulus (GPa) = 22.94708 24.58695 23.76701
#
# Velocity S-wave (km/s) = 3.59054 3.71662 3.65413
# Velocity P-wave (km/s) = 7.26651 7.79621 7.53602
#
# Compressibility (1/GPa) = 0.01577557
#
# Stress axis : x y z
#
# Youngs Moduli (GPa) = 37.47892 65.64781 58.34834
#
# Poissons Ratio (x) = 0.47494 0.41974
# Poissons Ratio (y) = 0.27115 0.42071
# Poissons Ratio (z) = 0.26961 0.47334
#
# Static dielectric constant tensor:
#      x y z
#    x 3.263570 0.000000 0.000000 
#    y 0.000000 3.348210 0.000000 
#    z 0.000000 0.000000 3.287440 
# 
# 
# High freq. dielectric constant tensor:
#      x y z
#    x 1.690490 0.000000 0.000000 
#    y 0.000000 1.693610 0.000000 
#    z 0.000000 0.000000 1.679410 
# 
# From -- ./inp_files/31277.got.cif
#   From: 2010.03.12/outbox.cif.g09.slc.cpg/sg53_16_cif.got.tgz:31277.got - 2010.04.16 14:36:59.
