data_PCOD8219379
_publ_section_title
;
Structure prediction by ZEFSAII (Michael W. Deem and Ramdas Pophale) SiO2 
 PCOD8219379
Probable space group: P M N A
;
_chemical_formula_sum "Si O2"
_cell_formula_units_Z 48
_cell_length_a 8.935003
_cell_length_b 9.914672
_cell_length_c 27.847259
_cell_angle_alpha 90.000000
_cell_angle_beta 90.000000
_cell_angle_gamma 90.000000
_cell_volume 2466.922512
_symmetry_space_group_name_H-M "P M N A"
_symmetry_group_IT_number 53
_symmetry_cell_setting 'orthorhombic'
loop_
_space_group_symop_operation_xyz
x,y,z
1/2-x,-y,1/2+z
x,-y,-z
1/2-x,y,1/2-z
-x,-y,-z
1/2+x,y,1/2-z
-x,y,z
1/2+x,-y,1/2+z
loop_
_atom_site_type_symbol
_atom_site_label
_atom_site_fract_x
_atom_site_fract_y
_atom_site_fract_z
Si Si1 0.827451 0.207799 0.552673
Si Si2 0.327236 0.515317 0.101567
Si Si3 0.174639 0.405345 0.297640
Si Si4 0.823751 0.095563 0.298517
Si Si5 0.673286 0.028024 0.393372
Si Si6 0.326584 0.287710 0.455339
O O1 0.805700 0.327482 0.590930
O O2 0.772955 0.255387 0.501090
O O3 0.000000 0.164532 0.548958
O O4 0.730929 0.080535 0.568609
O O5 0.500000 0.469799 0.094977
O O6 0.273671 0.490609 0.156160
O O7 0.225067 0.431085 0.065214
O O8 0.250000 0.466924 0.250000
O O9 0.224883 0.250882 0.305280
O O10 0.000000 0.415451 0.289329
O O11 0.750000 0.037340 0.250000
O O12 0.762539 0.011932 0.343692
O O13 0.000000 0.076145 0.295373
O O14 0.500000 0.001870 0.383208
O O15 0.701689 0.175578 0.414942
O O16 0.500000 0.295241 0.470344
#
# Coordination Sequence:
#
# PCOD8219379 Si02
#       6
#     8   8   8   8   8   8
#     4  11  24  39  58  82 115 155 193 235 288 345
#     4  10  21  39  59  84 115 150 190 233 282 342
#     4   9  18  33  56  84 113 142 180 229 277 329
#     4  10  19  34  59  87 115 147 186 234 284 335
#     4  11  23  39  58  84 117 151 192 238 284 338
#     4  11  23  38  59  85 113 148 193 241 286 337
#
# _framework density 19.457443000000001
#
# number of rings (size 3 to 8) (size 9 to 14) (size 15 to 20)
#    0.000    1.667    1.667    3.000    0.000    8.667 
#    0.000    0.833    0.000    2.000    0.000    0.000 
#    0.000    0.000    0.000    0.000    0.000    0.000 
#
# Total GULP energy -595477.456345 kJ/mol
# GULP energy per Si atom -12405.780341 kJ/mol
# Density = 1.941316 g / cm^3
# Si number density = 19.457443 Si / 1000 Ang^3
#
#
#
# Elastic Constant Matrix: (Units=GPa)
#
#
# Indices 1 2 3 4 5 6 
#
# 1 76.4929 27.2509 37.9049 0.0000 0.0000 0.0000
# 2 27.2509 37.5399 -1.1722 0.0000 0.0000 0.0000
# 3 37.9049 -1.1722 103.4391 0.0000 0.0000 0.0000
# 4 0.0000 0.0000 0.0000 5.3075 0.0000 0.0000
# 5 0.0000 0.0000 0.0000 0.0000 40.7385 0.0000
# 6 0.0000 0.0000 0.0000 0.0000 0.0000 24.3358
#
#
#
# Elastic Compliance Matrix: (Units=1/GPa)
#
#
# Indices 1 2 3 4 5 6 
#
# 1 0.023705 -0.017485 -0.008885 0.000000 0.000000 0.000000
# 2 -0.017485 0.039545 0.006856 0.000000 0.000000 0.000000
# 3 -0.008885 0.006856 0.013001 0.000000 0.000000 0.000000
# 4 0.000000 0.000000 0.000000 0.188411 0.000000 0.000000
# 5 0.000000 0.000000 0.000000 0.000000 0.024547 0.000000
# 6 0.000000 0.000000 0.000000 0.000000 0.000000 0.041092
#
#
# Mechanical properties :
#
#
# Convention : Reuss Voigt Hill
#
# Bulk Modulus (GPa) = 26.86563 38.38214 32.62389
# Shear Modulus (GPa) = 13.09800 24.30891 18.70345
#
# Velocity S-wave (km/s) = 2.59735 3.53843 3.10377
# Velocity P-wave (km/s) = 4.77832 6.03846 5.44497
#
# Compressibility (1/GPa) = 0.03722228
#
# Stress axis : x y z
#
# Youngs Moduli (GPa) = 42.18499 25.28739 76.91707
#
# Poissons Ratio (x) = 0.44216 0.68339
# Poissons Ratio (y) = 0.73762 -0.52731
# Poissons Ratio (z) = 0.37481 -0.17336
#
# Static dielectric constant tensor:
#      x y z
#    x 3.564680 0.000000 0.000000 
#    y 0.000000 3.379680 0.000000 
#    z 0.000000 0.000000 3.670780 
# 
# 
# High freq. dielectric constant tensor:
#      x y z
#    x 1.764730 0.000000 0.000000 
#    y 0.000000 1.735830 0.000000 
#    z 0.000000 0.000000 1.771160 
# 
# From -- ./inp_files/37687.got.cif
#   From: 2010.03.12/outbox.cif.g09.slc.cpg/sg53_19_cif.got.tgz:37687.got - 2010.04.16 14:36:59.
