data_PCOD8219238
_publ_section_title
;
Structure prediction by ZEFSAII (Michael W. Deem and Ramdas Pophale) SiO2 
 PCOD8219238
Probable space group: P M N A
;
_chemical_formula_sum "Si O2"
_cell_formula_units_Z 56
_cell_length_a 8.990358
_cell_length_b 18.082786
_cell_length_c 19.756875
_cell_angle_alpha 90.000000
_cell_angle_beta 90.000000
_cell_angle_gamma 90.000000
_cell_volume 3211.889389
_symmetry_space_group_name_H-M "P M N A"
_symmetry_group_IT_number 53
_symmetry_cell_setting 'orthorhombic'
loop_
_space_group_symop_operation_xyz
x,y,z
1/2-x,-y,1/2+z
x,-y,-z
1/2-x,y,1/2-z
-x,-y,-z
1/2+x,y,1/2-z
-x,y,z
1/2+x,-y,1/2+z
loop_
_atom_site_type_symbol
_atom_site_label
_atom_site_fract_x
_atom_site_fract_y
_atom_site_fract_z
Si Si1 0.821879 0.919833 0.821208
Si Si2 0.176350 0.806742 0.579400
Si Si3 0.334753 0.500203 0.580863
Si Si4 0.321501 0.925727 0.179089
Si Si5 0.823932 0.198278 0.573773
Si Si6 0.664745 0.358519 0.919266
Si Si7 0.336547 0.641070 0.919970
O O1 0.750000 0.896198 0.750000
O O2 0.777879 0.859272 0.875827
O O3 0.000000 0.926632 0.814665
O O4 0.750292 0.997318 0.844707
O O5 0.226957 0.821768 0.502116
O O6 0.218649 0.722871 0.600807
O O7 0.000000 0.821800 0.589397
O O8 0.327595 0.500000 0.500000
O O9 0.500000 0.497766 0.608727
O O10 0.256753 0.427024 0.610909
O O11 0.265330 0.575986 0.610057
O O12 0.250000 0.901148 0.250000
O O13 0.500000 0.933046 0.185019
O O14 0.271007 0.865228 0.124411
O O15 0.760820 0.278513 0.598239
O O16 0.000000 0.207156 0.572772
O O17 0.500000 0.364673 0.888040
O O18 0.657021 0.364220 0.999667
O O19 0.500000 0.627826 0.889774
#
# Coordination Sequence:
#
# PCOD8219238 Si02
#       7
#     8   8   8   8   8   8   8
#     4  11  22  36  52  71  94 123 157 193 234 280
#     4   9  17  32  51  72  96 123 157 196 237 281
#     4   9  15  21  32  55  88 122 152 184 226 271
#     4  10  19  34  53  72  94 123 159 196 234 278
#     4   8  16  30  50  72  95 125 159 194 235 284
#     4   8  13  24  40  59  84 117 156 190 222 269
#     4   8  14  24  40  60  85 118 153 187 224 270
#
# _framework density 17.435220000000001
#
# number of rings (size 3 to 8) (size 9 to 14) (size 15 to 20)
#    0.000    3.000    0.000    4.714    0.000    2.857 
#    0.000    7.857    0.000    0.000    0.000    1.000 
#    0.000    2.286    0.000    0.000    0.000    0.000 
#
# Total GULP energy -693968.121947 kJ/mol
# GULP energy per Si atom -12392.287892 kJ/mol
# Density = 1.739554 g / cm^3
# Si number density = 17.435220 Si / 1000 Ang^3
#
#
#
# Elastic Constant Matrix: (Units=GPa)
#
#
# Indices 1 2 3 4 5 6 
#
# 1 102.4208 70.4677 34.2186 0.0000 0.0000 0.0000
# 2 70.4677 165.1871 67.7233 0.0000 0.0000 0.0000
# 3 34.2186 67.7233 51.1940 0.0000 0.0000 0.0000
# 4 0.0000 0.0000 0.0000 -1.4943 0.0000 0.0000
# 5 0.0000 0.0000 0.0000 0.0000 17.8313 0.0000
# 6 0.0000 0.0000 0.0000 0.0000 0.0000 22.4984
#
#
#
# Elastic Compliance Matrix: (Units=1/GPa)
#
#
# Indices 1 2 3 4 5 6 
#
# 1 0.014055 -0.004685 -0.003197 0.000000 0.000000 0.000000
# 2 -0.004685 0.014790 -0.016433 0.000000 0.000000 0.000000
# 3 -0.003197 -0.016433 0.043410 0.000000 0.000000 0.000000
# 4 0.000000 0.000000 0.000000 -0.669216 0.000000 0.000000
# 5 0.000000 0.000000 0.000000 0.000000 0.056081 0.000000
# 6 0.000000 0.000000 0.000000 0.000000 0.000000 0.044448
#
#
# Mechanical properties :
#
#
# Convention : Reuss Voigt Hill
#
# Bulk Modulus (GPa) = 42.32978 73.73567 58.03272
# Shear Modulus (GPa) = -11.36551 17.52657 3.08053
#
# Velocity S-wave (km/s) = -2.55595 3.17399 1.33067
# Velocity P-wave (km/s) = 3.95228 7.47096 5.97645
#
# Compressibility (1/GPa) = 0.02362403
#
# Stress axis : x y z
#
# Youngs Moduli (GPa) = 71.14795 67.61395 23.03643
#
# Poissons Ratio (x) = 0.31680 0.07364
# Poissons Ratio (y) = 0.33335 0.37857
# Poissons Ratio (z) = 0.22742 1.11113
#
# Static dielectric constant tensor:
#      x y z
#    x 3.231630 0.000000 0.000000 
#    y 0.000000 3.599350 0.000000 
#    z 0.000000 0.000000 2.818070 
# 
# 
# High freq. dielectric constant tensor:
#      x y z
#    x 1.664040 0.000000 0.000000 
#    y 0.000000 1.693190 0.000000 
#    z 0.000000 0.000000 1.617280 
# 
# From -- ./inp_files/31001.got.cif
#   From: 2010.03.12/outbox.cif.g09.slc.cpg/sg53_16_cif.got.tgz:31001.got - 2010.04.16 14:36:59.
