data_PCOD8219213
_publ_section_title
;
Structure prediction by ZEFSAII (Michael W. Deem and Ramdas Pophale) SiO2 
 PCOD8219213
Probable space group: P M N A
;
_chemical_formula_sum "Si O2"
_cell_formula_units_Z 40
_cell_length_a 15.460416
_cell_length_b 14.752224
_cell_length_c 8.647054
_cell_angle_alpha 90.000000
_cell_angle_beta 90.000000
_cell_angle_gamma 90.000000
_cell_volume 1972.181337
_symmetry_space_group_name_H-M "P M N A"
_symmetry_group_IT_number 53
_symmetry_cell_setting 'orthorhombic'
loop_
_space_group_symop_operation_xyz
x,y,z
1/2-x,-y,1/2+z
x,-y,-z
1/2-x,y,1/2-z
-x,-y,-z
1/2+x,y,1/2-z
-x,y,z
1/2+x,-y,1/2+z
loop_
_atom_site_type_symbol
_atom_site_label
_atom_site_fract_x
_atom_site_fract_y
_atom_site_fract_z
Si Si1 0.000000 0.107713 0.324586
Si Si2 0.500000 0.105810 0.819624
Si Si3 0.902225 0.599736 0.149667
Si Si4 0.657667 0.212411 0.683050
Si Si5 0.656897 0.415885 0.314302
Si Si6 0.344392 0.784286 0.685361
O O1 0.913679 0.144859 0.245806
O O2 0.000000 0.136149 0.502815
O O3 0.000000 0.001153 0.300560
O O4 0.586243 0.142269 0.739663
O O5 0.866405 0.686058 0.245453
O O6 0.899923 0.503205 0.242121
O O7 0.000000 0.620709 0.097368
O O8 0.842014 0.588454 0.000024
O O9 0.750000 0.182352 0.750000
O O10 0.659127 0.211266 0.498759
O O11 0.750000 0.437565 0.250000
O O12 0.626217 0.316542 0.255496
O O13 0.250000 0.809691 0.750000
#
# Coordination Sequence:
#
# PCOD8219213 Si02
#       6
#     4   4   8   8   8   8
#     4  11  25  43  68  83 126 154 201 261 314 373
#     4  11  25  45  62  95 114 160 203 257 318 367
#     4  10  19  33  57  88 121 163 209 246 297 359
#     4  11  22  39  66  92 126 162 205 253 304 365
#     4   9  18  31  53  86 120 160 203 242 290 352
#     4  10  22  39  62  95 122 164 204 248 305 363
#
# _framework density 20.282109999999999
#
# number of rings (size 3 to 8) (size 9 to 14) (size 15 to 20)
#    0.000    1.800    1.000    3.600    5.600    2.400 
#    0.000    0.000    0.000    1.200    0.000    0.000 
#    0.000    0.000    0.000    0.000    0.000    0.000 
#
# Total GULP energy -495715.953289 kJ/mol
# GULP energy per Si atom -12392.898832 kJ/mol
# Density = 2.023595 g / cm^3
# Si number density = 20.282110 Si / 1000 Ang^3
#
#
#
# Elastic Constant Matrix: (Units=GPa)
#
#
# Indices 1 2 3 4 5 6 
#
# 1 156.7936 58.2325 56.2291 0.0000 0.0000 0.0000
# 2 58.2325 106.7699 42.9366 0.0000 0.0000 0.0000
# 3 56.2291 42.9366 78.4857 0.0000 0.0000 0.0000
# 4 0.0000 0.0000 0.0000 22.1587 0.0000 0.0000
# 5 0.0000 0.0000 0.0000 0.0000 33.7573 0.0000
# 6 0.0000 0.0000 0.0000 0.0000 0.0000 46.0501
#
#
#
# Elastic Compliance Matrix: (Units=1/GPa)
#
#
# Indices 1 2 3 4 5 6 
#
# 1 0.009307 -0.003070 -0.004988 0.000000 0.000000 0.000000
# 2 -0.003070 0.013020 -0.004923 0.000000 0.000000 0.000000
# 3 -0.004988 -0.004923 0.019008 0.000000 0.000000 0.000000
# 4 0.000000 0.000000 0.000000 0.045129 0.000000 0.000000
# 5 0.000000 0.000000 0.000000 0.000000 0.029623 0.000000
# 6 0.000000 0.000000 0.000000 0.000000 0.000000 0.021715
#
#
# Mechanical properties :
#
#
# Convention : Reuss Voigt Hill
#
# Bulk Modulus (GPa) = 65.05304 72.98284 69.01794
# Shear Modulus (GPa) = 29.60500 32.70328 31.15414
#
# Velocity S-wave (km/s) = 3.82470 4.01985 3.92349
# Velocity P-wave (km/s) = 7.18666 7.58997 7.39107
#
# Compressibility (1/GPa) = 0.01537207
#
# Stress axis : x y z
#
# Youngs Moduli (GPa) = 107.44776 76.80333 52.60876
#
# Poissons Ratio (x) = 0.23579 0.26242
# Poissons Ratio (y) = 0.32987 0.25902
# Poissons Ratio (z) = 0.53597 0.37814
#
# Static dielectric constant tensor:
#      x y z
#    x 3.662480 0.000000 0.000000 
#    y 0.000000 4.147200 0.000000 
#    z 0.000000 0.000000 3.485590 
# 
# 
# High freq. dielectric constant tensor:
#      x y z
#    x 1.797000 0.000000 0.000000 
#    y 0.000000 1.811040 0.000000 
#    z 0.000000 0.000000 1.765030 
# 
# From -- ./inp_files/8446.got.cif
#   From: 2010.03.12/outbox.cif.g09.slc.cpg/sg53_5_cif.got.tgz:8446.got - 2010.04.16 14:36:59.
