data_PCOD8219283
_publ_section_title
;
Structure prediction by ZEFSAII (Michael W. Deem and Ramdas Pophale) SiO2 
 PCOD8219283
Probable space group: P M N A
;
_chemical_formula_sum "Si O2"
_cell_formula_units_Z 56
_cell_length_a 16.001016
_cell_length_b 18.053831
_cell_length_c 9.091490
_cell_angle_alpha 90.000000
_cell_angle_beta 90.000000
_cell_angle_gamma 90.000000
_cell_volume 2626.346346
_symmetry_space_group_name_H-M "P M N A"
_symmetry_group_IT_number 53
_symmetry_cell_setting 'orthorhombic'
loop_
_space_group_symop_operation_xyz
x,y,z
1/2-x,-y,1/2+z
x,-y,-z
1/2-x,y,1/2-z
-x,-y,-z
1/2+x,y,1/2-z
-x,y,z
1/2+x,-y,1/2+z
loop_
_atom_site_type_symbol
_atom_site_label
_atom_site_fract_x
_atom_site_fract_y
_atom_site_fract_z
Si Si1 0.900192 0.782766 0.364411
Si Si2 0.400747 0.355862 0.670344
Si Si3 0.901035 0.916294 0.839680
Si Si4 0.095232 0.639451 0.844791
Si Si5 0.339505 0.775195 0.812734
Si Si6 0.599904 0.498624 0.165431
Si Si7 0.401169 0.918326 0.330550
O O1 0.872262 0.717218 0.256431
O O2 0.847623 0.770872 0.512147
O O3 0.869052 0.859314 0.288977
O O4 0.000000 0.783091 0.396428
O O5 0.500000 0.356955 0.664426
O O6 0.362191 0.353913 0.505673
O O7 0.366439 0.428534 0.752143
O O8 0.858539 0.859233 0.730359
O O9 0.000000 0.907815 0.829543
O O10 0.873199 0.998513 0.787405
O O11 0.868574 0.899766 0.005146
O O12 0.096665 0.717338 0.759654
O O13 0.136859 0.573759 0.748538
O O14 0.000000 0.616658 0.870421
O O15 0.250000 0.750946 0.750000
O O16 0.500000 0.496741 0.161992
O O17 0.635348 0.500000 0.000000
O O18 0.500000 0.914280 0.337928
#
# Coordination Sequence:
#
# PCOD8219283 Si02
#       7
#     8   8   8   8   8   8   8
#     4  10  19  34  57  84 110 138 176 221 269 319
#     4   9  17  30  54  86 110 131 171 222 268 321
#     4   9  17  35  59  81 107 139 174 214 266 322
#     4  10  19  34  56  77 103 142 182 221 268 319
#     4  12  25  37  49  73 109 144 183 226 267 314
#     4   9  16  27  49  84 116 135 162 213 271 321
#     4   8  16  32  59  88 108 132 173 220 262 318
#
# _framework density 21.322398
#
# number of rings (size 3 to 8) (size 9 to 14) (size 15 to 20)
#    0.000    2.429    0.000    4.286    0.000    6.857 
#    0.000    7.857    0.000    5.143    0.000    0.000 
#    0.000    0.000    0.000    0.000    0.000    0.000 
#
# Total GULP energy -694290.411232 kJ/mol
# GULP energy per Si atom -12398.043058 kJ/mol
# Density = 2.127387 g / cm^3
# Si number density = 21.322398 Si / 1000 Ang^3
#
#
#
# Elastic Constant Matrix: (Units=GPa)
#
#
# Indices 1 2 3 4 5 6 
#
# 1 21.1021 7.4350 19.2310 0.0000 0.0000 0.0000
# 2 7.4350 171.2716 100.4866 0.0000 0.0000 0.0000
# 3 19.2310 100.4866 203.8708 0.0000 0.0000 0.0000
# 4 0.0000 0.0000 0.0000 42.9697 0.0000 0.0000
# 5 0.0000 0.0000 0.0000 0.0000 10.1773 0.0000
# 6 0.0000 0.0000 0.0000 0.0000 0.0000 -0.3699
#
#
#
# Elastic Compliance Matrix: (Units=1/GPa)
#
#
# Indices 1 2 3 4 5 6 
#
# 1 0.051938 0.000872 -0.005329 0.000000 0.000000 0.000000
# 2 0.000872 0.008229 -0.004138 0.000000 0.000000 0.000000
# 3 -0.005329 -0.004138 0.007447 0.000000 0.000000 0.000000
# 4 0.000000 0.000000 0.000000 0.023272 0.000000 0.000000
# 5 0.000000 0.000000 0.000000 0.000000 0.098258 0.000000
# 6 0.000000 0.000000 0.000000 0.000000 0.000000 -2.703458
#
#
# Mechanical properties :
#
#
# Convention : Reuss Voigt Hill
#
# Bulk Modulus (GPa) = 19.83198 72.28330 46.05764
# Shear Modulus (GPa) = -2.01587 28.49488 13.23950
#
# Velocity S-wave (km/s) = -0.97338 3.65962 2.49453
# Velocity P-wave (km/s) = 2.83864 7.19937 5.47215
#
# Compressibility (1/GPa) = 0.05042360
#
# Stress axis : x y z
#
# Youngs Moduli (GPa) = 19.25375 121.52587 134.27495
#
# Poissons Ratio (x) = -0.10596 0.71556
# Poissons Ratio (y) = -0.01679 0.55565
# Poissons Ratio (z) = 0.10260 0.50289
#
# Static dielectric constant tensor:
#      x y z
#    x 3.169130 0.000000 0.000000 
#    y 0.000000 4.117900 0.000000 
#    z 0.000000 0.000000 4.051830 
# 
# 
# High freq. dielectric constant tensor:
#      x y z
#    x 1.775010 0.000000 0.000000 
#    y 0.000000 1.852660 0.000000 
#    z 0.000000 0.000000 1.845710 
# 
# From -- ./inp_files/11166.got.cif
#   From: 2010.03.12/outbox.cif.g09.slc.cpg/sg53_6_cif.got.tgz:11166.got - 2010.04.16 14:36:59.
