data_PCOD8219350
_publ_section_title
;
Structure prediction by ZEFSAII (Michael W. Deem and Ramdas Pophale) SiO2 
 PCOD8219350
Probable space group: P M N A
;
_chemical_formula_sum "Si O2"
_cell_formula_units_Z 64
_cell_length_a 9.055196
_cell_length_b 21.932786
_cell_length_c 16.109338
_cell_angle_alpha 90.000000
_cell_angle_beta 90.000000
_cell_angle_gamma 90.000000
_cell_volume 3199.405964
_symmetry_space_group_name_H-M "P M N A"
_symmetry_group_IT_number 53
_symmetry_cell_setting 'orthorhombic'
loop_
_space_group_symop_operation_xyz
x,y,z
1/2-x,-y,1/2+z
x,-y,-z
1/2-x,y,1/2-z
-x,-y,-z
1/2+x,y,1/2-z
-x,y,z
1/2+x,-y,1/2+z
loop_
_atom_site_type_symbol
_atom_site_label
_atom_site_fract_x
_atom_site_fract_y
_atom_site_fract_z
Si Si1 0.675473 0.385492 0.335244
Si Si2 0.824825 0.930496 0.998147
Si Si3 0.662343 0.512476 0.405260
Si Si4 0.669913 0.130227 0.666723
Si Si5 0.670134 0.263523 0.608682
Si Si6 0.326061 0.382203 0.832802
Si Si7 0.675839 0.855788 0.663031
Si Si8 0.174344 0.265027 0.077283
O O1 0.750000 0.367858 0.250000
O O2 0.500000 0.385242 0.326955
O O3 0.731824 0.451851 0.363791
O O4 0.729288 0.332498 0.397997
O O5 0.768978 0.899192 0.912713
O O6 0.000000 0.924334 0.000148
O O7 0.762144 0.898711 0.082150
O O8 0.770577 0.000000 0.000000
O O9 0.636700 0.500000 0.500000
O O10 0.500000 0.527910 0.366391
O O11 0.774756 0.569004 0.401056
O O12 0.750000 0.106032 0.750000
O O13 0.500000 0.110939 0.675050
O O14 0.688389 0.202895 0.662293
O O15 0.500000 0.285983 0.608025
O O16 0.771282 0.314518 0.649429
O O17 0.728871 0.251132 0.515732
O O18 0.250000 0.407431 0.750000
O O19 0.500000 0.381219 0.824274
O O20 0.750000 0.875839 0.750000
O O21 0.500000 0.859948 0.673755
O O22 0.731669 0.787443 0.639813
O O23 0.000000 0.261330 0.078790
#
# Coordination Sequence:
#
# PCOD8219350 Si02
#       8
#     8   8   8   8   8   8   8   8
#     4  10  20  33  52  77 104 136 176 224 274 330
#     4   9  18  35  58  84 116 156 199 236 278 345
#     4  10  21  39  60  80 104 141 187 231 284 345
#     4  10  20  35  58  86 114 151 194 242 293 345
#     4  10  19  36  60  82 108 144 191 239 288 344
#     4  12  25  39  56  81 112 147 187 234 290 345
#     4  10  19  34  57  85 116 153 195 238 285 340
#     4   9  17  33  57  81 107 144 188 228 274 338
#
# _framework density 20.003713000000001
#
# number of rings (size 3 to 8) (size 9 to 14) (size 15 to 20)
#    0.000    2.000    1.250    3.000    0.000    5.750 
#    0.000    3.125    0.000    0.750    0.000    0.000 
#    0.000    0.000    0.000    0.000    0.000    0.000 
#
# Total GULP energy -793444.555202 kJ/mol
# GULP energy per Si atom -12397.571175 kJ/mol
# Density = 1.995818 g / cm^3
# Si number density = 20.003713 Si / 1000 Ang^3
#
#
#
# Elastic Constant Matrix: (Units=GPa)
#
#
# Indices 1 2 3 4 5 6 
#
# 1 65.6110 36.0448 36.6287 0.0000 0.0000 0.0000
# 2 36.0448 110.3358 35.6351 0.0000 0.0000 0.0000
# 3 36.6287 35.6351 125.1550 0.0000 0.0000 0.0000
# 4 0.0000 0.0000 0.0000 12.1569 0.0000 0.0000
# 5 0.0000 0.0000 0.0000 0.0000 17.5419 0.0000
# 6 0.0000 0.0000 0.0000 0.0000 0.0000 11.2671
#
#
#
# Elastic Compliance Matrix: (Units=1/GPa)
#
#
# Indices 1 2 3 4 5 6 
#
# 1 0.020686 -0.005289 -0.004548 0.000000 0.000000 0.000000
# 2 -0.005289 0.011333 -0.001679 0.000000 0.000000 0.000000
# 3 -0.004548 -0.001679 0.009799 0.000000 0.000000 0.000000
# 4 0.000000 0.000000 0.000000 0.082258 0.000000 0.000000
# 5 0.000000 0.000000 0.000000 0.000000 0.057007 0.000000
# 6 0.000000 0.000000 0.000000 0.000000 0.000000 0.088754
#
#
# Mechanical properties :
#
#
# Convention : Reuss Voigt Hill
#
# Bulk Modulus (GPa) = 53.23003 57.52435 55.37719
# Shear Modulus (GPa) = 16.71511 21.04606 18.88058
#
# Velocity S-wave (km/s) = 2.89381 3.24714 3.07555
# Velocity P-wave (km/s) = 6.15088 6.54812 6.35261
#
# Compressibility (1/GPa) = 0.01878639
#
# Stress axis : x y z
#
# Youngs Moduli (GPa) = 48.34180 88.23562 102.04833
#
# Poissons Ratio (x) = 0.46666 0.46414
# Poissons Ratio (y) = 0.25567 0.17134
# Poissons Ratio (z) = 0.21987 0.14815
#
# Static dielectric constant tensor:
#      x y z
#    x 3.255720 0.000000 0.000000 
#    y 0.000000 3.839060 0.000000 
#    z 0.000000 0.000000 3.131960 
# 
# 
# High freq. dielectric constant tensor:
#      x y z
#    x 1.736230 0.000000 0.000000 
#    y 0.000000 1.786460 0.000000 
#    z 0.000000 0.000000 1.793100 
# 
# From -- ./inp_files/20946.got.cif
#   From: 2010.03.12/outbox.cif.g09.slc.cpg/sg53_11_cif.got.tgz:20946.got - 2010.04.16 14:36:59.
