data_PCOD8219092
_publ_section_title
;
Structure prediction by ZEFSAII (Michael W. Deem and Ramdas Pophale) SiO2 
 PCOD8219092
Probable space group: P M N A
;
_chemical_formula_sum "Si O2"
_cell_formula_units_Z 48
_cell_length_a 15.462231
_cell_length_b 29.028849
_cell_length_c 5.162242
_cell_angle_alpha 90.000000
_cell_angle_beta 90.000000
_cell_angle_gamma 90.000000
_cell_volume 2317.076291
_symmetry_space_group_name_H-M "P M N A"
_symmetry_group_IT_number 53
_symmetry_cell_setting 'orthorhombic'
loop_
_space_group_symop_operation_xyz
x,y,z
1/2-x,-y,1/2+z
x,-y,-z
1/2-x,y,1/2-z
-x,-y,-z
1/2+x,y,1/2-z
-x,y,z
1/2+x,-y,1/2+z
loop_
_atom_site_type_symbol
_atom_site_label
_atom_site_fract_x
_atom_site_fract_y
_atom_site_fract_z
Si Si1 0.901393 0.238644 0.124584
Si Si2 0.148838 0.604374 0.243875
Si Si3 0.807802 0.000000 0.500000
Si Si4 0.690994 0.900983 0.001564
Si Si5 0.101756 0.809022 0.383177
Si Si6 0.849432 0.338230 0.249825
Si Si7 0.000000 0.531323 0.253409
O O1 0.855085 0.218175 0.377870
O O2 0.900562 0.293628 0.152126
O O3 0.000000 0.222109 0.117886
O O4 0.856361 0.215157 0.872240
O O5 0.250000 0.589720 0.250000
O O6 0.125669 0.642335 0.465688
O O7 0.087764 0.560648 0.273966
O O8 0.127772 0.623251 0.959883
O O9 0.858806 0.049027 0.470840
O O10 0.750000 0.994997 0.250000
O O11 0.750000 0.889784 0.750000
O O12 0.750000 0.903221 0.250000
O O13 0.620146 0.862629 0.067761
O O14 0.000000 0.801375 0.373453
O O15 0.750000 0.324171 0.250000
O O16 0.000000 0.500000 0.500000
O O17 0.000000 0.500000 0.000000
#
# Coordination Sequence:
#
# PCOD8219092 Si02
#       7
#     8   8   4   8   8   8   4
#     4  10  21  34  54  79 110 150 186 224 275 330
#     4  10  23  41  62  90 123 155 193 244 290 333
#     4   8  16  30  49  74  99 126 176 232 278 332
#     4  10  19  33  54  76 100 138 182 229 281 335
#     4  10  21  36  49  76 113 145 180 225 282 339
#     4  10  21  38  59  86 116 150 191 236 281 328
#     4  12  26  42  66  96 120 158 202 236 290 351
#
# _framework density 20.715761000000001
#
# number of rings (size 3 to 8) (size 9 to 14) (size 15 to 20)
#    0.000    2.000    0.000    3.000    2.333    2.667 
#    0.000    0.417    0.000    0.000    0.000   10.500 
#    0.000    0.000    0.000    0.000    0.000    0.000 
#
# Total GULP energy -594643.103186 kJ/mol
# GULP energy per Si atom -12388.397983 kJ/mol
# Density = 2.066861 g / cm^3
# Si number density = 20.715761 Si / 1000 Ang^3
#
#
#
# Elastic Constant Matrix: (Units=GPa)
#
#
# Indices 1 2 3 4 5 6 
#
# 1 36.7318 38.5426 31.0234 0.0000 0.0000 0.0000
# 2 38.5426 143.0242 54.4181 0.0000 0.0000 0.0000
# 3 31.0234 54.4181 172.4416 0.0000 0.0000 0.0000
# 4 0.0000 0.0000 0.0000 38.2744 0.0000 0.0000
# 5 0.0000 0.0000 0.0000 0.0000 14.7217 0.0000
# 6 0.0000 0.0000 0.0000 0.0000 0.0000 35.6908
#
#
#
# Elastic Compliance Matrix: (Units=1/GPa)
#
#
# Indices 1 2 3 4 5 6 
#
# 1 0.040681 -0.009294 -0.004386 0.000000 0.000000 0.000000
# 2 -0.009294 0.010069 -0.001506 0.000000 0.000000 0.000000
# 3 -0.004386 -0.001506 0.007063 0.000000 0.000000 0.000000
# 4 0.000000 0.000000 0.000000 0.026127 0.000000 0.000000
# 5 0.000000 0.000000 0.000000 0.000000 0.067927 0.000000
# 6 0.000000 0.000000 0.000000 0.000000 0.000000 0.028018
#
#
# Mechanical properties :
#
#
# Convention : Reuss Voigt Hill
#
# Bulk Modulus (GPa) = 36.43987 66.68509 51.56248
# Shear Modulus (GPa) = 22.78900 32.95161 27.87031
#
# Velocity S-wave (km/s) = 3.32034 3.99263 3.67190
# Velocity P-wave (km/s) = 5.68579 7.31541 6.55146
#
# Compressibility (1/GPa) = 0.02744247
#
# Stress axis : x y z
#
# Youngs Moduli (GPa) = 24.58161 99.31225 141.57885
#
# Poissons Ratio (x) = 0.92302 0.62093
# Poissons Ratio (y) = 0.22846 0.21315
# Poissons Ratio (z) = 0.10781 0.14952
#
# Static dielectric constant tensor:
#      x y z
#    x 3.156320 0.000000 0.000000 
#    y 0.000000 4.132860 0.000000 
#    z 0.000000 0.000000 4.316500 
# 
# 
# High freq. dielectric constant tensor:
#      x y z
#    x 1.772060 0.000000 0.000000 
#    y 0.000000 1.820550 0.000000 
#    z 0.000000 0.000000 1.841940 
# 
# From -- ./inp_files/1445.got.cif
#   From: 2010.03.12/outbox.cif.g09.slc.cpg/sg53_1_cif.got.tgz:1445.got - 2010.04.16 14:36:59.
