data_PCOD8219498
_publ_section_title
;
Structure prediction by ZEFSAII (Michael W. Deem and Ramdas Pophale) SiO2 
 PCOD8219498
Probable space group: P M N A
;
_chemical_formula_sum "Si O2"
_cell_formula_units_Z 64
_cell_length_a 8.924449
_cell_length_b 23.461392
_cell_length_c 15.145353
_cell_angle_alpha 90.000000
_cell_angle_beta 90.000000
_cell_angle_gamma 90.000000
_cell_volume 3171.133956
_symmetry_space_group_name_H-M "P M N A"
_symmetry_group_IT_number 53
_symmetry_cell_setting 'orthorhombic'
loop_
_space_group_symop_operation_xyz
x,y,z
1/2-x,-y,1/2+z
x,-y,-z
1/2-x,y,1/2-z
-x,-y,-z
1/2+x,y,1/2-z
-x,y,z
1/2+x,-y,1/2+z
loop_
_atom_site_type_symbol
_atom_site_label
_atom_site_fract_x
_atom_site_fract_y
_atom_site_fract_z
Si Si1 0.826233 0.940426 0.336305
Si Si2 0.821983 0.747147 0.474566
Si Si3 0.334045 0.048080 0.075561
Si Si4 0.325220 0.566668 0.489488
Si Si5 0.665047 0.404085 0.166706
Si Si6 0.325514 0.865631 0.478576
Si Si7 0.837400 0.726980 0.668307
Si Si8 0.820730 0.644272 0.347830
O O1 0.750000 0.915345 0.250000
O O2 0.725373 0.913743 0.411858
O O3 0.000000 0.921630 0.343986
O O4 0.809567 0.009757 0.336727
O O5 0.759000 0.808506 0.449626
O O6 0.757330 0.733571 0.572786
O O7 0.768764 0.700472 0.402526
O O8 0.000000 0.746981 0.475917
O O9 0.500000 0.074806 0.071597
O O10 0.223489 0.103414 0.070805
O O11 0.317096 0.000000 0.000000
O O12 0.296596 0.500000 0.500000
O O13 0.500000 0.581615 0.480911
O O14 0.259967 0.594726 0.577437
O O15 0.240136 0.589646 0.402286
O O16 0.750000 0.434092 0.250000
O O17 0.500000 0.432665 0.154314
O O18 0.641428 0.338821 0.191367
O O19 0.500000 0.852835 0.478177
O O20 0.750000 0.756439 0.750000
O O21 0.000000 0.756792 0.664264
O O22 0.750000 0.645948 0.250000
O O23 0.000000 0.640015 0.339961
#
# Coordination Sequence:
#
# PCOD8219498 Si02
#       8
#     8   8   8   8   8   8   8   8
#     4  10  20  35  56  81 111 148 190 241 297 349
#     4  10  21  40  61  83 119 162 202 247 302 360
#     4   8  16  33  54  75 103 141 180 223 282 336
#     4  11  24  41  62  90 123 160 202 249 302 361
#     4  10  19  35  59  89 118 149 190 238 294 350
#     4  11  22  34  54  84 114 149 195 241 288 346
#     4   9  18  34  57  85 112 143 183 232 290 349
#     4  11  24  44  67  91 122 163 208 254 307 364
#
# _framework density 20.182054999999998
#
# number of rings (size 3 to 8) (size 9 to 14) (size 15 to 20)
#    0.000    2.000    1.250    3.375    0.000    6.750 
#    0.000    1.875    0.000    0.000    0.000    0.000 
#    0.000    0.000    0.000    0.000    0.000    0.000 
#
# Total GULP energy -792888.096623 kJ/mol
# GULP energy per Si atom -12388.876510 kJ/mol
# Density = 2.013612 g / cm^3
# Si number density = 20.182055 Si / 1000 Ang^3
#
#
#
# Elastic Constant Matrix: (Units=GPa)
#
#
# Indices 1 2 3 4 5 6 
#
# 1 67.5345 31.4234 46.5753 0.0000 0.0000 0.0000
# 2 31.4234 79.0547 27.7306 0.0000 0.0000 0.0000
# 3 46.5753 27.7306 135.4088 0.0000 0.0000 0.0000
# 4 0.0000 0.0000 0.0000 13.3251 0.0000 0.0000
# 5 0.0000 0.0000 0.0000 0.0000 31.1920 0.0000
# 6 0.0000 0.0000 0.0000 0.0000 0.0000 15.8635
#
#
#
# Elastic Compliance Matrix: (Units=1/GPa)
#
#
# Indices 1 2 3 4 5 6 
#
# 1 0.022229 -0.006630 -0.006288 0.000000 0.000000 0.000000
# 2 -0.006630 0.015606 -0.000916 0.000000 0.000000 0.000000
# 3 -0.006288 -0.000916 0.009735 0.000000 0.000000 0.000000
# 4 0.000000 0.000000 0.000000 0.075046 0.000000 0.000000
# 5 0.000000 0.000000 0.000000 0.000000 0.032060 0.000000
# 6 0.000000 0.000000 0.000000 0.000000 0.000000 0.063038
#
#
# Mechanical properties :
#
#
# Convention : Reuss Voigt Hill
#
# Bulk Modulus (GPa) = 50.24373 54.82849 52.53611
# Shear Modulus (GPa) = 19.84008 23.82736 21.83372
#
# Velocity S-wave (km/s) = 3.13877 3.43974 3.29270
# Velocity P-wave (km/s) = 6.17132 6.55757 6.36737
#
# Compressibility (1/GPa) = 0.01990298
#
# Stress axis : x y z
#
# Youngs Moduli (GPa) = 44.98693 64.07812 102.71822
#
# Poissons Ratio (x) = 0.42484 0.64590
# Poissons Ratio (y) = 0.29826 0.09404
# Poissons Ratio (z) = 0.28288 0.05866
#
# Static dielectric constant tensor:
#      x y z
#    x 3.903620 0.000000 0.000000 
#    y 0.000000 3.647280 0.000000 
#    z 0.000000 0.000000 3.405220 
# 
# 
# High freq. dielectric constant tensor:
#      x y z
#    x 1.789650 0.000000 0.000000 
#    y 0.000000 1.769130 0.000000 
#    z 0.000000 0.000000 1.785680 
# 
# From -- ./inp_files/20917.got.cif
#   From: 2010.03.12/outbox.cif.g09.slc.cpg/sg53_11_cif.got.tgz:20917.got - 2010.04.16 14:36:59.
