data_PCOD8219947
_publ_section_title
;
Structure prediction by ZEFSAII (Michael W. Deem and Ramdas Pophale) SiO2 
 PCOD8219947
Probable space group: P M N A
;
_chemical_formula_sum "Si O2"
_cell_formula_units_Z 56
_cell_length_a 15.005987
_cell_length_b 8.388659
_cell_length_c 21.885054
_cell_angle_alpha 90.000000
_cell_angle_beta 90.000000
_cell_angle_gamma 90.000000
_cell_volume 2754.892959
_symmetry_space_group_name_H-M "P M N A"
_symmetry_group_IT_number 53
_symmetry_cell_setting 'orthorhombic'
loop_
_space_group_symop_operation_xyz
x,y,z
1/2-x,-y,1/2+z
x,-y,-z
1/2-x,y,1/2-z
-x,-y,-z
1/2+x,y,1/2-z
-x,y,z
1/2+x,-y,1/2+z
loop_
_atom_site_type_symbol
_atom_site_label
_atom_site_fract_x
_atom_site_fract_y
_atom_site_fract_z
Si Si1 0.400971 0.718598 0.649614
Si Si2 0.398033 0.054880 0.709272
Si Si3 0.099569 0.953212 0.350737
Si Si4 0.771083 0.547159 0.932545
Si Si5 0.598917 0.296800 0.107852
Si Si6 0.157990 0.570936 0.732992
Si Si7 0.743064 0.713314 0.164483
O O1 0.500000 0.713669 0.622576
O O2 0.334599 0.684298 0.593836
O O3 0.397911 0.585777 0.704397
O O4 0.376665 0.894973 0.672291
O O5 0.500000 0.114308 0.696588
O O6 0.386421 0.006088 0.779641
O O7 0.325568 0.189641 0.693227
O O8 0.172591 0.824830 0.370652
O O9 0.000000 0.885084 0.361803
O O10 0.114696 0.107804 0.392781
O O11 0.669945 0.612936 0.934309
O O12 0.782919 0.398643 0.887651
O O13 0.801611 0.500000 0.000000
O O14 0.500000 0.338513 0.083638
O O15 0.604888 0.350884 0.178132
O O16 0.250000 0.664503 0.750000
O O17 0.186763 0.389019 0.715075
#
# Coordination Sequence:
#
# PCOD8219947 Si02
#       7
#     8   8   8   8   8   8   8
#     4  11  22  39  63  87 121 163 202 243 299 365
#     4  10  21  36  59  94 128 157 185 233 305 378
#     4  10  20  33  56  93 128 153 182 231 305 380
#     4  11  26  44  59  82 116 163 220 261 296 341
#     4  10  20  37  62  88 120 158 196 243 301 370
#     4  11  19  34  55  94 122 155 189 228 304 369
#     4  11  23  36  58  88 123 156 191 246 305 351
#
# _framework density 20.327468
#
# number of rings (size 3 to 8) (size 9 to 14) (size 15 to 20)
#    0.000    1.429    4.286    2.571    0.000    4.000 
#    0.000    2.857    0.000    3.429    0.000    0.000 
#    0.000    0.000    0.000    0.000    0.000    0.000 
#
# Total GULP energy -694050.756324 kJ/mol
# GULP energy per Si atom -12393.763506 kJ/mol
# Density = 2.028120 g / cm^3
# Si number density = 20.327468 Si / 1000 Ang^3
#
#
#
# Elastic Constant Matrix: (Units=GPa)
#
#
# Indices 1 2 3 4 5 6 
#
# 1 95.7680 41.8698 2.8974 0.0000 0.0000 0.0000
# 2 41.8698 85.9134 15.2786 0.0000 0.0000 0.0000
# 3 2.8974 15.2786 28.7230 0.0000 0.0000 0.0000
# 4 0.0000 0.0000 0.0000 13.4942 0.0000 0.0000
# 5 0.0000 0.0000 0.0000 0.0000 16.4917 0.0000
# 6 0.0000 0.0000 0.0000 0.0000 0.0000 28.3712
#
#
#
# Elastic Compliance Matrix: (Units=1/GPa)
#
#
# Indices 1 2 3 4 5 6 
#
# 1 0.013411 -0.006953 0.002346 0.000000 0.000000 0.000000
# 2 -0.006953 0.016460 -0.008054 0.000000 0.000000 0.000000
# 3 0.002346 -0.008054 0.038863 0.000000 0.000000 0.000000
# 4 0.000000 0.000000 0.000000 0.074106 0.000000 0.000000
# 5 0.000000 0.000000 0.000000 0.000000 0.060637 0.000000
# 6 0.000000 0.000000 0.000000 0.000000 0.000000 0.035247
#
#
# Mechanical properties :
#
#
# Convention : Reuss Voigt Hill
#
# Bulk Modulus (GPa) = 23.03565 36.72178 29.87872
# Shear Modulus (GPa) = 17.95218 21.69532 19.82375
#
# Velocity S-wave (km/s) = 2.97501 3.27049 3.12624
# Velocity P-wave (km/s) = 4.81225 5.68909 5.26894
#
# Compressibility (1/GPa) = 0.04341097
#
# Stress axis : x y z
#
# Youngs Moduli (GPa) = 74.56722 60.75160 25.73134
#
# Poissons Ratio (x) = 0.42240 -0.06036
# Poissons Ratio (y) = 0.51845 0.20725
# Poissons Ratio (z) = -0.17491 0.48932
#
# Static dielectric constant tensor:
#      x y z
#    x 3.946690 0.000000 0.000000 
#    y 0.000000 3.745850 0.000000 
#    z 0.000000 0.000000 3.215330 
# 
# 
# High freq. dielectric constant tensor:
#      x y z
#    x 1.809520 0.000000 0.000000 
#    y 0.000000 1.796300 0.000000 
#    z 0.000000 0.000000 1.744140 
# 
# From -- ./inp_files/32464.got.cif
#   From: 2010.03.12/outbox.cif.g09.slc.cpg/sg53_17_cif.got.tgz:32464.got - 2010.04.16 14:36:59.
