data_PCOD8219779
_publ_section_title
;
Structure prediction by ZEFSAII (Michael W. Deem and Ramdas Pophale) SiO2 
 PCOD8219779
Probable space group: P M N A
;
_chemical_formula_sum "Si O2"
_cell_formula_units_Z 64
_cell_length_a 8.771450
_cell_length_b 18.971528
_cell_length_c 23.386841
_cell_angle_alpha 90.000000
_cell_angle_beta 90.000000
_cell_angle_gamma 90.000000
_cell_volume 3891.752977
_symmetry_space_group_name_H-M "P M N A"
_symmetry_group_IT_number 53
_symmetry_cell_setting 'orthorhombic'
loop_
_space_group_symop_operation_xyz
x,y,z
1/2-x,-y,1/2+z
x,-y,-z
1/2-x,y,1/2-z
-x,-y,-z
1/2+x,y,1/2-z
-x,y,z
1/2+x,-y,1/2+z
loop_
_atom_site_type_symbol
_atom_site_label
_atom_site_fract_x
_atom_site_fract_y
_atom_site_fract_z
Si Si1 0.680182 0.242425 0.133053
Si Si2 0.680367 0.388783 0.977523
Si Si3 0.176629 0.978285 0.591701
Si Si4 0.680006 0.388304 0.189317
Si Si5 0.320652 0.104679 0.311315
Si Si6 0.680127 0.476894 0.085656
Si Si7 0.176683 0.111060 0.519939
Si Si8 0.178077 0.249634 0.008855
O O1 0.500000 0.231021 0.134743
O O2 0.731933 0.311939 0.167057
O O3 0.759039 0.177484 0.163808
O O4 0.729316 0.249703 0.067712
O O5 0.500000 0.373692 0.978451
O O6 0.739197 0.425588 0.035642
O O7 0.771242 0.316025 0.970322
O O8 0.726303 0.441602 0.925467
O O9 0.277958 0.959472 0.646510
O O10 0.209950 0.922305 0.541882
O O11 0.000000 0.975236 0.609128
O O12 0.221269 0.056100 0.569747
O O13 0.750000 0.405461 0.250000
O O14 0.500000 0.391573 0.194136
O O15 0.742886 0.448545 0.146089
O O16 0.250000 0.088370 0.250000
O O17 0.500000 0.110265 0.304949
O O18 0.500000 0.470841 0.083752
O O19 0.280610 0.179912 0.527279
O O20 0.000000 0.131788 0.524953
O O21 0.000000 0.251923 0.021947
#
# Coordination Sequence:
#
# PCOD8219779 Si02
#       8
#     8   8   8   8   8   8   8   8
#     4  11  21  35  51  67  97 137 177 211 239 282
#     4   9  16  31  53  69  90 126 166 206 245 291
#     4   9  18  34  54  75  97 128 168 209 248 294
#     4  10  20  33  49  70  95 128 167 205 242 287
#     4  12  24  36  51  73 102 137 174 210 247 291
#     4   8  15  30  51  71  89 122 170 207 240 289
#     4   9  18  33  54  74  98 131 166 202 248 301
#     4  12  22  30  46  76 107 132 161 200 251 304
#
# _framework density 16.445031
#
# number of rings (size 3 to 8) (size 9 to 14) (size 15 to 20)
#    0.000    2.000    2.500    4.500    0.000    2.500 
#    0.000    3.125    0.000    0.000    0.000    0.875 
#    0.000    2.000    0.000    0.000    0.000    0.000 
#
# Total GULP energy -793549.927810 kJ/mol
# GULP energy per Si atom -12399.217622 kJ/mol
# Density = 1.640760 g / cm^3
# Si number density = 16.445031 Si / 1000 Ang^3
#
#
#
# Elastic Constant Matrix: (Units=GPa)
#
#
# Indices 1 2 3 4 5 6 
#
# 1 68.4759 42.7846 34.6145 0.0000 0.0000 0.0000
# 2 42.7846 119.1907 59.8973 0.0000 0.0000 0.0000
# 3 34.6145 59.8973 99.7722 0.0000 0.0000 0.0000
# 4 0.0000 0.0000 0.0000 -3.7344 0.0000 0.0000
# 5 0.0000 0.0000 0.0000 0.0000 24.5765 0.0000
# 6 0.0000 0.0000 0.0000 0.0000 0.0000 16.0162
#
#
#
# Elastic Compliance Matrix: (Units=1/GPa)
#
#
# Indices 1 2 3 4 5 6 
#
# 1 0.019743 -0.005220 -0.003716 0.000000 0.000000 0.000000
# 2 -0.005220 0.013395 -0.006230 0.000000 0.000000 0.000000
# 3 -0.003716 -0.006230 0.015052 0.000000 0.000000 0.000000
# 4 0.000000 0.000000 0.000000 -0.267778 0.000000 0.000000
# 5 0.000000 0.000000 0.000000 0.000000 0.040689 0.000000
# 6 0.000000 0.000000 0.000000 0.000000 0.000000 0.062437
#
#
# Mechanical properties :
#
#
# Convention : Reuss Voigt Hill
#
# Bulk Modulus (GPa) = 55.99699 62.44795 59.22247
# Shear Modulus (GPa) = -62.36248 17.38114 -22.49067
#
# Velocity S-wave (km/s) = -6.16475 3.25456 -3.70216
# Velocity P-wave (km/s) = 4.06782 7.22351 4.22089
#
# Compressibility (1/GPa) = 0.01785810
#
# Stress axis : x y z
#
# Youngs Moduli (GPa) = 50.64966 74.65735 66.43425
#
# Poissons Ratio (x) = 0.38968 0.24688
# Poissons Ratio (y) = 0.26437 0.41391
# Poissons Ratio (z) = 0.18822 0.46515
#
# Static dielectric constant tensor:
#      x y z
#    x 2.936570 0.000000 0.000000 
#    y 0.000000 3.295370 0.000000 
#    z 0.000000 0.000000 3.019440 
# 
# 
# High freq. dielectric constant tensor:
#      x y z
#    x 1.623320 0.000000 0.000000 
#    y 0.000000 1.633240 0.000000 
#    z 0.000000 0.000000 1.608260 
# 
# From -- ./inp_files/34527.got.cif
#   From: 2010.03.12/outbox.cif.g09.slc.cpg/sg53_18_cif.got.tgz:34527.got - 2010.04.16 14:36:59.
