data_PCOD8219275
_publ_section_title
;
Structure prediction by ZEFSAII (Michael W. Deem and Ramdas Pophale) SiO2 
 PCOD8219275
Probable space group: P M N A
;
_chemical_formula_sum "Si O2"
_cell_formula_units_Z 64
_cell_length_a 9.106187
_cell_length_b 12.411544
_cell_length_c 28.436811
_cell_angle_alpha 90.000000
_cell_angle_beta 90.000000
_cell_angle_gamma 90.000000
_cell_volume 3213.980721
_symmetry_space_group_name_H-M "P M N A"
_symmetry_group_IT_number 53
_symmetry_cell_setting 'orthorhombic'
loop_
_space_group_symop_operation_xyz
x,y,z
1/2-x,-y,1/2+z
x,-y,-z
1/2-x,y,1/2-z
-x,-y,-z
1/2+x,y,1/2-z
-x,y,z
1/2+x,-y,1/2+z
loop_
_atom_site_type_symbol
_atom_site_label
_atom_site_fract_x
_atom_site_fract_y
_atom_site_fract_z
Si Si1 0.164766 0.494815 0.432425
Si Si2 0.165819 0.551632 0.324583
Si Si3 0.829594 0.828000 0.867807
Si Si4 0.673220 0.747263 0.955572
Si Si5 0.670721 0.757640 0.348476
Si Si6 0.172397 0.981213 0.199941
Si Si7 0.327820 0.703551 0.454217
Si Si8 0.170027 0.650504 0.793544
O O1 0.169410 0.511285 0.377402
O O2 0.218984 0.374725 0.443124
O O3 0.270556 0.580468 0.457649
O O4 0.000000 0.513751 0.451828
O O5 0.236205 0.669606 0.320009
O O6 0.262309 0.468616 0.295217
O O7 0.000000 0.555345 0.304941
O O8 0.737961 0.827252 0.916052
O O9 0.802101 0.715335 0.841314
O O10 0.000000 0.844675 0.880385
O O11 0.772767 0.923369 0.834112
O O12 0.500000 0.764829 0.958062
O O13 0.746201 0.774727 0.006000
O O14 0.500000 0.730214 0.341879
O O15 0.714100 0.871569 0.326615
O O16 0.711027 0.756174 0.403840
O O17 0.250000 0.988399 0.250000
O O18 0.000000 0.991420 0.209131
O O19 0.500000 0.704002 0.464173
O O20 0.250000 0.711203 0.750000
O O21 0.000000 0.642026 0.781712
#
# Coordination Sequence:
#
# PCOD8219275 Si02
#       8
#     8   8   8   8   8   8   8   8
#     4   9  18  32  50  76 112 152 189 228 276 331
#     4  10  19  34  55  81 114 150 186 227 281 340
#     4  10  22  39  59  84 113 147 190 238 285 342
#     4  11  21  34  54  81 116 155 192 234 285 340
#     4   9  20  39  60  83 116 153 192 239 288 340
#     4  10  22  42  66  89 112 144 190 242 294 345
#     4  10  20  33  53  82 114 153 196 236 281 336
#     4  11  22  35  54  80 112 146 183 229 285 347
#
# _framework density 19.913
#
# number of rings (size 3 to 8) (size 9 to 14) (size 15 to 20)
#    0.000    2.000    1.250    2.250    0.000    5.500 
#    0.000    1.875    0.000    3.750    0.000    0.000 
#    0.000    0.000    0.000    0.000    0.000    0.000 
#
# Total GULP energy -793693.161754 kJ/mol
# GULP energy per Si atom -12401.455652 kJ/mol
# Density = 1.986768 g / cm^3
# Si number density = 19.913000 Si / 1000 Ang^3
#
#
#
# Elastic Constant Matrix: (Units=GPa)
#
#
# Indices 1 2 3 4 5 6 
#
# 1 79.3670 38.0918 21.9358 0.0000 0.0000 0.0000
# 2 38.0918 94.0420 31.2300 0.0000 0.0000 0.0000
# 3 21.9358 31.2300 56.7661 0.0000 0.0000 0.0000
# 4 0.0000 0.0000 0.0000 21.8632 0.0000 0.0000
# 5 0.0000 0.0000 0.0000 0.0000 36.2397 0.0000
# 6 0.0000 0.0000 0.0000 0.0000 0.0000 22.3257
#
#
#
# Elastic Compliance Matrix: (Units=1/GPa)
#
#
# Indices 1 2 3 4 5 6 
#
# 1 0.016108 -0.005454 -0.003224 0.000000 0.000000 0.000000
# 2 -0.005454 0.014857 -0.006066 0.000000 0.000000 0.000000
# 3 -0.003224 -0.006066 0.022199 0.000000 0.000000 0.000000
# 4 0.000000 0.000000 0.000000 0.045739 0.000000 0.000000
# 5 0.000000 0.000000 0.000000 0.000000 0.027594 0.000000
# 6 0.000000 0.000000 0.000000 0.000000 0.000000 0.044791
#
#
# Mechanical properties :
#
#
# Convention : Reuss Voigt Hill
#
# Bulk Modulus (GPa) = 42.23628 45.85445 44.04537
# Shear Modulus (GPa) = 23.96125 25.34688 24.65407
#
# Velocity S-wave (km/s) = 3.47262 3.57162 3.52247
# Velocity P-wave (km/s) = 6.11026 6.33135 6.22179
#
# Compressibility (1/GPa) = 0.02367633
#
# Stress axis : x y z
#
# Youngs Moduli (GPa) = 62.07925 67.30743 45.04643
#
# Poissons Ratio (x) = 0.36710 0.14524
# Poissons Ratio (y) = 0.33858 0.27326
# Poissons Ratio (z) = 0.20015 0.40830
#
# Static dielectric constant tensor:
#      x y z
#    x 3.627070 0.000000 0.000000 
#    y 0.000000 3.479300 0.000000 
#    z 0.000000 0.000000 3.770390 
# 
# 
# High freq. dielectric constant tensor:
#      x y z
#    x 1.776820 0.000000 0.000000 
#    y 0.000000 1.754130 0.000000 
#    z 0.000000 0.000000 1.790130 
# 
# From -- ./inp_files/38235.got.cif
#   From: 2010.03.12/outbox.cif.g09.slc.cpg/sg53_20_cif.got.tgz:38235.got - 2010.04.16 14:36:59.
