data_PCOD8219903
_publ_section_title
;
Structure prediction by ZEFSAII (Michael W. Deem and Ramdas Pophale) SiO2 
 PCOD8219903
Probable space group: P M N A
;
_chemical_formula_sum "Si O2"
_cell_formula_units_Z 56
_cell_length_a 8.904750
_cell_length_b 15.689924
_cell_length_c 19.793746
_cell_angle_alpha 90.000000
_cell_angle_beta 90.000000
_cell_angle_gamma 90.000000
_cell_volume 2765.480268
_symmetry_space_group_name_H-M "P M N A"
_symmetry_group_IT_number 53
_symmetry_cell_setting 'orthorhombic'
loop_
_space_group_symop_operation_xyz
x,y,z
1/2-x,-y,1/2+z
x,-y,-z
1/2-x,y,1/2-z
-x,-y,-z
1/2+x,y,1/2-z
-x,y,z
1/2+x,-y,1/2+z
loop_
_atom_site_type_symbol
_atom_site_label
_atom_site_fract_x
_atom_site_fract_y
_atom_site_fract_z
Si Si1 0.827531 0.567303 0.445111
Si Si2 0.321762 0.156821 0.679786
Si Si3 0.324017 0.499694 0.682151
Si Si4 0.175642 0.693452 0.817985
Si Si5 0.327186 0.178980 0.086681
Si Si6 0.177049 0.976201 0.680830
Si Si7 0.670708 0.760921 0.056695
O O1 0.765328 0.500000 0.500000
O O2 0.729926 0.559307 0.378193
O O3 0.807342 0.664254 0.470188
O O4 0.000000 0.545658 0.428496
O O5 0.250000 0.190197 0.750000
O O6 0.500000 0.151500 0.687930
O O7 0.254517 0.064771 0.661334
O O8 0.280830 0.220373 0.618942
O O9 0.250000 0.463613 0.750000
O O10 0.500000 0.492159 0.690096
O O11 0.271449 0.596723 0.669005
O O12 0.250000 0.730318 0.750000
O O13 0.224290 0.748540 0.881539
O O14 0.000000 0.699861 0.807966
O O15 0.500000 0.203528 0.100102
O O16 0.289022 0.087765 0.119311
O O17 0.293396 0.176651 0.006467
O O18 0.250000 0.939974 0.750000
O O19 0.000000 0.989988 0.691963
O O20 0.500000 0.774959 0.081692
#
# Coordination Sequence:
#
# PCOD8219903 Si02
#       7
#     8   8   8   8   8   8   8
#     4  10  21  38  61  85 112 149 190 233 282 338
#     4  11  23  41  64  87 113 148 190 236 285 336
#     4  10  21  36  55  80 110 145 187 236 287 338
#     4  10  20  33  52  79 113 152 191 234 283 335
#     4  10  21  36  57  84 116 153 190 230 277 335
#     4  10  20  36  59  87 117 151 189 229 277 330
#     4  10  22  40  60  85 116 150 188 231 283 338
#
# _framework density 20.249648000000001
#
# number of rings (size 3 to 8) (size 9 to 14) (size 15 to 20)
#    0.000    1.857    0.000    4.714    0.000    7.714 
#    0.000    2.857    0.000    0.000    0.000    0.000 
#    0.000    0.000    0.000    0.000    0.000    0.000 
#
# Total GULP energy -694606.328936 kJ/mol
# GULP energy per Si atom -12403.684445 kJ/mol
# Density = 2.020356 g / cm^3
# Si number density = 20.249648 Si / 1000 Ang^3
#
#
#
# Elastic Constant Matrix: (Units=GPa)
#
#
# Indices 1 2 3 4 5 6 
#
# 1 94.1877 33.3137 44.7213 0.0000 0.0000 0.0000
# 2 33.3137 72.7736 50.1100 0.0000 0.0000 0.0000
# 3 44.7213 50.1100 127.3132 0.0000 0.0000 0.0000
# 4 0.0000 0.0000 0.0000 35.2417 0.0000 0.0000
# 5 0.0000 0.0000 0.0000 0.0000 34.8990 0.0000
# 6 0.0000 0.0000 0.0000 0.0000 0.0000 71.6801
#
#
#
# Elastic Compliance Matrix: (Units=1/GPa)
#
#
# Indices 1 2 3 4 5 6 
#
# 1 0.013545 -0.004012 -0.003179 0.000000 0.000000 0.000000
# 2 -0.004012 0.020038 -0.006478 0.000000 0.000000 0.000000
# 3 -0.003179 -0.006478 0.011521 0.000000 0.000000 0.000000
# 4 0.000000 0.000000 0.000000 0.028375 0.000000 0.000000
# 5 0.000000 0.000000 0.000000 0.000000 0.028654 0.000000
# 6 0.000000 0.000000 0.000000 0.000000 0.000000 0.013951
#
#
# Mechanical properties :
#
#
# Convention : Reuss Voigt Hill
#
# Bulk Modulus (GPa) = 56.28264 61.17385 58.72824
# Shear Modulus (GPa) = 33.47962 39.43948 36.45955
#
# Velocity S-wave (km/s) = 4.07054 4.41802 4.24784
# Velocity P-wave (km/s) = 7.06733 7.50337 7.28861
#
# Compressibility (1/GPa) = 0.01776747
#
# Stress axis : x y z
#
# Youngs Moduli (GPa) = 73.82531 49.90496 86.79805
#
# Poissons Ratio (x) = 0.20020 0.27594
# Poissons Ratio (y) = 0.29616 0.56226
# Poissons Ratio (z) = 0.23470 0.32327
#
# Static dielectric constant tensor:
#      x y z
#    x 3.622460 0.000000 0.000000 
#    y 0.000000 3.617960 0.000000 
#    z 0.000000 0.000000 3.685780 
# 
# 
# High freq. dielectric constant tensor:
#      x y z
#    x 1.790870 0.000000 0.000000 
#    y 0.000000 1.785300 0.000000 
#    z 0.000000 0.000000 1.793250 
# 
# From -- ./inp_files/30876.got.cif
#   From: 2010.03.12/outbox.cif.g09.slc.cpg/sg53_16_cif.got.tgz:30876.got - 2010.04.16 14:36:59.
