data_PCOD8219101
_publ_section_title
;
Structure prediction by ZEFSAII (Michael W. Deem and Ramdas Pophale) SiO2 
 PCOD8219101
Probable space group: P M N A
;
_chemical_formula_sum "Si O2"
_cell_formula_units_Z 56
_cell_length_a 9.372512
_cell_length_b 17.420690
_cell_length_c 19.002084
_cell_angle_alpha 90.000000
_cell_angle_beta 90.000000
_cell_angle_gamma 90.000000
_cell_volume 3102.577162
_symmetry_space_group_name_H-M "P M N A"
_symmetry_group_IT_number 53
_symmetry_cell_setting 'orthorhombic'
loop_
_space_group_symop_operation_xyz
x,y,z
1/2-x,-y,1/2+z
x,-y,-z
1/2-x,y,1/2-z
-x,-y,-z
1/2+x,y,1/2-z
-x,y,z
1/2+x,-y,1/2+z
loop_
_atom_site_type_symbol
_atom_site_label
_atom_site_fract_x
_atom_site_fract_y
_atom_site_fract_z
Si Si1 0.664023 0.339636 0.177636
Si Si2 0.832753 0.710725 0.031354
Si Si3 0.656852 0.071758 0.689949
Si Si4 0.838526 0.045985 0.066461
Si Si5 0.669119 0.196827 0.079105
Si Si6 0.339020 0.417493 0.035852
Si Si7 0.664879 0.756014 0.315505
O O1 0.750000 0.353081 0.250000
O O2 0.500000 0.338089 0.200487
O O3 0.706008 0.258213 0.140840
O O4 0.691673 0.408875 0.120461
O O5 0.799434 0.709822 0.114020
O O6 0.000000 0.724047 0.015890
O O7 0.740862 0.776619 0.993708
O O8 0.782462 0.628790 0.004042
O O9 0.750000 0.031960 0.750000
O O10 0.500000 0.080427 0.721608
O O11 0.715091 0.156403 0.670764
O O12 0.658260 0.019098 0.623562
O O13 0.737970 0.114117 0.094829
O O14 0.000000 0.076660 0.051315
O O15 0.774630 0.000000 0.000000
O O16 0.500000 0.188531 0.069623
O O17 0.500000 0.384022 0.024124
O O18 0.329336 0.500000 0.000000
O O19 0.750000 0.719385 0.250000
O O20 0.500000 0.749884 0.296601
#
# Coordination Sequence:
#
# PCOD8219101 Si02
#       7
#     8   8   8   8   8   8   8
#     4   9  19  35  55  79 105 137 176 216 260 311
#     4  10  19  33  54  78 103 131 168 210 250 298
#     4   9  18  32  48  66  92 127 164 204 253 304
#     4  10  20  34  51  71  98 132 171 218 269 313
#     4  10  21  35  51  74 102 134 175 217 261 314
#     4   9  19  37  58  80 109 142 172 205 252 307
#     4   9  18  32  50  72  98 130 168 209 252 300
#
# _framework density 18.049510999999999
#
# number of rings (size 3 to 8) (size 9 to 14) (size 15 to 20)
#    0.000    2.571    0.000    2.571    0.000    8.000 
#    0.000    6.429    0.000    3.429    0.000    0.000 
#    0.000    0.000    0.000    0.000    0.000    0.000 
#
# Total GULP energy -693956.798097 kJ/mol
# GULP energy per Si atom -12392.085680 kJ/mol
# Density = 1.800843 g / cm^3
# Si number density = 18.049511 Si / 1000 Ang^3
#
#
#
# Elastic Constant Matrix: (Units=GPa)
#
#
# Indices 1 2 3 4 5 6 
#
# 1 81.6345 29.8001 64.8904 0.0000 0.0000 0.0000
# 2 29.8001 55.7267 39.8630 0.0000 0.0000 0.0000
# 3 64.8904 39.8630 132.6951 0.0000 0.0000 0.0000
# 4 0.0000 0.0000 0.0000 19.9567 0.0000 0.0000
# 5 0.0000 0.0000 0.0000 0.0000 34.2696 0.0000
# 6 0.0000 0.0000 0.0000 0.0000 0.0000 17.7251
#
#
#
# Elastic Compliance Matrix: (Units=1/GPa)
#
#
# Indices 1 2 3 4 5 6 
#
# 1 0.021064 -0.004962 -0.008810 0.000000 0.000000 0.000000
# 2 -0.004962 0.024025 -0.004791 0.000000 0.000000 0.000000
# 3 -0.008810 -0.004791 0.013284 0.000000 0.000000 0.000000
# 4 0.000000 0.000000 0.000000 0.050108 0.000000 0.000000
# 5 0.000000 0.000000 0.000000 0.000000 0.029180 0.000000
# 6 0.000000 0.000000 0.000000 0.000000 0.000000 0.056417
#
#
# Mechanical properties :
#
#
# Convention : Reuss Voigt Hill
#
# Bulk Modulus (GPa) = 47.06562 59.90704 53.48633
# Shear Modulus (GPa) = 20.98307 23.42381 22.20344
#
# Velocity S-wave (km/s) = 3.41329 3.60634 3.51114
# Velocity P-wave (km/s) = 6.45496 7.11361 6.79227
#
# Compressibility (1/GPa) = 0.02124693
#
# Stress axis : x y z
#
# Youngs Moduli (GPa) = 47.47402 41.62287 75.28051
#
# Poissons Ratio (x) = 0.20653 0.66323
# Poissons Ratio (y) = 0.23557 0.36066
# Poissons Ratio (z) = 0.41825 0.19941
#
# Static dielectric constant tensor:
#      x y z
#    x 3.649510 0.000000 0.000000 
#    y 0.000000 3.232590 0.000000 
#    z 0.000000 0.000000 3.328020 
# 
# 
# High freq. dielectric constant tensor:
#      x y z
#    x 1.702610 0.000000 0.000000 
#    y 0.000000 1.680160 0.000000 
#    z 0.000000 0.000000 1.700770 
# 
# From -- ./inp_files/31019.got.cif
#   From: 2010.03.12/outbox.cif.g09.slc.cpg/sg53_16_cif.got.tgz:31019.got - 2010.04.16 14:36:59.
