data_PCOD8219622
_publ_section_title
;
Structure prediction by ZEFSAII (Michael W. Deem and Ramdas Pophale) SiO2 
 PCOD8219622
Probable space group: P M N A
;
_chemical_formula_sum "Si O2"
_cell_formula_units_Z 64
_cell_length_a 17.601936
_cell_length_b 15.314183
_cell_length_c 12.641819
_cell_angle_alpha 90.000000
_cell_angle_beta 90.000000
_cell_angle_gamma 90.000000
_cell_volume 3407.719489
_symmetry_space_group_name_H-M "P M N A"
_symmetry_group_IT_number 53
_symmetry_cell_setting 'orthorhombic'
loop_
_space_group_symop_operation_xyz
x,y,z
1/2-x,-y,1/2+z
x,-y,-z
1/2-x,y,1/2-z
-x,-y,-z
1/2+x,y,1/2-z
-x,y,z
1/2+x,-y,1/2+z
loop_
_atom_site_type_symbol
_atom_site_label
_atom_site_fract_x
_atom_site_fract_y
_atom_site_fract_z
Si Si1 0.415272 0.014675 0.749102
Si Si2 0.412893 0.405434 0.966930
Si Si3 0.674887 0.910937 0.054330
Si Si4 0.800271 0.784766 0.026308
Si Si5 0.809001 0.692593 0.337346
Si Si6 0.667904 0.840390 0.707797
Si Si7 0.088598 0.229286 0.406888
Si Si8 0.414420 0.199960 0.695776
O O1 0.500000 0.985229 0.783719
O O2 0.373174 0.059271 0.846292
O O3 0.419208 0.096642 0.669771
O O4 0.375228 0.932360 0.694712
O O5 0.500000 0.411999 0.934976
O O6 0.398995 0.328284 0.052415
O O7 0.382228 0.500000 0.000000
O O8 0.367239 0.385065 0.859690
O O9 0.758879 0.870749 0.075989
O O10 0.627812 0.843581 0.980492
O O11 0.696068 0.000000 0.000000
O O12 0.736067 0.711688 0.052599
O O13 0.876660 0.760187 0.090270
O O14 0.822184 0.790584 0.903546
O O15 0.750000 0.661155 0.250000
O O16 0.859856 0.775768 0.296729
O O17 0.750000 0.865335 0.750000
O O18 0.623916 0.777051 0.789067
O O19 0.000000 0.206459 0.402354
O O20 0.500000 0.237282 0.713931
#
# Coordination Sequence:
#
# PCOD8219622 Si02
#       8
#     8   8   8   8   8   8   8   8
#     4  11  23  35  52  76 105 144 192 241 282 328
#     4  10  20  37  62  89 117 145 180 230 292 345
#     4  12  21  34  57  81 108 147 190 237 279 324
#     4  11  23  37  56  78 111 153 194 237 284 340
#     4  10  19  37  61  84 109 142 188 234 283 340
#     4  12  23  36  51  75 111 151 192 230 283 334
#     4  11  22  37  58  83 113 147 187 237 282 334
#     4  10  22  36  55  79 109 146 188 237 289 335
#
# _framework density 18.780888999999998
#
# number of rings (size 3 to 8) (size 9 to 14) (size 15 to 20)
#    0.000    1.125    5.000    1.125    3.500    3.500 
#    0.000    3.125    0.000    0.000    0.000    0.000 
#    0.000    9.500    0.000    0.000    0.000    0.000 
#
# Total GULP energy -792840.555581 kJ/mol
# GULP energy per Si atom -12388.133681 kJ/mol
# Density = 1.873814 g / cm^3
# Si number density = 18.780889 Si / 1000 Ang^3
#
#
#
# Elastic Constant Matrix: (Units=GPa)
#
#
# Indices 1 2 3 4 5 6 
#
# 1 110.6585 27.1302 44.8768 0.0000 0.0000 0.0000
# 2 27.1302 91.5756 20.4597 0.0000 0.0000 0.0000
# 3 44.8768 20.4597 98.3300 0.0000 0.0000 0.0000
# 4 0.0000 0.0000 0.0000 16.5743 0.0000 0.0000
# 5 0.0000 0.0000 0.0000 0.0000 29.9453 0.0000
# 6 0.0000 0.0000 0.0000 0.0000 0.0000 19.0692
#
#
#
# Elastic Compliance Matrix: (Units=1/GPa)
#
#
# Indices 1 2 3 4 5 6 
#
# 1 0.011554 -0.002354 -0.004783 0.000000 0.000000 0.000000
# 2 -0.002354 0.011932 -0.001408 0.000000 0.000000 0.000000
# 3 -0.004783 -0.001408 0.012646 0.000000 0.000000 0.000000
# 4 0.000000 0.000000 0.000000 0.060334 0.000000 0.000000
# 5 0.000000 0.000000 0.000000 0.000000 0.033394 0.000000
# 6 0.000000 0.000000 0.000000 0.000000 0.000000 0.052440
#
#
# Mechanical properties :
#
#
# Convention : Reuss Voigt Hill
#
# Bulk Modulus (GPa) = 52.52022 53.94414 53.23218
# Shear Modulus (GPa) = 24.30265 26.99094 25.64679
#
# Velocity S-wave (km/s) = 3.60114 3.79509 3.69938
# Velocity P-wave (km/s) = 6.73174 6.92740 6.83027
#
# Compressibility (1/GPa) = 0.01904029
#
# Stress axis : x y z
#
# Youngs Moduli (GPa) = 86.55168 83.80788 79.07735
#
# Poissons Ratio (x) = 0.19731 0.37824
# Poissons Ratio (y) = 0.20377 0.11136
# Poissons Ratio (z) = 0.41399 0.11802
#
# Static dielectric constant tensor:
#      x y z
#    x 3.764830 0.000000 0.000000 
#    y 0.000000 3.249200 0.000000 
#    z 0.000000 0.000000 3.394230 
# 
# 
# High freq. dielectric constant tensor:
#      x y z
#    x 1.751730 0.000000 0.000000 
#    y 0.000000 1.695010 0.000000 
#    z 0.000000 0.000000 1.714360 
# 
# From -- ./inp_files/17098.got.cif
#   From: 2010.03.12/outbox.cif.g09.slc.cpg/sg53_9_cif.got.tgz:17098.got - 2010.04.16 14:36:59.
