data_PCOD8219476
_publ_section_title
;
Structure prediction by ZEFSAII (Michael W. Deem and Ramdas Pophale) SiO2 
 PCOD8219476
Probable space group: P M N A
;
_chemical_formula_sum "Si O2"
_cell_formula_units_Z 60
_cell_length_a 14.063305
_cell_length_b 11.463451
_cell_length_c 19.086245
_cell_angle_alpha 90.000000
_cell_angle_beta 90.000000
_cell_angle_gamma 90.000000
_cell_volume 3076.970050
_symmetry_space_group_name_H-M "P M N A"
_symmetry_group_IT_number 53
_symmetry_cell_setting 'orthorhombic'
loop_
_space_group_symop_operation_xyz
x,y,z
1/2-x,-y,1/2+z
x,-y,-z
1/2-x,y,1/2-z
-x,-y,-z
1/2+x,y,1/2-z
-x,y,z
1/2+x,-y,1/2+z
loop_
_atom_site_type_symbol
_atom_site_label
_atom_site_fract_x
_atom_site_fract_y
_atom_site_fract_z
Si Si1 0.735401 0.444594 0.426447
Si Si2 0.388759 0.587567 0.704254
Si Si3 0.236413 0.031145 0.368316
Si Si4 0.250000 0.215013 0.250000
Si Si5 0.268565 0.201673 0.011216
Si Si6 0.608854 0.434731 0.836519
Si Si7 0.395851 0.912380 0.437169
Si Si8 0.890937 0.816694 0.381515
O O1 0.702427 0.500000 0.500000
O O2 0.650495 0.455852 0.370428
O O3 0.760587 0.309219 0.435882
O O4 0.828185 0.509809 0.397923
O O5 0.500000 0.611992 0.696694
O O6 0.340098 0.706896 0.729474
O O7 0.364807 0.487991 0.761047
O O8 0.221367 0.132512 0.313335
O O9 0.213892 0.083497 0.445017
O O10 0.343911 0.978735 0.372107
O O11 0.165215 0.926332 0.349896
O O12 0.172005 0.192384 0.964378
O O13 0.357135 0.217483 0.959542
O O14 0.500000 0.463292 0.856273
O O15 0.625384 0.295746 0.831880
O O16 0.500000 0.865075 0.412402
O O17 0.413833 0.000000 0.500000
O O18 0.000000 0.852870 0.385256
#
# Coordination Sequence:
#
# PCOD8219476 Si02
#       8
#     8   8   8   4   8   8   8   8
#     4  12  22  39  65  93 129 160 207 271 318 372
#     4  11  24  43  67  92 124 167 209 258 318 378
#     4  10  21  36  58  87 121 159 208 247 307 365
#     4  12  22  42  62  90 126 166 210 260 306 366
#     4  10  19  35  58  90 122 156 199 251 313 370
#     4  10  21  40  65  91 123 167 213 255 319 388
#     4   8  16  32  54  79 110 151 192 237 293 354
#     4  10  21  38  61  91 125 159 202 257 308 370
#
# _framework density 19.499701999999999
#
# number of rings (size 3 to 8) (size 9 to 14) (size 15 to 20)
#    0.000    1.733    4.000    1.200    0.000    3.733 
#    2.400    0.000    0.000    0.000    0.000    0.000 
#    0.000    0.000    0.000    0.000    0.000    0.000 
#
# Total GULP energy -743920.534750 kJ/mol
# GULP energy per Si atom -12398.675579 kJ/mol
# Density = 1.945532 g / cm^3
# Si number density = 19.499702 Si / 1000 Ang^3
#
#
#
# Elastic Constant Matrix: (Units=GPa)
#
#
# Indices 1 2 3 4 5 6 
#
# 1 136.6700 65.5834 56.2817 0.0000 0.0000 0.0000
# 2 65.5834 120.9632 54.8099 0.0000 0.0000 0.0000
# 3 56.2817 54.8099 115.8816 0.0000 0.0000 0.0000
# 4 0.0000 0.0000 0.0000 41.2178 0.0000 0.0000
# 5 0.0000 0.0000 0.0000 0.0000 17.8765 0.0000
# 6 0.0000 0.0000 0.0000 0.0000 0.0000 25.1276
#
#
#
# Elastic Compliance Matrix: (Units=1/GPa)
#
#
# Indices 1 2 3 4 5 6 
#
# 1 0.010711 -0.004391 -0.003125 0.000000 0.000000 0.000000
# 2 -0.004391 0.012322 -0.003695 0.000000 0.000000 0.000000
# 3 -0.003125 -0.003695 0.011895 0.000000 0.000000 0.000000
# 4 0.000000 0.000000 0.000000 0.024261 0.000000 0.000000
# 5 0.000000 0.000000 0.000000 0.000000 0.055939 0.000000
# 6 0.000000 0.000000 0.000000 0.000000 0.000000 0.039797
#
#
# Mechanical properties :
#
#
# Convention : Reuss Voigt Hill
#
# Bulk Modulus (GPa) = 79.96944 80.76276 80.36610
# Shear Modulus (GPa) = 27.54542 29.96702 28.75622
#
# Velocity S-wave (km/s) = 3.76254 3.92445 3.84435
# Velocity P-wave (km/s) = 7.74437 7.87670 7.81082
#
# Compressibility (1/GPa) = 0.01250478
#
# Stress axis : x y z
#
# Youngs Moduli (GPa) = 93.36117 81.15392 84.06715
#
# Poissons Ratio (x) = 0.35637 0.26273
# Poissons Ratio (y) = 0.40997 0.31067
# Poissons Ratio (z) = 0.29177 0.29990
#
# Static dielectric constant tensor:
#      x y z
#    x 3.675760 0.000000 0.000000 
#    y 0.000000 3.628530 0.000000 
#    z 0.000000 0.000000 3.530950 
# 
# 
# High freq. dielectric constant tensor:
#      x y z
#    x 1.757200 0.000000 0.000000 
#    y 0.000000 1.765010 0.000000 
#    z 0.000000 0.000000 1.750580 
# 
# From -- ./inp_files/28509.got.cif
#   From: 2010.03.12/outbox.cif.g09.slc.cpg/sg53_15_cif.got.tgz:28509.got - 2010.04.16 14:36:59.
