data_PCOD8219954
_publ_section_title
;
Structure prediction by ZEFSAII (Michael W. Deem and Ramdas Pophale) SiO2 
 PCOD8219954
Probable space group: P M N A
;
_chemical_formula_sum "Si O2"
_cell_formula_units_Z 64
_cell_length_a 18.396134
_cell_length_b 9.481729
_cell_length_c 24.007996
_cell_angle_alpha 90.000000
_cell_angle_beta 90.000000
_cell_angle_gamma 90.000000
_cell_volume 4187.646493
_symmetry_space_group_name_H-M "P M N A"
_symmetry_group_IT_number 53
_symmetry_cell_setting 'orthorhombic'
loop_
_space_group_symop_operation_xyz
x,y,z
1/2-x,-y,1/2+z
x,-y,-z
1/2-x,y,1/2-z
-x,-y,-z
1/2+x,y,1/2-z
-x,y,z
1/2+x,-y,1/2+z
loop_
_atom_site_type_symbol
_atom_site_label
_atom_site_fract_x
_atom_site_fract_y
_atom_site_fract_z
Si Si1 0.082620 0.312738 0.255817
Si Si2 0.663407 0.485973 0.151577
Si Si3 0.161553 0.184514 0.646302
Si Si4 0.915361 0.146678 0.529097
Si Si5 0.214221 0.301825 0.189672
Si Si6 0.416978 0.015624 0.758205
Si Si7 0.785507 0.990999 0.189522
Si Si8 0.578974 0.609415 0.952270
O O1 0.108839 0.412083 0.305641
O O2 0.129720 0.343066 0.199832
O O3 0.092475 0.149457 0.274197
O O4 0.000000 0.349339 0.241138
O O5 0.666115 0.652011 0.163351
O O6 0.744688 0.420647 0.154010
O O7 0.635587 0.455844 0.090173
O O8 0.132501 0.164121 0.584178
O O9 0.243307 0.119897 0.650307
O O10 0.107613 0.105706 0.688518
O O11 0.888051 0.252565 0.481262
O O12 0.000000 0.172664 0.544673
O O13 0.901853 0.000000 0.500000
O O14 0.250000 0.294560 0.250000
O O15 0.219997 0.146685 0.161506
O O16 0.500000 0.052864 0.744002
O O17 0.369682 0.051132 0.702399
O O18 0.750000 0.993099 0.250000
O O19 0.500000 0.642402 0.923752
O O20 0.564315 0.500000 0.000000
#
# Coordination Sequence:
#
# PCOD8219954 Si02
#       8
#     8   8   8   8   8   8   8   8
#     4   9  18  31  47  66  88 117 150 181 215 261
#     4  11  20  29  45  65  89 121 149 178 220 260
#     4  11  20  30  44  65  91 118 149 182 220 259
#     4  10  22  34  45  63  86 115 152 189 217 249
#     4   8  16  30  45  63  86 114 148 179 213 262
#     4   9  18  31  47  65  88 117 149 182 218 261
#     4   8  16  30  45  62  86 115 145 181 218 257
#     4  10  20  34  45  59  88 119 148 182 217 252
#
# _framework density 15.283048000000001
#
# number of rings (size 3 to 8) (size 9 to 14) (size 15 to 20)
#    0.000    2.500    1.250    3.000    3.500    6.000 
#    0.000    0.000    0.000    0.000    0.000    0.000 
#    0.000    2.000    0.000    0.125    0.000    0.000 
#
# Total GULP energy -793127.544834 kJ/mol
# GULP energy per Si atom -12392.617888 kJ/mol
# Density = 1.524826 g / cm^3
# Si number density = 15.283048 Si / 1000 Ang^3
#
#
#
# Elastic Constant Matrix: (Units=GPa)
#
#
# Indices 1 2 3 4 5 6 
#
# 1 116.1828 47.1431 37.4626 0.0000 0.0000 0.0000
# 2 47.1431 102.9520 32.5757 0.0000 0.0000 0.0000
# 3 37.4626 32.5757 43.7094 0.0000 0.0000 0.0000
# 4 0.0000 0.0000 0.0000 20.8492 0.0000 0.0000
# 5 0.0000 0.0000 0.0000 0.0000 21.3480 0.0000
# 6 0.0000 0.0000 0.0000 0.0000 0.0000 16.9946
#
#
#
# Elastic Compliance Matrix: (Units=1/GPa)
#
#
# Indices 1 2 3 4 5 6 
#
# 1 0.012598 -0.003078 -0.008504 0.000000 0.000000 0.000000
# 2 -0.003078 0.013463 -0.007395 0.000000 0.000000 0.000000
# 3 -0.008504 -0.007395 0.035678 0.000000 0.000000 0.000000
# 4 0.000000 0.000000 0.000000 0.047963 0.000000 0.000000
# 5 0.000000 0.000000 0.000000 0.000000 0.046843 0.000000
# 6 0.000000 0.000000 0.000000 0.000000 0.000000 0.058842
#
#
# Mechanical properties :
#
#
# Convention : Reuss Voigt Hill
#
# Bulk Modulus (GPa) = 42.04313 55.24521 48.64417
# Shear Modulus (GPa) = 19.13730 21.54921 20.34326
#
# Velocity S-wave (km/s) = 3.54247 3.75908 3.65238
# Velocity P-wave (km/s) = 6.65594 7.42074 7.04872
#
# Compressibility (1/GPa) = 0.02378510
#
# Stress axis : x y z
#
# Youngs Moduli (GPa) = 79.37733 74.27890 28.02836
#
# Poissons Ratio (x) = 0.22864 0.23834
# Poissons Ratio (y) = 0.24434 0.20728
# Poissons Ratio (z) = 0.67499 0.54931
#
# Static dielectric constant tensor:
#      x y z
#    x 3.415980 0.000000 0.000000 
#    y 0.000000 3.077750 0.000000 
#    z 0.000000 0.000000 2.335280 
# 
# 
# High freq. dielectric constant tensor:
#      x y z
#    x 1.580870 0.000000 0.000000 
#    y 0.000000 1.597850 0.000000 
#    z 0.000000 0.000000 1.542580 
# 
# From -- ./inp_files/37173.got.cif
#   From: 2010.03.12/outbox.cif.g09.slc.cpg/sg53_19_cif.got.tgz:37173.got - 2010.04.16 14:36:59.
