data_PCOD8219225
_publ_section_title
;
Structure prediction by ZEFSAII (Michael W. Deem and Ramdas Pophale) SiO2 
 PCOD8219225
Probable space group: P M N A
;
_chemical_formula_sum "Si O2"
_cell_formula_units_Z 48
_cell_length_a 15.281514
_cell_length_b 9.211020
_cell_length_c 18.426474
_cell_angle_alpha 90.000000
_cell_angle_beta 90.000000
_cell_angle_gamma 90.000000
_cell_volume 2593.679728
_symmetry_space_group_name_H-M "P M N A"
_symmetry_group_IT_number 53
_symmetry_cell_setting 'orthorhombic'
loop_
_space_group_symop_operation_xyz
x,y,z
1/2-x,-y,1/2+z
x,-y,-z
1/2-x,y,1/2-z
-x,-y,-z
1/2+x,y,1/2-z
-x,y,z
1/2+x,-y,1/2+z
loop_
_atom_site_type_symbol
_atom_site_label
_atom_site_fract_x
_atom_site_fract_y
_atom_site_fract_z
Si Si1 0.256460 0.797743 0.564441
Si Si2 0.252766 0.881210 0.100267
Si Si3 0.397145 0.436449 0.420176
Si Si4 0.595810 0.698317 0.155568
Si Si5 0.666605 0.338045 0.699891
Si Si6 0.399969 0.580625 0.924411
O O1 0.269190 0.831733 0.480370
O O2 0.341688 0.709850 0.590205
O O3 0.165532 0.715463 0.579750
O O4 0.252909 0.946146 0.610071
O O5 0.349479 0.828096 0.120838
O O6 0.184871 0.808009 0.155138
O O7 0.376236 0.500000 0.500000
O O8 0.500000 0.402614 0.411863
O O9 0.365081 0.541186 0.356249
O O10 0.500000 0.717856 0.121862
O O11 0.591019 0.703061 0.243057
O O12 0.631829 0.538374 0.134307
O O13 0.750000 0.385220 0.750000
O O14 0.500000 0.634007 0.910588
O O15 0.390955 0.500000 0.000000
#
# Coordination Sequence:
#
# PCOD8219225 Si02
#       6
#     8   8   8   8   8   8
#     4  11  20  36  57  83 118 148 181 243 290 337
#     4  10  21  34  55  82 113 150 189 225 290 346
#     4  11  22  38  62  89 113 147 199 250 290 334
#     4  10  20  36  57  83 114 151 192 232 281 347
#     4  10  20  38  59  82 112 155 194 235 286 345
#     4  10  19  33  58  89 118 149 188 234 283 337
#
# _framework density 18.506526000000001
#
# number of rings (size 3 to 8) (size 9 to 14) (size 15 to 20)
#    0.000    1.667    3.333    3.000    0.000    0.667 
#    0.000   12.500    0.000    0.000    0.000    0.000 
#    0.000    0.000    0.000    0.000    0.000    0.000 
#
# Total GULP energy -594999.768236 kJ/mol
# GULP energy per Si atom -12395.828505 kJ/mol
# Density = 1.846440 g / cm^3
# Si number density = 18.506526 Si / 1000 Ang^3
#
#
#
# Elastic Constant Matrix: (Units=GPa)
#
#
# Indices 1 2 3 4 5 6 
#
# 1 101.8180 73.5337 28.8933 0.0000 0.0000 0.0000
# 2 73.5337 150.9052 48.8000 0.0000 0.0000 0.0000
# 3 28.8933 48.8000 92.7270 0.0000 0.0000 0.0000
# 4 0.0000 0.0000 0.0000 29.2307 0.0000 0.0000
# 5 0.0000 0.0000 0.0000 0.0000 12.8145 0.0000
# 6 0.0000 0.0000 0.0000 0.0000 0.0000 15.1589
#
#
#
# Elastic Compliance Matrix: (Units=1/GPa)
#
#
# Indices 1 2 3 4 5 6 
#
# 1 0.015233 -0.007095 -0.001012 0.000000 0.000000 0.000000
# 2 -0.007095 0.011291 -0.003731 0.000000 0.000000 0.000000
# 3 -0.001012 -0.003731 0.013063 0.000000 0.000000 0.000000
# 4 0.000000 0.000000 0.000000 0.034211 0.000000 0.000000
# 5 0.000000 0.000000 0.000000 0.000000 0.078036 0.000000
# 6 0.000000 0.000000 0.000000 0.000000 0.000000 0.065968
#
#
# Mechanical properties :
#
#
# Convention : Reuss Voigt Hill
#
# Bulk Modulus (GPa) = 62.85636 71.98936 67.42286
# Shear Modulus (GPa) = 20.26070 24.38905 22.32488
#
# Velocity S-wave (km/s) = 3.31235 3.63418 3.47699
# Velocity P-wave (km/s) = 6.97617 7.52287 7.25467
#
# Compressibility (1/GPa) = 0.01590929
#
# Stress axis : x y z
#
# Youngs Moduli (GPa) = 65.64634 88.56784 76.54963
#
# Poissons Ratio (x) = 0.62843 0.07750
# Poissons Ratio (y) = 0.46579 0.28562
# Poissons Ratio (z) = 0.06646 0.33046
#
# Static dielectric constant tensor:
#      x y z
#    x 3.506500 0.000000 0.000000 
#    y 0.000000 3.394280 0.000000 
#    z 0.000000 0.000000 3.630390 
# 
# 
# High freq. dielectric constant tensor:
#      x y z
#    x 1.722940 0.000000 0.000000 
#    y 0.000000 1.702010 0.000000 
#    z 0.000000 0.000000 1.725200 
# 
# From -- ./inp_files/32294.got.cif
#   From: 2010.03.12/outbox.cif.g09.slc.cpg/sg53_17_cif.got.tgz:32294.got - 2010.04.16 14:36:59.
