data_PCOD8219047
_publ_section_title
;
Structure prediction by ZEFSAII (Michael W. Deem and Ramdas Pophale) SiO2 
 PCOD8219047
Probable space group: P M N A
;
_chemical_formula_sum "Si O2"
_cell_formula_units_Z 48
_cell_length_a 15.332760
_cell_length_b 9.222178
_cell_length_c 18.457732
_cell_angle_alpha 90.000000
_cell_angle_beta 90.000000
_cell_angle_gamma 90.000000
_cell_volume 2609.949920
_symmetry_space_group_name_H-M "P M N A"
_symmetry_group_IT_number 53
_symmetry_cell_setting 'orthorhombic'
loop_
_space_group_symop_operation_xyz
x,y,z
1/2-x,-y,1/2+z
x,-y,-z
1/2-x,y,1/2-z
-x,-y,-z
1/2+x,y,1/2-z
-x,y,z
1/2+x,-y,1/2+z
loop_
_atom_site_type_symbol
_atom_site_label
_atom_site_fract_x
_atom_site_fract_y
_atom_site_fract_z
Si Si1 0.838878 0.348530 0.708381
Si Si2 0.736533 0.837006 0.084269
Si Si3 0.733504 0.174348 0.081523
Si Si4 0.095330 0.153399 0.831325
Si Si5 0.099215 0.176861 0.170864
Si Si6 0.599732 0.663668 0.817408
O O1 0.750000 0.387704 0.750000
O O2 0.825571 0.255353 0.635868
O O3 0.898595 0.255247 0.761638
O O4 0.889036 0.491723 0.684749
O O5 0.836573 0.807174 0.106211
O O6 0.712639 0.005516 0.093669
O O7 0.725605 0.783610 0.002429
O O8 0.831781 0.212955 0.107490
O O9 0.662312 0.268662 0.122736
O O10 0.000000 0.172504 0.866490
O O11 0.109634 0.989226 0.804031
O O12 0.124700 0.274470 0.239051
O O13 0.000000 0.209030 0.143881
O O14 0.500000 0.701971 0.837397
#
# Coordination Sequence:
#
# PCOD8219047 Si02
#       6
#     8   8   8   8   8   8
#     4  10  19  33  52  74 101 135 171 211 255 300
#     4   9  20  34  53  76 103 137 170 202 255 307
#     4  10  19  36  54  75 107 138 166 209 253 302
#     4   9  17  32  54  80 105 130 164 208 252 304
#     4   9  18  32  55  82 105 132 167 205 253 306
#     4  11  22  35  52  75 100 134 177 217 255 297
#
# _framework density 18.391158999999998
#
# number of rings (size 3 to 8) (size 9 to 14) (size 15 to 20)
#    0.000    2.333    0.000    3.000    0.000    4.000 
#    0.000    8.333    0.000    0.000    0.000    9.333 
#    0.000    0.000    0.000    0.000    0.000    0.000 
#
# Total GULP energy -595229.302375 kJ/mol
# GULP energy per Si atom -12400.610466 kJ/mol
# Density = 1.834930 g / cm^3
# Si number density = 18.391159 Si / 1000 Ang^3
#
#
#
# Elastic Constant Matrix: (Units=GPa)
#
#
# Indices 1 2 3 4 5 6 
#
# 1 66.2425 25.5409 30.7032 0.0000 0.0000 0.0000
# 2 25.5409 74.6601 41.9967 0.0000 0.0000 0.0000
# 3 30.7032 41.9967 107.0627 0.0000 0.0000 0.0000
# 4 0.0000 0.0000 0.0000 6.2628 0.0000 0.0000
# 5 0.0000 0.0000 0.0000 0.0000 19.6095 0.0000
# 6 0.0000 0.0000 0.0000 0.0000 0.0000 28.0217
#
#
#
# Elastic Compliance Matrix: (Units=1/GPa)
#
#
# Indices 1 2 3 4 5 6 
#
# 1 0.018414 -0.004271 -0.003605 0.000000 0.000000 0.000000
# 2 -0.004271 0.018177 -0.005905 0.000000 0.000000 0.000000
# 3 -0.003605 -0.005905 0.012691 0.000000 0.000000 0.000000
# 4 0.000000 0.000000 0.000000 0.159674 0.000000 0.000000
# 5 0.000000 0.000000 0.000000 0.000000 0.050996 0.000000
# 6 0.000000 0.000000 0.000000 0.000000 0.000000 0.035687
#
#
# Mechanical properties :
#
#
# Convention : Reuss Voigt Hill
#
# Bulk Modulus (GPa) = 46.04493 49.38300 47.71397
# Shear Modulus (GPa) = 15.13130 20.76042 17.94586
#
# Velocity S-wave (km/s) = 2.87147 3.36345 3.12715
# Velocity P-wave (km/s) = 6.00705 6.48024 6.24812
#
# Compressibility (1/GPa) = 0.02171792
#
# Stress axis : x y z
#
# Youngs Moduli (GPa) = 54.30665 55.01471 78.79844
#
# Poissons Ratio (x) = 0.23499 0.28408
# Poissons Ratio (y) = 0.23196 0.46532
# Poissons Ratio (z) = 0.19579 0.32487
#
# Static dielectric constant tensor:
#      x y z
#    x 3.444720 0.000000 0.000000 
#    y 0.000000 3.364830 0.000000 
#    z 0.000000 0.000000 3.265980 
# 
# 
# High freq. dielectric constant tensor:
#      x y z
#    x 1.718150 0.000000 0.000000 
#    y 0.000000 1.712010 0.000000 
#    z 0.000000 0.000000 1.700280 
# 
# From -- ./inp_files/28241.got.cif
#   From: 2010.03.12/outbox.cif.g09.slc.cpg/sg53_15_cif.got.tgz:28241.got - 2010.04.16 14:36:59.
