data_PCOD8219955
_publ_section_title
;
Structure prediction by ZEFSAII (Michael W. Deem and Ramdas Pophale) SiO2 
 PCOD8219955
Probable space group: P M N A
;
_chemical_formula_sum "Si O2"
_cell_formula_units_Z 52
_cell_length_a 9.485930
_cell_length_b 14.567268
_cell_length_c 20.160112
_cell_angle_alpha 90.000000
_cell_angle_beta 90.000000
_cell_angle_gamma 90.000000
_cell_volume 2785.806621
_symmetry_space_group_name_H-M "P M N A"
_symmetry_group_IT_number 53
_symmetry_cell_setting 'orthorhombic'
loop_
_space_group_symop_operation_xyz
x,y,z
1/2-x,-y,1/2+z
x,-y,-z
1/2-x,y,1/2-z
-x,-y,-z
1/2+x,y,1/2-z
-x,y,z
1/2+x,-y,1/2+z
loop_
_atom_site_type_symbol
_atom_site_label
_atom_site_fract_x
_atom_site_fract_y
_atom_site_fract_z
Si Si1 0.158019 0.716733 0.136124
Si Si2 0.661231 0.671779 0.684178
Si Si3 0.750000 0.844745 0.250000
Si Si4 0.164116 0.471620 0.816383
Si Si5 0.167251 0.866287 0.040353
Si Si6 0.163829 0.854852 0.886844
Si Si7 0.838932 0.981060 0.360284
O O1 0.158169 0.777356 0.203735
O O2 0.228431 0.615470 0.143088
O O3 0.225797 0.772837 0.075086
O O4 0.000000 0.697664 0.114984
O O5 0.750000 0.685156 0.750000
O O6 0.500000 0.680536 0.706785
O O7 0.685067 0.571517 0.648981
O O8 0.700883 0.750361 0.631940
O O9 0.840077 0.910790 0.298262
O O10 0.250000 0.477568 0.750000
O O11 0.000000 0.452622 0.800290
O O12 0.251142 0.947927 0.075622
O O13 0.000000 0.881041 0.053115
O O14 0.204048 0.864437 0.963669
O O15 0.000000 0.878041 0.873698
O O16 0.260930 0.922862 0.842540
O O17 0.000000 0.999388 0.380565
#
# Coordination Sequence:
#
# PCOD8219955 Si02
#       7
#     8   8   4   8   8   8   8
#     4   9  16  29  51  75 101 130 163 202 251 305
#     4   9  19  34  52  76 103 132 170 212 255 304
#     4  10  20  34  48  74 108 134 158 206 262 314
#     4   9  16  29  50  76 103 130 162 205 254 305
#     4   9  19  36  54  73 102 142 177 207 253 312
#     4  10  21  37  54  71 101 143 178 210 254 307
#     4  11  23  35  53  79 105 133 174 221 260 300
#
# _framework density 18.666048
#
# number of rings (size 3 to 8) (size 9 to 14) (size 15 to 20)
#    0.000    2.462    0.769    1.385    1.077    4.923 
#    0.000    0.769    0.000    4.615    0.000    0.000 
#    0.000    8.923    0.000    0.000    0.000    0.000 
#
# Total GULP energy -644226.659573 kJ/mol
# GULP energy per Si atom -12388.974223 kJ/mol
# Density = 1.862356 g / cm^3
# Si number density = 18.666048 Si / 1000 Ang^3
#
#
#
# Elastic Constant Matrix: (Units=GPa)
#
#
# Indices 1 2 3 4 5 6 
#
# 1 63.0991 41.9666 19.7214 0.0000 0.0000 0.0000
# 2 41.9666 161.9930 38.9900 0.0000 0.0000 0.0000
# 3 19.7214 38.9900 57.2100 0.0000 0.0000 0.0000
# 4 0.0000 0.0000 0.0000 21.4533 0.0000 0.0000
# 5 0.0000 0.0000 0.0000 0.0000 17.2158 0.0000
# 6 0.0000 0.0000 0.0000 0.0000 0.0000 17.7739
#
#
#
# Elastic Compliance Matrix: (Units=1/GPa)
#
#
# Indices 1 2 3 4 5 6 
#
# 1 0.019884 -0.004189 -0.004000 0.000000 0.000000 0.000000
# 2 -0.004189 0.008267 -0.004190 0.000000 0.000000 0.000000
# 3 -0.004000 -0.004190 0.021714 0.000000 0.000000 0.000000
# 4 0.000000 0.000000 0.000000 0.046613 0.000000 0.000000
# 5 0.000000 0.000000 0.000000 0.000000 0.058086 0.000000
# 6 0.000000 0.000000 0.000000 0.000000 0.000000 0.056262
#
#
# Mechanical properties :
#
#
# Convention : Reuss Voigt Hill
#
# Bulk Modulus (GPa) = 39.82836 53.73980 46.78408
# Shear Modulus (GPa) = 20.49581 23.39685 21.94633
#
# Velocity S-wave (km/s) = 3.31724 3.54424 3.43262
# Velocity P-wave (km/s) = 6.00465 6.75289 6.38973
#
# Compressibility (1/GPa) = 0.02510773
#
# Stress axis : x y z
#
# Youngs Moduli (GPa) = 50.29178 120.96704 46.05332
#
# Poissons Ratio (x) = 0.50667 0.18421
# Poissons Ratio (y) = 0.21065 0.19297
# Poissons Ratio (z) = 0.20116 0.50686
#
# Static dielectric constant tensor:
#      x y z
#    x 3.231060 0.000000 0.000000 
#    y 0.000000 4.247040 0.000000 
#    z 0.000000 0.000000 3.225920 
# 
# 
# High freq. dielectric constant tensor:
#      x y z
#    x 1.702590 0.000000 0.000000 
#    y 0.000000 1.748800 0.000000 
#    z 0.000000 0.000000 1.696740 
# 
# From -- ./inp_files/30680.got.cif
#   From: 2010.03.12/outbox.cif.g09.slc.cpg/sg53_16_cif.got.tgz:30680.got - 2010.04.16 14:36:59.
