data_PCOD8219894
_publ_section_title
;
Structure prediction by ZEFSAII (Michael W. Deem and Ramdas Pophale) SiO2 
 PCOD8219894
Probable space group: P M N A
;
_chemical_formula_sum "Si O2"
_cell_formula_units_Z 56
_cell_length_a 9.012906
_cell_length_b 19.146380
_cell_length_c 18.116236
_cell_angle_alpha 90.000000
_cell_angle_beta 90.000000
_cell_angle_gamma 90.000000
_cell_volume 3126.219627
_symmetry_space_group_name_H-M "P M N A"
_symmetry_group_IT_number 53
_symmetry_cell_setting 'orthorhombic'
loop_
_space_group_symop_operation_xyz
x,y,z
1/2-x,-y,1/2+z
x,-y,-z
1/2-x,y,1/2-z
-x,-y,-z
1/2+x,y,1/2-z
-x,y,z
1/2+x,-y,1/2+z
loop_
_atom_site_type_symbol
_atom_site_label
_atom_site_fract_x
_atom_site_fract_y
_atom_site_fract_z
Si Si1 0.669077 0.285128 0.965285
Si Si2 0.824799 0.078420 0.075110
Si Si3 0.675874 0.073976 0.592280
Si Si4 0.176259 0.634783 0.825632
Si Si5 0.673199 0.801665 0.174598
Si Si6 0.328056 0.571806 0.963865
Si Si7 0.325280 0.226541 0.398321
O O1 0.500000 0.266837 0.985902
O O2 0.705678 0.261524 0.882212
O O3 0.698516 0.367720 0.975280
O O4 0.772999 0.241478 0.019049
O O5 0.772941 0.147193 0.121978
O O6 0.000000 0.076281 0.068253
O O7 0.775084 0.005957 0.113345
O O8 0.766814 0.086087 0.991167
O O9 0.500000 0.085508 0.601078
O O10 0.760671 0.125249 0.646853
O O11 0.250000 0.609408 0.750000
O O12 0.230666 0.584752 0.891077
O O13 0.233961 0.714393 0.841922
O O14 0.000000 0.629915 0.819013
O O15 0.750000 0.778535 0.250000
O O16 0.500000 0.812631 0.188094
O O17 0.500000 0.567661 0.940136
O O18 0.273247 0.500000 0.000000
O O19 0.500000 0.231576 0.399407
#
# Coordination Sequence:
#
# PCOD8219894 Si02
#       7
#     8   8   8   8   8   8   8
#     4   9  18  32  50  74 100 126 163 206 248 296
#     4   8  14  26  48  74  96 124 162 206 253 302
#     4   9  16  29  49  70  95 128 166 207 253 303
#     4  10  20  33  52  78 108 140 171 207 249 300
#     4  11  22  34  48  68  97 133 171 213 257 300
#     4   9  18  35  59  82 106 135 165 204 253 303
#     4   9  16  29  51  75  98 129 169 206 245 296
#
# _framework density 17.91301
#
# number of rings (size 3 to 8) (size 9 to 14) (size 15 to 20)
#    0.000    2.714    1.429    1.714    0.000    1.429 
#    0.000    3.571    0.000    3.429    0.000    0.000 
#    0.000    0.000    0.000    0.000    0.000    0.000 
#
# Total GULP energy -694020.477108 kJ/mol
# GULP energy per Si atom -12393.222806 kJ/mol
# Density = 1.787224 g / cm^3
# Si number density = 17.913010 Si / 1000 Ang^3
#
#
#
# Elastic Constant Matrix: (Units=GPa)
#
#
# Indices 1 2 3 4 5 6 
#
# 1 45.0194 31.3611 34.9656 0.0000 0.0000 0.0000
# 2 31.3611 128.8741 51.0998 0.0000 0.0000 0.0000
# 3 34.9656 51.0998 101.0951 0.0000 0.0000 0.0000
# 4 0.0000 0.0000 0.0000 18.8456 0.0000 0.0000
# 5 0.0000 0.0000 0.0000 0.0000 23.8008 0.0000
# 6 0.0000 0.0000 0.0000 0.0000 0.0000 19.9976
#
#
#
# Elastic Compliance Matrix: (Units=1/GPa)
#
#
# Indices 1 2 3 4 5 6 
#
# 1 0.032146 -0.004270 -0.008960 0.000000 0.000000 0.000000
# 2 -0.004270 0.010272 -0.003715 0.000000 0.000000 0.000000
# 3 -0.008960 -0.003715 0.014869 0.000000 0.000000 0.000000
# 4 0.000000 0.000000 0.000000 0.053063 0.000000 0.000000
# 5 0.000000 0.000000 0.000000 0.000000 0.042015 0.000000
# 6 0.000000 0.000000 0.000000 0.000000 0.000000 0.050006
#
#
# Mechanical properties :
#
#
# Convention : Reuss Voigt Hill
#
# Bulk Modulus (GPa) = 42.74196 56.64907 49.69552
# Shear Modulus (GPa) = 20.48680 23.03294 21.75987
#
# Velocity S-wave (km/s) = 3.38551 3.58973 3.48911
# Velocity P-wave (km/s) = 6.26058 6.99104 6.63587
#
# Compressibility (1/GPa) = 0.02339621
#
# Stress axis : x y z
#
# Youngs Moduli (GPa) = 31.10780 97.35517 67.25610
#
# Poissons Ratio (x) = 0.41570 0.60262
# Poissons Ratio (y) = 0.13283 0.24986
# Poissons Ratio (z) = 0.27873 0.36169
#
# Static dielectric constant tensor:
#      x y z
#    x 3.153180 0.000000 0.000000 
#    y 0.000000 3.739720 0.000000 
#    z 0.000000 0.000000 3.106600 
# 
# 
# High freq. dielectric constant tensor:
#      x y z
#    x 1.679540 0.000000 0.000000 
#    y 0.000000 1.699110 0.000000 
#    z 0.000000 0.000000 1.667760 
# 
# From -- ./inp_files/26711.got.cif
#   From: 2010.03.12/outbox.cif.g09.slc.cpg/sg53_14_cif.got.tgz:26711.got - 2010.04.16 14:36:59.
