data_PCOD8219382
_publ_section_title
;
Structure prediction by ZEFSAII (Michael W. Deem and Ramdas Pophale) SiO2 
 PCOD8219382
Probable space group: P M N A
;
_chemical_formula_sum "Si O2"
_cell_formula_units_Z 64
_cell_length_a 8.916616
_cell_length_b 23.410215
_cell_length_c 14.842803
_cell_angle_alpha 90.000000
_cell_angle_beta 90.000000
_cell_angle_gamma 90.000000
_cell_volume 3098.285179
_symmetry_space_group_name_H-M "P M N A"
_symmetry_group_IT_number 53
_symmetry_cell_setting 'orthorhombic'
loop_
_space_group_symop_operation_xyz
x,y,z
1/2-x,-y,1/2+z
x,-y,-z
1/2-x,y,1/2-z
-x,-y,-z
1/2+x,y,1/2-z
-x,y,z
1/2+x,-y,1/2+z
loop_
_atom_site_type_symbol
_atom_site_label
_atom_site_fract_x
_atom_site_fract_y
_atom_site_fract_z
Si Si1 0.675451 0.091003 0.656831
Si Si2 0.836319 0.735090 0.334073
Si Si3 0.173969 0.041795 0.157861
Si Si4 0.324394 0.433667 0.488429
Si Si5 0.320911 0.354531 0.151960
Si Si6 0.825961 0.875448 0.520106
Si Si7 0.825972 0.748504 0.530080
Si Si8 0.165567 0.602813 0.334888
O O1 0.750000 0.109727 0.750000
O O2 0.500000 0.104958 0.658247
O O3 0.757184 0.127211 0.579762
O O4 0.705345 0.024264 0.638052
O O5 0.750000 0.764293 0.250000
O O6 0.751741 0.743238 0.430310
O O7 0.855776 0.668754 0.312703
O O8 0.000000 0.764748 0.338396
O O9 0.250000 0.062059 0.250000
O O10 0.240200 0.077044 0.075877
O O11 0.000000 0.055491 0.166161
O O12 0.288408 0.500000 0.500000
O O13 0.500000 0.421665 0.476487
O O14 0.236710 0.410169 0.401346
O O15 0.265035 0.401924 0.576354
O O16 0.250000 0.354357 0.250000
O O17 0.500000 0.356222 0.159478
O O18 0.260238 0.297422 0.100580
O O19 0.802697 0.813114 0.565929
O O20 0.000000 0.891871 0.514816
O O21 0.000000 0.733022 0.517701
O O22 0.250000 0.573035 0.250000
O O23 0.000000 0.574698 0.347504
#
# Coordination Sequence:
#
# PCOD8219382 Si02
#       8
#     8   8   8   8   8   8   8   8
#     4  10  21  38  59  84 117 157 199 247 301 359
#     4   9  17  33  55  81 110 144 183 226 279 338
#     4  10  21  38  59  83 114 152 199 251 302 357
#     4  11  24  41  62  91 124 156 196 245 295 351
#     4  11  23  44  68  90 120 160 205 249 297 352
#     4  11  22  36  58  87 121 157 195 245 300 356
#     4   9  20  39  59  83 119 158 197 243 294 349
#     4  10  19  34  59  87 117 152 188 233 284 342
#
# _framework density 20.656586000000001
#
# number of rings (size 3 to 8) (size 9 to 14) (size 15 to 20)
#    0.000    1.875    1.250    2.625    0.000    6.000 
#    0.000    6.250    0.000    0.000    0.000    0.000 
#    0.000    0.000    0.000    0.000    0.000    0.000 
#
# Total GULP energy -793605.280219 kJ/mol
# GULP energy per Si atom -12400.082503 kJ/mol
# Density = 2.060957 g / cm^3
# Si number density = 20.656586 Si / 1000 Ang^3
#
#
#
# Elastic Constant Matrix: (Units=GPa)
#
#
# Indices 1 2 3 4 5 6 
#
# 1 102.4076 40.3591 49.0984 0.0000 0.0000 0.0000
# 2 40.3591 69.6150 35.0895 0.0000 0.0000 0.0000
# 3 49.0984 35.0895 146.9862 0.0000 0.0000 0.0000
# 4 0.0000 0.0000 0.0000 10.4561 0.0000 0.0000
# 5 0.0000 0.0000 0.0000 0.0000 39.8249 0.0000
# 6 0.0000 0.0000 0.0000 0.0000 0.0000 4.3527
#
#
#
# Elastic Compliance Matrix: (Units=1/GPa)
#
#
# Indices 1 2 3 4 5 6 
#
# 1 0.013771 -0.006440 -0.003063 0.000000 0.000000 0.000000
# 2 -0.006440 0.019341 -0.002466 0.000000 0.000000 0.000000
# 3 -0.003063 -0.002466 0.008415 0.000000 0.000000 0.000000
# 4 0.000000 0.000000 0.000000 0.095638 0.000000 0.000000
# 5 0.000000 0.000000 0.000000 0.000000 0.025110 0.000000
# 6 0.000000 0.000000 0.000000 0.000000 0.000000 0.229744
#
#
# Mechanical properties :
#
#
# Convention : Reuss Voigt Hill
#
# Bulk Modulus (GPa) = 56.85023 63.12253 59.98638
# Shear Modulus (GPa) = 11.85337 23.89086 17.87212
#
# Velocity S-wave (km/s) = 2.39807 3.40453 2.94462
# Velocity P-wave (km/s) = 5.93709 6.78814 6.37683
#
# Compressibility (1/GPa) = 0.01759008
#
# Stress axis : x y z
#
# Youngs Moduli (GPa) = 72.61448 51.70247 118.83387
#
# Poissons Ratio (x) = 0.33297 0.36395
# Poissons Ratio (y) = 0.46765 0.29305
# Poissons Ratio (z) = 0.22239 0.12750
#
# Static dielectric constant tensor:
#      x y z
#    x 3.859980 0.000000 0.000000 
#    y 0.000000 3.622190 0.000000 
#    z 0.000000 0.000000 3.803290 
# 
# 
# High freq. dielectric constant tensor:
#      x y z
#    x 1.805610 0.000000 0.000000 
#    y 0.000000 1.799940 0.000000 
#    z 0.000000 0.000000 1.814340 
# 
# From -- ./inp_files/20915.got.cif
#   From: 2010.03.12/outbox.cif.g09.slc.cpg/sg53_11_cif.got.tgz:20915.got - 2010.04.16 14:36:59.
