data_PCOD8219377
_publ_section_title
;
Structure prediction by ZEFSAII (Michael W. Deem and Ramdas Pophale) SiO2 
 PCOD8219377
Probable space group: P M N A
;
_chemical_formula_sum "Si O2"
_cell_formula_units_Z 56
_cell_length_a 18.219134
_cell_length_b 11.457340
_cell_length_c 13.456111
_cell_angle_alpha 90.000000
_cell_angle_beta 90.000000
_cell_angle_gamma 90.000000
_cell_volume 2808.866459
_symmetry_space_group_name_H-M "P M N A"
_symmetry_group_IT_number 53
_symmetry_cell_setting 'orthorhombic'
loop_
_space_group_symop_operation_xyz
x,y,z
1/2-x,-y,1/2+z
x,-y,-z
1/2-x,y,1/2-z
-x,-y,-z
1/2+x,y,1/2-z
-x,y,z
1/2+x,-y,1/2+z
loop_
_atom_site_type_symbol
_atom_site_label
_atom_site_fract_x
_atom_site_fract_y
_atom_site_fract_z
Si Si1 0.414300 0.398639 0.247770
Si Si2 0.674287 0.621004 0.215914
Si Si3 0.584490 0.182257 0.121632
Si Si4 0.323821 0.183082 0.925883
Si Si5 0.340479 0.191431 0.612595
Si Si6 0.415669 0.953528 0.235908
Si Si7 0.413165 0.628638 0.533569
O O1 0.500000 0.409259 0.259611
O O2 0.388765 0.526315 0.216132
O O3 0.391680 0.307382 0.163842
O O4 0.383716 0.357646 0.354256
O O5 0.750000 0.558653 0.250000
O O6 0.674825 0.679608 0.105991
O O7 0.662549 0.725205 0.292652
O O8 0.500000 0.182347 0.082430
O O9 0.592082 0.091186 0.212722
O O10 0.640675 0.157606 0.032708
O O11 0.238450 0.144878 0.924680
O O12 0.369864 0.108462 0.849204
O O13 0.385695 0.078213 0.653143
O O14 0.379368 0.262961 0.525529
O O15 0.500000 0.912807 0.229293
O O16 0.385864 0.500000 0.500000
O O17 0.500000 0.638019 0.521138
#
# Coordination Sequence:
#
# PCOD8219377 Si02
#       7
#     8   8   8   8   8   8   8
#     4  10  21  36  54  81 116 149 194 247 294 350
#     4   9  19  34  53  79 113 150 186 236 294 353
#     4  10  22  40  58  83 118 158 201 247 296 355
#     4  10  21  37  57  85 119 154 196 244 292 360
#     4  10  20  37  58  89 118 144 192 251 298 353
#     4  10  20  38  65  86 112 154 202 250 297 348
#     4  10  19  34  59  86 112 149 198 242 289 354
#
# _framework density 19.936868
#
# number of rings (size 3 to 8) (size 9 to 14) (size 15 to 20)
#    0.000    2.143    1.429    2.571    0.000    5.714 
#    0.000    7.857    0.000    3.429    0.000    0.000 
#    0.000    0.000    0.000    0.000    0.000    0.000 
#
# Total GULP energy -694090.530139 kJ/mol
# GULP energy per Si atom -12394.473752 kJ/mol
# Density = 1.989149 g / cm^3
# Si number density = 19.936868 Si / 1000 Ang^3
#
#
#
# Elastic Constant Matrix: (Units=GPa)
#
#
# Indices 1 2 3 4 5 6 
#
# 1 65.5278 30.5425 24.8704 0.0000 0.0000 0.0000
# 2 30.5425 60.6775 27.4613 0.0000 0.0000 0.0000
# 3 24.8704 27.4613 55.2636 0.0000 0.0000 0.0000
# 4 0.0000 0.0000 0.0000 12.1705 0.0000 0.0000
# 5 0.0000 0.0000 0.0000 0.0000 24.4338 0.0000
# 6 0.0000 0.0000 0.0000 0.0000 0.0000 3.6047
#
#
#
# Elastic Compliance Matrix: (Units=1/GPa)
#
#
# Indices 1 2 3 4 5 6 
#
# 1 0.021140 -0.008173 -0.005452 0.000000 0.000000 0.000000
# 2 -0.008173 0.024422 -0.008458 0.000000 0.000000 0.000000
# 3 -0.005452 -0.008458 0.024751 0.000000 0.000000 0.000000
# 4 0.000000 0.000000 0.000000 0.082166 0.000000 0.000000
# 5 0.000000 0.000000 0.000000 0.000000 0.040927 0.000000
# 6 0.000000 0.000000 0.000000 0.000000 0.000000 0.277416
#
#
# Mechanical properties :
#
#
# Convention : Reuss Voigt Hill
#
# Bulk Modulus (GPa) = 38.24466 38.57972 38.41219
# Shear Modulus (GPa) = 9.54738 14.61477 12.08107
#
# Velocity S-wave (km/s) = 2.19071 2.71043 2.46431
# Velocity P-wave (km/s) = 5.06196 5.40261 5.23506
#
# Compressibility (1/GPa) = 0.02614744
#
# Stress axis : x y z
#
# Youngs Moduli (GPa) = 47.30478 40.94609 40.40174
#
# Poissons Ratio (x) = 0.33466 0.22027
# Poissons Ratio (y) = 0.38663 0.34170
# Poissons Ratio (z) = 0.25791 0.34631
#
# Static dielectric constant tensor:
#      x y z
#    x 3.800780 0.000000 0.000000 
#    y 0.000000 3.679630 0.000000 
#    z 0.000000 0.000000 3.752410 
# 
# 
# High freq. dielectric constant tensor:
#      x y z
#    x 1.778010 0.000000 0.000000 
#    y 0.000000 1.770430 0.000000 
#    z 0.000000 0.000000 1.771280 
# 
# From -- ./inp_files/22776.got.cif
#   From: 2010.03.12/outbox.cif.g09.slc.cpg/sg53_12_cif.got.tgz:22776.got - 2010.04.16 14:36:59.
