data_PCOD8219408
_publ_section_title
;
Structure prediction by ZEFSAII (Michael W. Deem and Ramdas Pophale) SiO2 
 PCOD8219408
Probable space group: P M N A
;
_chemical_formula_sum "Si O2"
_cell_formula_units_Z 40
_cell_length_a 7.808645
_cell_length_b 9.543341
_cell_length_c 28.912881
_cell_angle_alpha 90.000000
_cell_angle_beta 90.000000
_cell_angle_gamma 90.000000
_cell_volume 2154.604141
_symmetry_space_group_name_H-M "P M N A"
_symmetry_group_IT_number 53
_symmetry_cell_setting 'orthorhombic'
loop_
_space_group_symop_operation_xyz
x,y,z
1/2-x,-y,1/2+z
x,-y,-z
1/2-x,y,1/2-z
-x,-y,-z
1/2+x,y,1/2-z
-x,y,z
1/2+x,-y,1/2+z
loop_
_atom_site_type_symbol
_atom_site_label
_atom_site_fract_x
_atom_site_fract_y
_atom_site_fract_z
Si Si1 0.803464 0.669461 0.615927
Si Si2 0.500000 0.663501 0.447579
Si Si3 0.692562 0.824215 0.301533
Si Si4 0.198084 0.867619 0.700132
Si Si5 0.689640 0.345204 0.884944
Si Si6 0.500000 0.668885 0.550634
O O1 0.755777 0.751561 0.662419
O O2 0.772507 0.506758 0.626921
O O3 0.673129 0.721147 0.576079
O O4 0.000000 0.698819 0.600318
O O5 0.670375 0.714830 0.420824
O O6 0.500000 0.731454 0.498729
O O7 0.500000 0.497563 0.451700
O O8 0.750000 0.786104 0.250000
O O9 0.500000 0.772209 0.309170
O O10 0.809873 0.741678 0.337610
O O11 0.700035 0.990332 0.310441
O O12 0.250000 0.805357 0.750000
O O13 0.000000 0.907911 0.699790
O O14 0.500000 0.329806 0.907169
#
# Coordination Sequence:
#
# PCOD8219408 Si02
#       6
#     8   4   8   8   8   4
#     4   9  20  34  53  80 107 138 175 217 266 313
#     4   9  18  34  51  85 103 143 177 217 266 323
#     4  11  21  34  52  77 105 141 182 214 260 316
#     4  10  20  34  51  76 105 139 180 214 259 316
#     4  10  19  35  54  78 110 138 173 221 264 309
#     4   9  18  32  57  75 113 137 177 219 268 313
#
# _framework density 18.564896000000001
#
# number of rings (size 3 to 8) (size 9 to 14) (size 15 to 20)
#    0.000    2.200    1.000    3.600    2.800    1.600 
#    0.000    6.000    0.000    2.400    0.000    4.200 
#    0.000    0.000    0.000    0.000    0.000    0.000 
#
# Total GULP energy -496009.631891 kJ/mol
# GULP energy per Si atom -12400.240797 kJ/mol
# Density = 1.852264 g / cm^3
# Si number density = 18.564896 Si / 1000 Ang^3
#
#
#
# Elastic Constant Matrix: (Units=GPa)
#
#
# Indices 1 2 3 4 5 6 
#
# 1 122.7846 24.9747 67.3659 0.0000 0.0000 0.0000
# 2 24.9747 40.2984 48.5509 0.0000 0.0000 0.0000
# 3 67.3659 48.5509 152.5719 0.0000 0.0000 0.0000
# 4 0.0000 0.0000 0.0000 4.4762 0.0000 0.0000
# 5 0.0000 0.0000 0.0000 0.0000 30.2361 0.0000
# 6 0.0000 0.0000 0.0000 0.0000 0.0000 20.5635
#
#
#
# Elastic Compliance Matrix: (Units=1/GPa)
#
#
# Indices 1 2 3 4 5 6 
#
# 1 0.010807 -0.001539 -0.004282 0.000000 0.000000 0.000000
# 2 -0.001539 0.040463 -0.012197 0.000000 0.000000 0.000000
# 3 -0.004282 -0.012197 0.012326 0.000000 0.000000 0.000000
# 4 0.000000 0.000000 0.000000 0.223402 0.000000 0.000000
# 5 0.000000 0.000000 0.000000 0.000000 0.033073 0.000000
# 6 0.000000 0.000000 0.000000 0.000000 0.000000 0.048630
#
#
# Mechanical properties :
#
#
# Convention : Reuss Voigt Hill
#
# Bulk Modulus (GPa) = 36.28287 66.38197 51.33242
# Shear Modulus (GPa) = 12.07961 22.70605 17.39283
#
# Velocity S-wave (km/s) = 2.55359 3.50103 3.06415
# Velocity P-wave (km/s) = 5.31796 7.22338 6.34263
#
# Compressibility (1/GPa) = 0.02756121
#
# Stress axis : x y z
#
# Youngs Moduli (GPa) = 92.53654 24.71421 81.12919
#
# Poissons Ratio (x) = 0.03802 0.34739
# Poissons Ratio (y) = 0.14237 0.98949
# Poissons Ratio (z) = 0.39623 0.30143
#
# Static dielectric constant tensor:
#      x y z
#    x 3.637790 0.000000 0.000000 
#    y 0.000000 3.082790 0.000000 
#    z 0.000000 0.000000 3.485090 
# 
# 
# High freq. dielectric constant tensor:
#      x y z
#    x 1.741990 0.000000 0.000000 
#    y 0.000000 1.687690 0.000000 
#    z 0.000000 0.000000 1.712230 
# 
# From -- ./inp_files/36061.got.cif
#   From: 2010.03.12/outbox.cif.g09.slc.cpg/sg53_19_cif.got.tgz:36061.got - 2010.04.16 14:36:59.
