data_PCOD8219727
_publ_section_title
;
Structure prediction by ZEFSAII (Michael W. Deem and Ramdas Pophale) SiO2 
 PCOD8219727
Probable space group: P M N A
;
_chemical_formula_sum "Si O2"
_cell_formula_units_Z 64
_cell_length_a 8.975993
_cell_length_b 30.370195
_cell_length_c 13.683909
_cell_angle_alpha 90.000000
_cell_angle_beta 90.000000
_cell_angle_gamma 90.000000
_cell_volume 3730.269962
_symmetry_space_group_name_H-M "P M N A"
_symmetry_group_IT_number 53
_symmetry_cell_setting 'orthorhombic'
loop_
_space_group_symop_operation_xyz
x,y,z
1/2-x,-y,1/2+z
x,-y,-z
1/2-x,y,1/2-z
-x,-y,-z
1/2+x,y,1/2-z
-x,y,z
1/2+x,-y,1/2+z
loop_
_atom_site_type_symbol
_atom_site_label
_atom_site_fract_x
_atom_site_fract_y
_atom_site_fract_z
Si Si1 0.674881 0.568927 0.039554
Si Si2 0.325321 0.744398 0.352557
Si Si3 0.829102 0.125068 0.352714
Si Si4 0.824749 0.892577 0.151640
Si Si5 0.177275 0.182370 0.536388
Si Si6 0.672804 0.642702 0.350237
Si Si7 0.174362 0.482536 0.350293
Si Si8 0.330684 0.948210 0.000076
O O1 0.500000 0.577414 0.050397
O O2 0.762281 0.613710 0.061819
O O3 0.728315 0.530464 0.113237
O O4 0.715886 0.554515 0.929738
O O5 0.250000 0.758204 0.250000
O O6 0.500000 0.755252 0.346291
O O7 0.249965 0.769936 0.444057
O O8 0.294884 0.693390 0.374987
O O9 0.750000 0.131374 0.250000
O O10 0.774160 0.161802 0.431578
O O11 0.801868 0.075664 0.395507
O O12 0.000000 0.133245 0.330429
O O13 0.750000 0.909865 0.250000
O O14 0.743421 0.847658 0.122230
O O15 0.792709 0.930461 0.073489
O O16 0.000000 0.884911 0.162909
O O17 0.000000 0.184757 0.545282
O O18 0.750000 0.628233 0.250000
O O19 0.500000 0.633095 0.337967
O O20 0.250000 0.468906 0.250000
O O21 0.000000 0.484040 0.333845
O O22 0.500000 0.935980 0.033328
O O23 0.308261 0.000000 0.000000
#
# Coordination Sequence:
#
# PCOD8219727 Si02
#       8
#     8   8   8   8   8   8   8   8
#     4   9  18  32  48  68  97 130 164 203 248 293
#     4  10  20  33  50  75 104 132 160 195 241 294
#     4   9  19  34  53  75  98 127 162 201 244 286
#     4  11  21  33  50  72  99 130 162 196 237 285
#     4  10  20  35  53  74  99 127 161 200 243 289
#     4  10  20  32  48  72 101 131 163 197 239 292
#     4   9  18  31  47  69  96 127 164 207 250 293
#     4   9  19  36  53  72 101 132 163 202 243 284
#
# _framework density 17.156935000000001
#
# number of rings (size 3 to 8) (size 9 to 14) (size 15 to 20)
#    0.000    2.375    0.000    4.500    0.000    6.750 
#    0.000    2.500    0.000    0.750    0.000    0.000 
#    0.000    0.000    0.000    0.000    0.000    0.000 
#
# Total GULP energy -793496.055665 kJ/mol
# GULP energy per Si atom -12398.375870 kJ/mol
# Density = 1.711788 g / cm^3
# Si number density = 17.156935 Si / 1000 Ang^3
#
#
#
# Elastic Constant Matrix: (Units=GPa)
#
#
# Indices 1 2 3 4 5 6 
#
# 1 85.7397 50.1253 54.1582 0.0000 0.0000 0.0000
# 2 50.1253 102.5680 57.5831 0.0000 0.0000 0.0000
# 3 54.1582 57.5831 118.2795 0.0000 0.0000 0.0000
# 4 0.0000 0.0000 0.0000 19.0739 0.0000 0.0000
# 5 0.0000 0.0000 0.0000 0.0000 34.4832 0.0000
# 6 0.0000 0.0000 0.0000 0.0000 0.0000 25.5891
#
#
#
# Elastic Compliance Matrix: (Units=1/GPa)
#
#
# Indices 1 2 3 4 5 6 
#
# 1 0.018738 -0.005973 -0.005672 0.000000 0.000000 0.000000
# 2 -0.005973 0.015321 -0.004724 0.000000 0.000000 0.000000
# 3 -0.005672 -0.004724 0.013351 0.000000 0.000000 0.000000
# 4 0.000000 0.000000 0.000000 0.052428 0.000000 0.000000
# 5 0.000000 0.000000 0.000000 0.000000 0.029000 0.000000
# 6 0.000000 0.000000 0.000000 0.000000 0.000000 0.039079
#
#
# Mechanical properties :
#
#
# Convention : Reuss Voigt Hill
#
# Bulk Modulus (GPa) = 68.15435 70.03561 69.09498
# Shear Modulus (GPa) = 24.32569 25.47730 24.90149
#
# Velocity S-wave (km/s) = 3.76950 3.85769 3.81385
# Velocity P-wave (km/s) = 7.66523 7.79433 7.73005
#
# Compressibility (1/GPa) = 0.01467258
#
# Stress axis : x y z
#
# Youngs Moduli (GPa) = 53.36811 65.27149 74.89904
#
# Poissons Ratio (x) = 0.38986 0.42482
# Poissons Ratio (y) = 0.31877 0.35381
# Poissons Ratio (z) = 0.30270 0.30833
#
# Static dielectric constant tensor:
#      x y z
#    x 3.204650 0.000000 0.000000 
#    y 0.000000 3.214650 0.000000 
#    z 0.000000 0.000000 2.994630 
# 
# 
# High freq. dielectric constant tensor:
#      x y z
#    x 1.668490 0.000000 0.000000 
#    y 0.000000 1.656470 0.000000 
#    z 0.000000 0.000000 1.649380 
# 
# From -- ./inp_files/14232.got.cif
#   From: 2010.03.12/outbox.cif.g09.slc.cpg/sg53_8_cif.got.tgz:14232.got - 2010.04.16 14:36:59.
