data_PCOD8219178
_publ_section_title
;
Structure prediction by ZEFSAII (Michael W. Deem and Ramdas Pophale) SiO2 
 PCOD8219178
Probable space group: P M N A
;
_chemical_formula_sum "Si O2"
_cell_formula_units_Z 64
_cell_length_a 9.133529
_cell_length_b 14.762740
_cell_length_c 23.912942
_cell_angle_alpha 90.000000
_cell_angle_beta 90.000000
_cell_angle_gamma 90.000000
_cell_volume 3224.323389
_symmetry_space_group_name_H-M "P M N A"
_symmetry_group_IT_number 53
_symmetry_cell_setting 'orthorhombic'
loop_
_space_group_symop_operation_xyz
x,y,z
1/2-x,-y,1/2+z
x,-y,-z
1/2-x,y,1/2-z
-x,-y,-z
1/2+x,y,1/2-z
-x,y,z
1/2+x,-y,1/2+z
loop_
_atom_site_type_symbol
_atom_site_label
_atom_site_fract_x
_atom_site_fract_y
_atom_site_fract_z
Si Si1 0.329921 0.843620 0.117483
Si Si2 0.828673 0.223459 0.500087
Si Si3 0.834087 0.473189 0.849220
Si Si4 0.664938 0.718827 0.304055
Si Si5 0.670727 0.184052 0.120308
Si Si6 0.173353 0.016156 0.309538
Si Si7 0.670748 0.354002 0.194460
Si Si8 0.332948 0.582937 0.042031
O O1 0.500000 0.822858 0.126811
O O2 0.240581 0.758989 0.141120
O O3 0.283236 0.935489 0.148199
O O4 0.293964 0.846104 0.050944
O O5 0.758492 0.184912 0.442245
O O6 0.772498 0.325185 0.513192
O O7 0.000000 0.231514 0.488960
O O8 0.830817 0.389543 0.806374
O O9 0.732327 0.550007 0.824011
O O10 0.774367 0.440281 0.908047
O O11 0.000000 0.509018 0.856419
O O12 0.750000 0.755076 0.250000
O O13 0.500000 0.755548 0.300170
O O14 0.500000 0.161902 0.116444
O O15 0.737452 0.106239 0.160355
O O16 0.701520 0.282229 0.145958
O O17 0.250000 0.001935 0.250000
O O18 0.000000 0.020898 0.299130
O O19 0.750000 0.318658 0.250000
O O20 0.500000 0.365021 0.207288
O O21 0.500000 0.597125 0.063669
O O22 0.326721 0.500000 0.000000
#
# Coordination Sequence:
#
# PCOD8219178 Si02
#       8
#     8   8   8   8   8   8   8   8
#     4  10  20  35  58  86 115 149 187 232 284 338
#     4   9  17  32  55  84 116 148 188 233 281 338
#     4  11  23  37  54  81 114 150 191 238 290 340
#     4  11  23  37  55  79 111 149 188 231 282 335
#     4   9  19  36  58  85 115 147 188 239 288 341
#     4  10  21  37  59  87 116 148 189 236 289 343
#     4  11  22  37  58  82 113 151 193 241 293 348
#     4  10  19  33  56  82 112 154 197 237 284 340
#
# _framework density 19.849125000000001
#
# number of rings (size 3 to 8) (size 9 to 14) (size 15 to 20)
#    0.000    1.875    1.250    3.000    0.000    6.750 
#    0.000    3.125    0.000    2.250    0.000    1.750 
#    0.000    0.000    0.000    0.000    0.000    0.000 
#
# Total GULP energy -793584.343516 kJ/mol
# GULP energy per Si atom -12399.755367 kJ/mol
# Density = 1.980395 g / cm^3
# Si number density = 19.849125 Si / 1000 Ang^3
#
#
#
# Elastic Constant Matrix: (Units=GPa)
#
#
# Indices 1 2 3 4 5 6 
#
# 1 73.5108 36.1225 50.3805 0.0000 0.0000 0.0000
# 2 36.1225 89.6018 44.5521 0.0000 0.0000 0.0000
# 3 50.3805 44.5521 149.9306 0.0000 0.0000 0.0000
# 4 0.0000 0.0000 0.0000 31.4420 0.0000 0.0000
# 5 0.0000 0.0000 0.0000 0.0000 27.5787 0.0000
# 6 0.0000 0.0000 0.0000 0.0000 0.0000 12.6359
#
#
#
# Elastic Compliance Matrix: (Units=1/GPa)
#
#
# Indices 1 2 3 4 5 6 
#
# 1 0.019715 -0.005461 -0.005002 0.000000 0.000000 0.000000
# 2 -0.005461 0.014608 -0.002506 0.000000 0.000000 0.000000
# 3 -0.005002 -0.002506 0.009095 0.000000 0.000000 0.000000
# 4 0.000000 0.000000 0.000000 0.031805 0.000000 0.000000
# 5 0.000000 0.000000 0.000000 0.000000 0.036260 0.000000
# 6 0.000000 0.000000 0.000000 0.000000 0.000000 0.079140
#
#
# Mechanical properties :
#
#
# Convention : Reuss Voigt Hill
#
# Bulk Modulus (GPa) = 57.20584 63.90593 60.55588
# Shear Modulus (GPa) = 22.48336 26.46384 24.47360
#
# Velocity S-wave (km/s) = 3.36923 3.65533 3.51519
# Velocity P-wave (km/s) = 6.63465 7.07679 6.85928
#
# Compressibility (1/GPa) = 0.01748073
#
# Stress axis : x y z
#
# Youngs Moduli (GPa) = 50.72280 68.45585 109.94854
#
# Poissons Ratio (x) = 0.37383 0.54997
# Poissons Ratio (y) = 0.27699 0.27551
# Poissons Ratio (z) = 0.25372 0.17154
#
# Static dielectric constant tensor:
#      x y z
#    x 3.411580 0.000000 0.000000 
#    y 0.000000 3.709740 0.000000 
#    z 0.000000 0.000000 3.879750 
# 
# 
# High freq. dielectric constant tensor:
#      x y z
#    x 1.743340 0.000000 0.000000 
#    y 0.000000 1.776790 0.000000 
#    z 0.000000 0.000000 1.787700 
# 
# From -- ./inp_files/34213.got.cif
#   From: 2010.03.12/outbox.cif.g09.slc.cpg/sg53_18_cif.got.tgz:34213.got - 2010.04.16 14:36:59.
