data_PCOD8219692
_publ_section_title
;
Structure prediction by ZEFSAII (Michael W. Deem and Ramdas Pophale) SiO2 
 PCOD8219692
Probable space group: P M N A
;
_chemical_formula_sum "Si O2"
_cell_formula_units_Z 36
_cell_length_a 9.622815
_cell_length_b 16.747448
_cell_length_c 13.394865
_cell_angle_alpha 90.000000
_cell_angle_beta 90.000000
_cell_angle_gamma 90.000000
_cell_volume 2158.684213
_symmetry_space_group_name_H-M "P M N A"
_symmetry_group_IT_number 53
_symmetry_cell_setting 'orthorhombic'
loop_
_space_group_symop_operation_xyz
x,y,z
1/2-x,-y,1/2+z
x,-y,-z
1/2-x,y,1/2-z
-x,-y,-z
1/2+x,y,1/2-z
-x,y,z
1/2+x,-y,1/2+z
loop_
_atom_site_type_symbol
_atom_site_label
_atom_site_fract_x
_atom_site_fract_y
_atom_site_fract_z
Si Si1 0.341942 0.418298 0.451367
Si Si2 0.655964 0.720438 0.928315
Si Si3 0.159844 0.126275 0.042161
Si Si4 0.750000 0.632600 0.750000
Si Si5 0.158420 0.033285 0.843868
O O1 0.286435 0.500000 0.500000
O O2 0.500000 0.402133 0.485032
O O3 0.243961 0.345951 0.491121
O O4 0.333613 0.422647 0.329615
O O5 0.500000 0.728983 0.971286
O O6 0.647326 0.690621 0.813047
O O7 0.734607 0.803752 0.933142
O O8 0.181483 0.099783 0.928248
O O9 0.000000 0.153174 0.059436
O O10 0.199411 0.053570 0.114786
O O11 0.250000 0.057450 0.750000
O O12 0.000000 0.032638 0.808472
#
# Coordination Sequence:
#
# PCOD8219692 Si02
#       5
#     8   8   8   4   8
#     4   9  18  33  53  74 101 136 165 194 248 309
#     4  10  20  31  50  76 102 128 165 214 253 287
#     4   9  19  35  52  73 105 137 170 207 256 310
#     4   8  20  32  50  78 104 126 162 208 252 298
#     4   9  19  34  52  74 101 138 173 211 255 302
#
# _framework density 16.676826999999999
#
# number of rings (size 3 to 8) (size 9 to 14) (size 15 to 20)
#    1.333    1.556    0.000    2.667    1.556    2.222 
#    0.000    2.222    2.444    0.000    0.000    0.000 
#    0.000    0.000    0.000    0.000    0.000    0.000 
#
# Total GULP energy -446022.535300 kJ/mol
# GULP energy per Si atom -12389.514869 kJ/mol
# Density = 1.663887 g / cm^3
# Si number density = 16.676827 Si / 1000 Ang^3
#
#
#
# Elastic Constant Matrix: (Units=GPa)
#
#
# Indices 1 2 3 4 5 6 
#
# 1 88.8742 43.9234 27.1835 0.0000 0.0000 0.0000
# 2 43.9234 94.8872 29.5294 0.0000 0.0000 0.0000
# 3 27.1835 29.5294 68.2000 0.0000 0.0000 0.0000
# 4 0.0000 0.0000 0.0000 19.9527 0.0000 0.0000
# 5 0.0000 0.0000 0.0000 0.0000 22.7591 0.0000
# 6 0.0000 0.0000 0.0000 0.0000 0.0000 6.6549
#
#
#
# Elastic Compliance Matrix: (Units=1/GPa)
#
#
# Indices 1 2 3 4 5 6 
#
# 1 0.015280 -0.005984 -0.003499 0.000000 0.000000 0.000000
# 2 -0.005984 0.014524 -0.003903 0.000000 0.000000 0.000000
# 3 -0.003499 -0.003903 0.017748 0.000000 0.000000 0.000000
# 4 0.000000 0.000000 0.000000 0.050119 0.000000 0.000000
# 5 0.000000 0.000000 0.000000 0.000000 0.043938 0.000000
# 6 0.000000 0.000000 0.000000 0.000000 0.000000 0.150266
#
#
# Mechanical properties :
#
#
# Convention : Reuss Voigt Hill
#
# Bulk Modulus (GPa) = 48.12875 50.35936 49.24406
# Shear Modulus (GPa) = 15.35756 19.96166 17.65961
#
# Velocity S-wave (km/s) = 3.03791 3.46348 3.25765
# Velocity P-wave (km/s) = 6.42087 6.80125 6.61379
#
# Compressibility (1/GPa) = 0.02077760
#
# Stress axis : x y z
#
# Youngs Moduli (GPa) = 65.44703 68.85378 56.34570
#
# Poissons Ratio (x) = 0.41202 0.19717
# Poissons Ratio (y) = 0.39163 0.21994
# Poissons Ratio (z) = 0.22902 0.26876
#
# Static dielectric constant tensor:
#      x y z
#    x 2.995400 0.000000 0.000000 
#    y 0.000000 2.991950 0.000000 
#    z 0.000000 0.000000 2.889150 
# 
# 
# High freq. dielectric constant tensor:
#      x y z
#    x 1.643300 0.000000 0.000000 
#    y 0.000000 1.634440 0.000000 
#    z 0.000000 0.000000 1.617360 
# 
# From -- ./inp_files/20012.got.cif
#   From: 2010.03.12/outbox.cif.g09.slc.cpg/sg53_11_cif.got.tgz:20012.got - 2010.04.16 14:36:59.
