data_PCOD8219007
_publ_section_title
;
Structure prediction by ZEFSAII (Michael W. Deem and Ramdas Pophale) SiO2 
 PCOD8219007
Probable space group: P M N A
;
_chemical_formula_sum "Si O2"
_cell_formula_units_Z 48
_cell_length_a 8.743165
_cell_length_b 13.384642
_cell_length_c 19.418925
_cell_angle_alpha 90.000000
_cell_angle_beta 90.000000
_cell_angle_gamma 90.000000
_cell_volume 2272.482871
_symmetry_space_group_name_H-M "P M N A"
_symmetry_group_IT_number 53
_symmetry_cell_setting 'orthorhombic'
loop_
_space_group_symop_operation_xyz
x,y,z
1/2-x,-y,1/2+z
x,-y,-z
1/2-x,y,1/2-z
-x,-y,-z
1/2+x,y,1/2-z
-x,y,z
1/2+x,-y,1/2+z
loop_
_atom_site_type_symbol
_atom_site_label
_atom_site_fract_x
_atom_site_fract_y
_atom_site_fract_z
Si Si1 0.817976 0.685358 0.450151
Si Si2 0.180625 0.091344 0.543512
Si Si3 0.821634 0.999088 0.681942
Si Si4 0.681442 0.227492 0.178862
Si Si5 0.319484 0.385570 0.416834
Si Si6 0.681569 0.576198 0.326944
O O1 0.764437 0.796761 0.474493
O O2 0.751694 0.606660 0.506136
O O3 0.749477 0.665015 0.374069
O O4 0.000000 0.676514 0.446140
O O5 0.000000 0.086199 0.532856
O O6 0.255607 0.000000 0.500000
O O7 0.229456 0.072161 0.621722
O O8 0.750000 0.045899 0.750000
O O9 0.764402 0.886390 0.668417
O O10 0.000000 0.995531 0.691952
O O11 0.750000 0.270447 0.250000
O O12 0.500000 0.241376 0.178555
O O13 0.754186 0.284684 0.115309
O O14 0.500000 0.381661 0.424906
O O15 0.268417 0.475499 0.366984
O O16 0.750000 0.577887 0.250000
O O17 0.500000 0.586413 0.321213
#
# Coordination Sequence:
#
# PCOD8219007 Si02
#       6
#     8   8   8   8   8   8
#     4  11  23  39  63  91 119 154 194 239 291 346
#     4   9  18  35  58  84 114 150 193 237 283 338
#     4   9  18  33  53  78 111 149 189 235 288 346
#     4  10  19  32  54  84 117 154 195 243 297 350
#     4  11  23  39  60  86 118 155 195 242 293 346
#     4  11  25  44  64  87 118 155 195 240 290 346
#
# _framework density 21.122271999999999
#
# number of rings (size 3 to 8) (size 9 to 14) (size 15 to 20)
#    0.000    1.833    0.000    4.000    0.000   10.000 
#    0.000    3.333    0.000    3.500    0.000    0.000 
#    0.000    0.000    0.000    0.000    0.000    0.000 
#
# Total GULP energy -595096.247611 kJ/mol
# GULP energy per Si atom -12397.838492 kJ/mol
# Density = 2.107420 g / cm^3
# Si number density = 21.122272 Si / 1000 Ang^3
#
#
#
# Elastic Constant Matrix: (Units=GPa)
#
#
# Indices 1 2 3 4 5 6 
#
# 1 63.0479 36.2218 43.6592 0.0000 0.0000 0.0000
# 2 36.2218 90.3635 64.5010 0.0000 0.0000 0.0000
# 3 43.6592 64.5010 125.2729 0.0000 0.0000 0.0000
# 4 0.0000 0.0000 0.0000 38.3249 0.0000 0.0000
# 5 0.0000 0.0000 0.0000 0.0000 40.7925 0.0000
# 6 0.0000 0.0000 0.0000 0.0000 0.0000 -0.1047
#
#
#
# Elastic Compliance Matrix: (Units=1/GPa)
#
#
# Indices 1 2 3 4 5 6 
#
# 1 0.022458 -0.005400 -0.005047 0.000000 0.000000 0.000000
# 2 -0.005400 0.018795 -0.007795 0.000000 0.000000 0.000000
# 3 -0.005047 -0.007795 0.013755 0.000000 0.000000 0.000000
# 4 0.000000 0.000000 0.000000 0.026093 0.000000 0.000000
# 5 0.000000 0.000000 0.000000 0.000000 0.024514 0.000000
# 6 0.000000 0.000000 0.000000 0.000000 0.000000 -9.552111
#
#
# Mechanical properties :
#
#
# Convention : Reuss Voigt Hill
#
# Bulk Modulus (GPa) = 53.98267 63.04980 58.51623
# Shear Modulus (GPa) = -0.53170 24.75603 12.11216
#
# Velocity S-wave (km/s) = -0.50227 3.42721 2.39724
# Velocity P-wave (km/s) = 5.02756 6.75098 5.95198
#
# Compressibility (1/GPa) = 0.01852447
#
# Stress axis : x y z
#
# Youngs Moduli (GPa) = 44.52773 53.20476 72.70033
#
# Poissons Ratio (x) = 0.28730 0.36688
# Poissons Ratio (y) = 0.24045 0.56673
# Poissons Ratio (z) = 0.22471 0.41475
#
# Static dielectric constant tensor:
#      x y z
#    x 3.603330 0.000000 0.000000 
#    y 0.000000 3.970240 0.000000 
#    z 0.000000 0.000000 4.027040 
# 
# 
# High freq. dielectric constant tensor:
#      x y z
#    x 1.809070 0.000000 0.000000 
#    y 0.000000 1.827900 0.000000 
#    z 0.000000 0.000000 1.844380 
# 
# From -- ./inp_files/26210.got.cif
#   From: 2010.03.12/outbox.cif.g09.slc.cpg/sg53_14_cif.got.tgz:26210.got - 2010.04.16 14:36:59.
