data_PCOD8219752
_publ_section_title
;
Structure prediction by ZEFSAII (Michael W. Deem and Ramdas Pophale) SiO2 
 PCOD8219752
Probable space group: P M N A
;
_chemical_formula_sum "Si O2"
_cell_formula_units_Z 40
_cell_length_a 27.514502
_cell_length_b 9.667537
_cell_length_c 8.057514
_cell_angle_alpha 90.000000
_cell_angle_beta 90.000000
_cell_angle_gamma 90.000000
_cell_volume 2143.278307
_symmetry_space_group_name_H-M "P M N A"
_symmetry_group_IT_number 53
_symmetry_cell_setting 'orthorhombic'
loop_
_space_group_symop_operation_xyz
x,y,z
1/2-x,-y,1/2+z
x,-y,-z
1/2-x,y,1/2-z
-x,-y,-z
1/2+x,y,1/2-z
-x,y,z
1/2+x,-y,1/2+z
loop_
_atom_site_type_symbol
_atom_site_label
_atom_site_fract_x
_atom_site_fract_y
_atom_site_fract_z
Si Si1 0.946546 0.345130 0.937961
Si Si2 0.805084 0.751986 0.200984
Si Si3 0.197000 0.952258 0.691455
Si Si4 0.879025 0.441874 0.674680
Si Si5 0.643513 0.284838 0.367205
O O1 0.924402 0.359400 0.753589
O O2 0.000000 0.274004 0.933130
O O3 0.951811 0.500000 0.000000
O O4 0.910197 0.255071 0.054559
O O5 0.750000 0.725334 0.250000
O O6 0.835652 0.669193 0.339793
O O7 0.817928 0.914180 0.202366
O O8 0.816984 0.702819 0.014593
O O9 0.250000 0.898899 0.750000
O O10 0.157962 0.831980 0.732307
O O11 0.197271 0.000000 0.500000
O O12 0.896567 0.500000 0.500000
O O13 0.858003 0.565764 0.784730
#
# Coordination Sequence:
#
# PCOD8219752 Si02
#       5
#     8   8   8   8   8
#     4   8  16  33  55  76 101 134 171 212 261 312
#     4  10  20  34  50  72 103 140 174 207 253 307
#     4  11  21  34  52  75 103 139 175 208 252 306
#     4  10  20  32  50  79 106 132 170 215 260 303
#     4  10  20  35  54  77 103 135 176 215 254 303
#
# _framework density 18.662998999999999
#
# number of rings (size 3 to 8) (size 9 to 14) (size 15 to 20)
#    0.000    2.200    0.000    6.000    0.000    2.800 
#    0.000    0.000    0.000   10.200    0.000    0.000 
#    0.000    0.000    0.000    0.000    0.000    0.000 
#
# Total GULP energy -495737.964813 kJ/mol
# GULP energy per Si atom -12393.449120 kJ/mol
# Density = 1.862052 g / cm^3
# Si number density = 18.662999 Si / 1000 Ang^3
#
#
#
# Elastic Constant Matrix: (Units=GPa)
#
#
# Indices 1 2 3 4 5 6 
#
# 1 145.2171 53.5190 44.6833 0.0000 0.0000 0.0000
# 2 53.5190 53.5085 13.1169 0.0000 0.0000 0.0000
# 3 44.6833 13.1169 93.5075 0.0000 0.0000 0.0000
# 4 0.0000 0.0000 0.0000 26.4511 0.0000 0.0000
# 5 0.0000 0.0000 0.0000 0.0000 18.3281 0.0000
# 6 0.0000 0.0000 0.0000 0.0000 0.0000 14.3433
#
#
#
# Elastic Compliance Matrix: (Units=1/GPa)
#
#
# Indices 1 2 3 4 5 6 
#
# 1 0.012399 -0.011339 -0.004334 0.000000 0.000000 0.000000
# 2 -0.011339 0.029723 0.001249 0.000000 0.000000 0.000000
# 3 -0.004334 0.001249 0.012590 0.000000 0.000000 0.000000
# 4 0.000000 0.000000 0.000000 0.037806 0.000000 0.000000
# 5 0.000000 0.000000 0.000000 0.000000 0.054561 0.000000
# 6 0.000000 0.000000 0.000000 0.000000 0.000000 0.069719
#
#
# Mechanical properties :
#
#
# Convention : Reuss Voigt Hill
#
# Bulk Modulus (GPa) = 38.66365 57.20796 47.93580
# Shear Modulus (GPa) = 19.66431 23.88541 21.77486
#
# Velocity S-wave (km/s) = 3.24952 3.58135 3.41946
# Velocity P-wave (km/s) = 5.90262 6.91528 6.42892
#
# Compressibility (1/GPa) = 0.02586409
#
# Stress axis : x y z
#
# Youngs Moduli (GPa) = 80.65375 33.64360 79.42608
#
# Poissons Ratio (x) = 0.38147 0.34425
# Poissons Ratio (y) = 0.91450 -0.09918
# Poissons Ratio (z) = 0.34957 -0.04201
#
# Static dielectric constant tensor:
#      x y z
#    x 3.646870 0.000000 0.000000 
#    y 0.000000 3.494580 0.000000 
#    z 0.000000 0.000000 3.469540 
# 
# 
# High freq. dielectric constant tensor:
#      x y z
#    x 1.711780 0.000000 0.000000 
#    y 0.000000 1.711170 0.000000 
#    z 0.000000 0.000000 1.727260 
# 
# From -- ./inp_files/12278.got.cif
#   From: 2010.03.12/outbox.cif.g09.slc.cpg/sg53_7_cif.got.tgz:12278.got - 2010.04.16 14:36:59.
