data_PCOD8219466
_publ_section_title
;
Structure prediction by ZEFSAII (Michael W. Deem and Ramdas Pophale) SiO2 
 PCOD8219466
Probable space group: P M N A
;
_chemical_formula_sum "Si O2"
_cell_formula_units_Z 64
_cell_length_a 8.698132
_cell_length_b 21.591732
_cell_length_c 17.635092
_cell_angle_alpha 90.000000
_cell_angle_beta 90.000000
_cell_angle_gamma 90.000000
_cell_volume 3312.006686
_symmetry_space_group_name_H-M "P M N A"
_symmetry_group_IT_number 53
_symmetry_cell_setting 'orthorhombic'
loop_
_space_group_symop_operation_xyz
x,y,z
1/2-x,-y,1/2+z
x,-y,-z
1/2-x,y,1/2-z
-x,-y,-z
1/2+x,y,1/2-z
-x,y,z
1/2+x,-y,1/2+z
loop_
_atom_site_type_symbol
_atom_site_label
_atom_site_fract_x
_atom_site_fract_y
_atom_site_fract_z
Si Si1 0.677835 0.682748 0.454779
Si Si2 0.818425 0.105089 0.577433
Si Si3 0.319183 0.218872 0.667871
Si Si4 0.817560 0.370505 0.326493
Si Si5 0.681252 0.251911 0.391566
Si Si6 0.819173 0.122037 0.403620
Si Si7 0.818440 0.003998 0.169200
Si Si8 0.818878 0.567099 0.519391
O O1 0.500000 0.666626 0.461443
O O2 0.718459 0.718234 0.377547
O O3 0.728160 0.726941 0.523859
O O4 0.766584 0.617562 0.457317
O O5 0.759255 0.160988 0.628220
O O6 0.767597 0.115076 0.490841
O O7 0.000000 0.100167 0.585588
O O8 0.744010 0.041338 0.604512
O O9 0.250000 0.228675 0.750000
O O10 0.500000 0.205990 0.671773
O O11 0.750000 0.401371 0.250000
O O12 0.740875 0.302974 0.332784
O O13 0.763373 0.412958 0.396811
O O14 0.000000 0.364479 0.323123
O O15 0.500000 0.241809 0.382675
O O16 0.769986 0.188930 0.373147
O O17 0.731282 0.073128 0.351589
O O18 0.000000 0.112290 0.393610
O O19 0.750000 0.983927 0.250000
O O20 0.000000 0.999034 0.173778
O O21 0.746610 0.500000 0.500000
O O22 0.000000 0.563303 0.515848
#
# Coordination Sequence:
#
# PCOD8219466 Si02
#       8
#     8   8   8   8   8   8   8   8
#     4   9  19  35  56  82 114 147 185 232 278 333
#     4  11  23  40  62  86 114 149 190 236 287 345
#     4  11  22  37  57  85 117 150 191 237 289 342
#     4  10  20  35  56  84 117 152 192 236 286 338
#     4  10  19  35  58  84 113 146 186 231 283 337
#     4  11  23  39  61  88 116 147 189 235 286 346
#     4  12  26  43  61  81 112 150 191 239 292 344
#     4   9  19  36  59  85 114 152 195 236 281 336
#
# _framework density 19.323633000000001
#
# number of rings (size 3 to 8) (size 9 to 14) (size 15 to 20)
#    0.000    1.625    1.250    3.750    0.000    5.750 
#    0.000    3.125    0.000    3.000    0.000    0.000 
#    0.000    0.000    0.000    0.000    0.000    0.000 
#
# Total GULP energy -793904.209980 kJ/mol
# GULP energy per Si atom -12404.753281 kJ/mol
# Density = 1.927965 g / cm^3
# Si number density = 19.323633 Si / 1000 Ang^3
#
#
#
# Elastic Constant Matrix: (Units=GPa)
#
#
# Indices 1 2 3 4 5 6 
#
# 1 70.3356 26.9840 28.3161 0.0000 0.0000 0.0000
# 2 26.9840 119.5817 24.6158 0.0000 0.0000 0.0000
# 3 28.3161 24.6158 75.7862 0.0000 0.0000 0.0000
# 4 0.0000 0.0000 0.0000 21.5142 0.0000 0.0000
# 5 0.0000 0.0000 0.0000 0.0000 29.1081 0.0000
# 6 0.0000 0.0000 0.0000 0.0000 0.0000 30.9246
#
#
#
# Elastic Compliance Matrix: (Units=1/GPa)
#
#
# Indices 1 2 3 4 5 6 
#
# 1 0.017568 -0.002800 -0.005654 0.000000 0.000000 0.000000
# 2 -0.002800 0.009408 -0.002009 0.000000 0.000000 0.000000
# 3 -0.005654 -0.002009 0.015960 0.000000 0.000000 0.000000
# 4 0.000000 0.000000 0.000000 0.046481 0.000000 0.000000
# 5 0.000000 0.000000 0.000000 0.000000 0.034355 0.000000
# 6 0.000000 0.000000 0.000000 0.000000 0.000000 0.032337
#
#
# Mechanical properties :
#
#
# Convention : Reuss Voigt Hill
#
# Bulk Modulus (GPa) = 45.43789 47.28171 46.35980
# Shear Modulus (GPa) = 27.11880 28.69520 27.90700
#
# Velocity S-wave (km/s) = 3.75026 3.85772 3.80437
# Velocity P-wave (km/s) = 6.50522 6.66064 6.58339
#
# Compressibility (1/GPa) = 0.02200806
#
# Stress axis : x y z
#
# Youngs Moduli (GPa) = 56.92068 106.29198 62.65504
#
# Poissons Ratio (x) = 0.29766 0.35428
# Poissons Ratio (y) = 0.15940 0.12590
# Poissons Ratio (z) = 0.32186 0.21359
#
# Static dielectric constant tensor:
#      x y z
#    x 3.543370 0.000000 0.000000 
#    y 0.000000 3.633540 0.000000 
#    z 0.000000 0.000000 3.691630 
# 
# 
# High freq. dielectric constant tensor:
#      x y z
#    x 1.759900 0.000000 0.000000 
#    y 0.000000 1.750310 0.000000 
#    z 0.000000 0.000000 1.752800 
# 
# From -- ./inp_files/26944.got.cif
#   From: 2010.03.12/outbox.cif.g09.slc.cpg/sg53_14_cif.got.tgz:26944.got - 2010.04.16 14:36:59.
