data_PCOD8219303
_publ_section_title
;
Structure prediction by ZEFSAII (Michael W. Deem and Ramdas Pophale) SiO2 
 PCOD8219303
Probable space group: P M N A
;
_chemical_formula_sum "Si O2"
_cell_formula_units_Z 48
_cell_length_a 8.850519
_cell_length_b 15.459591
_cell_length_c 17.843306
_cell_angle_alpha 90.000000
_cell_angle_beta 90.000000
_cell_angle_gamma 90.000000
_cell_volume 2441.417550
_symmetry_space_group_name_H-M "P M N A"
_symmetry_group_IT_number 53
_symmetry_cell_setting 'orthorhombic'
loop_
_space_group_symop_operation_xyz
x,y,z
1/2-x,-y,1/2+z
x,-y,-z
1/2-x,y,1/2-z
-x,-y,-z
1/2+x,y,1/2-z
-x,y,z
1/2+x,-y,1/2+z
loop_
_atom_site_type_symbol
_atom_site_label
_atom_site_fract_x
_atom_site_fract_y
_atom_site_fract_z
Si Si1 0.175732 0.853720 0.436148
Si Si2 0.324214 0.989427 0.825914
Si Si3 0.678315 0.673954 0.832253
Si Si4 0.321348 0.833498 0.593057
Si Si5 0.325754 0.513696 0.171275
Si Si6 0.822017 0.299369 0.668652
O O1 0.202464 0.941092 0.390595
O O2 0.273145 0.862449 0.510579
O O3 0.238690 0.772650 0.388488
O O4 0.000000 0.841716 0.457346
O O5 0.250000 0.025795 0.750000
O O6 0.500000 0.971670 0.812727
O O7 0.243706 0.900073 0.846550
O O8 0.750000 0.683749 0.750000
O O9 0.500000 0.692005 0.825953
O O10 0.754083 0.739343 0.889989
O O11 0.710606 0.577943 0.869178
O O12 0.500000 0.831131 0.599715
O O13 0.250000 0.508538 0.250000
O O14 0.500000 0.518956 0.188872
O O15 0.279001 0.605460 0.132925
O O16 0.750000 0.286109 0.750000
O O17 0.000000 0.286994 0.678735
#
# Coordination Sequence:
#
# PCOD8219303 Si02
#       6
#     8   8   8   8   8   8
#     4  10  22  39  58  81 112 147 179 217 267 322
#     4  11  23  40  62  86 111 140 177 220 267 320
#     4  10  19  34  56  81 110 143 182 226 271 320
#     4  12  25  39  56  79 109 145 184 226 272 321
#     4   8  15  28  50  79 108 140 177 220 267 314
#     4   9  17  32  55  83 112 142 180 222 266 318
#
# _framework density 19.660710000000002
#
# number of rings (size 3 to 8) (size 9 to 14) (size 15 to 20)
#    0.000    2.000    0.000    4.000    0.000    4.667 
#    0.000    0.833    0.000    5.000    0.000    0.000 
#    0.000    0.000    0.000    0.000    0.000    0.000 
#
# Total GULP energy -594912.503766 kJ/mol
# GULP energy per Si atom -12394.010495 kJ/mol
# Density = 1.961596 g / cm^3
# Si number density = 19.660710 Si / 1000 Ang^3
#
#
#
# Elastic Constant Matrix: (Units=GPa)
#
#
# Indices 1 2 3 4 5 6 
#
# 1 90.6986 40.9053 30.6122 0.0000 0.0000 0.0000
# 2 40.9053 109.2102 16.8339 0.0000 0.0000 0.0000
# 3 30.6122 16.8339 64.6560 0.0000 0.0000 0.0000
# 4 0.0000 0.0000 0.0000 17.0637 0.0000 0.0000
# 5 0.0000 0.0000 0.0000 0.0000 31.8182 0.0000
# 6 0.0000 0.0000 0.0000 0.0000 0.0000 20.4593
#
#
#
# Elastic Compliance Matrix: (Units=1/GPa)
#
#
# Indices 1 2 3 4 5 6 
#
# 1 0.015184 -0.004771 -0.005947 0.000000 0.000000 0.000000
# 2 -0.004771 0.011038 -0.000615 0.000000 0.000000 0.000000
# 3 -0.005947 -0.000615 0.018442 0.000000 0.000000 0.000000
# 4 0.000000 0.000000 0.000000 0.058604 0.000000 0.000000
# 5 0.000000 0.000000 0.000000 0.000000 0.031429 0.000000
# 6 0.000000 0.000000 0.000000 0.000000 0.000000 0.048877
#
#
# Mechanical properties :
#
#
# Convention : Reuss Voigt Hill
#
# Bulk Modulus (GPa) = 45.45652 49.02977 47.24314
# Shear Modulus (GPa) = 23.41106 25.61579 24.51343
#
# Velocity S-wave (km/s) = 3.45447 3.61348 3.53487
# Velocity P-wave (km/s) = 6.25155 6.51166 6.38293
#
# Compressibility (1/GPa) = 0.02199904
#
# Stress axis : x y z
#
# Youngs Moduli (GPa) = 65.85718 90.59305 54.22289
#
# Poissons Ratio (x) = 0.43219 0.32247
# Poissons Ratio (y) = 0.31418 0.03336
# Poissons Ratio (z) = 0.39166 0.05574
#
# Static dielectric constant tensor:
#      x y z
#    x 3.587060 0.000000 0.000000 
#    y 0.000000 4.324690 0.000000 
#    z 0.000000 0.000000 3.294450 
# 
# 
# High freq. dielectric constant tensor:
#      x y z
#    x 1.766570 0.000000 0.000000 
#    y 0.000000 1.795070 0.000000 
#    z 0.000000 0.000000 1.737790 
# 
# From -- ./inp_files/26213.got.cif
#   From: 2010.03.12/outbox.cif.g09.slc.cpg/sg53_14_cif.got.tgz:26213.got - 2010.04.16 14:36:59.
