data_PCOD8219293
_publ_section_title
;
Structure prediction by ZEFSAII (Michael W. Deem and Ramdas Pophale) SiO2 
 PCOD8219293
Probable space group: P M N A
;
_chemical_formula_sum "Si O2"
_cell_formula_units_Z 48
_cell_length_a 8.820435
_cell_length_b 16.503163
_cell_length_c 17.851264
_cell_angle_alpha 90.000000
_cell_angle_beta 90.000000
_cell_angle_gamma 90.000000
_cell_volume 2598.520610
_symmetry_space_group_name_H-M "P M N A"
_symmetry_group_IT_number 53
_symmetry_cell_setting 'orthorhombic'
loop_
_space_group_symop_operation_xyz
x,y,z
1/2-x,-y,1/2+z
x,-y,-z
1/2-x,y,1/2-z
-x,-y,-z
1/2+x,y,1/2-z
-x,y,z
1/2+x,-y,1/2+z
loop_
_atom_site_type_symbol
_atom_site_label
_atom_site_fract_x
_atom_site_fract_y
_atom_site_fract_z
Si Si1 0.178855 0.587323 0.978061
Si Si2 0.173904 0.735438 0.455661
Si Si3 0.321835 0.859882 0.170295
Si Si4 0.320376 0.990188 0.585711
Si Si5 0.679847 0.669379 0.673975
Si Si6 0.178140 0.177690 0.392908
O O1 0.235084 0.613209 0.895178
O O2 0.000000 0.583354 0.979910
O O3 0.248557 0.500000 0.000000
O O4 0.230156 0.653149 0.039363
O O5 0.210293 0.779500 0.378008
O O6 0.217673 0.796858 0.522222
O O7 0.000000 0.709980 0.462463
O O8 0.250000 0.841539 0.250000
O O9 0.500000 0.878445 0.176022
O O10 0.239214 0.935485 0.133593
O O11 0.500000 0.985004 0.591900
O O12 0.266601 0.000000 0.500000
O O13 0.248234 0.910121 0.621607
O O14 0.750000 0.632215 0.750000
O O15 0.500000 0.672322 0.679591
O O16 0.744000 0.759860 0.663964
O O17 0.000000 0.175567 0.377046
#
# Coordination Sequence:
#
# PCOD8219293 Si02
#       6
#     8   8   8   8   8   8
#     4   9  19  36  59  85 111 142 181 223 269 327
#     4   9  19  35  56  80 107 140 178 221 270 324
#     4  11  23  39  56  79 111 147 188 232 280 324
#     4  11  22  35  55  82 111 146 189 231 276 327
#     4  10  20  35  55  81 113 145 180 224 277 330
#     4  10  19  34  56  80 107 142 183 225 272 325
#
# _framework density 18.472049999999999
#
# number of rings (size 3 to 8) (size 9 to 14) (size 15 to 20)
#    0.000    2.000    1.667    2.000    0.000    4.333 
#    0.000    4.167    0.000    4.000    0.000    0.000 
#    0.000    0.000    0.000    0.000    0.000    0.000 
#
# Total GULP energy -595348.698827 kJ/mol
# GULP energy per Si atom -12403.097892 kJ/mol
# Density = 1.843001 g / cm^3
# Si number density = 18.472050 Si / 1000 Ang^3
#
#
#
# Elastic Constant Matrix: (Units=GPa)
#
#
# Indices 1 2 3 4 5 6 
#
# 1 58.0006 32.0904 32.1067 0.0000 0.0000 0.0000
# 2 32.0904 123.2530 46.5498 0.0000 0.0000 0.0000
# 3 32.1067 46.5498 110.0388 0.0000 0.0000 0.0000
# 4 0.0000 0.0000 0.0000 21.1052 0.0000 0.0000
# 5 0.0000 0.0000 0.0000 0.0000 27.2312 0.0000
# 6 0.0000 0.0000 0.0000 0.0000 0.0000 27.7636
#
#
#
# Elastic Compliance Matrix: (Units=1/GPa)
#
#
# Indices 1 2 3 4 5 6 
#
# 1 0.022063 -0.003943 -0.004769 0.000000 0.000000 0.000000
# 2 -0.003943 0.010361 -0.003232 0.000000 0.000000 0.000000
# 3 -0.004769 -0.003232 0.011847 0.000000 0.000000 0.000000
# 4 0.000000 0.000000 0.000000 0.047382 0.000000 0.000000
# 5 0.000000 0.000000 0.000000 0.000000 0.036723 0.000000
# 6 0.000000 0.000000 0.000000 0.000000 0.000000 0.036018
#
#
# Mechanical properties :
#
#
# Convention : Reuss Voigt Hill
#
# Bulk Modulus (GPa) = 49.06611 56.97623 53.02117
# Shear Modulus (GPa) = 25.63096 27.25637 26.44367
#
# Velocity S-wave (km/s) = 3.72903 3.84545 3.78769
# Velocity P-wave (km/s) = 6.72019 7.11535 6.92059
#
# Compressibility (1/GPa) = 0.02038067
#
# Stress axis : x y z
#
# Youngs Moduli (GPa) = 45.32487 96.51731 84.41147
#
# Poissons Ratio (x) = 0.38057 0.40259
# Poissons Ratio (y) = 0.17872 0.27286
# Poissons Ratio (z) = 0.21617 0.31199
#
# Static dielectric constant tensor:
#      x y z
#    x 3.401300 0.000000 0.000000 
#    y 0.000000 3.428150 0.000000 
#    z 0.000000 0.000000 3.535300 
# 
# 
# High freq. dielectric constant tensor:
#      x y z
#    x 1.723650 0.000000 0.000000 
#    y 0.000000 1.709780 0.000000 
#    z 0.000000 0.000000 1.712230 
# 
# From -- ./inp_files/26174.got.cif
#   From: 2010.03.12/outbox.cif.g09.slc.cpg/sg53_14_cif.got.tgz:26174.got - 2010.04.16 14:36:59.
