data_PCOD8219890
_publ_section_title
;
Structure prediction by ZEFSAII (Michael W. Deem and Ramdas Pophale) SiO2 
 PCOD8219890
Probable space group: P M N A
;
_chemical_formula_sum "Si O2"
_cell_formula_units_Z 64
_cell_length_a 8.821129
_cell_length_b 20.757305
_cell_length_c 18.988183
_cell_angle_alpha 90.000000
_cell_angle_beta 90.000000
_cell_angle_gamma 90.000000
_cell_volume 3476.790710
_symmetry_space_group_name_H-M "P M N A"
_symmetry_group_IT_number 53
_symmetry_cell_setting 'orthorhombic'
loop_
_space_group_symop_operation_xyz
x,y,z
1/2-x,-y,1/2+z
x,-y,-z
1/2-x,y,1/2-z
-x,-y,-z
1/2+x,y,1/2-z
-x,y,z
1/2+x,-y,1/2+z
loop_
_atom_site_type_symbol
_atom_site_label
_atom_site_fract_x
_atom_site_fract_y
_atom_site_fract_z
Si Si1 0.323120 0.956192 0.174745
Si Si2 0.177642 0.673743 0.939129
Si Si3 0.820735 0.528653 0.927774
Si Si4 0.179093 0.304596 0.585830
Si Si5 0.679145 0.093638 0.172725
Si Si6 0.179406 0.418847 0.826319
Si Si7 0.177335 0.780104 0.825981
Si Si8 0.821779 0.182968 0.673757
O O1 0.250000 0.957671 0.250000
O O2 0.500000 0.956854 0.187936
O O3 0.276515 0.887534 0.139552
O O4 0.280811 0.024058 0.134963
O O5 0.232101 0.602101 0.917658
O O6 0.216399 0.718945 0.873605
O O7 0.000000 0.674935 0.958639
O O8 0.273898 0.698425 0.004839
O O9 0.765854 0.486072 0.861395
O O10 0.000000 0.524351 0.932865
O O11 0.750100 0.500000 0.000000
O O12 0.265943 0.361840 0.623906
O O13 0.234274 0.237597 0.620424
O O14 0.000000 0.314874 0.593244
O O15 0.750000 0.092534 0.250000
O O16 0.500000 0.104488 0.176377
O O17 0.754498 0.155742 0.135234
O O18 0.250000 0.411975 0.750000
O O19 0.000000 0.414945 0.819393
O O20 0.250000 0.767740 0.750000
O O21 0.000000 0.789897 0.816395
O O22 0.750000 0.194051 0.750000
O O23 0.000000 0.187742 0.684805
#
# Coordination Sequence:
#
# PCOD8219890 Si02
#       8
#     8   8   8   8   8   8   8   8
#     4   8  14  25  42  66  95 129 167 208 251 301
#     4  10  21  38  58  78 101 138 178 211 257 314
#     4   9  17  35  60  78  97 134 175 210 253 306
#     4  11  22  35  53  78 107 140 176 216 260 309
#     4   9  15  25  45  70  98 130 166 207 255 304
#     4  11  22  37  58  82 110 139 174 217 261 312
#     4  10  20  33  52  77 106 134 167 211 261 313
#     4   9  18  31  47  71 103 135 171 213 258 302
#
# _framework density 18.407779999999999
#
# number of rings (size 3 to 8) (size 9 to 14) (size 15 to 20)
#    0.000    2.375    1.250    2.625    0.000    4.000 
#    0.000    1.875    0.000    0.750    0.000    5.250 
#    0.000    0.000    0.000    0.000    0.000    0.000 
#
# Total GULP energy -792941.772544 kJ/mol
# GULP energy per Si atom -12389.715196 kJ/mol
# Density = 1.836588 g / cm^3
# Si number density = 18.407780 Si / 1000 Ang^3
#
#
#
# Elastic Constant Matrix: (Units=GPa)
#
#
# Indices 1 2 3 4 5 6 
#
# 1 55.7990 44.4150 29.8012 0.0000 0.0000 0.0000
# 2 44.4150 193.3941 55.8226 0.0000 0.0000 0.0000
# 3 29.8012 55.8226 76.1002 0.0000 0.0000 0.0000
# 4 0.0000 0.0000 0.0000 13.7933 0.0000 0.0000
# 5 0.0000 0.0000 0.0000 0.0000 20.8922 0.0000
# 6 0.0000 0.0000 0.0000 0.0000 0.0000 24.0862
#
#
#
# Elastic Compliance Matrix: (Units=1/GPa)
#
#
# Indices 1 2 3 4 5 6 
#
# 1 0.024515 -0.003627 -0.006940 0.000000 0.000000 0.000000
# 2 -0.003627 0.007096 -0.003785 0.000000 0.000000 0.000000
# 3 -0.006940 -0.003785 0.018635 0.000000 0.000000 0.000000
# 4 0.000000 0.000000 0.000000 0.072499 0.000000 0.000000
# 5 0.000000 0.000000 0.000000 0.000000 0.047865 0.000000
# 6 0.000000 0.000000 0.000000 0.000000 0.000000 0.041517
#
#
# Mechanical properties :
#
#
# Convention : Reuss Voigt Hill
#
# Bulk Modulus (GPa) = 46.41993 65.04119 55.73056
# Shear Modulus (GPa) = 20.16042 24.77133 22.46587
#
# Velocity S-wave (km/s) = 3.31299 3.67236 3.49729
# Velocity P-wave (km/s) = 6.31719 7.30697 6.83003
#
# Compressibility (1/GPa) = 0.02154247
#
# Stress axis : x y z
#
# Youngs Moduli (GPa) = 40.79173 140.91808 53.66352
#
# Poissons Ratio (x) = 0.51111 0.37240
# Poissons Ratio (y) = 0.14795 0.20312
# Poissons Ratio (z) = 0.28308 0.53339
#
# Static dielectric constant tensor:
#      x y z
#    x 3.233610 0.000000 0.000000 
#    y 0.000000 4.359190 0.000000 
#    z 0.000000 0.000000 3.099590 
# 
# 
# High freq. dielectric constant tensor:
#      x y z
#    x 1.707720 0.000000 0.000000 
#    y 0.000000 1.745560 0.000000 
#    z 0.000000 0.000000 1.672390 
# 
# From -- ./inp_files/26832.got.cif
#   From: 2010.03.12/outbox.cif.g09.slc.cpg/sg53_14_cif.got.tgz:26832.got - 2010.04.16 14:36:59.
