data_PCOD8219181
_publ_section_title
;
Structure prediction by ZEFSAII (Michael W. Deem and Ramdas Pophale) SiO2 
 PCOD8219181
Probable space group: P M N A
;
_chemical_formula_sum "Si O2"
_cell_formula_units_Z 48
_cell_length_a 8.890487
_cell_length_b 15.385697
_cell_length_c 17.894434
_cell_angle_alpha 90.000000
_cell_angle_beta 90.000000
_cell_angle_gamma 90.000000
_cell_volume 2447.714118
_symmetry_space_group_name_H-M "P M N A"
_symmetry_group_IT_number 53
_symmetry_cell_setting 'orthorhombic'
loop_
_space_group_symop_operation_xyz
x,y,z
1/2-x,-y,1/2+z
x,-y,-z
1/2-x,y,1/2-z
-x,-y,-z
1/2+x,y,1/2-z
-x,y,z
1/2+x,-y,1/2+z
loop_
_atom_site_type_symbol
_atom_site_label
_atom_site_fract_x
_atom_site_fract_y
_atom_site_fract_z
Si Si1 0.177113 0.793916 0.330755
Si Si2 0.673109 0.325485 0.413800
Si Si3 0.826602 0.018321 0.671798
Si Si4 0.821165 0.635998 0.431698
Si Si5 0.826634 0.497371 0.171408
Si Si6 0.677107 0.170121 0.168457
O O1 0.250000 0.779584 0.250000
O O2 0.236479 0.721541 0.387804
O O3 0.000000 0.784108 0.319957
O O4 0.220899 0.889565 0.366285
O O5 0.500000 0.307470 0.433465
O O6 0.756963 0.362457 0.485533
O O7 0.688083 0.395613 0.347532
O O8 0.750526 0.236757 0.388795
O O9 0.750000 0.012014 0.750000
O O10 0.791739 0.926151 0.631130
O O11 0.000000 0.023814 0.689769
O O12 0.757546 0.550855 0.392285
O O13 0.000000 0.630610 0.435050
O O14 0.750000 0.517238 0.250000
O O15 0.000000 0.526450 0.175309
O O16 0.750000 0.179539 0.250000
O O17 0.500000 0.188596 0.176132
#
# Coordination Sequence:
#
# PCOD8219181 Si02
#       6
#     8   8   8   8   8   8
#     4   9  18  33  54  81 110 142 181 223 269 321
#     4  11  24  40  57  79 111 148 184 225 273 325
#     4   8  15  29  50  77 108 140 177 222 269 317
#     4  11  23  38  58  83 112 146 182 223 273 327
#     4  11  24  41  61  84 109 140 179 223 271 323
#     4  10  19  33  56  83 110 143 183 227 273 321
#
# _framework density 19.610133000000001
#
# number of rings (size 3 to 8) (size 9 to 14) (size 15 to 20)
#    0.000    2.000    0.000    3.500    0.000    9.333 
#    0.000    0.833    0.000    5.000    0.000    0.000 
#    0.000    0.000    0.000    0.000    0.000    0.000 
#
# Total GULP energy -594895.704713 kJ/mol
# GULP energy per Si atom -12393.660515 kJ/mol
# Density = 1.956550 g / cm^3
# Si number density = 19.610133 Si / 1000 Ang^3
#
#
#
# Elastic Constant Matrix: (Units=GPa)
#
#
# Indices 1 2 3 4 5 6 
#
# 1 88.3854 37.6610 26.1554 0.0000 0.0000 0.0000
# 2 37.6610 101.4342 13.3313 0.0000 0.0000 0.0000
# 3 26.1554 13.3313 64.4552 0.0000 0.0000 0.0000
# 4 0.0000 0.0000 0.0000 21.9558 0.0000 0.0000
# 5 0.0000 0.0000 0.0000 0.0000 32.3549 0.0000
# 6 0.0000 0.0000 0.0000 0.0000 0.0000 27.1621
#
#
#
# Elastic Compliance Matrix: (Units=1/GPa)
#
#
# Indices 1 2 3 4 5 6 
#
# 1 0.014874 -0.004861 -0.005030 0.000000 0.000000 0.000000
# 2 -0.004861 0.011723 -0.000452 0.000000 0.000000 0.000000
# 3 -0.005030 -0.000452 0.017649 0.000000 0.000000 0.000000
# 4 0.000000 0.000000 0.000000 0.045546 0.000000 0.000000
# 5 0.000000 0.000000 0.000000 0.000000 0.030907 0.000000
# 6 0.000000 0.000000 0.000000 0.000000 0.000000 0.036816
#
#
# Mechanical properties :
#
#
# Convention : Reuss Voigt Hill
#
# Bulk Modulus (GPa) = 42.44637 45.39669 43.92153
# Shear Modulus (GPa) = 26.87360 28.10302 27.48831
#
# Velocity S-wave (km/s) = 3.70590 3.78972 3.74804
# Velocity P-wave (km/s) = 6.32485 6.50762 6.41689
#
# Compressibility (1/GPa) = 0.02355914
#
# Stress axis : x y z
#
# Youngs Moduli (GPa) = 67.23086 85.30262 56.65920
#
# Poissons Ratio (x) = 0.41469 0.28501
# Poissons Ratio (y) = 0.32684 0.02561
# Poissons Ratio (z) = 0.33819 0.03855
#
# Static dielectric constant tensor:
#      x y z
#    x 3.659920 0.000000 0.000000 
#    y 0.000000 4.306710 0.000000 
#    z 0.000000 0.000000 3.237060 
# 
# 
# High freq. dielectric constant tensor:
#      x y z
#    x 1.773150 0.000000 0.000000 
#    y 0.000000 1.791930 0.000000 
#    z 0.000000 0.000000 1.734030 
# 
# From -- ./inp_files/26194.got.cif
#   From: 2010.03.12/outbox.cif.g09.slc.cpg/sg53_14_cif.got.tgz:26194.got - 2010.04.16 14:36:59.
