data_PCOD8219060
_publ_section_title
;
Structure prediction by ZEFSAII (Michael W. Deem and Ramdas Pophale) SiO2 
 PCOD8219060
Probable space group: P M N A
;
_chemical_formula_sum "Si O2"
_cell_formula_units_Z 48
_cell_length_a 8.820325
_cell_length_b 15.630389
_cell_length_c 19.122264
_cell_angle_alpha 90.000000
_cell_angle_beta 90.000000
_cell_angle_gamma 90.000000
_cell_volume 2636.293046
_symmetry_space_group_name_H-M "P M N A"
_symmetry_group_IT_number 53
_symmetry_cell_setting 'orthorhombic'
loop_
_space_group_symop_operation_xyz
x,y,z
1/2-x,-y,1/2+z
x,-y,-z
1/2-x,y,1/2-z
-x,-y,-z
1/2+x,y,1/2-z
-x,y,z
1/2+x,-y,1/2+z
loop_
_atom_site_type_symbol
_atom_site_label
_atom_site_fract_x
_atom_site_fract_y
_atom_site_fract_z
Si Si1 0.829608 0.999343 0.916953
Si Si2 0.320850 0.320369 0.326652
Si Si3 0.822753 0.324061 0.674687
Si Si4 0.822413 0.171604 0.578158
Si Si5 0.822158 0.488113 0.325671
Si Si6 0.322966 0.173286 0.084104
O O1 0.727437 0.920763 0.889869
O O2 0.000000 0.989321 0.887835
O O3 0.760199 0.088495 0.889931
O O4 0.827733 0.000000 0.000000
O O5 0.250000 0.309225 0.250000
O O6 0.500000 0.324781 0.320000
O O7 0.258576 0.407866 0.364090
O O8 0.274353 0.241443 0.374087
O O9 0.750000 0.310137 0.750000
O O10 0.761248 0.253883 0.620305
O O11 0.788752 0.418292 0.641040
O O12 0.000000 0.313236 0.686302
O O13 0.783082 0.185988 0.497179
O O14 0.000000 0.157149 0.588112
O O15 0.750000 0.491761 0.250000
O O16 0.000000 0.469100 0.321544
O O17 0.500000 0.185695 0.099563
#
# Coordination Sequence:
#
# PCOD8219060 Si02
#       6
#     8   8   8   8   8   8
#     4   9  17  30  49  73  99 128 164 204 246 294
#     4  11  21  34  52  74 100 128 162 203 246 294
#     4   9  18  32  51  75 101 130 165 204 243 287
#     4   9  18  33  52  74 100 131 167 204 245 294
#     4   9  16  29  49  71  96 128 165 200 238 287
#     4  10  19  33  53  74  98 130 166 204 246 293
#
# _framework density 18.207383
#
# number of rings (size 3 to 8) (size 9 to 14) (size 15 to 20)
#    0.000    2.500    0.000    4.000    0.000    4.000 
#    0.000    1.667    0.000    7.000    0.000    0.000 
#    0.000    0.000    0.000    0.000    0.000    0.000 
#
# Total GULP energy -594957.623699 kJ/mol
# GULP energy per Si atom -12394.950494 kJ/mol
# Density = 1.816594 g / cm^3
# Si number density = 18.207383 Si / 1000 Ang^3
#
#
#
# Elastic Constant Matrix: (Units=GPa)
#
#
# Indices 1 2 3 4 5 6 
#
# 1 102.8365 64.9186 31.3394 0.0000 0.0000 0.0000
# 2 64.9186 180.7529 52.1833 0.0000 0.0000 0.0000
# 3 31.3394 52.1833 45.1228 0.0000 0.0000 0.0000
# 4 0.0000 0.0000 0.0000 28.6596 0.0000 0.0000
# 5 0.0000 0.0000 0.0000 0.0000 19.0719 0.0000
# 6 0.0000 0.0000 0.0000 0.0000 0.0000 32.3948
#
#
#
# Elastic Compliance Matrix: (Units=1/GPa)
#
#
# Indices 1 2 3 4 5 6 
#
# 1 0.013470 -0.003208 -0.005645 0.000000 0.000000 0.000000
# 2 -0.003208 0.009069 -0.008260 0.000000 0.000000 0.000000
# 3 -0.005645 -0.008260 0.035636 0.000000 0.000000 0.000000
# 4 0.000000 0.000000 0.000000 0.034892 0.000000 0.000000
# 5 0.000000 0.000000 0.000000 0.000000 0.052433 0.000000
# 6 0.000000 0.000000 0.000000 0.000000 0.000000 0.030869
#
#
# Mechanical properties :
#
#
# Convention : Reuss Voigt Hill
#
# Bulk Modulus (GPa) = 41.75842 69.51053 55.63448
# Shear Modulus (GPa) = 22.87506 28.04334 25.45920
#
# Velocity S-wave (km/s) = 3.54836 3.92882 3.74343
# Velocity P-wave (km/s) = 6.30655 7.67078 7.02187
#
# Compressibility (1/GPa) = 0.02394727
#
# Stress axis : x y z
#
# Youngs Moduli (GPa) = 74.24089 110.26154 28.06188
#
# Poissons Ratio (x) = 0.35371 0.15842
# Poissons Ratio (y) = 0.23816 0.23180
# Poissons Ratio (z) = 0.41911 0.91081
#
# Static dielectric constant tensor:
#      x y z
#    x 3.474720 0.000000 0.000000 
#    y 0.000000 4.159040 0.000000 
#    z 0.000000 0.000000 2.982370 
# 
# 
# High freq. dielectric constant tensor:
#      x y z
#    x 1.715280 0.000000 0.000000 
#    y 0.000000 1.730630 0.000000 
#    z 0.000000 0.000000 1.654630 
# 
# From -- ./inp_files/26259.got.cif
#   From: 2010.03.12/outbox.cif.g09.slc.cpg/sg53_14_cif.got.tgz:26259.got - 2010.04.16 14:36:59.
