data_PCOD8219442
_publ_section_title
;
Structure prediction by ZEFSAII (Michael W. Deem and Ramdas Pophale) SiO2 
 PCOD8219442
Probable space group: P M N A
;
_chemical_formula_sum "Si O2"
_cell_formula_units_Z 48
_cell_length_a 17.579472
_cell_length_b 13.811951
_cell_length_c 9.008948
_cell_angle_alpha 90.000000
_cell_angle_beta 90.000000
_cell_angle_gamma 90.000000
_cell_volume 2187.433888
_symmetry_space_group_name_H-M "P M N A"
_symmetry_group_IT_number 53
_symmetry_cell_setting 'orthorhombic'
loop_
_space_group_symop_operation_xyz
x,y,z
1/2-x,-y,1/2+z
x,-y,-z
1/2-x,y,1/2-z
-x,-y,-z
1/2+x,y,1/2-z
-x,y,z
1/2+x,-y,1/2+z
loop_
_atom_site_type_symbol
_atom_site_label
_atom_site_fract_x
_atom_site_fract_y
_atom_site_fract_z
Si Si1 0.415830 0.440035 0.649644
Si Si2 0.338855 0.878970 0.275065
Si Si3 0.169509 0.276962 0.998366
Si Si4 0.156499 0.767886 0.516492
Si Si5 0.914640 0.944346 0.653906
Si Si6 0.587705 0.633191 0.774151
O O1 0.422843 0.500000 0.500000
O O2 0.500000 0.397703 0.689898
O O3 0.353933 0.355348 0.628557
O O4 0.387319 0.519643 0.771250
O O5 0.250000 0.899583 0.250000
O O6 0.355160 0.828012 0.433298
O O7 0.382425 0.981267 0.276961
O O8 0.367817 0.806785 0.144716
O O9 0.259248 0.274471 0.021715
O O10 0.131135 0.299956 0.154332
O O11 0.141670 0.852727 0.638401
O O12 0.103674 0.676589 0.562538
O O13 0.000000 0.910376 0.697994
O O14 0.916399 0.000000 0.500000
O O15 0.500000 0.639495 0.731408
#
# Coordination Sequence:
#
# PCOD8219442 Si02
#       6
#     8   8   8   8   8   8
#     4   8  16  33  55  78 108 145 184 229 282 338
#     4   9  20  36  55  81 114 150 191 241 291 341
#     4  10  19  35  57  83 112 148 192 236 288 344
#     4  10  20  36  55  82 115 148 189 237 288 345
#     4   9  18  34  56  79 107 148 191 229 278 340
#     4  10  20  36  58  84 115 151 191 235 285 342
#
# _framework density 21.943519999999999
#
# number of rings (size 3 to 8) (size 9 to 14) (size 15 to 20)
#    0.000    2.667    0.000    2.500    0.000    3.333 
#    0.000   18.333    0.000    4.000    0.000    0.000 
#    0.000    0.000    0.000    0.000    0.000    0.000 
#
# Total GULP energy -594831.000451 kJ/mol
# GULP energy per Si atom -12392.312509 kJ/mol
# Density = 2.189358 g / cm^3
# Si number density = 21.943520 Si / 1000 Ang^3
#
#
#
# Elastic Constant Matrix: (Units=GPa)
#
#
# Indices 1 2 3 4 5 6 
#
# 1 108.8386 67.7778 17.3816 0.0000 0.0000 0.0000
# 2 67.7778 101.1467 16.2703 0.0000 0.0000 0.0000
# 3 17.3816 16.2703 24.6587 0.0000 0.0000 0.0000
# 4 0.0000 0.0000 0.0000 38.7575 0.0000 0.0000
# 5 0.0000 0.0000 0.0000 0.0000 24.6205 0.0000
# 6 0.0000 0.0000 0.0000 0.0000 0.0000 41.6052
#
#
#
# Elastic Compliance Matrix: (Units=1/GPa)
#
#
# Indices 1 2 3 4 5 6 
#
# 1 0.016256 -0.010124 -0.004778 0.000000 0.000000 0.000000
# 2 -0.010124 0.017366 -0.004322 0.000000 0.000000 0.000000
# 3 -0.004778 -0.004322 0.046773 0.000000 0.000000 0.000000
# 4 0.000000 0.000000 0.000000 0.025801 0.000000 0.000000
# 5 0.000000 0.000000 0.000000 0.000000 0.040617 0.000000
# 6 0.000000 0.000000 0.000000 0.000000 0.000000 0.024035
#
#
# Mechanical properties :
#
#
# Convention : Reuss Voigt Hill
#
# Bulk Modulus (GPa) = 23.84006 48.61152 36.22579
# Shear Modulus (GPa) = 22.39340 29.87759 26.13550
#
# Velocity S-wave (km/s) = 3.19799 3.69395 3.45488
# Velocity P-wave (km/s) = 4.95218 6.35569 5.69732
#
# Compressibility (1/GPa) = 0.04194619
#
# Stress axis : x y z
#
# Youngs Moduli (GPa) = 61.51664 57.58352 21.37963
#
# Poissons Ratio (x) = 0.58299 0.10216
# Poissons Ratio (y) = 0.62281 0.09240
# Poissons Ratio (z) = 0.29394 0.24888
#
# Static dielectric constant tensor:
#      x y z
#    x 3.870070 0.000000 0.000000 
#    y 0.000000 4.490440 0.000000 
#    z 0.000000 0.000000 3.810990 
# 
# 
# High freq. dielectric constant tensor:
#      x y z
#    x 1.852500 0.000000 0.000000 
#    y 0.000000 1.868200 0.000000 
#    z 0.000000 0.000000 1.837560 
# 
# From -- ./inp_files/16899.got.cif
#   From: 2010.03.12/outbox.cif.g09.slc.cpg/sg53_9_cif.got.tgz:16899.got - 2010.04.16 14:36:59.
