data_PCOD8219276
_publ_section_title
;
Structure prediction by ZEFSAII (Michael W. Deem and Ramdas Pophale) SiO2 
 PCOD8219276
Probable space group: P M N A
;
_chemical_formula_sum "Si O2"
_cell_formula_units_Z 64
_cell_length_a 9.250541
_cell_length_b 14.478978
_cell_length_c 24.638885
_cell_angle_alpha 90.000000
_cell_angle_beta 90.000000
_cell_angle_gamma 90.000000
_cell_volume 3300.092333
_symmetry_space_group_name_H-M "P M N A"
_symmetry_group_IT_number 53
_symmetry_cell_setting 'orthorhombic'
loop_
_space_group_symop_operation_xyz
x,y,z
1/2-x,-y,1/2+z
x,-y,-z
1/2-x,y,1/2-z
-x,-y,-z
1/2+x,y,1/2-z
-x,y,z
1/2+x,-y,1/2+z
loop_
_atom_site_type_symbol
_atom_site_label
_atom_site_fract_x
_atom_site_fract_y
_atom_site_fract_z
Si Si1 0.327654 0.778435 0.304711
Si Si2 0.668486 0.531036 0.940304
Si Si3 0.171392 0.282649 0.088475
Si Si4 0.834085 0.981050 0.159800
Si Si5 0.835352 0.963251 0.443819
Si Si6 0.666665 0.819217 0.698056
Si Si7 0.663906 0.656410 0.109552
Si Si8 0.338771 0.226532 0.989638
O O1 0.250000 0.744536 0.250000
O O2 0.500000 0.770702 0.298800
O O3 0.277379 0.884846 0.314576
O O4 0.276754 0.709763 0.352359
O O5 0.500000 0.558381 0.944604
O O6 0.756570 0.617711 0.917631
O O7 0.693235 0.453116 0.893658
O O8 0.724552 0.500000 0.000000
O O9 0.221707 0.232459 0.143878
O O10 0.224850 0.219347 0.038393
O O11 0.000000 0.292115 0.085715
O O12 0.752824 0.006115 0.104880
O O13 0.000000 0.968710 0.144589
O O14 0.807584 0.069821 0.197480
O O15 0.817433 0.853242 0.444858
O O16 0.000000 0.995845 0.436716
O O17 0.770561 0.000000 0.500000
O O18 0.750000 0.778696 0.750000
O O19 0.500000 0.796562 0.706551
O O20 0.500000 0.678510 0.129247
O O21 0.682680 0.682018 0.045900
O O22 0.500000 0.221000 0.014977
#
# Coordination Sequence:
#
# PCOD8219276 Si02
#       8
#     8   8   8   8   8   8   8   8
#     4  11  23  38  59  86 116 153 197 240 286 339
#     4  10  20  38  62  87 116 152 191 230 284 351
#     4  11  23  37  58  89 120 149 190 243 294 344
#     4  10  21  37  57  83 115 151 193 238 285 338
#     4  10  20  32  50  80 115 153 195 235 279 337
#     4  10  23  42  60  83 115 153 197 242 287 338
#     4  10  20  37  60  84 116 153 189 235 285 339
#     4  10  19  34  55  81 117 155 190 229 281 346
#
# _framework density 19.393398000000001
#
# number of rings (size 3 to 8) (size 9 to 14) (size 15 to 20)
#    0.000    1.750    2.500    1.875    0.000    4.000 
#    0.000    0.625    0.000    1.500    0.000    0.000 
#    0.000    0.000    0.000    0.000    0.000    0.000 
#
# Total GULP energy -793445.010737 kJ/mol
# GULP energy per Si atom -12397.578293 kJ/mol
# Density = 1.934926 g / cm^3
# Si number density = 19.393398 Si / 1000 Ang^3
#
#
#
# Elastic Constant Matrix: (Units=GPa)
#
#
# Indices 1 2 3 4 5 6 
#
# 1 71.3656 31.5699 53.9278 0.0000 0.0000 0.0000
# 2 31.5699 70.9331 26.5925 0.0000 0.0000 0.0000
# 3 53.9278 26.5925 107.2158 0.0000 0.0000 0.0000
# 4 0.0000 0.0000 0.0000 20.3673 0.0000 0.0000
# 5 0.0000 0.0000 0.0000 0.0000 38.1648 0.0000
# 6 0.0000 0.0000 0.0000 0.0000 0.0000 28.1924
#
#
#
# Elastic Compliance Matrix: (Units=1/GPa)
#
#
# Indices 1 2 3 4 5 6 
#
# 1 0.025578 -0.007233 -0.011071 0.000000 0.000000 0.000000
# 2 -0.007233 0.017589 -0.000724 0.000000 0.000000 0.000000
# 3 -0.011071 -0.000724 0.015075 0.000000 0.000000 0.000000
# 4 0.000000 0.000000 0.000000 0.049098 0.000000 0.000000
# 5 0.000000 0.000000 0.000000 0.000000 0.026202 0.000000
# 6 0.000000 0.000000 0.000000 0.000000 0.000000 0.035471
#
#
# Mechanical properties :
#
#
# Convention : Reuss Voigt Hill
#
# Bulk Modulus (GPa) = 49.54344 52.63277 51.08810
# Shear Modulus (GPa) = 23.38641 26.50652 24.94647
#
# Velocity S-wave (km/s) = 3.47637 3.70101 3.59045
# Velocity P-wave (km/s) = 6.45876 6.74253 6.60217
#
# Compressibility (1/GPa) = 0.02018431
#
# Stress axis : x y z
#
# Youngs Moduli (GPa) = 39.09559 56.85487 66.33352
#
# Poissons Ratio (x) = 0.41126 0.73440
# Poissons Ratio (y) = 0.28280 0.04804
# Poissons Ratio (z) = 0.43284 0.04117
#
# Static dielectric constant tensor:
#      x y z
#    x 3.400980 0.000000 0.000000 
#    y 0.000000 3.663590 0.000000 
#    z 0.000000 0.000000 3.391260 
# 
# 
# High freq. dielectric constant tensor:
#      x y z
#    x 1.745400 0.000000 0.000000 
#    y 0.000000 1.759630 0.000000 
#    z 0.000000 0.000000 1.746590 
# 
# From -- ./inp_files/34232.got.cif
#   From: 2010.03.12/outbox.cif.g09.slc.cpg/sg53_18_cif.got.tgz:34232.got - 2010.04.16 14:36:59.
