data_PCOD8219746
_publ_section_title
;
Structure prediction by ZEFSAII (Michael W. Deem and Ramdas Pophale) SiO2 
 PCOD8219746
Probable space group: P M N A
;
_chemical_formula_sum "Si O2"
_cell_formula_units_Z 44
_cell_length_a 9.835853
_cell_length_b 8.606007
_cell_length_c 26.983587
_cell_angle_alpha 90.000000
_cell_angle_beta 90.000000
_cell_angle_gamma 90.000000
_cell_volume 2284.091016
_symmetry_space_group_name_H-M "P M N A"
_symmetry_group_IT_number 53
_symmetry_cell_setting 'orthorhombic'
loop_
_space_group_symop_operation_xyz
x,y,z
1/2-x,-y,1/2+z
x,-y,-z
1/2-x,y,1/2-z
-x,-y,-z
1/2+x,y,1/2-z
-x,y,z
1/2+x,-y,1/2+z
loop_
_atom_site_type_symbol
_atom_site_label
_atom_site_fract_x
_atom_site_fract_y
_atom_site_fract_z
Si Si1 0.343823 0.095230 0.048533
Si Si2 0.250000 0.607593 0.750000
Si Si3 0.154295 0.326339 0.093398
Si Si4 0.642118 0.871641 0.688846
Si Si5 0.657944 0.555047 0.152533
Si Si6 0.153575 0.088377 0.649446
O O1 0.500000 0.154610 0.046241
O O2 0.243477 0.245226 0.049911
O O3 0.324421 0.980832 0.095043
O O4 0.303937 0.000000 0.000000
O O5 0.143115 0.724419 0.774785
O O6 0.323096 0.502387 0.791080
O O7 0.142657 0.193455 0.133730
O O8 0.240807 0.470770 0.114408
O O9 0.000000 0.376349 0.076401
O O10 0.500000 0.960743 0.698310
O O11 0.764637 0.994580 0.692278
O O12 0.500000 0.527872 0.137244
O O13 0.700454 0.733960 0.149324
O O14 0.000000 0.073306 0.667304
#
# Coordination Sequence:
#
# PCOD8219746 Si02
#       6
#     8   4   8   8   8   8
#     4   9  17  32  55  79 102 133 175 217 257 308
#     4  10  20  32  50  74  96 128 170 206 242 294
#     4   9  18  32  51  75 102 133 167 205 252 302
#     4   9  18  32  49  69  94 125 162 201 241 288
#     4  10  20  35  53  73 102 136 168 206 253 304
#     4   9  19  34  52  75 101 130 165 208 257 302
#
# _framework density 19.263680000000001
#
# number of rings (size 3 to 8) (size 9 to 14) (size 15 to 20)
#    0.000    2.727    0.000    1.091    0.000    7.636 
#    0.000    2.727    0.000    5.455    0.000    0.000 
#    0.000    0.000    0.000    0.000    0.000    0.000 
#
# Total GULP energy -545162.982076 kJ/mol
# GULP energy per Si atom -12390.067774 kJ/mol
# Density = 1.921984 g / cm^3
# Si number density = 19.263680 Si / 1000 Ang^3
#
#
#
# Elastic Constant Matrix: (Units=GPa)
#
#
# Indices 1 2 3 4 5 6 
#
# 1 120.1013 56.5211 11.0771 0.0000 0.0000 0.0000
# 2 56.5211 97.3321 9.3447 0.0000 0.0000 0.0000
# 3 11.0771 9.3447 33.8598 0.0000 0.0000 0.0000
# 4 0.0000 0.0000 0.0000 17.0244 0.0000 0.0000
# 5 0.0000 0.0000 0.0000 0.0000 10.4228 0.0000
# 6 0.0000 0.0000 0.0000 0.0000 0.0000 31.3106
#
#
#
# Elastic Compliance Matrix: (Units=1/GPa)
#
#
# Indices 1 2 3 4 5 6 
#
# 1 0.011586 -0.006537 -0.001986 0.000000 0.000000 0.000000
# 2 -0.006537 0.014242 -0.001792 0.000000 0.000000 0.000000
# 3 -0.001986 -0.001792 0.030678 0.000000 0.000000 0.000000
# 4 0.000000 0.000000 0.000000 0.058739 0.000000 0.000000
# 5 0.000000 0.000000 0.000000 0.000000 0.095944 0.000000
# 6 0.000000 0.000000 0.000000 0.000000 0.000000 0.031938
#
#
# Mechanical properties :
#
#
# Convention : Reuss Voigt Hill
#
# Bulk Modulus (GPa) = 27.87428 45.01988 36.44708
# Shear Modulus (GPa) = 18.13455 23.37492 20.75474
#
# Velocity S-wave (km/s) = 3.07153 3.48720 3.28594
# Velocity P-wave (km/s) = 5.20388 6.29564 5.77561
#
# Compressibility (1/GPa) = 0.03587536
#
# Stress axis : x y z
#
# Youngs Moduli (GPa) = 86.31071 70.21283 32.59681
#
# Poissons Ratio (x) = 0.45901 0.06474
# Poissons Ratio (y) = 0.56424 0.05841
# Poissons Ratio (z) = 0.17142 0.12582
#
# Static dielectric constant tensor:
#      x y z
#    x 3.991520 0.000000 0.000000 
#    y 0.000000 3.419130 0.000000 
#    z 0.000000 0.000000 3.406080 
# 
# 
# High freq. dielectric constant tensor:
#      x y z
#    x 1.759970 0.000000 0.000000 
#    y 0.000000 1.738460 0.000000 
#    z 0.000000 0.000000 1.728190 
# 
# From -- ./inp_files/37597.got.cif
#   From: 2010.03.12/outbox.cif.g09.slc.cpg/sg53_19_cif.got.tgz:37597.got - 2010.04.16 14:36:59.
