data_PCOD8219704
_publ_section_title
;
Structure prediction by ZEFSAII (Michael W. Deem and Ramdas Pophale) SiO2 
 PCOD8219704
Probable space group: P M N A
;
_chemical_formula_sum "Si O2"
_cell_formula_units_Z 64
_cell_length_a 8.841959
_cell_length_b 19.110023
_cell_length_c 21.666994
_cell_angle_alpha 90.000000
_cell_angle_beta 90.000000
_cell_angle_gamma 90.000000
_cell_volume 3661.072840
_symmetry_space_group_name_H-M "P M N A"
_symmetry_group_IT_number 53
_symmetry_cell_setting 'orthorhombic'
loop_
_space_group_symop_operation_xyz
x,y,z
1/2-x,-y,1/2+z
x,-y,-z
1/2-x,y,1/2-z
-x,-y,-z
1/2+x,y,1/2-z
-x,y,z
1/2+x,-y,1/2+z
loop_
_atom_site_type_symbol
_atom_site_label
_atom_site_fract_x
_atom_site_fract_y
_atom_site_fract_z
Si Si1 0.323814 0.644487 0.690780
Si Si2 0.322303 0.559231 0.051542
Si Si3 0.177509 0.505119 0.312448
Si Si4 0.665210 0.148656 0.557254
Si Si5 0.332707 0.984877 0.072477
Si Si6 0.825760 0.744765 0.601886
Si Si7 0.822796 0.295023 0.979763
Si Si8 0.668100 0.119763 0.412013
O O1 0.250000 0.682475 0.750000
O O2 0.500000 0.630014 0.699392
O O3 0.236808 0.572714 0.680899
O O4 0.292805 0.693768 0.633876
O O5 0.500000 0.575384 0.044347
O O6 0.280689 0.539499 0.121919
O O7 0.223013 0.628655 0.043379
O O8 0.276917 0.500000 0.000000
O O9 0.250000 0.540481 0.250000
O O10 0.000000 0.505345 0.301933
O O11 0.500000 0.130417 0.583903
O O12 0.699824 0.231402 0.570193
O O13 0.665970 0.134766 0.484391
O O14 0.781236 0.094448 0.588613
O O15 0.500000 0.993702 0.099554
O O16 0.224803 0.041888 0.104532
O O17 0.330941 0.000000 0.000000
O O18 0.797547 0.726910 0.531180
O O19 0.781898 0.824380 0.618939
O O20 0.000000 0.730748 0.619721
O O21 0.000000 0.295671 0.000811
O O22 0.500000 0.128435 0.384374
#
# Coordination Sequence:
#
# PCOD8219704 Si02
#       8
#     8   8   8   8   8   8   8   8
#     4  11  21  34  51  70  91 118 155 195 237 283
#     4  10  21  35  51  72  99 130 164 204 250 298
#     4  10  20  35  54  75  99 129 164 203 248 295
#     4   8  15  26  38  55  82 115 148 184 226 272
#     4   9  15  22  35  56  80 111 150 186 222 267
#     4  11  20  31  46  65  93 125 157 194 235 281
#     4  10  20  32  47  68  93 123 158 195 239 289
#     4   9  16  26  39  57  83 116 152 188 226 269
#
# _framework density 17.481216
#
# number of rings (size 3 to 8) (size 9 to 14) (size 15 to 20)
#    0.000    2.250    0.000    6.000    0.000    7.250 
#    0.000    0.000    0.000    0.000    0.000    0.000 
#    0.000    1.000    0.000    7.000    0.000    8.250 
#
# Total GULP energy -792850.770578 kJ/mol
# GULP energy per Si atom -12388.293290 kJ/mol
# Density = 1.744143 g / cm^3
# Si number density = 17.481216 Si / 1000 Ang^3
#
#
#
# Elastic Constant Matrix: (Units=GPa)
#
#
# Indices 1 2 3 4 5 6 
#
# 1 83.0857 45.1907 31.4381 0.0000 0.0000 0.0000
# 2 45.1907 121.0702 30.7321 0.0000 0.0000 0.0000
# 3 31.4381 30.7321 46.6104 0.0000 0.0000 0.0000
# 4 0.0000 0.0000 0.0000 10.0133 0.0000 0.0000
# 5 0.0000 0.0000 0.0000 0.0000 19.9138 0.0000
# 6 0.0000 0.0000 0.0000 0.0000 0.0000 30.5140
#
#
#
# Elastic Compliance Matrix: (Units=1/GPa)
#
#
# Indices 1 2 3 4 5 6 
#
# 1 0.017875 -0.004338 -0.009196 0.000000 0.000000 0.000000
# 2 -0.004338 0.010972 -0.004309 0.000000 0.000000 0.000000
# 3 -0.009196 -0.004309 0.030498 0.000000 0.000000 0.000000
# 4 0.000000 0.000000 0.000000 0.099867 0.000000 0.000000
# 5 0.000000 0.000000 0.000000 0.000000 0.050217 0.000000
# 6 0.000000 0.000000 0.000000 0.000000 0.000000 0.032772
#
#
# Mechanical properties :
#
#
# Convention : Reuss Voigt Hill
#
# Bulk Modulus (GPa) = 42.26579 51.72089 46.99334
# Shear Modulus (GPa) = 17.49638 21.64857 19.57248
#
# Velocity S-wave (km/s) = 3.16708 3.52290 3.34972
# Velocity P-wave (km/s) = 6.13223 6.79695 6.47313
#
# Compressibility (1/GPa) = 0.02365979
#
# Stress axis : x y z
#
# Youngs Moduli (GPa) = 55.94509 91.13708 32.78874
#
# Poissons Ratio (x) = 0.39531 0.30153
# Poissons Ratio (y) = 0.24266 0.14129
# Poissons Ratio (z) = 0.51449 0.39271
#
# Static dielectric constant tensor:
#      x y z
#    x 3.351680 0.000000 0.000000 
#    y 0.000000 3.465620 0.000000 
#    z 0.000000 0.000000 2.992130 
# 
# 
# High freq. dielectric constant tensor:
#      x y z
#    x 1.691380 0.000000 0.000000 
#    y 0.000000 1.680830 0.000000 
#    z 0.000000 0.000000 1.610640 
# 
# From -- ./inp_files/31213.got.cif
#   From: 2010.03.12/outbox.cif.g09.slc.cpg/sg53_16_cif.got.tgz:31213.got - 2010.04.16 14:36:59.
