data_PCOD8219567
_publ_section_title
;
Structure prediction by ZEFSAII (Michael W. Deem and Ramdas Pophale) SiO2 
 PCOD8219567
Probable space group: P M N A
;
_chemical_formula_sum "Si O2"
_cell_formula_units_Z 64
_cell_length_a 8.502468
_cell_length_b 19.940909
_cell_length_c 20.135840
_cell_angle_alpha 90.000000
_cell_angle_beta 90.000000
_cell_angle_gamma 90.000000
_cell_volume 3413.970070
_symmetry_space_group_name_H-M "P M N A"
_symmetry_group_IT_number 53
_symmetry_cell_setting 'orthorhombic'
loop_
_space_group_symop_operation_xyz
x,y,z
1/2-x,-y,1/2+z
x,-y,-z
1/2-x,y,1/2-z
-x,-y,-z
1/2+x,y,1/2-z
-x,y,z
1/2+x,-y,1/2+z
loop_
_atom_site_type_symbol
_atom_site_label
_atom_site_fract_x
_atom_site_fract_y
_atom_site_fract_z
Si Si1 0.813446 0.311740 0.565838
Si Si2 0.685958 0.553943 0.820837
Si Si3 0.813170 0.338927 0.078166
Si Si4 0.684540 0.028592 0.928927
Si Si5 0.315692 0.931350 0.679330
Si Si6 0.186398 0.406930 0.820631
Si Si7 0.813061 0.830663 0.046124
Si Si8 0.814174 0.807229 0.898003
O O1 0.757825 0.341064 0.495390
O O2 0.740841 0.357100 0.622779
O O3 0.750044 0.237046 0.579832
O O4 0.000000 0.312998 0.569484
O O5 0.750000 0.579812 0.750000
O O6 0.500000 0.555550 0.818645
O O7 0.747091 0.600362 0.879671
O O8 0.744300 0.479728 0.836707
O O9 0.760814 0.269459 0.114625
O O10 0.000000 0.343665 0.071845
O O11 0.500000 0.020015 0.918989
O O12 0.733819 0.105659 0.919159
O O13 0.774008 0.988212 0.872687
O O14 0.740055 0.000000 0.000000
O O15 0.250000 0.952252 0.750000
O O16 0.500000 0.925373 0.685052
O O17 0.244028 0.858934 0.656244
O O18 0.250000 0.380580 0.750000
O O19 0.000000 0.412047 0.817912
O O20 0.000000 0.834012 0.053300
O O21 0.755015 0.830931 0.970012
O O22 0.000000 0.811327 0.897405
#
# Coordination Sequence:
#
# PCOD8219567 Si02
#       8
#     8   8   8   8   8   8   8   8
#     4  11  22  38  59  89 122 153 190 240 291 346
#     4  11  22  38  58  84 115 154 197 244 293 350
#     4  10  20  37  58  86 119 155 196 242 290 344
#     4  11  22  36  58  88 115 147 192 241 287 342
#     4  11  22  38  56  81 115 154 193 239 290 344
#     4  11  22  40  63  87 114 152 195 241 292 352
#     4  10  19  36  60  86 113 149 192 235 283 342
#     4   8  17  33  55  79 109 147 188 229 279 338
#
# _framework density 18.746502
#
# number of rings (size 3 to 8) (size 9 to 14) (size 15 to 20)
#    0.000    1.625    1.250    6.375    0.000    1.500 
#    0.000    6.250    0.000    0.000    0.000    0.000 
#    0.000    0.000    0.000    0.000    0.000    0.000 
#
# Total GULP energy -793663.996712 kJ/mol
# GULP energy per Si atom -12400.999949 kJ/mol
# Density = 1.870383 g / cm^3
# Si number density = 18.746502 Si / 1000 Ang^3
#
#
#
# Elastic Constant Matrix: (Units=GPa)
#
#
# Indices 1 2 3 4 5 6 
#
# 1 70.1463 6.9384 12.0556 0.0000 0.0000 0.0000
# 2 6.9384 101.1895 57.9191 0.0000 0.0000 0.0000
# 3 12.0556 57.9191 98.4248 0.0000 0.0000 0.0000
# 4 0.0000 0.0000 0.0000 43.2256 0.0000 0.0000
# 5 0.0000 0.0000 0.0000 0.0000 29.5699 0.0000
# 6 0.0000 0.0000 0.0000 0.0000 0.0000 28.8694
#
#
#
# Elastic Compliance Matrix: (Units=1/GPa)
#
#
# Indices 1 2 3 4 5 6 
#
# 1 0.014563 0.000034 -0.001804 0.000000 0.000000 0.000000
# 2 0.000034 0.014902 -0.008773 0.000000 0.000000 0.000000
# 3 -0.001804 -0.008773 0.015544 0.000000 0.000000 0.000000
# 4 0.000000 0.000000 0.000000 0.023134 0.000000 0.000000
# 5 0.000000 0.000000 0.000000 0.000000 0.033818 0.000000
# 6 0.000000 0.000000 0.000000 0.000000 0.000000 0.034639
#
#
# Mechanical properties :
#
#
# Convention : Reuss Voigt Hill
#
# Bulk Modulus (GPa) = 41.80264 47.06520 44.43392
# Shear Modulus (GPa) = 30.18239 33.18948 31.68594
#
# Velocity S-wave (km/s) = 4.01687 4.21222 4.11570
# Velocity P-wave (km/s) = 6.62276 6.98697 6.80730
#
# Compressibility (1/GPa) = 0.02392193
#
# Stress axis : x y z
#
# Youngs Moduli (GPa) = 68.66928 67.10598 64.33478
#
# Poissons Ratio (x) = -0.00227 0.11603
# Poissons Ratio (y) = -0.00232 0.56443
# Poissons Ratio (z) = 0.12385 0.58874
#
# Static dielectric constant tensor:
#      x y z
#    x 3.490190 0.000000 0.000000 
#    y 0.000000 3.630650 0.000000 
#    z 0.000000 0.000000 3.536390 
# 
# 
# High freq. dielectric constant tensor:
#      x y z
#    x 1.737610 0.000000 0.000000 
#    y 0.000000 1.738860 0.000000 
#    z 0.000000 0.000000 1.717940 
# 
# From -- ./inp_files/26754.got.cif
#   From: 2010.03.12/outbox.cif.g09.slc.cpg/sg53_14_cif.got.tgz:26754.got - 2010.04.16 14:36:59.
