data_PCOD8219327
_publ_section_title
;
Structure prediction by ZEFSAII (Michael W. Deem and Ramdas Pophale) SiO2 
 PCOD8219327
Probable space group: P M N A
;
_chemical_formula_sum "Si O2"
_cell_formula_units_Z 56
_cell_length_a 18.708074
_cell_length_b 16.518673
_cell_length_c 9.661226
_cell_angle_alpha 90.000000
_cell_angle_beta 90.000000
_cell_angle_gamma 90.000000
_cell_volume 2985.633373
_symmetry_space_group_name_H-M "P M N A"
_symmetry_group_IT_number 53
_symmetry_cell_setting 'orthorhombic'
loop_
_space_group_symop_operation_xyz
x,y,z
1/2-x,-y,1/2+z
x,-y,-z
1/2-x,y,1/2-z
-x,-y,-z
1/2+x,y,1/2-z
-x,y,z
1/2+x,-y,1/2+z
loop_
_atom_site_type_symbol
_atom_site_label
_atom_site_fract_x
_atom_site_fract_y
_atom_site_fract_z
Si Si1 0.818549 0.090804 0.017556
Si Si2 0.083248 0.177435 0.233958
Si Si3 0.828550 0.804119 0.246765
Si Si4 0.915123 0.652435 0.157116
Si Si5 0.914884 0.502110 0.342021
Si Si6 0.343667 0.906486 0.981803
Si Si7 0.415910 0.643724 0.656765
O O1 0.872783 0.134629 0.116171
O O2 0.737500 0.095495 0.076041
O O3 0.824642 0.128200 0.868246
O O4 0.844506 0.000000 0.000000
O O5 0.102344 0.137671 0.378997
O O6 0.104227 0.272052 0.230258
O O7 0.000000 0.166007 0.202334
O O8 0.750000 0.762443 0.250000
O O9 0.886995 0.736511 0.216889
O O10 0.850943 0.853710 0.381172
O O11 0.888890 0.582116 0.260926
O O12 0.000000 0.657976 0.154004
O O13 0.885392 0.638019 0.000666
O O14 0.884862 0.500000 0.500000
O O15 0.883485 0.426303 0.254939
O O16 0.000000 0.498463 0.346863
O O17 0.367679 0.000000 0.000000
O O18 0.500000 0.631262 0.646946
#
# Coordination Sequence:
#
# PCOD8219327 Si02
#       7
#     8   8   8   8   8   8   8
#     4  10  20  39  62  80 106 149 201 235 267 334
#     4  11  22  35  56  87 120 146 179 236 290 335
#     4  10  21  36  57  83 111 145 188 238 281 329
#     4  10  19  34  57  80 109 147 185 228 274 329
#     4   9  18  31  53  83 111 144 183 222 268 330
#     4  10  22  39  58  80 110 153 195 235 279 332
#     4   9  18  33  52  81 114 144 180 221 273 330
#
# _framework density 18.756488999999998
#
# number of rings (size 3 to 8) (size 9 to 14) (size 15 to 20)
#    0.000    2.143    1.429    1.714    2.000    5.143 
#    0.000    1.429    0.000    3.429    0.000    0.000 
#    0.000    0.000    0.000    0.000    0.000    0.000 
#
# Total GULP energy -694288.053167 kJ/mol
# GULP energy per Si atom -12398.000949 kJ/mol
# Density = 1.871380 g / cm^3
# Si number density = 18.756489 Si / 1000 Ang^3
#
#
#
# Elastic Constant Matrix: (Units=GPa)
#
#
# Indices 1 2 3 4 5 6 
#
# 1 31.7820 25.8910 19.1485 0.0000 0.0000 0.0000
# 2 25.8910 146.8859 60.1359 0.0000 0.0000 0.0000
# 3 19.1485 60.1359 129.3279 0.0000 0.0000 0.0000
# 4 0.0000 0.0000 0.0000 25.0055 0.0000 0.0000
# 5 0.0000 0.0000 0.0000 0.0000 26.5695 0.0000
# 6 0.0000 0.0000 0.0000 0.0000 0.0000 25.3553
#
#
#
# Elastic Compliance Matrix: (Units=1/GPa)
#
#
# Indices 1 2 3 4 5 6 
#
# 1 0.037707 -0.005386 -0.003078 0.000000 0.000000 0.000000
# 2 -0.005386 0.009178 -0.003470 0.000000 0.000000 0.000000
# 3 -0.003078 -0.003470 0.009802 0.000000 0.000000 0.000000
# 4 0.000000 0.000000 0.000000 0.039991 0.000000 0.000000
# 5 0.000000 0.000000 0.000000 0.000000 0.037637 0.000000
# 6 0.000000 0.000000 0.000000 0.000000 0.000000 0.039439
#
#
# Mechanical properties :
#
#
# Convention : Reuss Voigt Hill
#
# Bulk Modulus (GPa) = 30.47194 57.59406 44.03300
# Shear Modulus (GPa) = 23.97354 28.90741 26.44047
#
# Velocity S-wave (km/s) = 3.57900 3.93006 3.75863
# Velocity P-wave (km/s) = 5.77584 7.16706 6.50873
#
# Compressibility (1/GPa) = 0.03281708
#
# Stress axis : x y z
#
# Youngs Moduli (GPa) = 26.52036 108.95469 102.02306
#
# Poissons Ratio (x) = 0.58684 0.31408
# Poissons Ratio (y) = 0.14284 0.35404
# Poissons Ratio (z) = 0.08164 0.37810
#
# Static dielectric constant tensor:
#      x y z
#    x 3.232310 0.000000 0.000000 
#    y 0.000000 3.428080 0.000000 
#    z 0.000000 0.000000 3.550470 
# 
# 
# High freq. dielectric constant tensor:
#      x y z
#    x 1.691030 0.000000 0.000000 
#    y 0.000000 1.741650 0.000000 
#    z 0.000000 0.000000 1.744190 
# 
# From -- ./inp_files/11046.got.cif
#   From: 2010.03.12/outbox.cif.g09.slc.cpg/sg53_6_cif.got.tgz:11046.got - 2010.04.16 14:36:59.
