data_PCOD8219827
_publ_section_title
;
Structure prediction by ZEFSAII (Michael W. Deem and Ramdas Pophale) SiO2 
 PCOD8219827
Probable space group: P M N A
;
_chemical_formula_sum "Si O2"
_cell_formula_units_Z 40
_cell_length_a 8.811425
_cell_length_b 25.994790
_cell_length_c 9.102364
_cell_angle_alpha 90.000000
_cell_angle_beta 90.000000
_cell_angle_gamma 90.000000
_cell_volume 2084.906873
_symmetry_space_group_name_H-M "P M N A"
_symmetry_group_IT_number 53
_symmetry_cell_setting 'orthorhombic'
loop_
_space_group_symop_operation_xyz
x,y,z
1/2-x,-y,1/2+z
x,-y,-z
1/2-x,y,1/2-z
-x,-y,-z
1/2+x,y,1/2-z
-x,y,z
1/2+x,-y,1/2+z
loop_
_atom_site_type_symbol
_atom_site_label
_atom_site_fract_x
_atom_site_fract_y
_atom_site_fract_z
Si Si1 0.679298 0.950457 0.089809
Si Si2 0.320318 0.640699 0.591063
Si Si3 0.822049 0.850268 0.090628
Si Si4 0.822880 0.737305 0.091687
Si Si5 0.324745 0.448987 0.905818
O O1 0.750000 0.955359 0.250000
O O2 0.500000 0.946876 0.101050
O O3 0.742706 0.898606 0.007869
O O4 0.733133 0.000000 0.000000
O O5 0.250000 0.632755 0.750000
O O6 0.500000 0.637626 0.605473
O O7 0.264912 0.695291 0.524813
O O8 0.264110 0.596770 0.483002
O O9 0.750000 0.848971 0.250000
O O10 0.786820 0.793924 0.021947
O O11 0.000000 0.861007 0.100024
O O12 0.750000 0.728147 0.250000
O O13 0.000000 0.731061 0.119430
O O14 0.250000 0.460172 0.750000
O O15 0.500000 0.433382 0.886377
O O16 0.306581 0.500000 0.000000
#
# Coordination Sequence:
#
# PCOD8219827 Si02
#       5
#     8   8   8   8   8
#     4  10  20  33  50  74 102 133 172 215 261 314
#     4  11  23  39  58  82 114 149 186 226 272 324
#     4   9  16  29  50  74 101 133 171 214 262 314
#     4   9  19  34  54  80 106 135 174 220 266 317
#     4  11  24  41  62  88 117 149 186 228 273 321
#
# _framework density 19.185507000000001
#
# number of rings (size 3 to 8) (size 9 to 14) (size 15 to 20)
#    0.000    2.000    0.000    4.800    0.000    8.800 
#    0.000    1.000    0.000    4.800    0.000    0.000 
#    0.000    0.000    0.000    0.000    0.000    0.000 
#
# Total GULP energy -495831.203564 kJ/mol
# GULP energy per Si atom -12395.780089 kJ/mol
# Density = 1.914184 g / cm^3
# Si number density = 19.185507 Si / 1000 Ang^3
#
#
#
# Elastic Constant Matrix: (Units=GPa)
#
#
# Indices 1 2 3 4 5 6 
#
# 1 83.0195 52.2023 33.6082 0.0000 0.0000 0.0000
# 2 52.2023 147.0236 42.2555 0.0000 0.0000 0.0000
# 3 33.6082 42.2555 85.7145 0.0000 0.0000 0.0000
# 4 0.0000 0.0000 0.0000 32.5754 0.0000 0.0000
# 5 0.0000 0.0000 0.0000 0.0000 22.3928 0.0000
# 6 0.0000 0.0000 0.0000 0.0000 0.0000 43.1763
#
#
#
# Elastic Compliance Matrix: (Units=1/GPa)
#
#
# Indices 1 2 3 4 5 6 
#
# 1 0.016728 -0.004724 -0.004230 0.000000 0.000000 0.000000
# 2 -0.004724 0.009258 -0.002712 0.000000 0.000000 0.000000
# 3 -0.004230 -0.002712 0.014662 0.000000 0.000000 0.000000
# 4 0.000000 0.000000 0.000000 0.030698 0.000000 0.000000
# 5 0.000000 0.000000 0.000000 0.000000 0.044657 0.000000
# 6 0.000000 0.000000 0.000000 0.000000 0.000000 0.023161
#
#
# Mechanical properties :
#
#
# Convention : Reuss Voigt Hill
#
# Bulk Modulus (GPa) = 57.74790 63.54331 60.64560
# Shear Modulus (GPa) = 29.71432 32.14167 30.92799
#
# Velocity S-wave (km/s) = 3.93974 4.09750 4.01939
# Velocity P-wave (km/s) = 7.13165 7.45509 7.29516
#
# Compressibility (1/GPa) = 0.01731665
#
# Stress axis : x y z
#
# Youngs Moduli (GPa) = 59.77949 108.01155 68.20210
#
# Poissons Ratio (x) = 0.51021 0.28852
# Poissons Ratio (y) = 0.28238 0.18496
# Poissons Ratio (z) = 0.25289 0.29293
#
# Static dielectric constant tensor:
#      x y z
#    x 3.662660 0.000000 0.000000 
#    y 0.000000 4.616090 0.000000 
#    z 0.000000 0.000000 3.222720 
# 
# 
# High freq. dielectric constant tensor:
#      x y z
#    x 1.759030 0.000000 0.000000 
#    y 0.000000 1.776530 0.000000 
#    z 0.000000 0.000000 1.714480 
# 
# From -- ./inp_files/6430.got.cif
#   From: 2010.03.12/outbox.cif.g09.slc.cpg/sg53_4_cif.got.tgz:6430.got - 2010.04.16 14:36:59.
