data_PCOD8219319
_publ_section_title
;
Structure prediction by ZEFSAII (Michael W. Deem and Ramdas Pophale) SiO2 
 PCOD8219319
Probable space group: P M N A
;
_chemical_formula_sum "Si O2"
_cell_formula_units_Z 48
_cell_length_a 14.207427
_cell_length_b 18.050990
_cell_length_c 9.487427
_cell_angle_alpha 90.000000
_cell_angle_beta 90.000000
_cell_angle_gamma 90.000000
_cell_volume 2433.127718
_symmetry_space_group_name_H-M "P M N A"
_symmetry_group_IT_number 53
_symmetry_cell_setting 'orthorhombic'
loop_
_space_group_symop_operation_xyz
x,y,z
1/2-x,-y,1/2+z
x,-y,-z
1/2-x,y,1/2-z
-x,-y,-z
1/2+x,y,1/2-z
-x,y,z
1/2+x,-y,1/2+z
loop_
_atom_site_type_symbol
_atom_site_label
_atom_site_fract_x
_atom_site_fract_y
_atom_site_fract_z
Si Si1 0.392429 0.431685 0.588370
Si Si2 0.896886 0.051745 0.864758
Si Si3 0.251472 0.693641 0.413202
Si Si4 0.110954 0.909071 0.708424
Si Si5 0.392315 0.569578 0.086296
Si Si6 0.727066 0.148914 0.464873
O O1 0.349806 0.500000 0.500000
O O2 0.500000 0.419161 0.547732
O O3 0.342184 0.355290 0.549840
O O4 0.376719 0.451009 0.751264
O O5 0.000000 0.089189 0.840501
O O6 0.872903 0.997169 0.734379
O O7 0.816865 0.113668 0.891327
O O8 0.902849 0.000000 0.000000
O O9 0.250000 0.717680 0.250000
O O10 0.160308 0.645255 0.452870
O O11 0.253806 0.764951 0.511947
O O12 0.172089 0.889109 0.570091
O O13 0.151873 0.861062 0.838664
O O14 0.000000 0.891071 0.687090
O O15 0.500000 0.584001 0.047133
O O16 0.351603 0.500000 0.000000
#
# Coordination Sequence:
#
# PCOD8219319 Si02
#       6
#     8   8   8   8   8   8
#     4   9  18  34  55  80 108 143 189 234 273 332
#     4   8  15  32  57  79 100 138 185 223 269 330
#     4  10  21  36  52  81 114 147 181 225 279 333
#     4   9  19  37  58  81 112 147 183 232 284 333
#     4   9  18  35  57  79 108 149 189 227 280 336
#     4  10  19  34  56  86 107 145 188 229 283 337
#
# _framework density 19.727694
#
# number of rings (size 3 to 8) (size 9 to 14) (size 15 to 20)
#    0.000    2.833    0.000    2.000    0.000    2.000 
#   15.000    0.000    0.000   13.500    0.000    0.000 
#    0.000    0.000    0.000    0.000    0.000    0.000 
#
# Total GULP energy -594996.329585 kJ/mol
# GULP energy per Si atom -12395.756866 kJ/mol
# Density = 1.968279 g / cm^3
# Si number density = 19.727694 Si / 1000 Ang^3
#
#
#
# Elastic Constant Matrix: (Units=GPa)
#
#
# Indices 1 2 3 4 5 6 
#
# 1 142.1891 71.7418 43.7524 0.0000 0.0000 0.0000
# 2 71.7418 139.2697 56.0250 0.0000 0.0000 0.0000
# 3 43.7524 56.0250 46.2116 0.0000 0.0000 0.0000
# 4 0.0000 0.0000 0.0000 34.8765 0.0000 0.0000
# 5 0.0000 0.0000 0.0000 0.0000 30.1737 0.0000
# 6 0.0000 0.0000 0.0000 0.0000 0.0000 22.5299
#
#
#
# Elastic Compliance Matrix: (Units=1/GPa)
#
#
# Indices 1 2 3 4 5 6 
#
# 1 0.010431 -0.002734 -0.006562 0.000000 0.000000 0.000000
# 2 -0.002734 0.014732 -0.015273 0.000000 0.000000 0.000000
# 3 -0.006562 -0.015273 0.046368 0.000000 0.000000 0.000000
# 4 0.000000 0.000000 0.000000 0.028673 0.000000 0.000000
# 5 0.000000 0.000000 0.000000 0.000000 0.033141 0.000000
# 6 0.000000 0.000000 0.000000 0.000000 0.000000 0.044385
#
#
# Mechanical properties :
#
#
# Convention : Reuss Voigt Hill
#
# Bulk Modulus (GPa) = 44.65225 74.52319 59.58772
# Shear Modulus (GPa) = 21.33714 27.92611 24.63162
#
# Velocity S-wave (km/s) = 3.29231 3.76650 3.53736
# Velocity P-wave (km/s) = 6.09392 7.53481 6.85234
#
# Compressibility (1/GPa) = 0.02239529
#
# Stress axis : x y z
#
# Youngs Moduli (GPa) = 95.86482 67.87761 21.56651
#
# Poissons Ratio (x) = 0.18556 0.14152
# Poissons Ratio (y) = 0.26207 0.32938
# Poissons Ratio (z) = 0.62906 1.03667
#
# Static dielectric constant tensor:
#      x y z
#    x 3.877480 0.000000 0.000000 
#    y 0.000000 3.493630 0.000000 
#    z 0.000000 0.000000 3.462460 
# 
# 
# High freq. dielectric constant tensor:
#      x y z
#    x 1.784120 0.000000 0.000000 
#    y 0.000000 1.751430 0.000000 
#    z 0.000000 0.000000 1.746470 
# 
# From -- ./inp_files/8679.got.cif
#   From: 2010.03.12/outbox.cif.g09.slc.cpg/sg53_5_cif.got.tgz:8679.got - 2010.04.16 14:36:59.
