data_PCOD8219856
_publ_section_title
;
Structure prediction by ZEFSAII (Michael W. Deem and Ramdas Pophale) SiO2 
 PCOD8219856
Probable space group: P M N A
;
_chemical_formula_sum "Si O2"
_cell_formula_units_Z 40
_cell_length_a 8.833138
_cell_length_b 25.339070
_cell_length_c 9.986860
_cell_angle_alpha 90.000000
_cell_angle_beta 90.000000
_cell_angle_gamma 90.000000
_cell_volume 2235.293980
_symmetry_space_group_name_H-M "P M N A"
_symmetry_group_IT_number 53
_symmetry_cell_setting 'orthorhombic'
loop_
_space_group_symop_operation_xyz
x,y,z
1/2-x,-y,1/2+z
x,-y,-z
1/2-x,y,1/2-z
-x,-y,-z
1/2+x,y,1/2-z
-x,y,z
1/2+x,-y,1/2+z
loop_
_atom_site_type_symbol
_atom_site_label
_atom_site_fract_x
_atom_site_fract_y
_atom_site_fract_z
Si Si1 0.678995 0.545186 0.397108
Si Si2 0.822055 0.038925 0.112722
Si Si3 0.175521 0.351094 0.606918
Si Si4 0.678388 0.840664 0.610376
Si Si5 0.676425 0.234693 0.895436
O O1 0.730289 0.500000 0.500000
O O2 0.750000 0.535510 0.250000
O O3 0.500000 0.547299 0.381156
O O4 0.739052 0.600053 0.464613
O O5 0.750000 0.019525 0.250000
O O6 0.775517 0.098961 0.079631
O O7 0.000000 0.033213 0.126319
O O8 0.756911 0.000000 0.000000
O O9 0.250000 0.345938 0.750000
O O10 0.197644 0.293490 0.539574
O O11 0.000000 0.365790 0.620224
O O12 0.750000 0.821768 0.750000
O O13 0.500000 0.833020 0.619801
O O14 0.742967 0.806281 0.491117
O O15 0.750000 0.230175 0.750000
O O16 0.500000 0.220927 0.882106
#
# Coordination Sequence:
#
# PCOD8219856 Si02
#       5
#     8   8   8   8   8
#     4  10  20  33  51  75 101 131 166 204 248 296
#     4   9  19  35  53  75 102 132 168 207 249 298
#     4   9  17  30  50  73  98 130 165 203 248 295
#     4  10  20  35  54  75 103 138 171 207 254 305
#     4  10  20  34  53  78 104 132 170 212 253 299
#
# _framework density 17.894736999999999
#
# number of rings (size 3 to 8) (size 9 to 14) (size 15 to 20)
#    0.000    2.400    0.000    3.600    0.000    6.000 
#    0.000    3.000    0.000    2.400    0.000    0.000 
#    0.000    0.000    0.000    0.000    0.000    0.000 
#
# Total GULP energy -495796.384448 kJ/mol
# GULP energy per Si atom -12394.909611 kJ/mol
# Density = 1.785401 g / cm^3
# Si number density = 17.894737 Si / 1000 Ang^3
#
#
#
# Elastic Constant Matrix: (Units=GPa)
#
#
# Indices 1 2 3 4 5 6 
#
# 1 82.1761 47.4919 44.2524 0.0000 0.0000 0.0000
# 2 47.4919 123.3702 80.5525 0.0000 0.0000 0.0000
# 3 44.2524 80.5525 105.9871 0.0000 0.0000 0.0000
# 4 0.0000 0.0000 0.0000 30.5280 0.0000 0.0000
# 5 0.0000 0.0000 0.0000 0.0000 29.6239 0.0000
# 6 0.0000 0.0000 0.0000 0.0000 0.0000 40.7039
#
#
#
# Elastic Compliance Matrix: (Units=1/GPa)
#
#
# Indices 1 2 3 4 5 6 
#
# 1 0.016499 -0.003679 -0.004093 0.000000 0.000000 0.000000
# 2 -0.003679 0.016911 -0.011316 0.000000 0.000000 0.000000
# 3 -0.004093 -0.011316 0.019745 0.000000 0.000000 0.000000
# 4 0.000000 0.000000 0.000000 0.032757 0.000000 0.000000
# 5 0.000000 0.000000 0.000000 0.000000 0.033757 0.000000
# 6 0.000000 0.000000 0.000000 0.000000 0.000000 0.024568
#
#
# Mechanical properties :
#
#
# Convention : Reuss Voigt Hill
#
# Bulk Modulus (GPa) = 66.76376 72.90301 69.83338
# Shear Modulus (GPa) = 26.68017 29.45361 28.06689
#
# Velocity S-wave (km/s) = 3.86547 4.06142 3.96465
# Velocity P-wave (km/s) = 7.57051 7.92602 7.75031
#
# Compressibility (1/GPa) = 0.01497819
#
# Stress axis : x y z
#
# Youngs Moduli (GPa) = 60.60895 59.13324 50.64671
#
# Poissons Ratio (x) = 0.21757 0.20727
# Poissons Ratio (y) = 0.22300 0.57314
# Poissons Ratio (z) = 0.24804 0.66918
#
# Static dielectric constant tensor:
#      x y z
#    x 3.418620 0.000000 0.000000 
#    y 0.000000 3.931360 0.000000 
#    z 0.000000 0.000000 2.894230 
# 
# 
# High freq. dielectric constant tensor:
#      x y z
#    x 1.707790 0.000000 0.000000 
#    y 0.000000 1.707390 0.000000 
#    z 0.000000 0.000000 1.664900 
# 
# From -- ./inp_files/6314.got.cif
#   From: 2010.03.12/outbox.cif.g09.slc.cpg/sg53_4_cif.got.tgz:6314.got - 2010.04.16 14:36:59.
