data_PCOD8219597
_publ_section_title
;
Structure prediction by ZEFSAII (Michael W. Deem and Ramdas Pophale) SiO2 
 PCOD8219597
Probable space group: P M N A
;
_chemical_formula_sum "Si O2"
_cell_formula_units_Z 44
_cell_length_a 26.682329
_cell_length_b 15.475432
_cell_length_c 4.974097
_cell_angle_alpha 90.000000
_cell_angle_beta 90.000000
_cell_angle_gamma 90.000000
_cell_volume 2053.906959
_symmetry_space_group_name_H-M "P M N A"
_symmetry_group_IT_number 53
_symmetry_cell_setting 'orthorhombic'
loop_
_space_group_symop_operation_xyz
x,y,z
1/2-x,-y,1/2+z
x,-y,-z
1/2-x,y,1/2-z
-x,-y,-z
1/2+x,y,1/2-z
-x,y,z
1/2+x,-y,1/2+z
loop_
_atom_site_type_symbol
_atom_site_label
_atom_site_fract_x
_atom_site_fract_y
_atom_site_fract_z
Si Si1 0.655843 0.164341 0.163703
Si Si2 0.650450 0.558024 0.242862
Si Si3 0.444226 0.333471 0.846336
Si Si4 0.055674 0.217771 0.150963
Si Si5 0.193961 0.259709 0.824990
Si Si6 0.717231 0.000000 0.000000
O O1 0.598419 0.148616 0.262914
O O2 0.684450 0.225155 0.375960
O O3 0.682769 0.073062 0.131453
O O4 0.655475 0.214765 0.881735
O O5 0.647728 0.500000 0.500000
O O6 0.594382 0.588634 0.175637
O O7 0.687221 0.637622 0.304877
O O8 0.672036 0.500000 0.000000
O O9 0.500000 0.368694 0.781862
O O10 0.431172 0.255453 0.641343
O O11 0.441628 0.298449 0.148129
O O12 0.000000 0.174524 0.157273
O O13 0.250000 0.233414 0.750000
O O14 0.750000 0.962999 0.250000
#
# Coordination Sequence:
#
# PCOD8219597 Si02
#       6
#     8   8   8   8   8   4
#     4  12  22  43  67  93 127 163 202 258 313 379
#     4  12  24  38  59  87 125 158 211 267 311 364
#     4  10  20  37  59  87 120 159 207 258 310 369
#     4  10  19  36  64  91 119 160 207 248 304 379
#     4  12  25  42  65  88 119 171 216 252 312 378
#     4  12  26  42  65 102 133 160 206 266 320 368
#
# _framework density 21.422585999999999
#
# number of rings (size 3 to 8) (size 9 to 14) (size 15 to 20)
#    0.000    0.727    3.636    5.455    0.000    1.455 
#    0.000    0.455    0.000    0.000    0.000    7.636 
#    0.000    0.000    0.000    0.000    0.000    0.000 
#
# Total GULP energy -545704.649749 kJ/mol
# GULP energy per Si atom -12402.378403 kJ/mol
# Density = 2.137383 g / cm^3
# Si number density = 21.422586 Si / 1000 Ang^3
#
#
#
# Elastic Constant Matrix: (Units=GPa)
#
#
# Indices 1 2 3 4 5 6 
#
# 1 107.8580 36.8327 20.1348 0.0000 0.0000 0.0000
# 2 36.8327 100.1028 26.9748 0.0000 0.0000 0.0000
# 3 20.1348 26.9748 99.0272 0.0000 0.0000 0.0000
# 4 0.0000 0.0000 0.0000 27.2201 0.0000 0.0000
# 5 0.0000 0.0000 0.0000 0.0000 29.3190 0.0000
# 6 0.0000 0.0000 0.0000 0.0000 0.0000 31.7967
#
#
#
# Elastic Compliance Matrix: (Units=1/GPa)
#
#
# Indices 1 2 3 4 5 6 
#
# 1 0.010733 -0.003627 -0.001194 0.000000 0.000000 0.000000
# 2 -0.003627 0.012007 -0.002533 0.000000 0.000000 0.000000
# 3 -0.001194 -0.002533 0.011031 0.000000 0.000000 0.000000
# 4 0.000000 0.000000 0.000000 0.036738 0.000000 0.000000
# 5 0.000000 0.000000 0.000000 0.000000 0.034108 0.000000
# 6 0.000000 0.000000 0.000000 0.000000 0.000000 0.031450
#
#
# Mechanical properties :
#
#
# Convention : Reuss Voigt Hill
#
# Bulk Modulus (GPa) = 52.46133 52.76362 52.61248
# Shear Modulus (GPa) = 31.82083 32.53686 32.17884
#
# Velocity S-wave (km/s) = 3.85825 3.90142 3.87990
# Velocity P-wave (km/s) = 6.66259 6.70657 6.68462
#
# Compressibility (1/GPa) = 0.01906166
#
# Stress axis : x y z
#
# Youngs Moduli (GPa) = 93.16956 83.28437 90.65296
#
# Poissons Ratio (x) = 0.30211 0.10826
# Poissons Ratio (y) = 0.33797 0.22964
# Poissons Ratio (z) = 0.11126 0.21097
#
# Static dielectric constant tensor:
#      x y z
#    x 4.323930 0.000000 0.000000 
#    y 0.000000 3.387840 0.000000 
#    z 0.000000 0.000000 4.079060 
# 
# 
# High freq. dielectric constant tensor:
#      x y z
#    x 1.856110 0.000000 0.000000 
#    y 0.000000 1.801050 0.000000 
#    z 0.000000 0.000000 1.866000 
# 
# From -- ./inp_files/4408.got.cif
#   From: 2010.03.12/outbox.cif.g09.slc.cpg/sg53_3_cif.got.tgz:4408.got - 2010.04.16 14:36:59.
