data_PCOD8219376
_publ_section_title
;
Structure prediction by ZEFSAII (Michael W. Deem and Ramdas Pophale) SiO2 
 PCOD8219376
Probable space group: P M N A
;
_chemical_formula_sum "Si O2"
_cell_formula_units_Z 64
_cell_length_a 17.157614
_cell_length_b 12.586057
_cell_length_c 14.884544
_cell_angle_alpha 90.000000
_cell_angle_beta 90.000000
_cell_angle_gamma 90.000000
_cell_volume 3214.268274
_symmetry_space_group_name_H-M "P M N A"
_symmetry_group_IT_number 53
_symmetry_cell_setting 'orthorhombic'
loop_
_space_group_symop_operation_xyz
x,y,z
1/2-x,-y,1/2+z
x,-y,-z
1/2-x,y,1/2-z
-x,-y,-z
1/2+x,y,1/2-z
-x,y,z
1/2+x,-y,1/2+z
loop_
_atom_site_type_symbol
_atom_site_label
_atom_site_fract_x
_atom_site_fract_y
_atom_site_fract_z
Si Si1 0.812095 0.617899 0.479167
Si Si2 0.587002 0.903449 0.569385
Si Si3 0.908911 0.326575 0.349722
Si Si4 0.410366 0.101085 0.224262
Si Si5 0.699103 0.798430 0.447735
Si Si6 0.588370 0.441621 0.813572
Si Si7 0.687902 0.914770 0.172501
Si Si8 0.089952 0.238227 0.784306
O O1 0.783318 0.500000 0.500000
O O2 0.860609 0.673634 0.558440
O O3 0.734381 0.682468 0.458702
O O4 0.864489 0.614210 0.391771
O O5 0.500000 0.851936 0.564289
O O6 0.603473 0.935771 0.672550
O O7 0.656707 0.824995 0.541548
O O8 0.592381 0.000000 0.500000
O O9 0.885282 0.224181 0.290111
O O10 0.887947 0.435263 0.294463
O O11 0.000000 0.322883 0.374064
O O12 0.500000 0.085710 0.196730
O O13 0.358799 0.025435 0.159898
O O14 0.767222 0.882061 0.419369
O O15 0.631238 0.798035 0.374386
O O16 0.500000 0.439686 0.847209
O O17 0.599524 0.366344 0.726589
O O18 0.750000 0.931417 0.250000
O O19 0.627903 0.821226 0.198994
O O20 0.000000 0.204024 0.790870
#
# Coordination Sequence:
#
# PCOD8219376 Si02
#       8
#     8   8   8   8   8   8   8   8
#     4  10  20  36  56  82 118 155 189 229 288 352
#     4  10  21  39  62  83 109 154 203 236 274 340
#     4   9  19  36  58  83 112 150 194 237 280 338
#     4  10  21  39  60  84 117 151 194 240 283 340
#     4  11  22  36  55  85 120 145 186 239 289 338
#     4   9  17  33  59  84 108 148 196 235 278 341
#     4  10  20  34  57  82 115 146 181 236 287 335
#     4  10  19  34  59  85 110 146 193 239 283 330
#
# _framework density 19.911218999999999
#
# number of rings (size 3 to 8) (size 9 to 14) (size 15 to 20)
#    0.000    2.125    1.250    2.625    0.000    4.500 
#    2.250    0.000    0.000    2.250    0.000    0.000 
#    0.000    0.000    0.000    0.000    0.000    0.000 
#
# Total GULP energy -793320.536965 kJ/mol
# GULP energy per Si atom -12395.633390 kJ/mol
# Density = 1.986590 g / cm^3
# Si number density = 19.911219 Si / 1000 Ang^3
#
#
#
# Elastic Constant Matrix: (Units=GPa)
#
#
# Indices 1 2 3 4 5 6 
#
# 1 99.6139 52.3923 28.9402 0.0000 0.0000 0.0000
# 2 52.3923 119.3268 23.9824 0.0000 0.0000 0.0000
# 3 28.9402 23.9824 48.8342 0.0000 0.0000 0.0000
# 4 0.0000 0.0000 0.0000 26.6133 0.0000 0.0000
# 5 0.0000 0.0000 0.0000 0.0000 138.0450 0.0000
# 6 0.0000 0.0000 0.0000 0.0000 0.0000 68.3960
#
#
#
# Elastic Compliance Matrix: (Units=1/GPa)
#
#
# Indices 1 2 3 4 5 6 
#
# 1 0.014512 -0.005152 -0.006070 0.000000 0.000000 0.000000
# 2 -0.005152 0.011127 -0.002411 0.000000 0.000000 0.000000
# 3 -0.006070 -0.002411 0.025259 0.000000 0.000000 0.000000
# 4 0.000000 0.000000 0.000000 0.037575 0.000000 0.000000
# 5 0.000000 0.000000 0.000000 0.000000 0.007244 0.000000
# 6 0.000000 0.000000 0.000000 0.000000 0.000000 0.014621
#
#
# Mechanical properties :
#
#
# Convention : Reuss Voigt Hill
#
# Bulk Modulus (GPa) = 42.31658 53.15609 47.73633
# Shear Modulus (GPa) = 34.36877 57.44154 45.90515
#
# Velocity S-wave (km/s) = 4.15914 5.37694 4.80676
# Velocity P-wave (km/s) = 6.66059 8.08103 7.40495
#
# Compressibility (1/GPa) = 0.02363140
#
# Stress axis : x y z
#
# Youngs Moduli (GPa) = 68.90955 89.87219 39.58993
#
# Poissons Ratio (x) = 0.46299 0.24031
# Poissons Ratio (y) = 0.35500 0.09547
# Poissons Ratio (z) = 0.41828 0.21672
#
# Static dielectric constant tensor:
#      x y z
#    x 3.736690 0.000000 0.000000 
#    y 0.000000 3.781410 0.000000 
#    z 0.000000 0.000000 3.366140 
# 
# 
# High freq. dielectric constant tensor:
#      x y z
#    x 1.783290 0.000000 0.000000 
#    y 0.000000 1.781290 0.000000 
#    z 0.000000 0.000000 1.748160 
# 
# From -- ./inp_files/28583.got.cif
#   From: 2010.03.12/outbox.cif.g09.slc.cpg/sg53_15_cif.got.tgz:28583.got - 2010.04.16 14:36:59.
