data_PCOD8219554
_publ_section_title
;
Structure prediction by ZEFSAII (Michael W. Deem and Ramdas Pophale) SiO2 
 PCOD8219554
Probable space group: P M N A
;
_chemical_formula_sum "Si O2"
_cell_formula_units_Z 64
_cell_length_a 8.830499
_cell_length_b 11.931926
_cell_length_c 31.384612
_cell_angle_alpha 90.000000
_cell_angle_beta 90.000000
_cell_angle_gamma 90.000000
_cell_volume 3306.835269
_symmetry_space_group_name_H-M "P M N A"
_symmetry_group_IT_number 53
_symmetry_cell_setting 'orthorhombic'
loop_
_space_group_symop_operation_xyz
x,y,z
1/2-x,-y,1/2+z
x,-y,-z
1/2-x,y,1/2-z
-x,-y,-z
1/2+x,y,1/2-z
-x,y,z
1/2+x,-y,1/2+z
loop_
_atom_site_type_symbol
_atom_site_label
_atom_site_fract_x
_atom_site_fract_y
_atom_site_fract_z
Si Si1 0.178766 0.491487 0.793785
Si Si2 0.678218 0.085281 0.629852
Si Si3 0.178235 0.236956 0.792834
Si Si4 0.828122 0.886112 0.977489
Si Si5 0.171499 0.256200 0.941962
Si Si6 0.820489 0.373933 0.123366
Si Si7 0.677126 0.143492 0.109801
Si Si8 0.678271 0.514445 0.048815
O O1 0.250000 0.540065 0.750000
O O2 0.233530 0.363883 0.800765
O O3 0.236743 0.558571 0.835122
O O4 0.000000 0.501032 0.789345
O O5 0.500000 0.060663 0.631433
O O6 0.735483 0.160493 0.668785
O O7 0.722920 0.151659 0.586956
O O8 0.766983 0.969133 0.632613
O O9 0.250000 0.187498 0.750000
O O10 0.000000 0.232810 0.788606
O O11 0.711928 0.861337 0.940196
O O12 0.000000 0.899717 0.959656
O O13 0.818422 0.781593 0.009245
O O14 0.776951 0.000000 0.000000
O O15 0.278326 0.362285 0.934327
O O16 0.000000 0.291308 0.929540
O O17 0.764410 0.247736 0.130429
O O18 0.753836 0.422999 0.079490
O O19 0.000000 0.377084 0.119294
O O20 0.500000 0.158985 0.117083
O O21 0.500000 0.497607 0.051461
O O22 0.735962 0.500000 0.000000
#
# Coordination Sequence:
#
# PCOD8219554 Si02
#       8
#     8   8   8   8   8   8   8   8
#     4   9  19  37  63  93 118 145 185 236 292 350
#     4  10  20  38  59  81 110 148 192 231 271 332
#     4   9  18  34  59  87 116 143 175 225 282 339
#     4  10  19  36  59  81 108 150 197 237 277 335
#     4  10  20  35  59  84 108 143 192 238 277 333
#     4  11  23  41  63  84 113 157 205 242 286 353
#     4  12  25  38  55  83 118 152 190 241 295 340
#     4  11  24  39  55  82 120 155 191 241 299 347
#
# _framework density 19.353852
#
# number of rings (size 3 to 8) (size 9 to 14) (size 15 to 20)
#    0.000    1.750    1.250    3.375    0.000    7.750 
#    0.000    3.125    0.000    0.000    0.000    0.000 
#    0.000    0.000    0.000    0.000    0.000    0.000 
#
# Total GULP energy -793825.795108 kJ/mol
# GULP energy per Si atom -12403.528049 kJ/mol
# Density = 1.930980 g / cm^3
# Si number density = 19.353852 Si / 1000 Ang^3
#
#
#
# Elastic Constant Matrix: (Units=GPa)
#
#
# Indices 1 2 3 4 5 6 
#
# 1 58.1500 34.6540 37.3597 0.0000 0.0000 0.0000
# 2 34.6540 114.3844 53.1372 0.0000 0.0000 0.0000
# 3 37.3597 53.1372 129.0530 0.0000 0.0000 0.0000
# 4 0.0000 0.0000 0.0000 29.8320 0.0000 0.0000
# 5 0.0000 0.0000 0.0000 0.0000 30.4784 0.0000
# 6 0.0000 0.0000 0.0000 0.0000 0.0000 24.6163
#
#
#
# Elastic Compliance Matrix: (Units=1/GPa)
#
#
# Indices 1 2 3 4 5 6 
#
# 1 0.023084 -0.004809 -0.004703 0.000000 0.000000 0.000000
# 2 -0.004809 0.011812 -0.003471 0.000000 0.000000 0.000000
# 3 -0.004703 -0.003471 0.010539 0.000000 0.000000 0.000000
# 4 0.000000 0.000000 0.000000 0.033521 0.000000 0.000000
# 5 0.000000 0.000000 0.000000 0.000000 0.032810 0.000000
# 6 0.000000 0.000000 0.000000 0.000000 0.000000 0.040623
#
#
# Mechanical properties :
#
#
# Convention : Reuss Voigt Hill
#
# Bulk Modulus (GPa) = 51.36206 61.32103 56.34154
# Shear Modulus (GPa) = 27.04955 28.74777 27.89866
#
# Velocity S-wave (km/s) = 3.74255 3.85824 3.80083
# Velocity P-wave (km/s) = 6.72841 7.18338 6.95962
#
# Compressibility (1/GPa) = 0.01946963
#
# Stress axis : x y z
#
# Youngs Moduli (GPa) = 43.31994 84.65947 94.88176
#
# Poissons Ratio (x) = 0.40713 0.44618
# Poissons Ratio (y) = 0.20833 0.32937
# Poissons Ratio (z) = 0.20371 0.29389
#
# Static dielectric constant tensor:
#      x y z
#    x 3.363610 0.000000 0.000000 
#    y 0.000000 3.650020 0.000000 
#    z 0.000000 0.000000 3.635450 
# 
# 
# High freq. dielectric constant tensor:
#      x y z
#    x 1.741800 0.000000 0.000000 
#    y 0.000000 1.758140 0.000000 
#    z 0.000000 0.000000 1.751160 
# 
# From -- ./inp_files/38245.got.cif
#   From: 2010.03.12/outbox.cif.g09.slc.cpg/sg53_20_cif.got.tgz:38245.got - 2010.04.16 14:36:59.
