data_PCOD8219715
_publ_section_title
;
Structure prediction by ZEFSAII (Michael W. Deem and Ramdas Pophale) SiO2 
 PCOD8219715
Probable space group: P M N A
;
_chemical_formula_sum "Si O2"
_cell_formula_units_Z 40
_cell_length_a 10.336100
_cell_length_b 13.030568
_cell_length_c 16.019823
_cell_angle_alpha 90.000000
_cell_angle_beta 90.000000
_cell_angle_gamma 90.000000
_cell_volume 2157.633928
_symmetry_space_group_name_H-M "P M N A"
_symmetry_group_IT_number 53
_symmetry_cell_setting 'orthorhombic'
loop_
_space_group_symop_operation_xyz
x,y,z
1/2-x,-y,1/2+z
x,-y,-z
1/2-x,y,1/2-z
-x,-y,-z
1/2+x,y,1/2-z
-x,y,z
1/2+x,-y,1/2+z
loop_
_atom_site_type_symbol
_atom_site_label
_atom_site_fract_x
_atom_site_fract_y
_atom_site_fract_z
Si Si1 0.856186 0.244452 0.944245
Si Si2 0.743493 0.079716 0.434966
Si Si3 0.852690 0.749714 0.674189
Si Si4 0.354185 0.380288 0.015158
Si Si5 0.140583 0.922295 0.185207
O O1 0.746363 0.330329 0.950864
O O2 0.836202 0.188662 0.855814
O O3 0.000000 0.293496 0.949635
O O4 0.843662 0.162288 0.017791
O O5 0.843114 0.142069 0.375981
O O6 0.815125 0.000000 0.500000
O O7 0.643254 0.012809 0.382136
O O8 0.750000 0.743934 0.750000
O O9 0.824260 0.654766 0.610585
O O10 0.000000 0.742078 0.709068
O O11 0.500000 0.344300 0.992463
O O12 0.338789 0.500000 0.000000
O O13 0.250000 0.946826 0.250000
O O14 0.000000 0.924607 0.228864
#
# Coordination Sequence:
#
# PCOD8219715 Si02
#       5
#     8   8   8   8   8
#     4   9  18  33  52  74  99 128 166 209 251 297
#     4   9  18  32  51  74 102 137 174 210 248 295
#     4  10  21  35  53  79 108 137 170 213 263 310
#     4   9  19  37  58  77  99 130 168 210 259 311
#     4  10  20  32  47  70 101 136 170 203 244 293
#
# _framework density 18.538826
#
# number of rings (size 3 to 8) (size 9 to 14) (size 15 to 20)
#    0.000    2.600    0.000    1.200    0.000   10.400 
#    0.000    5.000    0.000    4.800    0.000    0.000 
#    0.000    0.000    0.000    0.000    0.000    0.000 
#
# Total GULP energy -495653.323143 kJ/mol
# GULP energy per Si atom -12391.333079 kJ/mol
# Density = 1.849663 g / cm^3
# Si number density = 18.538826 Si / 1000 Ang^3
#
#
#
# Elastic Constant Matrix: (Units=GPa)
#
#
# Indices 1 2 3 4 5 6 
#
# 1 111.3829 52.3913 38.5525 0.0000 0.0000 0.0000
# 2 52.3913 98.1545 34.9787 0.0000 0.0000 0.0000
# 3 38.5525 34.9787 64.2940 0.0000 0.0000 0.0000
# 4 0.0000 0.0000 0.0000 18.1364 0.0000 0.0000
# 5 0.0000 0.0000 0.0000 0.0000 20.2533 0.0000
# 6 0.0000 0.0000 0.0000 0.0000 0.0000 16.0973
#
#
#
# Elastic Compliance Matrix: (Units=1/GPa)
#
#
# Indices 1 2 3 4 5 6 
#
# 1 0.013194 -0.005239 -0.005061 0.000000 0.000000 0.000000
# 2 -0.005239 0.014718 -0.004866 0.000000 0.000000 0.000000
# 3 -0.005061 -0.004866 0.021236 0.000000 0.000000 0.000000
# 4 0.000000 0.000000 0.000000 0.055138 0.000000 0.000000
# 5 0.000000 0.000000 0.000000 0.000000 0.049375 0.000000
# 6 0.000000 0.000000 0.000000 0.000000 0.000000 0.062122
#
#
# Mechanical properties :
#
#
# Convention : Reuss Voigt Hill
#
# Bulk Modulus (GPa) = 53.14705 58.40851 55.77778
# Shear Modulus (GPa) = 19.81079 20.75799 20.28439
#
# Velocity S-wave (km/s) = 3.27251 3.34983 3.31139
# Velocity P-wave (km/s) = 6.55815 6.82175 6.69124
#
# Compressibility (1/GPa) = 0.01881572
#
# Stress axis : x y z
#
# Youngs Moduli (GPa) = 75.79135 67.94205 47.09011
#
# Poissons Ratio (x) = 0.35594 0.23834
# Poissons Ratio (y) = 0.39706 0.22915
# Poissons Ratio (z) = 0.38361 0.33061
#
# Static dielectric constant tensor:
#      x y z
#    x 3.415420 0.000000 0.000000 
#    y 0.000000 3.383990 0.000000 
#    z 0.000000 0.000000 3.425030 
# 
# 
# High freq. dielectric constant tensor:
#      x y z
#    x 1.720650 0.000000 0.000000 
#    y 0.000000 1.706130 0.000000 
#    z 0.000000 0.000000 1.706210 
# 
# From -- ./inp_files/19868.got.cif
#   From: 2010.03.12/outbox.cif.g09.slc.cpg/sg53_10_cif.got.tgz:19868.got - 2010.04.16 14:36:59.
