data_PCOD8219373
_publ_section_title
;
Structure prediction by ZEFSAII (Michael W. Deem and Ramdas Pophale) SiO2 
 PCOD8219373
Probable space group: P M N A
;
_chemical_formula_sum "Si O2"
_cell_formula_units_Z 48
_cell_length_a 13.250422
_cell_length_b 10.027299
_cell_length_c 20.298610
_cell_angle_alpha 90.000000
_cell_angle_beta 90.000000
_cell_angle_gamma 90.000000
_cell_volume 2696.993965
_symmetry_space_group_name_H-M "P M N A"
_symmetry_group_IT_number 53
_symmetry_cell_setting 'orthorhombic'
loop_
_space_group_symop_operation_xyz
x,y,z
1/2-x,-y,1/2+z
x,-y,-z
1/2-x,y,1/2-z
-x,-y,-z
1/2+x,y,1/2-z
-x,y,z
1/2+x,-y,1/2+z
loop_
_atom_site_type_symbol
_atom_site_label
_atom_site_fract_x
_atom_site_fract_y
_atom_site_fract_z
Si Si1 0.381356 0.261681 0.087961
Si Si2 0.112933 0.595112 0.215586
Si Si3 0.617063 0.772688 0.063637
Si Si4 0.385696 0.907063 0.288471
Si Si5 0.693064 0.532603 0.145739
Si Si6 0.690380 0.002493 0.150709
O O1 0.500000 0.255658 0.101862
O O2 0.338695 0.407022 0.102886
O O3 0.324428 0.157572 0.134925
O O4 0.355589 0.228531 0.012844
O O5 0.139059 0.751149 0.216265
O O6 0.123496 0.541151 0.289665
O O7 0.189652 0.520321 0.166800
O O8 0.000000 0.566691 0.190422
O O9 0.500000 0.740523 0.075576
O O10 0.682283 0.663127 0.101280
O O11 0.644566 0.918320 0.090620
O O12 0.500000 0.933293 0.312267
O O13 0.309751 0.974453 0.340530
O O14 0.370462 0.969176 0.216701
#
# Coordination Sequence:
#
# PCOD8219373 Si02
#       6
#     8   8   8   8   8   8
#     4  11  24  35  51  81 115 143 171 218 270 315
#     4  10  19  34  59  83 104 137 180 224 265 312
#     4  11  20  35  57  77 105 145 183 214 258 321
#     4  10  19  34  59  83 104 137 180 224 265 312
#     4  11  20  36  55  82 109 140 176 219 267 314
#     4  11  20  36  55  82 109 140 176 219 267 314
#
# _framework density 17.797592000000002
#
# number of rings (size 3 to 8) (size 9 to 14) (size 15 to 20)
#    0.000    1.333    3.333    5.000    0.000    5.333 
#    0.000    2.500    0.000    6.000    0.000    0.000 
#    0.000    0.000    0.000    0.000    0.000    0.000 
#
# Total GULP energy -595422.117749 kJ/mol
# GULP energy per Si atom -12404.627453 kJ/mol
# Density = 1.775708 g / cm^3
# Si number density = 17.797592 Si / 1000 Ang^3
#
#
#
# Elastic Constant Matrix: (Units=GPa)
#
#
# Indices 1 2 3 4 5 6 
#
# 1 102.4776 6.9967 35.3040 0.0000 0.0000 0.0000
# 2 6.9967 45.2978 10.8760 0.0000 0.0000 0.0000
# 3 35.3040 10.8760 71.0229 0.0000 0.0000 0.0000
# 4 0.0000 0.0000 0.0000 8.7636 0.0000 0.0000
# 5 0.0000 0.0000 0.0000 0.0000 22.5922 0.0000
# 6 0.0000 0.0000 0.0000 0.0000 0.0000 25.6434
#
#
#
# Elastic Compliance Matrix: (Units=1/GPa)
#
#
# Indices 1 2 3 4 5 6 
#
# 1 0.011783 -0.000429 -0.005791 0.000000 0.000000 0.000000
# 2 -0.000429 0.022934 -0.003299 0.000000 0.000000 0.000000
# 3 -0.005791 -0.003299 0.017464 0.000000 0.000000 0.000000
# 4 0.000000 0.000000 0.000000 0.114109 0.000000 0.000000
# 5 0.000000 0.000000 0.000000 0.000000 0.044263 0.000000
# 6 0.000000 0.000000 0.000000 0.000000 0.000000 0.038996
#
#
# Mechanical properties :
#
#
# Convention : Reuss Voigt Hill
#
# Bulk Modulus (GPa) = 30.17276 36.12796 33.15036
# Shear Modulus (GPa) = 17.88047 22.44129 20.16088
#
# Velocity S-wave (km/s) = 3.17307 3.55479 3.36934
# Velocity P-wave (km/s) = 5.51494 6.09854 5.81407
#
# Compressibility (1/GPa) = 0.03314248
#
# Stress axis : x y z
#
# Youngs Moduli (GPa) = 84.87076 43.60257 57.26158
#
# Poissons Ratio (x) = 0.01873 0.33161
# Poissons Ratio (y) = 0.03645 0.18888
# Poissons Ratio (z) = 0.49150 0.14382
#
# Static dielectric constant tensor:
#      x y z
#    x 3.361290 0.000000 0.000000 
#    y 0.000000 3.196730 0.000000 
#    z 0.000000 0.000000 3.239490 
# 
# 
# High freq. dielectric constant tensor:
#      x y z
#    x 1.689870 0.000000 0.000000 
#    y 0.000000 1.686850 0.000000 
#    z 0.000000 0.000000 1.679330 
# 
# From -- ./inp_files/28243.got.cif
#   From: 2010.03.12/outbox.cif.g09.slc.cpg/sg53_15_cif.got.tgz:28243.got - 2010.04.16 14:36:59.
