data_PCOD8219402
_publ_section_title
;
Structure prediction by ZEFSAII (Michael W. Deem and Ramdas Pophale) SiO2 
 PCOD8219402
Probable space group: P M N A
;
_chemical_formula_sum "Si O2"
_cell_formula_units_Z 48
_cell_length_a 9.221536
_cell_length_b 16.399567
_cell_length_c 17.815369
_cell_angle_alpha 90.000000
_cell_angle_beta 90.000000
_cell_angle_gamma 90.000000
_cell_volume 2694.203957
_symmetry_space_group_name_H-M "P M N A"
_symmetry_group_IT_number 53
_symmetry_cell_setting 'orthorhombic'
loop_
_space_group_symop_operation_xyz
x,y,z
1/2-x,-y,1/2+z
x,-y,-z
1/2-x,y,1/2-z
-x,-y,-z
1/2+x,y,1/2-z
-x,y,z
1/2+x,-y,1/2+z
loop_
_atom_site_type_symbol
_atom_site_label
_atom_site_fract_x
_atom_site_fract_y
_atom_site_fract_z
Si Si1 0.665854 0.666220 0.176056
Si Si2 0.668553 0.260517 0.461987
Si Si3 0.169578 0.828359 0.407539
Si Si4 0.333919 0.148259 0.325770
Si Si5 0.829964 0.408223 0.520259
Si Si6 0.670262 0.988155 0.413203
O O1 0.750000 0.639285 0.250000
O O2 0.500000 0.649497 0.194072
O O3 0.694193 0.760959 0.156902
O O4 0.715969 0.610373 0.105994
O O5 0.500000 0.264333 0.485254
O O6 0.749627 0.198674 0.517090
O O7 0.687582 0.227064 0.378109
O O8 0.739759 0.349956 0.464892
O O9 0.239546 0.912583 0.379275
O O10 0.000000 0.839279 0.425236
O O11 0.250000 0.164885 0.250000
O O12 0.500000 0.135669 0.304517
O O13 0.277569 0.067464 0.367980
O O14 0.788765 0.500000 0.500000
O O15 0.000000 0.389753 0.508825
O O16 0.500000 0.970923 0.403614
O O17 0.710577 0.000000 0.500000
#
# Coordination Sequence:
#
# PCOD8219402 Si02
#       6
#     8   8   8   8   8   8
#     4   9  19  34  52  77 108 140 173 213 265 318
#     4  10  19  35  56  78 105 138 177 218 263 316
#     4  10  20  33  52  79 105 137 182 221 262 318
#     4  10  22  37  53  75 106 143 181 225 272 316
#     4   9  19  37  59  83 110 139 174 217 266 321
#     4  10  19  35  54  74 105 142 181 225 271 312
#
# _framework density 17.816023000000001
#
# number of rings (size 3 to 8) (size 9 to 14) (size 15 to 20)
#    0.000    2.333    1.667    2.000    0.000    6.667 
#    0.000    4.167    0.000    4.000    0.000    0.000 
#    0.000    0.000    0.000    0.000    0.000    0.000 
#
# Total GULP energy -595271.743396 kJ/mol
# GULP energy per Si atom -12401.494654 kJ/mol
# Density = 1.777547 g / cm^3
# Si number density = 17.816023 Si / 1000 Ang^3
#
#
#
# Elastic Constant Matrix: (Units=GPa)
#
#
# Indices 1 2 3 4 5 6 
#
# 1 77.8961 57.5081 50.1804 0.0000 0.0000 0.0000
# 2 57.5081 134.4997 54.5775 0.0000 0.0000 0.0000
# 3 50.1804 54.5775 104.2067 0.0000 0.0000 0.0000
# 4 0.0000 0.0000 0.0000 18.3459 0.0000 0.0000
# 5 0.0000 0.0000 0.0000 0.0000 32.5061 0.0000
# 6 0.0000 0.0000 0.0000 0.0000 0.0000 16.0520
#
#
#
# Elastic Compliance Matrix: (Units=1/GPa)
#
#
# Indices 1 2 3 4 5 6 
#
# 1 0.022459 -0.006621 -0.007347 0.000000 0.000000 0.000000
# 2 -0.006621 0.011394 -0.002779 0.000000 0.000000 0.000000
# 3 -0.007347 -0.002779 0.014590 0.000000 0.000000 0.000000
# 4 0.000000 0.000000 0.000000 0.054508 0.000000 0.000000
# 5 0.000000 0.000000 0.000000 0.000000 0.030763 0.000000
# 6 0.000000 0.000000 0.000000 0.000000 0.000000 0.062297
#
#
# Mechanical properties :
#
#
# Convention : Reuss Voigt Hill
#
# Bulk Modulus (GPa) = 66.90049 71.23715 69.06882
# Shear Modulus (GPa) = 21.32299 23.66991 22.49645
#
# Velocity S-wave (km/s) = 3.46330 3.64892 3.55732
# Velocity P-wave (km/s) = 7.32290 7.60424 7.46489
#
# Compressibility (1/GPa) = 0.01494757
#
# Stress axis : x y z
#
# Youngs Moduli (GPa) = 44.52555 87.76774 68.54170
#
# Poissons Ratio (x) = 0.58115 0.50358
# Poissons Ratio (y) = 0.29483 0.19046
# Poissons Ratio (z) = 0.32713 0.24389
#
# Static dielectric constant tensor:
#      x y z
#    x 3.301020 0.000000 0.000000 
#    y 0.000000 3.346940 0.000000 
#    z 0.000000 0.000000 3.109530 
# 
# 
# High freq. dielectric constant tensor:
#      x y z
#    x 1.692020 0.000000 0.000000 
#    y 0.000000 1.686180 0.000000 
#    z 0.000000 0.000000 1.675860 
# 
# From -- ./inp_files/20237.got.cif
#   From: 2010.03.12/outbox.cif.g09.slc.cpg/sg53_11_cif.got.tgz:20237.got - 2010.04.16 14:36:59.
