data_PCOD8219591
_publ_section_title
;
Structure prediction by ZEFSAII (Michael W. Deem and Ramdas Pophale) SiO2 
 PCOD8219591
Probable space group: P M N A
;
_chemical_formula_sum "Si O2"
_cell_formula_units_Z 48
_cell_length_a 27.293588
_cell_length_b 10.035497
_cell_length_c 9.088068
_cell_angle_alpha 90.000000
_cell_angle_beta 90.000000
_cell_angle_gamma 90.000000
_cell_volume 2489.264725
_symmetry_space_group_name_H-M "P M N A"
_symmetry_group_IT_number 53
_symmetry_cell_setting 'orthorhombic'
loop_
_space_group_symop_operation_xyz
x,y,z
1/2-x,-y,1/2+z
x,-y,-z
1/2-x,y,1/2-z
-x,-y,-z
1/2+x,y,1/2-z
-x,y,z
1/2+x,-y,1/2+z
loop_
_atom_site_type_symbol
_atom_site_label
_atom_site_fract_x
_atom_site_fract_y
_atom_site_fract_z
Si Si1 0.717932 0.372012 0.102641
Si Si2 0.224752 0.878368 0.405578
Si Si3 0.111787 0.730594 0.662835
Si Si4 0.442266 0.518534 0.662912
Si Si5 0.883798 0.973380 0.343281
Si Si6 0.941843 0.263865 0.649020
O O1 0.750000 0.387577 0.250000
O O2 0.662296 0.348562 0.150544
O O3 0.723017 0.500000 0.000000
O O4 0.736109 0.249764 0.003562
O O5 0.250000 0.863523 0.250000
O O6 0.167543 0.900183 0.374595
O O7 0.246980 0.000000 0.500000
O O8 0.078603 0.657153 0.780651
O O9 0.083367 0.727618 0.509112
O O10 0.121274 0.880326 0.730004
O O11 0.421099 0.500000 0.500000
O O12 0.500000 0.531681 0.661504
O O13 0.425720 0.394702 0.762735
O O14 0.919962 0.866629 0.263778
O O15 0.909504 0.000000 0.500000
O O16 0.000000 0.252106 0.634152
#
# Coordination Sequence:
#
# PCOD8219591 Si02
#       6
#     8   8   8   8   8   8
#     4  12  25  42  61  91 126 161 207 259 310 367
#     4  11  21  41  65  87 123 165 203 254 309 367
#     4  11  21  38  63  85 118 155 202 251 295 362
#     4  10  22  39  58  85 121 161 199 242 303 365
#     4   9  19  36  57  91 118 148 196 246 303 351
#     4  10  19  36  63  91 118 154 200 249 302 358
#
# _framework density 19.282803000000001
#
# number of rings (size 3 to 8) (size 9 to 14) (size 15 to 20)
#    0.000    1.500    5.000    3.000    0.000    5.667 
#    3.000    0.833    0.000    3.000    0.000    0.000 
#    0.000    0.000    0.000    0.000    0.000    0.000 
#
# Total GULP energy -594890.434198 kJ/mol
# GULP energy per Si atom -12393.550712 kJ/mol
# Density = 1.923891 g / cm^3
# Si number density = 19.282803 Si / 1000 Ang^3
#
#
#
# Elastic Constant Matrix: (Units=GPa)
#
#
# Indices 1 2 3 4 5 6 
#
# 1 58.0664 45.7987 30.5061 0.0000 0.0000 0.0000
# 2 45.7987 162.9131 54.9518 0.0000 0.0000 0.0000
# 3 30.5061 54.9518 88.7584 0.0000 0.0000 0.0000
# 4 0.0000 0.0000 0.0000 -1.2782 0.0000 0.0000
# 5 0.0000 0.0000 0.0000 0.0000 7.3574 0.0000
# 6 0.0000 0.0000 0.0000 0.0000 0.0000 8.0821
#
#
#
# Elastic Compliance Matrix: (Units=1/GPa)
#
#
# Indices 1 2 3 4 5 6 
#
# 1 0.023831 -0.004976 -0.005110 0.000000 0.000000 0.000000
# 2 -0.004976 0.008797 -0.003736 0.000000 0.000000 0.000000
# 3 -0.005110 -0.003736 0.015336 0.000000 0.000000 0.000000
# 4 0.000000 0.000000 0.000000 -0.782368 0.000000 0.000000
# 5 0.000000 0.000000 0.000000 0.000000 0.135918 0.000000
# 6 0.000000 0.000000 0.000000 0.000000 0.000000 0.123730
#
#
# Mechanical properties :
#
#
# Convention : Reuss Voigt Hill
#
# Bulk Modulus (GPa) = 49.21291 63.58346 56.39818
# Shear Modulus (GPa) = -11.35493 14.73101 1.68804
#
# Velocity S-wave (km/s) = -2.42928 2.76695 0.93665
# Velocity P-wave (km/s) = 4.20815 6.57676 5.52097
#
# Compressibility (1/GPa) = 0.02031987
#
# Stress axis : x y z
#
# Youngs Moduli (GPa) = 41.96243 113.67029 65.20545
#
# Poissons Ratio (x) = 0.56560 0.33320
# Poissons Ratio (y) = 0.20879 0.24364
# Poissons Ratio (z) = 0.21443 0.42472
#
# Static dielectric constant tensor:
#      x y z
#    x 3.569680 0.000000 0.000000 
#    y 0.000000 4.115910 0.000000 
#    z 0.000000 0.000000 3.515970 
# 
# 
# High freq. dielectric constant tensor:
#      x y z
#    x 1.747540 0.000000 0.000000 
#    y 0.000000 1.775950 0.000000 
#    z 0.000000 0.000000 1.727000 
# 
# From -- ./inp_files/13014.got.cif
#   From: 2010.03.12/outbox.cif.g09.slc.cpg/sg53_7_cif.got.tgz:13014.got - 2010.04.16 14:36:59.
