data_PCOD8219626
_publ_section_title
;
Structure prediction by ZEFSAII (Michael W. Deem and Ramdas Pophale) SiO2 
 PCOD8219626
Probable space group: P M N A
;
_chemical_formula_sum "Si O2"
_cell_formula_units_Z 64
_cell_length_a 24.923540
_cell_length_b 14.782051
_cell_length_c 8.466795
_cell_angle_alpha 90.000000
_cell_angle_beta 90.000000
_cell_angle_gamma 90.000000
_cell_volume 3119.345414
_symmetry_space_group_name_H-M "P M N A"
_symmetry_group_IT_number 53
_symmetry_cell_setting 'orthorhombic'
loop_
_space_group_symop_operation_xyz
x,y,z
1/2-x,-y,1/2+z
x,-y,-z
1/2-x,y,1/2-z
-x,-y,-z
1/2+x,y,1/2-z
-x,y,z
1/2+x,-y,1/2+z
loop_
_atom_site_type_symbol
_atom_site_label
_atom_site_fract_x
_atom_site_fract_y
_atom_site_fract_z
Si Si1 0.250064 0.290385 0.562761
Si Si2 0.559455 0.723677 0.947351
Si Si3 0.937788 0.081223 0.114733
Si Si4 0.612493 0.092901 0.055254
Si Si5 0.558079 0.276252 0.429169
Si Si6 0.235004 0.092249 0.567235
Si Si7 0.652209 0.400114 0.061241
Si Si8 0.847722 0.599156 0.934313
O O1 0.250000 0.293248 0.750000
O O2 0.259304 0.187084 0.500716
O O3 0.193977 0.327003 0.500348
O O4 0.294236 0.356747 0.497077
O O5 0.500000 0.709507 0.016971
O O6 0.559327 0.728328 0.759512
O O7 0.594895 0.637295 0.000237
O O8 0.582832 0.818462 0.013474
O O9 0.893738 0.088186 0.254651
O O10 0.932432 0.173473 0.011846
O O11 0.000000 0.071811 0.176209
O O12 0.921444 0.000000 0.000000
O O13 0.672634 0.093803 0.984335
O O14 0.583883 0.000000 0.000000
O O15 0.500000 0.311992 0.486927
O O16 0.602410 0.342817 0.499561
O O17 0.250000 0.089735 0.750000
O O18 0.261846 0.000000 0.500000
O O19 0.654687 0.403423 0.247961
O O20 0.664020 0.500000 0.000000
O O21 0.854463 0.500000 0.000000
#
# Coordination Sequence:
#
# PCOD8219626 Si02
#       8
#     8   8   8   8   8   8   8   8
#     4  11  23  43  65  88 120 156 203 260 307 361
#     4   9  18  35  60  88 120 159 202 246 302 370
#     4   9  18  36  61  94 130 166 209 257 308 370
#     4  10  19  37  61  90 123 162 209 249 314 369
#     4   8  17  36  59  86 123 162 199 244 302 369
#     4  10  23  44  63  91 126 164 205 253 313 374
#     4  11  22  39  62  87 122 159 201 255 311 369
#     4  11  23  39  61  93 116 157 210 252 311 371
#
# _framework density 20.517123999999999
#
# number of rings (size 3 to 8) (size 9 to 14) (size 15 to 20)
#    0.000    2.125    1.250    2.625    0.000    2.500 
#   13.500    0.000    0.000    3.750    0.000    0.000 
#    0.000    0.000    0.000    0.000    0.000    0.000 
#
# Total GULP energy -793039.640067 kJ/mol
# GULP energy per Si atom -12391.244376 kJ/mol
# Density = 2.047043 g / cm^3
# Si number density = 20.517124 Si / 1000 Ang^3
#
#
#
# Elastic Constant Matrix: (Units=GPa)
#
#
# Indices 1 2 3 4 5 6 
#
# 1 103.7494 40.8562 40.3207 0.0000 0.0000 0.0000
# 2 40.8562 161.9969 36.5091 0.0000 0.0000 0.0000
# 3 40.3207 36.5091 64.3143 0.0000 0.0000 0.0000
# 4 0.0000 0.0000 0.0000 30.8185 0.0000 0.0000
# 5 0.0000 0.0000 0.0000 0.0000 10.5345 0.0000
# 6 0.0000 0.0000 0.0000 0.0000 0.0000 33.4260
#
#
#
# Elastic Compliance Matrix: (Units=1/GPa)
#
#
# Indices 1 2 3 4 5 6 
#
# 1 0.013126 -0.001669 -0.007281 0.000000 0.000000 0.000000
# 2 -0.001669 0.007291 -0.003092 0.000000 0.000000 0.000000
# 3 -0.007281 -0.003092 0.021869 0.000000 0.000000 0.000000
# 4 0.000000 0.000000 0.000000 0.032448 0.000000 0.000000
# 5 0.000000 0.000000 0.000000 0.000000 0.094927 0.000000
# 6 0.000000 0.000000 0.000000 0.000000 0.000000 0.029917
#
#
# Mechanical properties :
#
#
# Convention : Reuss Voigt Hill
#
# Bulk Modulus (GPa) = 54.94587 62.82583 58.88585
# Shear Modulus (GPa) = 21.76474 29.11409 25.43942
#
# Velocity S-wave (km/s) = 3.26054 3.77107 3.52506
# Velocity P-wave (km/s) = 6.40417 7.04620 6.73284
#
# Compressibility (1/GPa) = 0.01819973
#
# Stress axis : x y z
#
# Youngs Moduli (GPa) = 76.18594 137.15782 45.72709
#
# Poissons Ratio (x) = 0.22897 0.33295
# Poissons Ratio (y) = 0.12718 0.14140
# Poissons Ratio (z) = 0.55473 0.42412
#
# Static dielectric constant tensor:
#      x y z
#    x 3.862580 0.000000 0.000000 
#    y 0.000000 3.973600 0.000000 
#    z 0.000000 0.000000 3.428990 
# 
# 
# High freq. dielectric constant tensor:
#      x y z
#    x 1.800400 0.000000 0.000000 
#    y 0.000000 1.827450 0.000000 
#    z 0.000000 0.000000 1.772060 
# 
# From -- ./inp_files/11960.got.cif
#   From: 2010.03.12/outbox.cif.g09.slc.cpg/sg53_6_cif.got.tgz:11960.got - 2010.04.16 14:36:59.
