data_PCOD8219653
_publ_section_title
;
Structure prediction by ZEFSAII (Michael W. Deem and Ramdas Pophale) SiO2 
 PCOD8219653
Probable space group: P M N A
;
_chemical_formula_sum "Si O2"
_cell_formula_units_Z 64
_cell_length_a 9.058812
_cell_length_b 25.878139
_cell_length_c 14.608486
_cell_angle_alpha 90.000000
_cell_angle_beta 90.000000
_cell_angle_gamma 90.000000
_cell_volume 3424.597195
_symmetry_space_group_name_H-M "P M N A"
_symmetry_group_IT_number 53
_symmetry_cell_setting 'orthorhombic'
loop_
_space_group_symop_operation_xyz
x,y,z
1/2-x,-y,1/2+z
x,-y,-z
1/2-x,y,1/2-z
-x,-y,-z
1/2+x,y,1/2-z
-x,y,z
1/2+x,-y,1/2+z
loop_
_atom_site_type_symbol
_atom_site_label
_atom_site_fract_x
_atom_site_fract_y
_atom_site_fract_z
Si Si1 0.672627 0.636938 0.651852
Si Si2 0.325495 0.104929 0.658914
Si Si3 0.166494 0.997897 0.392110
Si Si4 0.323859 0.558214 0.501207
Si Si5 0.170497 0.366130 0.846990
Si Si6 0.669212 0.718847 0.497301
Si Si7 0.171079 0.824920 0.486143
Si Si8 0.169962 0.890311 0.662632
O O1 0.750000 0.640885 0.750000
O O2 0.500000 0.632032 0.671073
O O3 0.730188 0.587141 0.593879
O O4 0.706619 0.686978 0.589418
O O5 0.250000 0.126469 0.750000
O O6 0.500000 0.106432 0.667830
O O7 0.275191 0.046266 0.642266
O O8 0.274708 0.143505 0.580887
O O9 0.000000 0.987090 0.355364
O O10 0.161583 0.000000 0.500000
O O11 0.232700 0.052565 0.359199
O O12 0.261847 0.500000 0.500000
O O13 0.500000 0.560238 0.500335
O O14 0.266549 0.586699 0.409109
O O15 0.250000 0.362400 0.750000
O O16 0.194092 0.314316 0.905603
O O17 0.000000 0.375266 0.825309
O O18 0.500000 0.738255 0.501369
O O19 0.782306 0.765695 0.490516
O O20 0.199474 0.849566 0.584048
O O21 0.000000 0.829617 0.456423
O O22 0.250000 0.866607 0.750000
O O23 0.000000 0.896422 0.684493
#
# Coordination Sequence:
#
# PCOD8219653 Si02
#       8
#     8   8   8   8   8   8   8   8
#     4   9  18  33  54  78 107 143 185 229 272 324
#     4  12  25  40  60  86 114 146 184 224 271 330
#     4  10  19  38  62  83 114 148 178 222 272 321
#     4   8  15  30  51  76 109 149 185 218 264 323
#     4   9  18  33  54  78 106 140 180 222 267 318
#     4   9  20  38  55  75 105 142 180 222 273 329
#     4  11  23  41  60  82 110 143 181 228 283 328
#     4  10  22  38  58  82 111 144 177 218 269 323
#
# _framework density 18.688330000000001
#
# number of rings (size 3 to 8) (size 9 to 14) (size 15 to 20)
#    0.000    2.250    1.250    3.375    0.000    5.250 
#    0.000    5.625    0.000    0.750    0.000    0.000 
#    0.000    0.000    0.000    0.000    0.000    0.000 
#
# Total GULP energy -793478.566439 kJ/mol
# GULP energy per Si atom -12398.102601 kJ/mol
# Density = 1.864579 g / cm^3
# Si number density = 18.688330 Si / 1000 Ang^3
#
#
#
# Elastic Constant Matrix: (Units=GPa)
#
#
# Indices 1 2 3 4 5 6 
#
# 1 83.4555 45.2545 57.3336 0.0000 0.0000 0.0000
# 2 45.2545 92.9756 17.6676 0.0000 0.0000 0.0000
# 3 57.3336 17.6676 96.0606 0.0000 0.0000 0.0000
# 4 0.0000 0.0000 0.0000 -22.2512 0.0000 0.0000
# 5 0.0000 0.0000 0.0000 0.0000 36.6532 0.0000
# 6 0.0000 0.0000 0.0000 0.0000 0.0000 34.4275
#
#
#
# Elastic Compliance Matrix: (Units=1/GPa)
#
#
# Indices 1 2 3 4 5 6 
#
# 1 0.027926 -0.010803 -0.014681 0.000000 0.000000 0.000000
# 2 -0.010803 0.015324 0.003629 0.000000 0.000000 0.000000
# 3 -0.014681 0.003629 0.018505 0.000000 0.000000 0.000000
# 4 0.000000 0.000000 0.000000 -0.044941 0.000000 0.000000
# 5 0.000000 0.000000 0.000000 0.000000 0.027283 0.000000
# 6 0.000000 0.000000 0.000000 0.000000 0.000000 0.029047
#
#
# Mechanical properties :
#
#
# Convention : Reuss Voigt Hill
#
# Bulk Modulus (GPa) = 55.41356 57.00033 56.20694
# Shear Modulus (GPa) = 40.69450 19.91496 30.30473
#
# Velocity S-wave (km/s) = 4.67147 3.26795 4.03126
# Velocity P-wave (km/s) = 7.66894 6.69373 7.19787
#
# Compressibility (1/GPa) = 0.01804613
#
# Stress axis : x y z
#
# Youngs Moduli (GPa) = 35.80892 65.25708 54.04015
#
# Poissons Ratio (x) = 0.70496 0.79335
# Poissons Ratio (y) = 0.38684 -0.19613
# Poissons Ratio (z) = 0.52570 -0.23684
#
# Static dielectric constant tensor:
#      x y z
#    x 3.255870 0.000000 0.000000 
#    y 0.000000 3.513870 0.000000 
#    z 0.000000 0.000000 3.517080 
# 
# 
# High freq. dielectric constant tensor:
#      x y z
#    x 1.708730 0.000000 0.000000 
#    y 0.000000 1.725600 0.000000 
#    z 0.000000 0.000000 1.736850 
# 
# From -- ./inp_files/20988.got.cif
#   From: 2010.03.12/outbox.cif.g09.slc.cpg/sg53_11_cif.got.tgz:20988.got - 2010.04.16 14:36:59.
