data_PCOD8219369
_publ_section_title
;
Structure prediction by ZEFSAII (Michael W. Deem and Ramdas Pophale) SiO2 
 PCOD8219369
Probable space group: P M N A
;
_chemical_formula_sum "Si O2"
_cell_formula_units_Z 64
_cell_length_a 8.708755
_cell_length_b 21.429850
_cell_length_c 17.829131
_cell_angle_alpha 90.000000
_cell_angle_beta 90.000000
_cell_angle_gamma 90.000000
_cell_volume 3327.402818
_symmetry_space_group_name_H-M "P M N A"
_symmetry_group_IT_number 53
_symmetry_cell_setting 'orthorhombic'
loop_
_space_group_symop_operation_xyz
x,y,z
1/2-x,-y,1/2+z
x,-y,-z
1/2-x,y,1/2-z
-x,-y,-z
1/2+x,y,1/2-z
-x,y,z
1/2+x,-y,1/2+z
loop_
_atom_site_type_symbol
_atom_site_label
_atom_site_fract_x
_atom_site_fract_y
_atom_site_fract_z
Si Si1 0.318136 0.066579 0.977283
Si Si2 0.678492 0.507931 0.172236
Si Si3 0.676812 0.613189 0.923487
Si Si4 0.180042 0.722983 0.831218
Si Si5 0.676403 0.243210 0.590805
Si Si6 0.818184 0.132637 0.672156
Si Si7 0.818424 0.809575 0.554728
Si Si8 0.675995 0.615510 0.417611
O O1 0.500000 0.061580 0.977821
O O2 0.263614 0.085860 0.893894
O O3 0.265998 0.119354 0.036958
O O4 0.243986 0.000000 0.000000
O O5 0.750000 0.484622 0.250000
O O6 0.500000 0.523091 0.182264
O O7 0.707164 0.453829 0.112427
O O8 0.766214 0.569976 0.147085
O O9 0.500000 0.633738 0.914861
O O10 0.781389 0.664745 0.883967
O O11 0.718778 0.606410 0.009978
O O12 0.250000 0.711952 0.750000
O O13 0.244597 0.786997 0.867357
O O14 0.000000 0.729397 0.823024
O O15 0.500000 0.222973 0.580509
O O16 0.753923 0.201578 0.655320
O O17 0.762867 0.235344 0.511848
O O18 0.691751 0.314835 0.615289
O O19 0.750000 0.107242 0.750000
O O20 0.000000 0.136399 0.677324
O O21 0.000000 0.804359 0.560677
O O22 0.500000 0.600836 0.438936
#
# Coordination Sequence:
#
# PCOD8219369 Si02
#       8
#     8   8   8   8   8   8   8   8
#     4   8  16  33  58  86 115 152 195 234 280 338
#     4  11  25  42  59  81 111 149 190 240 293 347
#     4  11  23  40  62  86 113 147 191 239 290 349
#     4  12  24  38  58  85 116 151 191 239 292 344
#     4  10  20  35  56  83 113 147 187 231 280 337
#     4  10  20  34  56  84 115 153 192 238 290 339
#     4  10  19  34  58  85 115 150 186 230 281 336
#     4  11  23  38  60  87 114 150 189 234 287 344
#
# _framework density 19.234221000000002
#
# number of rings (size 3 to 8) (size 9 to 14) (size 15 to 20)
#    0.000    1.625    1.250    4.875    0.000    6.500 
#    0.000    0.625    0.000   15.000    0.000    0.000 
#    0.000    0.000    0.000    0.000    0.000    0.000 
#
# Total GULP energy -793832.591073 kJ/mol
# GULP energy per Si atom -12403.634236 kJ/mol
# Density = 1.919044 g / cm^3
# Si number density = 19.234221 Si / 1000 Ang^3
#
#
#
# Elastic Constant Matrix: (Units=GPa)
#
#
# Indices 1 2 3 4 5 6 
#
# 1 100.9943 42.1080 25.9545 0.0000 0.0000 0.0000
# 2 42.1080 111.1126 31.9693 0.0000 0.0000 0.0000
# 3 25.9545 31.9693 81.8330 0.0000 0.0000 0.0000
# 4 0.0000 0.0000 0.0000 19.5740 0.0000 0.0000
# 5 0.0000 0.0000 0.0000 0.0000 35.7907 0.0000
# 6 0.0000 0.0000 0.0000 0.0000 0.0000 15.5935
#
#
#
# Elastic Compliance Matrix: (Units=1/GPa)
#
#
# Indices 1 2 3 4 5 6 
#
# 1 0.012136 -0.003934 -0.002312 0.000000 0.000000 0.000000
# 2 -0.003934 0.011415 -0.003212 0.000000 0.000000 0.000000
# 3 -0.002312 -0.003212 0.014208 0.000000 0.000000 0.000000
# 4 0.000000 0.000000 0.000000 0.051088 0.000000 0.000000
# 5 0.000000 0.000000 0.000000 0.000000 0.027940 0.000000
# 6 0.000000 0.000000 0.000000 0.000000 0.000000 0.064129
#
#
# Mechanical properties :
#
#
# Convention : Reuss Voigt Hill
#
# Bulk Modulus (GPa) = 53.06958 54.88929 53.97943
# Shear Modulus (GPa) = 24.25854 27.11883 25.68869
#
# Velocity S-wave (km/s) = 3.55522 3.75897 3.65851
# Velocity P-wave (km/s) = 6.67112 6.88760 6.78023
#
# Compressibility (1/GPa) = 0.01884319
#
# Stress axis : x y z
#
# Youngs Moduli (GPa) = 82.39993 87.60604 70.38250
#
# Poissons Ratio (x) = 0.34463 0.16274
# Poissons Ratio (y) = 0.32415 0.22605
# Poissons Ratio (z) = 0.19053 0.28136
#
# Static dielectric constant tensor:
#      x y z
#    x 3.543400 0.000000 0.000000 
#    y 0.000000 3.697810 0.000000 
#    z 0.000000 0.000000 3.527800 
# 
# 
# High freq. dielectric constant tensor:
#      x y z
#    x 1.753530 0.000000 0.000000 
#    y 0.000000 1.745680 0.000000 
#    z 0.000000 0.000000 1.744680 
# 
# From -- ./inp_files/26953.got.cif
#   From: 2010.03.12/outbox.cif.g09.slc.cpg/sg53_14_cif.got.tgz:26953.got - 2010.04.16 14:36:59.
