data_PCOD8219026
_publ_section_title
;
Structure prediction by ZEFSAII (Michael W. Deem and Ramdas Pophale) SiO2 
 PCOD8219026
Probable space group: P M N A
;
_chemical_formula_sum "Si O2"
_cell_formula_units_Z 56
_cell_length_a 8.788470
_cell_length_b 19.198511
_cell_length_c 18.378931
_cell_angle_alpha 90.000000
_cell_angle_beta 90.000000
_cell_angle_gamma 90.000000
_cell_volume 3100.995020
_symmetry_space_group_name_H-M "P M N A"
_symmetry_group_IT_number 53
_symmetry_cell_setting 'orthorhombic'
loop_
_space_group_symop_operation_xyz
x,y,z
1/2-x,-y,1/2+z
x,-y,-z
1/2-x,y,1/2-z
-x,-y,-z
1/2+x,y,1/2-z
-x,y,z
1/2+x,-y,1/2+z
loop_
_atom_site_type_symbol
_atom_site_label
_atom_site_fract_x
_atom_site_fract_y
_atom_site_fract_z
Si Si1 0.680524 0.288508 0.957077
Si Si2 0.819941 0.078066 0.074011
Si Si3 0.819969 0.064145 0.582939
Si Si4 0.321016 0.642178 0.825522
Si Si5 0.678867 0.802532 0.172581
Si Si6 0.681549 0.573455 0.972841
Si Si7 0.178704 0.215918 0.396635
O O1 0.500000 0.288162 0.955631
O O2 0.745136 0.256385 0.882308
O O3 0.738698 0.367438 0.970290
O O4 0.732530 0.240025 0.023573
O O5 0.770375 0.145248 0.121609
O O6 0.000000 0.070016 0.073314
O O7 0.746068 0.009507 0.110632
O O8 0.757372 0.086173 0.992477
O O9 0.777300 0.121041 0.643532
O O10 0.000000 0.059485 0.569994
O O11 0.250000 0.616403 0.750000
O O12 0.500000 0.634479 0.819955
O O13 0.260796 0.593159 0.891537
O O14 0.277036 0.722925 0.840178
O O15 0.750000 0.788463 0.250000
O O16 0.500000 0.794820 0.179407
O O17 0.500000 0.571035 0.972091
O O18 0.750359 0.500000 0.000000
O O19 0.000000 0.199985 0.394090
#
# Coordination Sequence:
#
# PCOD8219026 Si02
#       7
#     8   8   8   8   8   8   8
#     4   8  14  28  48  69  93 124 167 206 236 285
#     4  11  20  29  47  76 100 119 155 215 262 291
#     4  10  19  33  50  66  92 133 170 200 247 308
#     4   9  18  31  51  76 104 135 167 208 251 300
#     4  10  20  33  50  69  94 131 168 210 252 291
#     4   8  14  27  51  79 102 130 171 209 239 285
#     4   9  16  31  51  69  93 130 171 202 239 299
#
# _framework density 18.058719
#
# number of rings (size 3 to 8) (size 9 to 14) (size 15 to 20)
#    0.000    2.714    1.429    4.286    0.000    1.714 
#    0.000    1.429    0.000    0.429    0.000    0.000 
#    0.000    0.000    0.000    0.000    0.000    0.000 
#
# Total GULP energy -694092.621383 kJ/mol
# GULP energy per Si atom -12394.511096 kJ/mol
# Density = 1.801762 g / cm^3
# Si number density = 18.058719 Si / 1000 Ang^3
#
#
#
# Elastic Constant Matrix: (Units=GPa)
#
#
# Indices 1 2 3 4 5 6 
#
# 1 42.5904 30.1370 23.8179 0.0000 0.0000 0.0000
# 2 30.1370 149.3941 63.8823 0.0000 0.0000 0.0000
# 3 23.8179 63.8823 118.3289 0.0000 0.0000 0.0000
# 4 0.0000 0.0000 0.0000 21.3171 0.0000 0.0000
# 5 0.0000 0.0000 0.0000 0.0000 25.4828 0.0000
# 6 0.0000 0.0000 0.0000 0.0000 0.0000 9.9544
#
#
#
# Elastic Compliance Matrix: (Units=1/GPa)
#
#
# Indices 1 2 3 4 5 6 
#
# 1 0.028411 -0.004272 -0.003412 0.000000 0.000000 0.000000
# 2 -0.004272 0.009345 -0.004185 0.000000 0.000000 0.000000
# 3 -0.003412 -0.004185 0.011397 0.000000 0.000000 0.000000
# 4 0.000000 0.000000 0.000000 0.046911 0.000000 0.000000
# 5 0.000000 0.000000 0.000000 0.000000 0.039242 0.000000
# 6 0.000000 0.000000 0.000000 0.000000 0.000000 0.100458
#
#
# Mechanical properties :
#
#
# Convention : Reuss Voigt Hill
#
# Bulk Modulus (GPa) = 39.34856 60.66531 50.00693
# Shear Modulus (GPa) = 18.65846 24.18259 21.42052
#
# Velocity S-wave (km/s) = 3.21785 3.66335 3.44780
# Velocity P-wave (km/s) = 5.97014 7.18052 6.60312
#
# Compressibility (1/GPa) = 0.02541389
#
# Stress axis : x y z
#
# Youngs Moduli (GPa) = 35.19808 107.00718 87.73951
#
# Poissons Ratio (x) = 0.45715 0.29939
# Poissons Ratio (y) = 0.15037 0.36721
# Poissons Ratio (z) = 0.12011 0.44785
#
# Static dielectric constant tensor:
#      x y z
#    x 2.975880 0.000000 0.000000 
#    y 0.000000 3.723820 0.000000 
#    z 0.000000 0.000000 3.397870 
# 
# 
# High freq. dielectric constant tensor:
#      x y z
#    x 1.667990 0.000000 0.000000 
#    y 0.000000 1.705000 0.000000 
#    z 0.000000 0.000000 1.677420 
# 
# From -- ./inp_files/26708.got.cif
#   From: 2010.03.12/outbox.cif.g09.slc.cpg/sg53_14_cif.got.tgz:26708.got - 2010.04.16 14:36:59.
