data_PCOD8219631
_publ_section_title
;
Structure prediction by ZEFSAII (Michael W. Deem and Ramdas Pophale) SiO2 
 PCOD8219631
Probable space group: P M N A
;
_chemical_formula_sum "Si O2"
_cell_formula_units_Z 56
_cell_length_a 8.962078
_cell_length_b 20.992393
_cell_length_c 15.386378
_cell_angle_alpha 90.000000
_cell_angle_beta 90.000000
_cell_angle_gamma 90.000000
_cell_volume 2894.723356
_symmetry_space_group_name_H-M "P M N A"
_symmetry_group_IT_number 53
_symmetry_cell_setting 'orthorhombic'
loop_
_space_group_symop_operation_xyz
x,y,z
1/2-x,-y,1/2+z
x,-y,-z
1/2-x,y,1/2-z
-x,-y,-z
1/2+x,y,1/2-z
-x,y,z
1/2+x,-y,1/2+z
loop_
_atom_site_type_symbol
_atom_site_label
_atom_site_fract_x
_atom_site_fract_y
_atom_site_fract_z
Si Si1 0.825585 0.639646 0.161763
Si Si2 0.173600 0.148439 0.998933
Si Si3 0.173398 0.499726 0.898089
Si Si4 0.175133 0.086058 0.662827
Si Si5 0.176413 0.624746 0.661911
Si Si6 0.663882 0.029138 0.404859
Si Si7 0.325997 0.294160 0.486174
O O1 0.750000 0.663999 0.250000
O O2 0.775855 0.567847 0.140133
O O3 0.000000 0.643595 0.176429
O O4 0.776624 0.685561 0.082990
O O5 0.271192 0.129868 0.915990
O O6 0.000000 0.139684 0.973588
O O7 0.213901 0.102904 0.081576
O O8 0.209056 0.220007 0.027187
O O9 0.273956 0.552014 0.851322
O O10 0.000000 0.514522 0.879611
O O11 0.205892 0.500000 0.000000
O O12 0.250000 0.113130 0.750000
O O13 0.000000 0.091259 0.671268
O O14 0.219601 0.011429 0.651418
O O15 0.250000 0.651664 0.750000
O O16 0.228735 0.667468 0.582043
O O17 0.000000 0.628244 0.670364
O O18 0.500000 0.025191 0.360250
O O19 0.654088 0.000000 0.500000
O O20 0.500000 0.310713 0.471368
#
# Coordination Sequence:
#
# PCOD8219631 Si02
#       7
#     8   8   8   8   8   8   8
#     4  10  21  36  57  83 115 151 188 234 286 346
#     4   9  19  36  59  81 108 146 185 227 279 338
#     4  10  19  37  62  86 114 148 188 239 298 350
#     4  11  21  33  53  81 114 147 184 229 274 329
#     4  12  25  40  61  87 115 150 195 245 295 350
#     4   8  15  31  53  78 105 134 172 218 269 322
#     4  10  21  41  62  83 115 157 197 237 290 345
#
# _framework density 19.345544
#
# number of rings (size 3 to 8) (size 9 to 14) (size 15 to 20)
#    0.000    2.000    1.429    3.857    0.000    6.286 
#    0.000    2.143    0.000    0.000    0.000    0.000 
#    0.000    0.000    0.000    0.000    0.000    0.000 
#
# Total GULP energy -694439.451993 kJ/mol
# GULP energy per Si atom -12400.704500 kJ/mol
# Density = 1.930151 g / cm^3
# Si number density = 19.345544 Si / 1000 Ang^3
#
#
#
# Elastic Constant Matrix: (Units=GPa)
#
#
# Indices 1 2 3 4 5 6 
#
# 1 100.4220 25.2589 32.2640 0.0000 0.0000 0.0000
# 2 25.2589 93.9216 8.8782 0.0000 0.0000 0.0000
# 3 32.2640 8.8782 66.0488 0.0000 0.0000 0.0000
# 4 0.0000 0.0000 0.0000 12.7733 0.0000 0.0000
# 5 0.0000 0.0000 0.0000 0.0000 33.0943 0.0000
# 6 0.0000 0.0000 0.0000 0.0000 0.0000 4.1112
#
#
#
# Elastic Compliance Matrix: (Units=1/GPa)
#
#
# Indices 1 2 3 4 5 6 
#
# 1 0.012509 -0.002822 -0.005731 0.000000 0.000000 0.000000
# 2 -0.002822 0.011421 -0.000156 0.000000 0.000000 0.000000
# 3 -0.005731 -0.000156 0.017961 0.000000 0.000000 0.000000
# 4 0.000000 0.000000 0.000000 0.078288 0.000000 0.000000
# 5 0.000000 0.000000 0.000000 0.000000 0.030217 0.000000
# 6 0.000000 0.000000 0.000000 0.000000 0.000000 0.243239
#
#
# Mechanical properties :
#
#
# Convention : Reuss Voigt Hill
#
# Bulk Modulus (GPa) = 40.86471 43.68829 42.27650
# Shear Modulus (GPa) = 11.92712 22.92852 17.42782
#
# Velocity S-wave (km/s) = 2.48570 3.44642 3.00471
# Velocity P-wave (km/s) = 5.42289 6.20236 5.82567
#
# Compressibility (1/GPa) = 0.02447099
#
# Stress axis : x y z
#
# Youngs Moduli (GPa) = 79.94087 87.55790 55.67622
#
# Poissons Ratio (x) = 0.24713 0.31909
# Poissons Ratio (y) = 0.22563 0.00871
# Poissons Ratio (z) = 0.45816 0.01370
#
# Static dielectric constant tensor:
#      x y z
#    x 3.399030 0.000000 0.000000 
#    y 0.000000 3.798320 0.000000 
#    z 0.000000 0.000000 3.591640 
# 
# 
# High freq. dielectric constant tensor:
#      x y z
#    x 1.743050 0.000000 0.000000 
#    y 0.000000 1.751550 0.000000 
#    z 0.000000 0.000000 1.748530 
# 
# From -- ./inp_files/20626.got.cif
#   From: 2010.03.12/outbox.cif.g09.slc.cpg/sg53_11_cif.got.tgz:20626.got - 2010.04.16 14:36:59.
