data_PCOD8219808
_publ_section_title
;
Structure prediction by ZEFSAII (Michael W. Deem and Ramdas Pophale) SiO2 
 PCOD8219808
Probable space group: P M N A
;
_chemical_formula_sum "Si O2"
_cell_formula_units_Z 48
_cell_length_a 8.846316
_cell_length_b 30.719458
_cell_length_c 9.569075
_cell_angle_alpha 90.000000
_cell_angle_beta 90.000000
_cell_angle_gamma 90.000000
_cell_volume 2600.434722
_symmetry_space_group_name_H-M "P M N A"
_symmetry_group_IT_number 53
_symmetry_cell_setting 'orthorhombic'
loop_
_space_group_symop_operation_xyz
x,y,z
1/2-x,-y,1/2+z
x,-y,-z
1/2-x,y,1/2-z
-x,-y,-z
1/2+x,y,1/2-z
-x,y,z
1/2+x,-y,1/2+z
loop_
_atom_site_type_symbol
_atom_site_label
_atom_site_fract_x
_atom_site_fract_y
_atom_site_fract_z
Si Si1 0.821442 0.539684 0.402460
Si Si2 0.178372 0.891350 0.897903
Si Si3 0.676855 0.624834 0.400983
Si Si4 0.177159 0.208193 0.106603
Si Si5 0.323705 0.280062 0.600949
Si Si6 0.177639 0.959289 0.401334
O O1 0.771214 0.500000 0.500000
O O2 0.750000 0.532959 0.250000
O O3 0.758297 0.584033 0.476954
O O4 0.000000 0.542862 0.387380
O O5 0.250000 0.906104 0.750000
O O6 0.219426 0.841355 0.931070
O O7 0.000000 0.899716 0.889120
O O8 0.248849 0.917377 0.026594
O O9 0.750000 0.627436 0.250000
O O10 0.500000 0.614747 0.389397
O O11 0.706576 0.672338 0.470882
O O12 0.250000 0.222753 0.250000
O O13 0.000000 0.213954 0.121802
O O14 0.244476 0.241309 0.992491
O O15 0.250000 0.276256 0.750000
O O16 0.500000 0.273095 0.623145
O O17 0.250000 0.967447 0.250000
O O18 0.000000 0.951689 0.382925
O O19 0.213993 0.000000 0.500000
#
# Coordination Sequence:
#
# PCOD8219808 Si02
#       6
#     8   8   8   8   8   8
#     4  10  20  33  50  72  97 126 162 203 247 298
#     4  10  20  36  58  81 108 142 179 219 261 309
#     4   9  16  28  48  70  95 128 163 202 247 295
#     4   9  19  35  53  76 106 139 173 209 253 304
#     4   9  18  32  50  74 101 129 166 208 249 296
#     4  11  24  40  59  83 111 143 178 218 264 312
#
# _framework density 18.458452000000001
#
# number of rings (size 3 to 8) (size 9 to 14) (size 15 to 20)
#    0.000    2.333    0.000    3.500    0.000    6.667 
#    0.000    2.500    0.000    4.000    0.000    0.000 
#    0.000    0.000    0.000    0.000    0.000    0.000 
#
# Total GULP energy -594977.626659 kJ/mol
# GULP energy per Si atom -12395.367222 kJ/mol
# Density = 1.841644 g / cm^3
# Si number density = 18.458452 Si / 1000 Ang^3
#
#
#
# Elastic Constant Matrix: (Units=GPa)
#
#
# Indices 1 2 3 4 5 6 
#
# 1 76.5575 54.3929 48.2214 0.0000 0.0000 0.0000
# 2 54.3929 141.0502 79.1542 0.0000 0.0000 0.0000
# 3 48.2214 79.1542 108.0779 0.0000 0.0000 0.0000
# 4 0.0000 0.0000 0.0000 40.6986 0.0000 0.0000
# 5 0.0000 0.0000 0.0000 0.0000 27.0305 0.0000
# 6 0.0000 0.0000 0.0000 0.0000 0.0000 15.7589
#
#
#
# Elastic Compliance Matrix: (Units=1/GPa)
#
#
# Indices 1 2 3 4 5 6 
#
# 1 0.019739 -0.004532 -0.005487 0.000000 0.000000 0.000000
# 2 -0.004532 0.013077 -0.007555 0.000000 0.000000 0.000000
# 3 -0.005487 -0.007555 0.017234 0.000000 0.000000 0.000000
# 4 0.000000 0.000000 0.000000 0.024571 0.000000 0.000000
# 5 0.000000 0.000000 0.000000 0.000000 0.036995 0.000000
# 6 0.000000 0.000000 0.000000 0.000000 0.000000 0.063456
#
#
# Mechanical properties :
#
#
# Convention : Reuss Voigt Hill
#
# Bulk Modulus (GPa) = 67.11415 76.58030 71.84723
# Shear Modulus (GPa) = 23.23528 26.29205 24.76366
#
# Velocity S-wave (km/s) = 3.55179 3.77820 3.66675
# Velocity P-wave (km/s) = 7.29786 7.78531 7.54552
#
# Compressibility (1/GPa) = 0.01489999
#
# Stress axis : x y z
#
# Youngs Moduli (GPa) = 50.66216 76.46769 58.02345
#
# Poissons Ratio (x) = 0.34658 0.31840
# Poissons Ratio (y) = 0.22962 0.43839
# Poissons Ratio (z) = 0.27801 0.57775
#
# Static dielectric constant tensor:
#      x y z
#    x 3.417360 0.000000 0.000000 
#    y 0.000000 4.104910 0.000000 
#    z 0.000000 0.000000 3.155200 
# 
# 
# High freq. dielectric constant tensor:
#      x y z
#    x 1.725370 0.000000 0.000000 
#    y 0.000000 1.737460 0.000000 
#    z 0.000000 0.000000 1.688140 
# 
# From -- ./inp_files/6726.got.cif
#   From: 2010.03.12/outbox.cif.g09.slc.cpg/sg53_4_cif.got.tgz:6726.got - 2010.04.16 14:36:59.
