data_PCOD8219832
_publ_section_title
;
Structure prediction by ZEFSAII (Michael W. Deem and Ramdas Pophale) SiO2 
 PCOD8219832
Probable space group: P M N A
;
_chemical_formula_sum "Si O2"
_cell_formula_units_Z 52
_cell_length_a 17.421374
_cell_length_b 6.518386
_cell_length_c 24.407017
_cell_angle_alpha 90.000000
_cell_angle_beta 90.000000
_cell_angle_gamma 90.000000
_cell_volume 2771.642311
_symmetry_space_group_name_H-M "P M N A"
_symmetry_group_IT_number 53
_symmetry_cell_setting 'orthorhombic'
loop_
_space_group_symop_operation_xyz
x,y,z
1/2-x,-y,1/2+z
x,-y,-z
1/2-x,y,1/2-z
-x,-y,-z
1/2+x,y,1/2-z
-x,y,z
1/2+x,-y,1/2+z
loop_
_atom_site_type_symbol
_atom_site_label
_atom_site_fract_x
_atom_site_fract_y
_atom_site_fract_z
Si Si1 0.229052 0.885368 0.550599
Si Si2 0.204158 0.068564 0.841857
Si Si3 0.870170 0.095096 0.689167
Si Si4 0.086061 0.336837 0.794912
Si Si5 0.335408 0.266758 0.256255
Si Si6 0.586221 0.844705 0.069699
Si Si7 0.667756 0.500000 0.000000
O O1 0.281008 0.945447 0.602094
O O2 0.222672 0.642500 0.538257
O O3 0.269766 0.000000 0.500000
O O4 0.141043 0.964967 0.555049
O O5 0.282207 0.169086 0.818928
O O6 0.167140 0.910849 0.800551
O O7 0.142228 0.254706 0.843623
O O8 0.866000 0.846166 0.700260
O O9 0.909177 0.204311 0.739980
O O10 0.917075 0.164149 0.635730
O O11 0.105362 0.567035 0.777261
O O12 0.000000 0.330960 0.818288
O O13 0.250000 0.362974 0.250000
O O14 0.500000 0.885626 0.048304
O O15 0.617216 0.635448 0.041903
#
# Coordination Sequence:
#
# PCOD8219832 Si02
#       7
#     8   8   8   8   8   8   4
#     4   9  20  36  55  76  98 130 177 225 264 311
#     4   9  19  36  55  74 100 135 171 211 256 306
#     4   9  19  35  52  73 103 141 180 213 247 300
#     4  11  21  32  52  80 107 134 165 207 261 317
#     4   9  18  32  51  74 102 135 171 210 253 308
#     4  10  20  33  50  74 109 147 181 222 267 309
#     4  10  21  34  50  76 105 140 188 228 265 308
#
# _framework density 18.761437999999998
#
# number of rings (size 3 to 8) (size 9 to 14) (size 15 to 20)
#    0.000    2.462    0.000    3.000    0.000   13.846 
#    0.000    0.000    0.000    0.462    0.000    1.615 
#    0.000    0.000    0.000    0.000    0.000    0.000 
#
# Total GULP energy -644295.310806 kJ/mol
# GULP energy per Si atom -12390.294439 kJ/mol
# Density = 1.871874 g / cm^3
# Si number density = 18.761438 Si / 1000 Ang^3
#
#
#
# Elastic Constant Matrix: (Units=GPa)
#
#
# Indices 1 2 3 4 5 6 
#
# 1 97.1977 35.7760 20.6006 0.0000 0.0000 0.0000
# 2 35.7760 78.6332 21.7842 0.0000 0.0000 0.0000
# 3 20.6006 21.7842 86.8497 0.0000 0.0000 0.0000
# 4 0.0000 0.0000 0.0000 24.4968 0.0000 0.0000
# 5 0.0000 0.0000 0.0000 0.0000 5.8049 0.0000
# 6 0.0000 0.0000 0.0000 0.0000 0.0000 163.7303
#
#
#
# Elastic Compliance Matrix: (Units=1/GPa)
#
#
# Indices 1 2 3 4 5 6 
#
# 1 0.012578 -0.005262 -0.001664 0.000000 0.000000 0.000000
# 2 -0.005262 0.015868 -0.002732 0.000000 0.000000 0.000000
# 3 -0.001664 -0.002732 0.012594 0.000000 0.000000 0.000000
# 4 0.000000 0.000000 0.000000 0.040822 0.000000 0.000000
# 5 0.000000 0.000000 0.000000 0.000000 0.172268 0.000000
# 6 0.000000 0.000000 0.000000 0.000000 0.000000 0.006108
#
#
# Mechanical properties :
#
#
# Convention : Reuss Voigt Hill
#
# Bulk Modulus (GPa) = 46.02984 46.55582 46.29283
# Shear Modulus (GPa) = 17.43417 51.10772 34.27094
#
# Velocity S-wave (km/s) = 3.05168 5.22494 4.27859
# Velocity P-wave (km/s) = 6.08313 7.82742 7.00974
#
# Compressibility (1/GPa) = 0.02172504
#
# Stress axis : x y z
#
# Youngs Moduli (GPa) = 79.50672 63.01981 79.40266
#
# Poissons Ratio (x) = 0.33158 0.13210
# Poissons Ratio (y) = 0.41833 0.21694
# Poissons Ratio (z) = 0.13227 0.17218
#
# Static dielectric constant tensor:
#      x y z
#    x 3.300540 0.000000 0.000000 
#    y 0.000000 3.523660 0.000000 
#    z 0.000000 0.000000 3.850700 
# 
# 
# High freq. dielectric constant tensor:
#      x y z
#    x 1.702990 0.000000 0.000000 
#    y 0.000000 1.726170 0.000000 
#    z 0.000000 0.000000 1.722380 
# 
# From -- ./inp_files/37142.got.cif
#   From: 2010.03.12/outbox.cif.g09.slc.cpg/sg53_19_cif.got.tgz:37142.got - 2010.04.16 14:36:59.
