data_PCOD8219684
_publ_section_title
;
Structure prediction by ZEFSAII (Michael W. Deem and Ramdas Pophale) SiO2 
 PCOD8219684
Probable space group: P M N A
;
_chemical_formula_sum "Si O2"
_cell_formula_units_Z 52
_cell_length_a 9.122827
_cell_length_b 11.675201
_cell_length_c 25.868055
_cell_angle_alpha 90.000000
_cell_angle_beta 90.000000
_cell_angle_gamma 90.000000
_cell_volume 2755.228239
_symmetry_space_group_name_H-M "P M N A"
_symmetry_group_IT_number 53
_symmetry_cell_setting 'orthorhombic'
loop_
_space_group_symop_operation_xyz
x,y,z
1/2-x,-y,1/2+z
x,-y,-z
1/2-x,y,1/2-z
-x,-y,-z
1/2+x,y,1/2-z
-x,y,z
1/2+x,-y,1/2+z
loop_
_atom_site_type_symbol
_atom_site_label
_atom_site_fract_x
_atom_site_fract_y
_atom_site_fract_z
Si Si1 0.250000 0.205218 0.250000
Si Si2 0.333949 0.615633 0.666484
Si Si3 0.826890 0.875340 0.484890
Si Si4 0.326255 0.241030 0.087970
Si Si5 0.825995 0.184476 0.627800
Si Si6 0.675238 0.611964 0.198009
Si Si7 0.337959 0.051116 0.162607
O O1 0.161324 0.283485 0.209593
O O2 0.349006 0.116610 0.217327
O O3 0.500000 0.574595 0.657086
O O4 0.263178 0.652490 0.611610
O O5 0.233353 0.514536 0.687240
O O6 0.787699 0.779458 0.527989
O O7 0.763094 0.830265 0.430391
O O8 0.000000 0.889159 0.480530
O O9 0.760493 0.000000 0.500000
O O10 0.500000 0.261584 0.097014
O O11 0.264685 0.130788 0.119094
O O12 0.769716 0.302541 0.652847
O O13 0.000000 0.192301 0.627488
O O14 0.766311 0.076090 0.662345
O O15 0.750000 0.658544 0.250000
O O16 0.500000 0.607555 0.204421
O O17 0.500000 0.028668 0.141677
#
# Coordination Sequence:
#
# PCOD8219684 Si02
#       7
#     4   8   8   8   8   8   8
#     4  10  20  30  52  76 104 140 184 224 270 324
#     4  11  22  37  56  78 108 145 187 230 273 324
#     4   9  14  27  53  84 113 141 177 225 276 324
#     4   9  17  30  55  86 111 137 176 227 275 322
#     4   9  18  31  50  80 112 141 177 219 270 325
#     4  11  23  38  57  78 108 146 184 224 266 322
#     4   9  16  28  46  76 110 135 167 217 272 321
#
# _framework density 18.873211000000001
#
# number of rings (size 3 to 8) (size 9 to 14) (size 15 to 20)
#    0.000    2.308    2.308    1.385    1.077    1.231 
#    0.000    0.769    0.000    7.846    0.000    0.000 
#    0.000    0.000    0.000    0.000    0.000    0.000 
#
# Total GULP energy -644199.984716 kJ/mol
# GULP energy per Si atom -12388.461245 kJ/mol
# Density = 1.883025 g / cm^3
# Si number density = 18.873211 Si / 1000 Ang^3
#
#
#
# Elastic Constant Matrix: (Units=GPa)
#
#
# Indices 1 2 3 4 5 6 
#
# 1 59.7304 23.8006 26.7890 0.0000 0.0000 0.0000
# 2 23.8006 91.4350 72.0567 0.0000 0.0000 0.0000
# 3 26.7890 72.0567 144.5591 0.0000 0.0000 0.0000
# 4 0.0000 0.0000 0.0000 33.6917 0.0000 0.0000
# 5 0.0000 0.0000 0.0000 0.0000 19.7860 0.0000
# 6 0.0000 0.0000 0.0000 0.0000 0.0000 13.4100
#
#
#
# Elastic Compliance Matrix: (Units=1/GPa)
#
#
# Indices 1 2 3 4 5 6 
#
# 1 0.018939 -0.003564 -0.001733 0.000000 0.000000 0.000000
# 2 -0.003564 0.018683 -0.008652 0.000000 0.000000 0.000000
# 3 -0.001733 -0.008652 0.011552 0.000000 0.000000 0.000000
# 4 0.000000 0.000000 0.000000 0.029681 0.000000 0.000000
# 5 0.000000 0.000000 0.000000 0.000000 0.050541 0.000000
# 6 0.000000 0.000000 0.000000 0.000000 0.000000 0.074571
#
#
# Mechanical properties :
#
#
# Convention : Reuss Voigt Hill
#
# Bulk Modulus (GPa) = 47.00369 60.11302 53.55835
# Shear Modulus (GPa) = 20.92426 24.91611 22.92019
#
# Velocity S-wave (km/s) = 3.33329 3.63738 3.48865
# Velocity P-wave (km/s) = 6.30662 7.03994 6.68335
#
# Compressibility (1/GPa) = 0.02127493
#
# Stress axis : x y z
#
# Youngs Moduli (GPa) = 52.80001 53.52477 86.56853
#
# Poissons Ratio (x) = 0.19077 0.15004
# Poissons Ratio (y) = 0.18818 0.74901
# Poissons Ratio (z) = 0.09151 0.46311
#
# Static dielectric constant tensor:
#      x y z
#    x 2.999250 0.000000 0.000000 
#    y 0.000000 3.580380 0.000000 
#    z 0.000000 0.000000 3.722040 
# 
# 
# High freq. dielectric constant tensor:
#      x y z
#    x 1.681220 0.000000 0.000000 
#    y 0.000000 1.731660 0.000000 
#    z 0.000000 0.000000 1.737090 
# 
# From -- ./inp_files/36243.got.cif
#   From: 2010.03.12/outbox.cif.g09.slc.cpg/sg53_19_cif.got.tgz:36243.got - 2010.04.16 14:36:59.
