data_PCOD8219145
_publ_section_title
;
Structure prediction by ZEFSAII (Michael W. Deem and Ramdas Pophale) SiO2 
 PCOD8219145
Probable space group: P M N A
;
_chemical_formula_sum "Si O2"
_cell_formula_units_Z 48
_cell_length_a 9.040383
_cell_length_b 8.988126
_cell_length_c 31.002575
_cell_angle_alpha 90.000000
_cell_angle_beta 90.000000
_cell_angle_gamma 90.000000
_cell_volume 2519.148381
_symmetry_space_group_name_H-M "P M N A"
_symmetry_group_IT_number 53
_symmetry_cell_setting 'orthorhombic'
loop_
_space_group_symop_operation_xyz
x,y,z
1/2-x,-y,1/2+z
x,-y,-z
1/2-x,y,1/2-z
-x,-y,-z
1/2+x,y,1/2-z
-x,y,z
1/2+x,-y,1/2+z
loop_
_atom_site_type_symbol
_atom_site_label
_atom_site_fract_x
_atom_site_fract_y
_atom_site_fract_z
Si Si1 0.665907 0.077287 0.291615
Si Si2 0.328122 0.085411 0.123549
Si Si3 0.667471 0.431680 0.292129
Si Si4 0.172795 0.588954 0.043079
Si Si5 0.174475 0.573331 0.621355
Si Si6 0.170319 0.104476 0.540504
O O1 0.750000 0.011867 0.250000
O O2 0.500000 0.015381 0.290671
O O3 0.742566 0.020112 0.335251
O O4 0.669610 0.254480 0.290432
O O5 0.500000 0.077899 0.134739
O O6 0.282047 0.254984 0.113353
O O7 0.284834 0.986049 0.082974
O O8 0.750000 0.496497 0.250000
O O9 0.500000 0.492299 0.292938
O O10 0.752474 0.487342 0.334674
O O11 0.265234 0.521737 0.082060
O O12 0.220836 0.757772 0.035794
O O13 0.000000 0.580497 0.054105
O O14 0.212019 0.500000 0.000000
O O15 0.000000 0.550723 0.624991
O O16 0.000000 0.158068 0.542488
O O17 0.197480 0.000000 0.500000
#
# Coordination Sequence:
#
# PCOD8219145 Si02
#       6
#     8   8   8   8   8   8
#     4   9  16  26  44  71 104 140 176 215 258 304
#     4   9  18  32  52  79 108 137 174 219 263 309
#     4   9  16  27  45  73 108 142 178 219 261 307
#     4  11  24  39  55  78 108 140 175 217 265 318
#     4  10  19  33  55  80 107 141 179 220 266 313
#     4  10  21  38  59  81 105 136 175 217 262 315
#
# _framework density 19.054058000000001
#
# number of rings (size 3 to 8) (size 9 to 14) (size 15 to 20)
#    0.000    2.333    0.000    3.000    0.000    8.333 
#    0.000    0.000    0.000    1.000    0.000    2.333 
#    0.000    0.000    0.000    0.000    0.000    0.000 
#
# Total GULP energy -595322.545995 kJ/mol
# GULP energy per Si atom -12402.553042 kJ/mol
# Density = 1.901069 g / cm^3
# Si number density = 19.054058 Si / 1000 Ang^3
#
#
#
# Elastic Constant Matrix: (Units=GPa)
#
#
# Indices 1 2 3 4 5 6 
#
# 1 106.6008 31.6474 76.7220 0.0000 0.0000 0.0000
# 2 31.6474 55.6531 42.5445 0.0000 0.0000 0.0000
# 3 76.7220 42.5445 171.0636 0.0000 0.0000 0.0000
# 4 0.0000 0.0000 0.0000 23.4453 0.0000 0.0000
# 5 0.0000 0.0000 0.0000 0.0000 37.3636 0.0000
# 6 0.0000 0.0000 0.0000 0.0000 0.0000 20.7899
#
#
#
# Elastic Compliance Matrix: (Units=1/GPa)
#
#
# Indices 1 2 3 4 5 6 
#
# 1 0.014559 -0.004059 -0.005520 0.000000 0.000000 0.000000
# 2 -0.004059 0.023318 -0.003979 0.000000 0.000000 0.000000
# 3 -0.005520 -0.003979 0.009311 0.000000 0.000000 0.000000
# 4 0.000000 0.000000 0.000000 0.042652 0.000000 0.000000
# 5 0.000000 0.000000 0.000000 0.000000 0.026764 0.000000
# 6 0.000000 0.000000 0.000000 0.000000 0.000000 0.048100
#
#
# Mechanical properties :
#
#
# Convention : Reuss Voigt Hill
#
# Bulk Modulus (GPa) = 49.82035 70.57170 60.19602
# Shear Modulus (GPa) = 25.18746 28.48001 26.83374
#
# Velocity S-wave (km/s) = 3.63973 3.87032 3.75680
# Velocity P-wave (km/s) = 6.62323 7.55583 7.10485
#
# Compressibility (1/GPa) = 0.02007212
#
# Stress axis : x y z
#
# Youngs Moduli (GPa) = 68.68755 42.88469 107.39848
#
# Poissons Ratio (x) = 0.17407 0.59285
# Poissons Ratio (y) = 0.27880 0.42733
# Poissons Ratio (z) = 0.37916 0.17064
#
# Static dielectric constant tensor:
#      x y z
#    x 3.589380 0.000000 0.000000 
#    y 0.000000 3.096760 0.000000 
#    z 0.000000 0.000000 3.690670 
# 
# 
# High freq. dielectric constant tensor:
#      x y z
#    x 1.749360 0.000000 0.000000 
#    y 0.000000 1.698520 0.000000 
#    z 0.000000 0.000000 1.760570 
# 
# From -- ./inp_files/37675.got.cif
#   From: 2010.03.12/outbox.cif.g09.slc.cpg/sg53_19_cif.got.tgz:37675.got - 2010.04.16 14:36:59.
