data_PCOD8219803
_publ_section_title
;
Structure prediction by ZEFSAII (Michael W. Deem and Ramdas Pophale) SiO2 
 PCOD8219803
Probable space group: P M N A
;
_chemical_formula_sum "Si O2"
_cell_formula_units_Z 64
_cell_length_a 8.710628
_cell_length_b 15.006295
_cell_length_c 29.503434
_cell_angle_alpha 90.000000
_cell_angle_beta 90.000000
_cell_angle_gamma 90.000000
_cell_volume 3856.519348
_symmetry_space_group_name_H-M "P M N A"
_symmetry_group_IT_number 53
_symmetry_cell_setting 'orthorhombic'
loop_
_space_group_symop_operation_xyz
x,y,z
1/2-x,-y,1/2+z
x,-y,-z
1/2-x,y,1/2-z
-x,-y,-z
1/2+x,y,1/2-z
-x,y,z
1/2+x,-y,1/2+z
loop_
_atom_site_type_symbol
_atom_site_label
_atom_site_fract_x
_atom_site_fract_y
_atom_site_fract_z
Si Si1 0.819326 0.536519 0.891309
Si Si2 0.178791 0.217189 0.884700
Si Si3 0.680312 0.321448 0.044279
Si Si4 0.178150 0.054473 0.940149
Si Si5 0.820110 0.369511 0.557246
Si Si6 0.821990 0.492815 0.702362
Si Si7 0.181861 0.132671 0.033877
Si Si8 0.178309 0.284417 0.703212
O O1 0.769100 0.625081 0.917156
O O2 0.764915 0.451328 0.919539
O O3 0.752515 0.541803 0.840474
O O4 0.000000 0.532070 0.886925
O O5 0.214642 0.113616 0.896052
O O6 0.277472 0.278878 0.917601
O O7 0.228715 0.229094 0.833487
O O8 0.000000 0.240140 0.891438
O O9 0.500000 0.332560 0.051736
O O10 0.726485 0.218877 0.050147
O O11 0.728613 0.360494 0.995193
O O12 0.000000 0.046541 0.950621
O O13 0.233901 0.951974 0.934637
O O14 0.243147 0.106885 0.983831
O O15 0.000000 0.386853 0.562478
O O16 0.750000 0.525291 0.750000
O O17 0.792273 0.388374 0.695134
O O18 0.000000 0.516281 0.703971
O O19 0.000000 0.153361 0.035930
O O20 0.250000 0.252482 0.750000
O O21 0.000000 0.260383 0.701197
#
# Coordination Sequence:
#
# PCOD8219803 Si02
#       8
#     8   8   8   8   8   8   8   8
#     4  12  24  36  53  74  98 135 178 213 253 305
#     4  11  19  30  51  76 102 135 172 207 248 302
#     4  11  23  36  50  71 103 138 174 217 261 300
#     4   8  16  29  50  75 100 130 166 208 249 293
#     4  11  22  35  48  69 103 140 173 211 253 297
#     4  10  20  35  54  75 103 132 165 209 255 300
#     4   9  16  32  52  72  98 131 171 210 248 294
#     4  10  20  33  50  72 101 134 166 207 254 300
#
# _framework density 16.595275000000001
#
# number of rings (size 3 to 8) (size 9 to 14) (size 15 to 20)
#    0.000    1.750    2.500    4.125    0.000    4.000 
#    0.000    2.500    0.000    0.000    0.000    0.875 
#    0.000    2.000    0.000    0.000    0.000    0.000 
#
# Total GULP energy -793521.937308 kJ/mol
# GULP energy per Si atom -12398.780270 kJ/mol
# Density = 1.655750 g / cm^3
# Si number density = 16.595275 Si / 1000 Ang^3
#
#
#
# Elastic Constant Matrix: (Units=GPa)
#
#
# Indices 1 2 3 4 5 6 
#
# 1 67.8328 36.1937 47.7670 0.0000 0.0000 0.0000
# 2 36.1937 93.0477 58.4473 0.0000 0.0000 0.0000
# 3 47.7670 58.4473 126.0282 0.0000 0.0000 0.0000
# 4 0.0000 0.0000 0.0000 23.3100 0.0000 0.0000
# 5 0.0000 0.0000 0.0000 0.0000 27.5556 0.0000
# 6 0.0000 0.0000 0.0000 0.0000 0.0000 14.7158
#
#
#
# Elastic Compliance Matrix: (Units=1/GPa)
#
#
# Indices 1 2 3 4 5 6 
#
# 1 0.021396 -0.004556 -0.005997 0.000000 0.000000 0.000000
# 2 -0.004556 0.016135 -0.005756 0.000000 0.000000 0.000000
# 3 -0.005997 -0.005756 0.012877 0.000000 0.000000 0.000000
# 4 0.000000 0.000000 0.000000 0.042900 0.000000 0.000000
# 5 0.000000 0.000000 0.000000 0.000000 0.036290 0.000000
# 6 0.000000 0.000000 0.000000 0.000000 0.000000 0.067954
#
#
# Mechanical properties :
#
#
# Convention : Reuss Voigt Hill
#
# Bulk Modulus (GPa) = 56.20892 63.52498 59.86695
# Shear Modulus (GPa) = 21.17755 22.74966 21.96361
#
# Velocity S-wave (km/s) = 3.57616 3.70652 3.64192
# Velocity P-wave (km/s) = 7.14114 7.52860 7.33742
#
# Compressibility (1/GPa) = 0.01779077
#
# Stress axis : x y z
#
# Youngs Moduli (GPa) = 46.73846 61.97735 77.65796
#
# Poissons Ratio (x) = 0.28236 0.46568
# Poissons Ratio (y) = 0.21293 0.44700
# Poissons Ratio (z) = 0.28027 0.35675
#
# Static dielectric constant tensor:
#      x y z
#    x 3.138450 0.000000 0.000000 
#    y 0.000000 3.126550 0.000000 
#    z 0.000000 0.000000 3.121580 
# 
# 
# High freq. dielectric constant tensor:
#      x y z
#    x 1.643720 0.000000 0.000000 
#    y 0.000000 1.623090 0.000000 
#    z 0.000000 0.000000 1.629100 
# 
# From -- ./inp_files/38461.got.cif
#   From: 2010.03.12/outbox.cif.g09.slc.cpg/sg53_20_cif.got.tgz:38461.got - 2010.04.16 14:36:59.
