data_PCOD8219103
_publ_section_title
;
Structure prediction by ZEFSAII (Michael W. Deem and Ramdas Pophale) SiO2 
 PCOD8219103
Probable space group: P M N A
;
_chemical_formula_sum "Si O2"
_cell_formula_units_Z 64
_cell_length_a 8.756469
_cell_length_b 11.449402
_cell_length_c 33.637219
_cell_angle_alpha 90.000000
_cell_angle_beta 90.000000
_cell_angle_gamma 90.000000
_cell_volume 3372.344252
_symmetry_space_group_name_H-M "P M N A"
_symmetry_group_IT_number 53
_symmetry_cell_setting 'orthorhombic'
loop_
_space_group_symop_operation_xyz
x,y,z
1/2-x,-y,1/2+z
x,-y,-z
1/2-x,y,1/2-z
-x,-y,-z
1/2+x,y,1/2-z
-x,y,z
1/2+x,-y,1/2+z
loop_
_atom_site_type_symbol
_atom_site_label
_atom_site_fract_x
_atom_site_fract_y
_atom_site_fract_z
Si Si1 0.173237 0.962755 0.560958
Si Si2 0.319719 0.624025 0.898982
Si Si3 0.318920 0.773006 0.054107
Si Si4 0.818741 0.626793 0.371233
Si Si5 0.178711 0.000097 0.209334
Si Si6 0.820820 0.738884 0.973299
Si Si7 0.672055 0.854941 0.855231
Si Si8 0.318337 0.249129 0.792059
O O1 0.277669 0.871709 0.537593
O O2 0.179258 0.942429 0.607843
O O3 0.000000 0.946577 0.545265
O O4 0.234789 0.092512 0.553131
O O5 0.500000 0.623508 0.906354
O O6 0.258594 0.503396 0.880448
O O7 0.243592 0.646653 0.941572
O O8 0.274945 0.725899 0.868181
O O9 0.500000 0.762679 0.052050
O O10 0.256804 0.713287 0.094487
O O11 0.247211 0.706726 0.016386
O O12 0.760630 0.666690 0.327669
O O13 0.000000 0.628582 0.371351
O O14 0.250000 0.047761 0.250000
O O15 0.261026 0.880070 0.197216
O O16 0.000000 0.976813 0.214204
O O17 0.208758 0.099765 0.177043
O O18 0.000000 0.725676 0.974693
O O19 0.500000 0.852665 0.837744
O O20 0.250000 0.293082 0.750000
O O21 0.500000 0.247528 0.788711
#
# Coordination Sequence:
#
# PCOD8219103 Si02
#       8
#     8   8   8   8   8   8   8   8
#     4   9  18  33  54  77 102 136 174 213 260 317
#     4   9  19  38  59  75  97 137 183 219 254 304
#     4  10  19  33  54  78 103 135 177 219 258 307
#     4   9  19  36  59  81 101 134 181 222 252 299
#     4  11  21  33  52  79 110 140 170 206 254 312
#     4  11  22  34  49  74 108 141 173 217 269 312
#     4   9  17  32  54  77 102 132 169 215 262 306
#     4  10  19  35  58  84 112 138 168 208 258 311
#
# _framework density 18.977896999999999
#
# number of rings (size 3 to 8) (size 9 to 14) (size 15 to 20)
#    0.000    2.250    0.000    5.250    0.000    6.500 
#    0.000    7.500    0.000    1.500    0.000    0.000 
#    0.000    0.000    0.000    0.000    0.000    0.000 
#
# Total GULP energy -793643.619169 kJ/mol
# GULP energy per Si atom -12400.681550 kJ/mol
# Density = 1.893470 g / cm^3
# Si number density = 18.977897 Si / 1000 Ang^3
#
#
#
# Elastic Constant Matrix: (Units=GPa)
#
#
# Indices 1 2 3 4 5 6 
#
# 1 67.6089 25.7298 42.0005 0.0000 0.0000 0.0000
# 2 25.7298 80.8213 68.4644 0.0000 0.0000 0.0000
# 3 42.0005 68.4644 151.1516 0.0000 0.0000 0.0000
# 4 0.0000 0.0000 0.0000 -19.4214 0.0000 0.0000
# 5 0.0000 0.0000 0.0000 0.0000 27.9006 0.0000
# 6 0.0000 0.0000 0.0000 0.0000 0.0000 15.4878
#
#
#
# Elastic Compliance Matrix: (Units=1/GPa)
#
#
# Indices 1 2 3 4 5 6 
#
# 1 0.018170 -0.002446 -0.003941 0.000000 0.000000 0.000000
# 2 -0.002446 0.020406 -0.008563 0.000000 0.000000 0.000000
# 3 -0.003941 -0.008563 0.011590 0.000000 0.000000 0.000000
# 4 0.000000 0.000000 0.000000 -0.051490 0.000000 0.000000
# 5 0.000000 0.000000 0.000000 0.000000 0.035842 0.000000
# 6 0.000000 0.000000 0.000000 0.000000 0.000000 0.064567
#
#
# Mechanical properties :
#
#
# Convention : Reuss Voigt Hill
#
# Bulk Modulus (GPa) = 49.34610 63.55238 56.44924
# Shear Modulus (GPa) = 36.83537 15.68588 26.26062
#
# Velocity S-wave (km/s) = 4.41041 2.87807 3.72391
# Velocity P-wave (km/s) = 7.21069 6.67867 6.94977
#
# Compressibility (1/GPa) = 0.02026502
#
# Stress axis : x y z
#
# Youngs Moduli (GPa) = 55.03553 49.00636 86.28436
#
# Poissons Ratio (x) = 0.11987 0.34004
# Poissons Ratio (y) = 0.13462 0.73885
# Poissons Ratio (z) = 0.21689 0.41964
#
# Static dielectric constant tensor:
#      x y z
#    x 3.221370 0.000000 0.000000 
#    y 0.000000 3.505910 0.000000 
#    z 0.000000 0.000000 2.027670 
# 
# 
# High freq. dielectric constant tensor:
#      x y z
#    x 1.716950 0.000000 0.000000 
#    y 0.000000 1.727140 0.000000 
#    z 0.000000 0.000000 1.745690 
# 
# From -- ./inp_files/38155.got.cif
#   From: 2010.03.12/outbox.cif.g09.slc.cpg/sg53_20_cif.got.tgz:38155.got - 2010.04.16 14:36:59.
