data_PCOD8219673
_publ_section_title
;
Structure prediction by ZEFSAII (Michael W. Deem and Ramdas Pophale) SiO2 
 PCOD8219673
Probable space group: P M N A
;
_chemical_formula_sum "Si O2"
_cell_formula_units_Z 48
_cell_length_a 17.846118
_cell_length_b 9.073987
_cell_length_c 13.769805
_cell_angle_alpha 90.000000
_cell_angle_beta 90.000000
_cell_angle_gamma 90.000000
_cell_volume 2229.819469
_symmetry_space_group_name_H-M "P M N A"
_symmetry_group_IT_number 53
_symmetry_cell_setting 'orthorhombic'
loop_
_space_group_symop_operation_xyz
x,y,z
1/2-x,-y,1/2+z
x,-y,-z
1/2-x,y,1/2-z
-x,-y,-z
1/2+x,y,1/2-z
-x,y,z
1/2+x,-y,1/2+z
loop_
_atom_site_type_symbol
_atom_site_label
_atom_site_fract_x
_atom_site_fract_y
_atom_site_fract_z
Si Si1 0.915986 0.025354 0.754975
Si Si2 0.186025 0.880506 0.075310
Si Si3 0.086510 0.859561 0.563943
Si Si4 0.587716 0.371265 0.565719
Si Si5 0.416911 0.355711 0.785621
Si Si6 0.189531 0.353987 0.548273
O O1 0.847424 0.032268 0.831770
O O2 0.918940 0.179930 0.698177
O O3 0.000000 0.999917 0.801195
O O4 0.898015 0.897576 0.677300
O O5 0.118460 0.785768 0.028283
O O6 0.251006 0.760090 0.095972
O O7 0.217088 0.000000 0.000000
O O8 0.138918 0.724510 0.533374
O O9 0.000000 0.814715 0.548061
O O10 0.108002 0.000000 0.500000
O O11 0.622132 0.500000 0.500000
O O12 0.500000 0.362781 0.554536
O O13 0.611980 0.395614 0.677545
O O14 0.500000 0.422627 0.801252
O O15 0.360934 0.420497 0.864919
O O16 0.227344 0.500000 0.500000
#
# Coordination Sequence:
#
# PCOD8219673 Si02
#       6
#     8   8   8   8   8   8
#     4   9  19  38  68  95 116 156 213 266 320 375
#     4  11  24  41  61  89 124 167 214 264 319 380
#     4  10  19  38  67  94 123 158 209 270 317 376
#     4   9  19  39  66  91 121 162 213 266 318 378
#     4   9  18  36  63  90 117 164 214 254 313 376
#     4  12  25  40  58  90 133 173 213 255 321 395
#
# _framework density 21.526406000000001
#
# number of rings (size 3 to 8) (size 9 to 14) (size 15 to 20)
#    0.000    2.000    1.667    3.000    0.000    5.333 
#    3.000    0.000    0.000    0.000    0.000    0.000 
#    0.000    0.000    0.000    0.000    0.000    0.000 
#
# Total GULP energy -594860.361916 kJ/mol
# GULP energy per Si atom -12392.924207 kJ/mol
# Density = 2.147741 g / cm^3
# Si number density = 21.526406 Si / 1000 Ang^3
#
#
#
# Elastic Constant Matrix: (Units=GPa)
#
#
# Indices 1 2 3 4 5 6 
#
# 1 95.9076 31.4588 59.1064 0.0000 0.0000 0.0000
# 2 31.4588 72.4070 47.1378 0.0000 0.0000 0.0000
# 3 59.1064 47.1378 87.3312 0.0000 0.0000 0.0000
# 4 0.0000 0.0000 0.0000 35.7570 0.0000 0.0000
# 5 0.0000 0.0000 0.0000 0.0000 20.5821 0.0000
# 6 0.0000 0.0000 0.0000 0.0000 0.0000 18.1336
#
#
#
# Elastic Compliance Matrix: (Units=1/GPa)
#
#
# Indices 1 2 3 4 5 6 
#
# 1 0.017889 0.000169 -0.012199 0.000000 0.000000 0.000000
# 2 0.000169 0.021295 -0.011609 0.000000 0.000000 0.000000
# 3 -0.012199 -0.011609 0.025973 0.000000 0.000000 0.000000
# 4 0.000000 0.000000 0.000000 0.027967 0.000000 0.000000
# 5 0.000000 0.000000 0.000000 0.000000 0.048586 0.000000
# 6 0.000000 0.000000 0.000000 0.000000 0.000000 0.055146
#
#
# Mechanical properties :
#
#
# Convention : Reuss Voigt Hill
#
# Bulk Modulus (GPa) = 55.92762 59.00577 57.46669
# Shear Modulus (GPa) = 19.99267 22.75739 21.37503
#
# Velocity S-wave (km/s) = 3.05085 3.25497 3.15456
# Velocity P-wave (km/s) = 6.20061 6.44956 6.32631
#
# Compressibility (1/GPa) = 0.01788025
#
# Stress axis : x y z
#
# Youngs Moduli (GPa) = 55.89968 46.96035 38.50185
#
# Poissons Ratio (x) = -0.00795 0.46968
# Poissons Ratio (y) = -0.00946 0.44695
# Poissons Ratio (z) = 0.68192 0.54514
#
# Static dielectric constant tensor:
#      x y z
#    x 3.960930 0.000000 0.000000 
#    y 0.000000 3.759730 0.000000 
#    z 0.000000 0.000000 3.819710 
# 
# 
# High freq. dielectric constant tensor:
#      x y z
#    x 1.851990 0.000000 0.000000 
#    y 0.000000 1.818440 0.000000 
#    z 0.000000 0.000000 1.831380 
# 
# From -- ./inp_files/23636.got.cif
#   From: 2010.03.12/outbox.cif.g09.slc.cpg/sg53_12_cif.got.tgz:23636.got - 2010.04.16 14:36:59.
