data_PCOD8219714
_publ_section_title
;
Structure prediction by ZEFSAII (Michael W. Deem and Ramdas Pophale) SiO2 
 PCOD8219714
Probable space group: P M N A
;
_chemical_formula_sum "Si O2"
_cell_formula_units_Z 64
_cell_length_a 9.348289
_cell_length_b 20.165995
_cell_length_c 19.483977
_cell_angle_alpha 90.000000
_cell_angle_beta 90.000000
_cell_angle_gamma 90.000000
_cell_volume 3673.071593
_symmetry_space_group_name_H-M "P M N A"
_symmetry_group_IT_number 53
_symmetry_cell_setting 'orthorhombic'
loop_
_space_group_symop_operation_xyz
x,y,z
1/2-x,-y,1/2+z
x,-y,-z
1/2-x,y,1/2-z
-x,-y,-z
1/2+x,y,1/2-z
-x,y,z
1/2+x,-y,1/2+z
loop_
_atom_site_type_symbol
_atom_site_label
_atom_site_fract_x
_atom_site_fract_y
_atom_site_fract_z
Si Si1 0.330810 0.789455 0.426096
Si Si2 0.169781 0.838560 0.929440
Si Si3 0.330091 0.099325 0.678233
Si Si4 0.166535 0.641863 0.054592
Si Si5 0.163340 0.394060 0.100624
Si Si6 0.161636 0.517157 0.420266
Si Si7 0.333237 0.735523 0.681362
Si Si8 0.169287 0.014001 0.075565
O O1 0.500000 0.789237 0.433838
O O2 0.266059 0.822566 0.495173
O O3 0.285144 0.832558 0.360182
O O4 0.278389 0.713395 0.418591
O O5 0.229484 0.785501 0.875507
O O6 0.216123 0.911637 0.904028
O O7 0.000000 0.833187 0.933635
O O8 0.250000 0.096739 0.750000
O O9 0.500000 0.095814 0.690407
O O10 0.273673 0.037800 0.632116
O O11 0.256229 0.585780 0.094520
O O12 0.000000 0.630554 0.070983
O O13 0.196236 0.638021 0.973354
O O14 0.261786 0.456872 0.119152
O O15 0.195754 0.339392 0.157801
O O16 0.000000 0.418476 0.102733
O O17 0.167872 0.500000 0.500000
O O18 0.000000 0.523922 0.393377
O O19 0.250000 0.750815 0.750000
O O20 0.500000 0.748347 0.693818
O O21 0.000000 0.005726 0.071802
O O22 0.233652 0.000000 0.000000
#
# Coordination Sequence:
#
# PCOD8219714 Si02
#       8
#     8   8   8   8   8   8   8   8
#     4   9  15  27  50  75  97 125 167 213 247 281
#     4   9  15  27  48  74  98 123 167 218 249 278
#     4  10  20  33  51  77 105 133 165 204 251 299
#     4   9  15  26  47  72  92 117 160 210 247 279
#     4   9  16  28  46  66  90 123 162 203 243 285
#     4   9  17  27  41  67 100 126 149 189 246 300
#     4  10  20  32  47  69  99 132 166 206 252 299
#     4   9  15  26  49  78 101 126 168 215 247 278
#
# _framework density 17.424109000000001
#
# number of rings (size 3 to 8) (size 9 to 14) (size 15 to 20)
#    0.000    2.750    2.500    0.375    0.000    2.500 
#    0.000    0.625    0.000    1.875    0.000    1.750 
#    0.000    0.000    0.000    0.000    0.000    0.000 
#
# Total GULP energy -793384.841420 kJ/mol
# GULP energy per Si atom -12396.638147 kJ/mol
# Density = 1.738445 g / cm^3
# Si number density = 17.424109 Si / 1000 Ang^3
#
#
#
# Elastic Constant Matrix: (Units=GPa)
#
#
# Indices 1 2 3 4 5 6 
#
# 1 46.8478 44.9524 32.8679 0.0000 0.0000 0.0000
# 2 44.9524 153.6883 62.4947 0.0000 0.0000 0.0000
# 3 32.8679 62.4947 107.0843 0.0000 0.0000 0.0000
# 4 0.0000 0.0000 0.0000 19.3451 0.0000 0.0000
# 5 0.0000 0.0000 0.0000 0.0000 22.6225 0.0000
# 6 0.0000 0.0000 0.0000 0.0000 0.0000 10.3389
#
#
#
# Elastic Compliance Matrix: (Units=1/GPa)
#
#
# Indices 1 2 3 4 5 6 
#
# 1 0.032161 -0.007071 -0.005745 0.000000 0.000000 0.000000
# 2 -0.007071 0.010086 -0.003716 0.000000 0.000000 0.000000
# 3 -0.005745 -0.003716 0.013270 0.000000 0.000000 0.000000
# 4 0.000000 0.000000 0.000000 0.051693 0.000000 0.000000
# 5 0.000000 0.000000 0.000000 0.000000 0.044204 0.000000
# 6 0.000000 0.000000 0.000000 0.000000 0.000000 0.096722
#
#
# Mechanical properties :
#
#
# Convention : Reuss Voigt Hill
#
# Bulk Modulus (GPa) = 44.53506 65.36116 54.94811
# Shear Modulus (GPa) = 17.32001 21.61498 19.46750
#
# Velocity S-wave (km/s) = 3.15624 3.52592 3.34619
# Velocity P-wave (km/s) = 6.23678 7.36000 6.82154
#
# Compressibility (1/GPa) = 0.02245422
#
# Stress axis : x y z
#
# Youngs Moduli (GPa) = 31.09369 99.14950 75.35631
#
# Poissons Ratio (x) = 0.70106 0.43291
# Poissons Ratio (y) = 0.21986 0.28001
# Poissons Ratio (z) = 0.17863 0.36842
#
# Static dielectric constant tensor:
#      x y z
#    x 2.857950 0.000000 0.000000 
#    y 0.000000 3.540480 0.000000 
#    z 0.000000 0.000000 2.995400 
# 
# 
# High freq. dielectric constant tensor:
#      x y z
#    x 1.627250 0.000000 0.000000 
#    y 0.000000 1.691900 0.000000 
#    z 0.000000 0.000000 1.644670 
# 
# From -- ./inp_files/26838.got.cif
#   From: 2010.03.12/outbox.cif.g09.slc.cpg/sg53_14_cif.got.tgz:26838.got - 2010.04.16 14:36:59.
