data_PCOD8219034
_publ_section_title
;
Structure prediction by ZEFSAII (Michael W. Deem and Ramdas Pophale) SiO2 
 PCOD8219034
Probable space group: P M N A
;
_chemical_formula_sum "Si O2"
_cell_formula_units_Z 40
_cell_length_a 8.720359
_cell_length_b 12.610850
_cell_length_c 21.174797
_cell_angle_alpha 90.000000
_cell_angle_beta 90.000000
_cell_angle_gamma 90.000000
_cell_volume 2328.616550
_symmetry_space_group_name_H-M "P M N A"
_symmetry_group_IT_number 53
_symmetry_cell_setting 'orthorhombic'
loop_
_space_group_symop_operation_xyz
x,y,z
1/2-x,-y,1/2+z
x,-y,-z
1/2-x,y,1/2-z
-x,-y,-z
1/2+x,y,1/2-z
-x,y,z
1/2+x,-y,1/2+z
loop_
_atom_site_type_symbol
_atom_site_label
_atom_site_fract_x
_atom_site_fract_y
_atom_site_fract_z
Si Si1 0.820236 0.250820 0.181598
Si Si2 0.680400 0.575313 0.581563
Si Si3 0.318692 0.921261 0.586451
Si Si4 0.181151 0.852165 0.050698
Si Si5 0.180637 0.635761 0.449824
O O1 0.750000 0.258547 0.250000
O O2 0.778212 0.357273 0.143462
O O3 0.752226 0.148152 0.144361
O O4 0.000000 0.238125 0.189185
O O5 0.500000 0.576940 0.567374
O O6 0.739144 0.455552 0.592195
O O7 0.765336 0.627010 0.522039
O O8 0.500000 0.909979 0.584159
O O9 0.258540 0.874378 0.520225
O O10 0.274064 0.045398 0.593485
O O11 0.268787 0.749674 0.077858
O O12 0.000000 0.830990 0.052232
O O13 0.000000 0.621374 0.445232
#
# Coordination Sequence:
#
# PCOD8219034 Si02
#       5
#     8   8   8   8   8
#     4  10  20  34  52  74  99 130 166 203 243 289
#     4  10  19  33  51  69  95 133 174 200 235 300
#     4   8  15  29  50  73  95 126 169 204 232 283
#     4   9  15  29  52  72  96 129 164 202 241 292
#     4  11  20  29  46  75 107 128 154 206 262 294
#
# _framework density 17.177579999999999
#
# number of rings (size 3 to 8) (size 9 to 14) (size 15 to 20)
#    0.000    2.400    2.000    4.800    0.000    1.600 
#    0.000    3.000    0.000    1.200    0.000    2.800 
#    0.000    0.000    0.000    0.000    0.000    0.000 
#
# Total GULP energy -495824.872190 kJ/mol
# GULP energy per Si atom -12395.621805 kJ/mol
# Density = 1.713848 g / cm^3
# Si number density = 17.177580 Si / 1000 Ang^3
#
#
#
# Elastic Constant Matrix: (Units=GPa)
#
#
# Indices 1 2 3 4 5 6 
#
# 1 44.4889 35.2769 22.8397 0.0000 0.0000 0.0000
# 2 35.2769 164.1676 59.6320 0.0000 0.0000 0.0000
# 3 22.8397 59.6320 95.0963 0.0000 0.0000 0.0000
# 4 0.0000 0.0000 0.0000 21.0592 0.0000 0.0000
# 5 0.0000 0.0000 0.0000 0.0000 21.1159 0.0000
# 6 0.0000 0.0000 0.0000 0.0000 0.0000 13.9140
#
#
#
# Elastic Compliance Matrix: (Units=1/GPa)
#
#
# Indices 1 2 3 4 5 6 
#
# 1 0.028138 -0.004651 -0.003841 0.000000 0.000000 0.000000
# 2 -0.004651 0.008657 -0.004311 0.000000 0.000000 0.000000
# 3 -0.003841 -0.004311 0.014142 0.000000 0.000000 0.000000
# 4 0.000000 0.000000 0.000000 0.047485 0.000000 0.000000
# 5 0.000000 0.000000 0.000000 0.000000 0.047358 0.000000
# 6 0.000000 0.000000 0.000000 0.000000 0.000000 0.071870
#
#
# Mechanical properties :
#
#
# Convention : Reuss Voigt Hill
#
# Bulk Modulus (GPa) = 39.48105 59.91667 49.69886
# Shear Modulus (GPa) = 19.86494 23.61808 21.74151
#
# Velocity S-wave (km/s) = 3.40434 3.71204 3.56152
# Velocity P-wave (km/s) = 6.20377 7.30265 6.77552
#
# Compressibility (1/GPa) = 0.02532861
#
# Stress axis : x y z
#
# Youngs Moduli (GPa) = 35.53971 115.51611 70.71224
#
# Poissons Ratio (x) = 0.53726 0.27164
# Poissons Ratio (y) = 0.16529 0.30487
# Poissons Ratio (z) = 0.13652 0.49803
#
# Static dielectric constant tensor:
#      x y z
#    x 2.998010 0.000000 0.000000 
#    y 0.000000 3.681390 0.000000 
#    z 0.000000 0.000000 3.066740 
# 
# 
# High freq. dielectric constant tensor:
#      x y z
#    x 1.646190 0.000000 0.000000 
#    y 0.000000 1.685360 0.000000 
#    z 0.000000 0.000000 1.613140 
# 
# From -- ./inp_files/30446.got.cif
#   From: 2010.03.12/outbox.cif.g09.slc.cpg/sg53_16_cif.got.tgz:30446.got - 2010.04.16 14:36:59.
