data_PCOD8219982
_publ_section_title
;
Structure prediction by ZEFSAII (Michael W. Deem and Ramdas Pophale) SiO2 
 PCOD8219982
Probable space group: P M N A
;
_chemical_formula_sum "Si O2"
_cell_formula_units_Z 56
_cell_length_a 8.656271
_cell_length_b 13.848749
_cell_length_c 20.693972
_cell_angle_alpha 90.000000
_cell_angle_beta 90.000000
_cell_angle_gamma 90.000000
_cell_volume 2480.762826
_symmetry_space_group_name_H-M "P M N A"
_symmetry_group_IT_number 53
_symmetry_cell_setting 'orthorhombic'
loop_
_space_group_symop_operation_xyz
x,y,z
1/2-x,-y,1/2+z
x,-y,-z
1/2-x,y,1/2-z
-x,-y,-z
1/2+x,y,1/2-z
-x,y,z
1/2+x,-y,1/2+z
loop_
_atom_site_type_symbol
_atom_site_label
_atom_site_fract_x
_atom_site_fract_y
_atom_site_fract_z
Si Si1 0.323459 0.762832 0.940472
Si Si2 0.181982 0.238745 0.184118
Si Si3 0.821175 0.354735 0.633796
Si Si4 0.817585 0.540459 0.815759
Si Si5 0.678782 0.082899 0.952062
Si Si6 0.821745 0.609070 0.009768
Si Si7 0.683638 0.160767 0.680832
O O1 0.500000 0.734863 0.928387
O O2 0.257655 0.818161 0.876687
O O3 0.300873 0.821955 0.005703
O O4 0.214754 0.666537 0.943726
O O5 0.250000 0.194210 0.250000
O O6 0.240452 0.349878 0.176854
O O7 0.000000 0.226524 0.184621
O O8 0.747801 0.462588 0.634141
O O9 0.791414 0.333100 0.558691
O O10 0.736421 0.272712 0.675587
O O11 0.000000 0.353505 0.652762
O O12 0.750000 0.496730 0.750000
O O13 0.000000 0.536898 0.817959
O O14 0.500000 0.059461 0.936990
O O15 0.759703 0.097708 0.881702
O O16 0.748144 0.000000 0.000000
O O17 0.000000 0.618234 0.030334
O O18 0.771691 0.500000 0.000000
O O19 0.750000 0.121214 0.750000
O O20 0.500000 0.154710 0.682959
#
# Coordination Sequence:
#
# PCOD8219982 Si02
#       7
#     8   8   8   8   8   8   8
#     4  11  22  38  63  92 124 163 208 260 319 382
#     4  10  21  37  58  84 120 164 214 268 320 377
#     4  12  23  36  55  84 123 167 217 268 323 383
#     4  10  20  34  51  76 113 161 211 261 315 371
#     4  10  23  46  73 101 133 169 211 264 328 397
#     4  11  23  37  55  84 125 171 217 266 318 375
#     4  12  25  43  69  99 134 171 214 268 329 397
#
# _framework density 22.573699999999999
#
# number of rings (size 3 to 8) (size 9 to 14) (size 15 to 20)
#    0.000    1.143    1.429    5.571    0.000    7.143 
#    0.000    0.714    0.000    0.000    0.000    0.000 
#    0.000    0.000    0.000    0.000    0.000    0.000 
#
# Total GULP energy -693890.230291 kJ/mol
# GULP energy per Si atom -12390.896969 kJ/mol
# Density = 2.252232 g / cm^3
# Si number density = 22.573700 Si / 1000 Ang^3
#
#
#
# Elastic Constant Matrix: (Units=GPa)
#
#
# Indices 1 2 3 4 5 6 
#
# 1 127.8452 29.5450 53.5632 0.0000 0.0000 0.0000
# 2 29.5450 28.1756 14.5215 0.0000 0.0000 0.0000
# 3 53.5632 14.5215 151.8578 0.0000 0.0000 0.0000
# 4 0.0000 0.0000 0.0000 28.2324 0.0000 0.0000
# 5 0.0000 0.0000 0.0000 0.0000 43.0845 0.0000
# 6 0.0000 0.0000 0.0000 0.0000 0.0000 19.7080
#
#
#
# Elastic Compliance Matrix: (Units=1/GPa)
#
#
# Indices 1 2 3 4 5 6 
#
# 1 0.011536 -0.010518 -0.003063 0.000000 0.000000 0.000000
# 2 -0.010518 0.046921 -0.000777 0.000000 0.000000 0.000000
# 3 -0.003063 -0.000777 0.007740 0.000000 0.000000 0.000000
# 4 0.000000 0.000000 0.000000 0.035420 0.000000 0.000000
# 5 0.000000 0.000000 0.000000 0.000000 0.023210 0.000000
# 6 0.000000 0.000000 0.000000 0.000000 0.000000 0.050741
#
#
# Mechanical properties :
#
#
# Convention : Reuss Voigt Hill
#
# Bulk Modulus (GPa) = 26.68022 55.90422 41.29222
# Shear Modulus (GPa) = 23.06502 32.22158 27.64330
#
# Velocity S-wave (km/s) = 3.19997 3.78219 3.50320
# Velocity P-wave (km/s) = 5.04955 6.62512 5.89025
#
# Compressibility (1/GPa) = 0.03748095
#
# Stress axis : x y z
#
# Youngs Moduli (GPa) = 86.68477 21.31223 129.20130
#
# Poissons Ratio (x) = 0.22416 0.39577
# Poissons Ratio (y) = 0.91175 0.10039
# Poissons Ratio (z) = 0.26553 0.01656
#
# Static dielectric constant tensor:
#      x y z
#    x 3.837490 0.000000 0.000000 
#    y 0.000000 3.838540 0.000000 
#    z 0.000000 0.000000 4.557410 
# 
# 
# High freq. dielectric constant tensor:
#      x y z
#    x 1.885220 0.000000 0.000000 
#    y 0.000000 1.861880 0.000000 
#    z 0.000000 0.000000 1.920080 
# 
# From -- ./inp_files/30880.got.cif
#   From: 2010.03.12/outbox.cif.g09.slc.cpg/sg53_16_cif.got.tgz:30880.got - 2010.04.16 14:36:59.
