data_PCOD8219043
_publ_section_title
;
Structure prediction by ZEFSAII (Michael W. Deem and Ramdas Pophale) SiO2 
 PCOD8219043
Probable space group: P M N A
;
_chemical_formula_sum "Si O2"
_cell_formula_units_Z 64
_cell_length_a 9.010741
_cell_length_b 20.909239
_cell_length_c 19.390012
_cell_angle_alpha 90.000000
_cell_angle_beta 90.000000
_cell_angle_gamma 90.000000
_cell_volume 3653.228284
_symmetry_space_group_name_H-M "P M N A"
_symmetry_group_IT_number 53
_symmetry_cell_setting 'orthorhombic'
loop_
_space_group_symop_operation_xyz
x,y,z
1/2-x,-y,1/2+z
x,-y,-z
1/2-x,y,1/2-z
-x,-y,-z
1/2+x,y,1/2-z
-x,y,z
1/2+x,-y,1/2+z
loop_
_atom_site_type_symbol
_atom_site_label
_atom_site_fract_x
_atom_site_fract_y
_atom_site_fract_z
Si Si1 0.824494 0.644722 0.324914
Si Si2 0.675918 0.739013 0.929520
Si Si3 0.666192 0.124889 0.919043
Si Si4 0.669610 0.494021 0.820923
Si Si5 0.834006 0.001135 0.917637
Si Si6 0.325749 0.632407 0.823769
Si Si7 0.176921 0.254023 0.924283
Si Si8 0.163633 0.120774 0.417076
O O1 0.750000 0.648753 0.250000
O O2 0.799416 0.573477 0.359617
O O3 0.740775 0.693341 0.373525
O O4 0.000000 0.660520 0.319753
O O5 0.500000 0.734608 0.945708
O O6 0.733335 0.684937 0.877297
O O7 0.714485 0.807906 0.894932
O O8 0.764956 0.729709 0.999814
O O9 0.500000 0.132868 0.889000
O O10 0.765930 0.185272 0.897528
O O11 0.737490 0.060032 0.888499
O O12 0.660371 0.119582 0.000745
O O13 0.750000 0.490143 0.750000
O O14 0.500000 0.497961 0.800654
O O15 0.712701 0.561835 0.857084
O O16 0.772497 0.933811 0.888113
O O17 0.000000 0.009498 0.889860
O O18 0.830093 0.000000 0.000000
O O19 0.250000 0.642183 0.750000
O O20 0.500000 0.641866 0.812869
O O21 0.000000 0.254365 0.923564
O O22 0.000000 0.105656 0.388010
#
# Coordination Sequence:
#
# PCOD8219043 Si02
#       8
#     8   8   8   8   8   8   8   8
#     4  10  19  33  52  73  96 123 157 195 236 282
#     4   9  18  32  48  67  96 131 162 194 236 286
#     4   9  16  27  42  60  86 120 154 189 232 280
#     4   8  15  28  48  71  93 119 153 194 236 278
#     4   9  15  22  35  58  86 115 149 190 232 273
#     4   9  17  31  51  74  97 123 158 198 239 282
#     4  11  21  32  47  69  97 127 159 196 239 284
#     4   8  14  24  38  57  83 118 155 189 229 275
#
# _framework density 17.518751999999999
#
# number of rings (size 3 to 8) (size 9 to 14) (size 15 to 20)
#    0.000    2.875    0.000    3.000    0.000    5.500 
#    0.000    0.625    0.000    3.750    0.000    0.875 
#    0.000    2.000    0.000    0.000    0.000    0.000 
#
# Total GULP energy -792895.325540 kJ/mol
# GULP energy per Si atom -12388.989462 kJ/mol
# Density = 1.747888 g / cm^3
# Si number density = 17.518752 Si / 1000 Ang^3
#
#
#
# Elastic Constant Matrix: (Units=GPa)
#
#
# Indices 1 2 3 4 5 6 
#
# 1 109.7959 75.2505 34.1797 0.0000 0.0000 0.0000
# 2 75.2505 183.0257 52.9877 0.0000 0.0000 0.0000
# 3 34.1797 52.9877 38.6758 0.0000 0.0000 0.0000
# 4 0.0000 0.0000 0.0000 -22.9335 0.0000 0.0000
# 5 0.0000 0.0000 0.0000 0.0000 17.9295 0.0000
# 6 0.0000 0.0000 0.0000 0.0000 0.0000 25.1065
#
#
#
# Elastic Compliance Matrix: (Units=1/GPa)
#
#
# Indices 1 2 3 4 5 6 
#
# 1 0.013836 -0.003561 -0.007349 0.000000 0.000000 0.000000
# 2 -0.003561 0.009972 -0.010515 0.000000 0.000000 0.000000
# 3 -0.007349 -0.010515 0.046757 0.000000 0.000000 0.000000
# 4 0.000000 0.000000 0.000000 -0.043604 0.000000 0.000000
# 5 0.000000 0.000000 0.000000 0.000000 0.055774 0.000000
# 6 0.000000 0.000000 0.000000 0.000000 0.000000 0.039830
#
#
# Mechanical properties :
#
#
# Convention : Reuss Voigt Hill
#
# Bulk Modulus (GPa) = 36.08173 72.92591 54.50382
# Shear Modulus (GPa) = 28.62820 15.29248 21.96034
#
# Velocity S-wave (km/s) = 4.04684 2.95773 3.54437
# Velocity P-wave (km/s) = 6.51741 7.30629 6.92310
#
# Compressibility (1/GPa) = 0.02771486
#
# Stress axis : x y z
#
# Youngs Moduli (GPa) = 72.27412 100.27988 21.38740
#
# Poissons Ratio (x) = 0.35712 0.15717
# Poissons Ratio (y) = 0.25738 0.22489
# Poissons Ratio (z) = 0.53112 1.05445
#
# Static dielectric constant tensor:
#      x y z
#    x 3.358330 0.000000 0.000000 
#    y 0.000000 3.969800 0.000000 
#    z 0.000000 0.000000 2.684740 
# 
# 
# High freq. dielectric constant tensor:
#      x y z
#    x 1.684780 0.000000 0.000000 
#    y 0.000000 1.705060 0.000000 
#    z 0.000000 0.000000 1.604090 
# 
# From -- ./inp_files/26782.got.cif
#   From: 2010.03.12/outbox.cif.g09.slc.cpg/sg53_14_cif.got.tgz:26782.got - 2010.04.16 14:36:59.
