data_PCOD8219585
_publ_section_title
;
Structure prediction by ZEFSAII (Michael W. Deem and Ramdas Pophale) SiO2 
 PCOD8219585
Probable space group: P M N A
;
_chemical_formula_sum "Si O2"
_cell_formula_units_Z 48
_cell_length_a 17.191752
_cell_length_b 9.228393
_cell_length_c 14.835986
_cell_angle_alpha 90.000000
_cell_angle_beta 90.000000
_cell_angle_gamma 90.000000
_cell_volume 2353.762468
_symmetry_space_group_name_H-M "P M N A"
_symmetry_group_IT_number 53
_symmetry_cell_setting 'orthorhombic'
loop_
_space_group_symop_operation_xyz
x,y,z
1/2-x,-y,1/2+z
x,-y,-z
1/2-x,y,1/2-z
-x,-y,-z
1/2+x,y,1/2-z
-x,y,z
1/2+x,-y,1/2+z
loop_
_atom_site_type_symbol
_atom_site_label
_atom_site_fract_x
_atom_site_fract_y
_atom_site_fract_z
Si Si1 0.319108 0.234952 0.679211
Si Si2 0.089073 0.552146 0.292146
Si Si3 0.758235 0.837061 0.502185
Si Si4 0.912183 0.982235 0.745746
Si Si5 0.811593 0.716992 0.682641
Si Si6 0.582870 0.184003 0.921564
O O1 0.250000 0.205370 0.750000
O O2 0.365053 0.382523 0.705166
O O3 0.284238 0.252187 0.577975
O O4 0.376421 0.095845 0.682026
O O5 0.125197 0.407282 0.335513
O O6 0.095714 0.664478 0.372719
O O7 0.000000 0.523902 0.262915
O O8 0.754940 0.760970 0.599039
O O9 0.851240 0.843761 0.493207
O O10 0.723912 0.000000 0.500000
O O11 0.854831 0.847629 0.733829
O O12 0.000000 0.937851 0.777336
O O13 0.916606 0.056167 0.649580
O O14 0.750000 0.646520 0.750000
O O15 0.500000 0.184792 0.973303
#
# Coordination Sequence:
#
# PCOD8219585 Si02
#       6
#     8   8   8   8   8   8
#     4  11  19  39  65  88 124 163 211 252 309 382
#     4  10  22  42  63  87 122 168 209 256 313 373
#     4  12  22  37  63  95 128 166 205 258 318 378
#     4  10  19  36  62  90 125 165 202 255 311 368
#     4  12  25  39  59  92 126 162 211 264 317 373
#     4   9  19  35  58  89 122 158 196 236 307 380
#
# _framework density 20.392882
#
# number of rings (size 3 to 8) (size 9 to 14) (size 15 to 20)
#    0.000    1.333    5.000    4.000    0.000    2.333 
#    0.000    1.667    0.000   12.000    0.000    0.000 
#    0.000    0.000    0.000    0.000    0.000    0.000 
#
# Total GULP energy -594874.508301 kJ/mol
# GULP energy per Si atom -12393.218923 kJ/mol
# Density = 2.034647 g / cm^3
# Si number density = 20.392882 Si / 1000 Ang^3
#
#
#
# Elastic Constant Matrix: (Units=GPa)
#
#
# Indices 1 2 3 4 5 6 
#
# 1 74.3062 11.1491 31.4876 0.0000 0.0000 0.0000
# 2 11.1491 91.7271 13.3734 0.0000 0.0000 0.0000
# 3 31.4876 13.3734 85.3016 0.0000 0.0000 0.0000
# 4 0.0000 0.0000 0.0000 16.0016 0.0000 0.0000
# 5 0.0000 0.0000 0.0000 0.0000 34.3780 0.0000
# 6 0.0000 0.0000 0.0000 0.0000 0.0000 654.8986
#
#
#
# Elastic Compliance Matrix: (Units=1/GPa)
#
#
# Indices 1 2 3 4 5 6 
#
# 1 0.016064 -0.001113 -0.005755 0.000000 0.000000 0.000000
# 2 -0.001113 0.011234 -0.001350 0.000000 0.000000 0.000000
# 3 -0.005755 -0.001350 0.014059 0.000000 0.000000 0.000000
# 4 0.000000 0.000000 0.000000 0.062494 0.000000 0.000000
# 5 0.000000 0.000000 0.000000 0.000000 0.029088 0.000000
# 6 0.000000 0.000000 0.000000 0.000000 0.000000 0.001527
#
#
# Mechanical properties :
#
#
# Convention : Reuss Voigt Hill
#
# Bulk Modulus (GPa) = 40.12930 40.37279 40.25104
# Shear Modulus (GPa) = 31.40510 154.07729 92.74119
#
# Velocity S-wave (km/s) = 3.92854 8.70164 6.75100
# Velocity P-wave (km/s) = 6.34813 10.99083 8.97489
#
# Compressibility (1/GPa) = 0.02491945
#
# Stress axis : x y z
#
# Youngs Moduli (GPa) = 62.25246 89.01469 71.12799
#
# Poissons Ratio (x) = 0.09911 0.40934
# Poissons Ratio (y) = 0.06931 0.09604
# Poissons Ratio (z) = 0.35827 0.12019
#
# Static dielectric constant tensor:
#      x y z
#    x 4.509110 0.000000 0.000000 
#    y 0.000000 3.695730 0.000000 
#    z 0.000000 0.000000 3.437810 
# 
# 
# High freq. dielectric constant tensor:
#      x y z
#    x 1.807240 0.000000 0.000000 
#    y 0.000000 1.795930 0.000000 
#    z 0.000000 0.000000 1.762780 
# 
# From -- ./inp_files/23659.got.cif
#   From: 2010.03.12/outbox.cif.g09.slc.cpg/sg53_12_cif.got.tgz:23659.got - 2010.04.16 14:36:59.
