data_PCOD8219384
_publ_section_title
;
Structure prediction by ZEFSAII (Michael W. Deem and Ramdas Pophale) SiO2 
 PCOD8219384
Probable space group: P M N A
;
_chemical_formula_sum "Si O2"
_cell_formula_units_Z 64
_cell_length_a 8.858407
_cell_length_b 11.852802
_cell_length_c 30.738019
_cell_angle_alpha 90.000000
_cell_angle_beta 90.000000
_cell_angle_gamma 90.000000
_cell_volume 3227.398066
_symmetry_space_group_name_H-M "P M N A"
_symmetry_group_IT_number 53
_symmetry_cell_setting 'orthorhombic'
loop_
_space_group_symop_operation_xyz
x,y,z
1/2-x,-y,1/2+z
x,-y,-z
1/2-x,y,1/2-z
-x,-y,-z
1/2+x,y,1/2-z
-x,y,z
1/2+x,-y,1/2+z
loop_
_atom_site_type_symbol
_atom_site_label
_atom_site_fract_x
_atom_site_fract_y
_atom_site_fract_z
Si Si1 0.676884 0.642360 0.626623
Si Si2 0.177603 0.617097 0.123572
Si Si3 0.177761 0.241363 0.794700
Si Si4 0.322920 0.240826 0.950167
Si Si5 0.326572 0.764904 0.951387
Si Si6 0.676883 0.008577 0.321334
Si Si7 0.173328 0.997068 0.412083
Si Si8 0.178068 0.769379 0.706646
O O1 0.500000 0.658577 0.634878
O O2 0.725319 0.512388 0.627650
O O3 0.719830 0.694381 0.580300
O O4 0.767276 0.704933 0.664170
O O5 0.241707 0.683599 0.165572
O O6 0.244921 0.665951 0.079413
O O7 0.000000 0.632700 0.120815
O O8 0.250000 0.285392 0.750000
O O9 0.000000 0.255356 0.790991
O O10 0.225596 0.112626 0.803012
O O11 0.500000 0.254151 0.944755
O O12 0.272684 0.115263 0.936597
O O13 0.274043 0.263102 0.999767
O O14 0.500000 0.729094 0.943265
O O15 0.308223 0.898799 0.944836
O O16 0.500000 0.032203 0.315354
O O17 0.716455 0.017311 0.371900
O O18 0.771255 0.100539 0.294887
O O19 0.000000 0.987299 0.395748
O O20 0.250000 0.713720 0.750000
O O21 0.000000 0.761333 0.709564
#
# Coordination Sequence:
#
# PCOD8219384 Si02
#       8
#     8   8   8   8   8   8   8   8
#     4  11  24  42  63  86 117 158 206 252 300 355
#     4  10  23  43  61  83 118 158 201 252 302 351
#     4  10  22  39  60  87 119 153 191 240 293 350
#     4  10  21  37  61  91 121 158 201 245 298 361
#     4  10  21  38  60  89 124 158 197 247 301 356
#     4  11  21  36  61  91 124 157 195 239 294 358
#     4  10  19  34  59  89 122 158 195 241 301 359
#     4  12  25  42  64  91 124 158 197 244 297 356
#
# _framework density 19.830217000000001
#
# number of rings (size 3 to 8) (size 9 to 14) (size 15 to 20)
#    0.000    1.500    2.500    2.625    0.000    6.500 
#    0.000    3.750    0.000    2.250    0.000    0.000 
#    0.000    0.000    0.000    0.000    0.000    0.000 
#
# Total GULP energy -793918.978477 kJ/mol
# GULP energy per Si atom -12404.984039 kJ/mol
# Density = 1.978508 g / cm^3
# Si number density = 19.830217 Si / 1000 Ang^3
#
#
#
# Elastic Constant Matrix: (Units=GPa)
#
#
# Indices 1 2 3 4 5 6 
#
# 1 70.5842 45.1100 41.9990 0.0000 0.0000 0.0000
# 2 45.1100 106.2563 53.3312 0.0000 0.0000 0.0000
# 3 41.9990 53.3312 146.1478 0.0000 0.0000 0.0000
# 4 0.0000 0.0000 0.0000 6.5328 0.0000 0.0000
# 5 0.0000 0.0000 0.0000 0.0000 36.8967 0.0000
# 6 0.0000 0.0000 0.0000 0.0000 0.0000 23.3057
#
#
#
# Elastic Compliance Matrix: (Units=1/GPa)
#
#
# Indices 1 2 3 4 5 6 
#
# 1 0.020706 -0.007105 -0.003358 0.000000 0.000000 0.000000
# 2 -0.007105 0.013960 -0.003052 0.000000 0.000000 0.000000
# 3 -0.003358 -0.003052 0.008921 0.000000 0.000000 0.000000
# 4 0.000000 0.000000 0.000000 0.153073 0.000000 0.000000
# 5 0.000000 0.000000 0.000000 0.000000 0.027103 0.000000
# 6 0.000000 0.000000 0.000000 0.000000 0.000000 0.042908
#
#
# Mechanical properties :
#
#
# Convention : Reuss Voigt Hill
#
# Bulk Modulus (GPa) = 60.39853 67.09651 63.74752
# Shear Modulus (GPa) = 16.71010 25.51691 21.11350
#
# Velocity S-wave (km/s) = 2.90601 3.59105 3.26653
# Velocity P-wave (km/s) = 6.46404 7.14864 6.81494
#
# Compressibility (1/GPa) = 0.01655669
#
# Stress axis : x y z
#
# Youngs Moduli (GPa) = 48.29428 71.63503 112.09468
#
# Poissons Ratio (x) = 0.50900 0.37637
# Poissons Ratio (y) = 0.34315 0.34213
# Poissons Ratio (z) = 0.16215 0.21864
#
# Static dielectric constant tensor:
#      x y z
#    x 3.496750 0.000000 0.000000 
#    y 0.000000 3.732860 0.000000 
#    z 0.000000 0.000000 3.767140 
# 
# 
# High freq. dielectric constant tensor:
#      x y z
#    x 1.766790 0.000000 0.000000 
#    y 0.000000 1.772850 0.000000 
#    z 0.000000 0.000000 1.786940 
# 
# From -- ./inp_files/38275.got.cif
#   From: 2010.03.12/outbox.cif.g09.slc.cpg/sg53_20_cif.got.tgz:38275.got - 2010.04.16 14:36:59.
