data_PCOD8219670
_publ_section_title
;
Structure prediction by ZEFSAII (Michael W. Deem and Ramdas Pophale) SiO2 
 PCOD8219670
Probable space group: P M N A
;
_chemical_formula_sum "Si O2"
_cell_formula_units_Z 64
_cell_length_a 8.631806
_cell_length_b 14.724344
_cell_length_c 24.927085
_cell_angle_alpha 90.000000
_cell_angle_beta 90.000000
_cell_angle_gamma 90.000000
_cell_volume 3168.174695
_symmetry_space_group_name_H-M "P M N A"
_symmetry_group_IT_number 53
_symmetry_cell_setting 'orthorhombic'
loop_
_space_group_symop_operation_xyz
x,y,z
1/2-x,-y,1/2+z
x,-y,-z
1/2-x,y,1/2-z
-x,-y,-z
1/2+x,y,1/2-z
-x,y,z
1/2+x,-y,1/2+z
loop_
_atom_site_type_symbol
_atom_site_label
_atom_site_fract_x
_atom_site_fract_y
_atom_site_fract_z
Si Si1 0.315913 0.518669 0.561499
Si Si2 0.822914 0.015127 0.667192
Si Si3 0.320027 0.652793 0.107028
Si Si4 0.318769 0.717657 0.593626
Si Si5 0.183198 0.173130 0.195055
Si Si6 0.316638 0.211112 0.693751
Si Si7 0.324372 0.058517 0.950444
Si Si8 0.322429 0.765308 0.478260
O O1 0.261636 0.500000 0.500000
O O2 0.500000 0.511104 0.564707
O O3 0.240960 0.450228 0.605033
O O4 0.255006 0.616699 0.581953
O O5 0.752248 0.111675 0.682848
O O6 0.812373 0.000386 0.603350
O O7 0.000000 0.012585 0.687270
O O8 0.730692 0.932450 0.693121
O O9 0.500000 0.656344 0.121387
O O10 0.229249 0.715260 0.149189
O O11 0.286615 0.688753 0.047046
O O12 0.500000 0.711308 0.603714
O O13 0.245109 0.767971 0.645548
O O14 0.281262 0.778011 0.540928
O O15 0.250000 0.215553 0.250000
O O16 0.000000 0.178995 0.195311
O O17 0.250000 0.247333 0.750000
O O18 0.500000 0.203384 0.696068
O O19 0.500000 0.094086 0.959437
O O20 0.207546 0.142373 0.946068
O O21 0.266146 0.000000 0.000000
O O22 0.500000 0.734032 0.470995
#
# Coordination Sequence:
#
# PCOD8219670 Si02
#       8
#     8   8   8   8   8   8   8   8
#     4  10  19  38  66  92 122 160 204 250 304 370
#     4  11  22  38  60  88 123 161 205 252 301 357
#     4  12  24  39  59  91 129 161 198 248 305 366
#     4   9  20  38  62  91 120 156 202 254 307 363
#     4  11  23  41  62  86 119 159 207 255 301 354
#     4  12  25  43  66  91 121 162 208 255 306 361
#     4  10  21  35  52  81 123 164 199 246 306 363
#     4  11  20  35  59  87 118 158 201 246 303 364
#
# _framework density 20.200904999999999
#
# number of rings (size 3 to 8) (size 9 to 14) (size 15 to 20)
#    0.000    1.250    2.500    4.500    0.000    1.000 
#    0.000    3.750    0.000    1.500    0.000    0.000 
#    0.000    0.000    0.000    0.000    0.000    0.000 
#
# Total GULP energy -793549.075520 kJ/mol
# GULP energy per Si atom -12399.204305 kJ/mol
# Density = 2.015493 g / cm^3
# Si number density = 20.200905 Si / 1000 Ang^3
#
#
#
# Elastic Constant Matrix: (Units=GPa)
#
#
# Indices 1 2 3 4 5 6 
#
# 1 79.1640 20.5147 27.9000 0.0000 0.0000 0.0000
# 2 20.5147 95.8719 40.9957 0.0000 0.0000 0.0000
# 3 27.9000 40.9957 115.9907 0.0000 0.0000 0.0000
# 4 0.0000 0.0000 0.0000 21.9814 0.0000 0.0000
# 5 0.0000 0.0000 0.0000 0.0000 29.5422 0.0000
# 6 0.0000 0.0000 0.0000 0.0000 0.0000 24.9529
#
#
#
# Elastic Compliance Matrix: (Units=1/GPa)
#
#
# Indices 1 2 3 4 5 6 
#
# 1 0.014073 -0.001842 -0.002734 0.000000 0.000000 0.000000
# 2 -0.001842 0.012529 -0.003985 0.000000 0.000000 0.000000
# 3 -0.002734 -0.003985 0.010687 0.000000 0.000000 0.000000
# 4 0.000000 0.000000 0.000000 0.045493 0.000000 0.000000
# 5 0.000000 0.000000 0.000000 0.000000 0.033850 0.000000
# 6 0.000000 0.000000 0.000000 0.000000 0.000000 0.040075
#
#
# Mechanical properties :
#
#
# Convention : Reuss Voigt Hill
#
# Bulk Modulus (GPa) = 49.58661 52.20526 50.89593
# Shear Modulus (GPa) = 27.69278 28.73637 28.21458
#
# Velocity S-wave (km/s) = 3.70654 3.77573 3.74130
# Velocity P-wave (km/s) = 6.55118 6.70130 6.62666
#
# Compressibility (1/GPa) = 0.02016674
#
# Stress axis : x y z
#
# Youngs Moduli (GPa) = 71.05835 79.81586 93.56758
#
# Poissons Ratio (x) = 0.14704 0.25581
# Poissons Ratio (y) = 0.13091 0.37287
# Poissons Ratio (z) = 0.19427 0.31807
#
# Static dielectric constant tensor:
#      x y z
#    x 3.526130 0.000000 0.000000 
#    y 0.000000 3.792170 0.000000 
#    z 0.000000 0.000000 3.978550 
# 
# 
# High freq. dielectric constant tensor:
#      x y z
#    x 1.778100 0.000000 0.000000 
#    y 0.000000 1.783870 0.000000 
#    z 0.000000 0.000000 1.795100 
# 
# From -- ./inp_files/34191.got.cif
#   From: 2010.03.12/outbox.cif.g09.slc.cpg/sg53_18_cif.got.tgz:34191.got - 2010.04.16 14:36:59.
