data_PCOD8219368
_publ_section_title
;
Structure prediction by ZEFSAII (Michael W. Deem and Ramdas Pophale) SiO2 
 PCOD8219368
Probable space group: P M N A
;
_chemical_formula_sum "Si O2"
_cell_formula_units_Z 40
_cell_length_a 9.158539
_cell_length_b 9.952782
_cell_length_c 23.410616
_cell_angle_alpha 90.000000
_cell_angle_beta 90.000000
_cell_angle_gamma 90.000000
_cell_volume 2133.946525
_symmetry_space_group_name_H-M "P M N A"
_symmetry_group_IT_number 53
_symmetry_cell_setting 'orthorhombic'
loop_
_space_group_symop_operation_xyz
x,y,z
1/2-x,-y,1/2+z
x,-y,-z
1/2-x,y,1/2-z
-x,-y,-z
1/2+x,y,1/2-z
-x,y,z
1/2+x,-y,1/2+z
loop_
_atom_site_type_symbol
_atom_site_label
_atom_site_fract_x
_atom_site_fract_y
_atom_site_fract_z
Si Si1 0.836856 0.387641 0.605205
Si Si2 0.170041 0.864587 0.106361
Si Si3 0.327750 0.103525 0.308301
Si Si4 0.325486 0.309886 0.117006
Si Si5 0.663066 0.788407 0.004076
O O1 0.736653 0.272052 0.634665
O O2 0.773259 0.535598 0.616106
O O3 0.839925 0.356035 0.537012
O O4 0.000000 0.376945 0.630986
O O5 0.240029 0.890532 0.043005
O O6 0.000000 0.844108 0.098596
O O7 0.209429 0.988692 0.146240
O O8 0.250000 0.061269 0.250000
O O9 0.500000 0.122150 0.298889
O O10 0.256654 0.241991 0.330091
O O11 0.500000 0.299447 0.123296
O O12 0.272118 0.236564 0.058863
O O13 0.500000 0.848453 0.999945
#
# Coordination Sequence:
#
# PCOD8219368 Si02
#       5
#     8   8   8   8   8
#     4   8  16  32  55  84 113 143 176 211 259 319
#     4   9  19  35  54  78 109 142 179 224 269 316
#     4  11  25  42  57  75 103 142 187 232 276 322
#     4  10  19  34  58  85 115 146 178 219 267 322
#     4   8  16  31  55  85 115 145 178 214 262 324
#
# _framework density 18.744613000000001
#
# number of rings (size 3 to 8) (size 9 to 14) (size 15 to 20)
#    1.200    1.600    0.000    1.200    0.000    8.000 
#    0.000    6.000    0.000    2.400    0.000    0.000 
#    0.000    0.000    0.000    0.000    0.000    0.000 
#
# Total GULP energy -495621.223802 kJ/mol
# GULP energy per Si atom -12390.530595 kJ/mol
# Density = 1.870195 g / cm^3
# Si number density = 18.744613 Si / 1000 Ang^3
#
#
#
# Elastic Constant Matrix: (Units=GPa)
#
#
# Indices 1 2 3 4 5 6 
#
# 1 66.6228 24.5673 31.6852 0.0000 0.0000 0.0000
# 2 24.5673 46.9327 28.0928 0.0000 0.0000 0.0000
# 3 31.6852 28.0928 48.0499 0.0000 0.0000 0.0000
# 4 0.0000 0.0000 0.0000 13.6514 0.0000 0.0000
# 5 0.0000 0.0000 0.0000 0.0000 29.0502 0.0000
# 6 0.0000 0.0000 0.0000 0.0000 0.0000 19.6517
#
#
#
# Elastic Compliance Matrix: (Units=1/GPa)
#
#
# Indices 1 2 3 4 5 6 
#
# 1 0.022456 -0.004447 -0.012208 0.000000 0.000000 0.000000
# 2 -0.004447 0.033659 -0.016746 0.000000 0.000000 0.000000
# 3 -0.012208 -0.016746 0.038653 0.000000 0.000000 0.000000
# 4 0.000000 0.000000 0.000000 0.073253 0.000000 0.000000
# 5 0.000000 0.000000 0.000000 0.000000 0.034423 0.000000
# 6 0.000000 0.000000 0.000000 0.000000 0.000000 0.050886
#
#
# Mechanical properties :
#
#
# Convention : Reuss Voigt Hill
#
# Bulk Modulus (GPa) = 35.75943 36.69953 36.22948
# Shear Modulus (GPa) = 15.17664 17.62133 16.39899
#
# Velocity S-wave (km/s) = 2.84853 3.06939 2.96102
# Velocity P-wave (km/s) = 5.47151 5.67298 5.57316
#
# Compressibility (1/GPa) = 0.02796465
#
# Stress axis : x y z
#
# Youngs Moduli (GPa) = 44.53220 29.70961 25.87151
#
# Poissons Ratio (x) = 0.13213 0.31583
# Poissons Ratio (y) = 0.19805 0.43325
# Poissons Ratio (z) = 0.54363 0.49753
#
# Static dielectric constant tensor:
#      x y z
#    x 3.289440 0.000000 0.000000 
#    y 0.000000 3.331940 0.000000 
#    z 0.000000 0.000000 3.194780 
# 
# 
# High freq. dielectric constant tensor:
#      x y z
#    x 1.721110 0.000000 0.000000 
#    y 0.000000 1.726650 0.000000 
#    z 0.000000 0.000000 1.700310 
# 
# From -- ./inp_files/30366.got.cif
#   From: 2010.03.12/outbox.cif.g09.slc.cpg/sg53_16_cif.got.tgz:30366.got - 2010.04.16 14:36:59.
