data_PCOD8219660
_publ_section_title
;
Structure prediction by ZEFSAII (Michael W. Deem and Ramdas Pophale) SiO2 
 PCOD8219660
Probable space group: P M N A
;
_chemical_formula_sum "Si O2"
_cell_formula_units_Z 56
_cell_length_a 8.804170
_cell_length_b 20.759942
_cell_length_c 15.510756
_cell_angle_alpha 90.000000
_cell_angle_beta 90.000000
_cell_angle_gamma 90.000000
_cell_volume 2834.963825
_symmetry_space_group_name_H-M "P M N A"
_symmetry_group_IT_number 53
_symmetry_cell_setting 'orthorhombic'
loop_
_space_group_symop_operation_xyz
x,y,z
1/2-x,-y,1/2+z
x,-y,-z
1/2-x,y,1/2-z
-x,-y,-z
1/2+x,y,1/2-z
-x,y,z
1/2+x,-y,1/2+z
loop_
_atom_site_type_symbol
_atom_site_label
_atom_site_fract_x
_atom_site_fract_y
_atom_site_fract_z
Si Si1 0.177742 0.846831 0.009644
Si Si2 0.323692 0.511646 0.901679
Si Si3 0.679430 0.640849 0.659167
Si Si4 0.322621 0.918917 0.665354
Si Si5 0.829443 0.036762 0.589655
Si Si6 0.176164 0.628019 0.337949
Si Si7 0.320167 0.710642 0.001139
O O1 0.231724 0.897999 0.081338
O O2 0.000000 0.832994 0.021472
O O3 0.215957 0.873465 0.914873
O O4 0.274417 0.782938 0.023865
O O5 0.500000 0.532315 0.896597
O O6 0.222442 0.567384 0.861265
O O7 0.289400 0.447493 0.848088
O O8 0.275843 0.500000 0.000000
O O9 0.750000 0.662354 0.750000
O O10 0.500000 0.647283 0.664864
O O11 0.740283 0.688879 0.586519
O O12 0.250000 0.885747 0.750000
O O13 0.500000 0.927678 0.677101
O O14 0.250083 0.989937 0.657861
O O15 0.000000 0.053625 0.620109
O O16 0.832140 0.000000 0.500000
O O17 0.250000 0.653769 0.250000
O O18 0.240388 0.665883 0.420864
O O19 0.000000 0.642412 0.330788
O O20 0.500000 0.704061 0.989336
#
# Coordination Sequence:
#
# PCOD8219660 Si02
#       7
#     8   8   8   8   8   8   8
#     4  10  21  37  57  83 114 151 193 238 288 344
#     4  10  19  38  63  88 120 153 190 242 302 358
#     4  12  25  40  60  88 120 157 200 246 301 361
#     4  10  20  34  55  84 118 149 184 232 286 341
#     4   9  17  32  55  81 108 142 183 224 271 327
#     4  10  22  39  62  87 115 152 193 243 300 354
#     4  11  23  42  62  84 117 160 203 248 301 356
#
# _framework density 19.753336999999998
#
# number of rings (size 3 to 8) (size 9 to 14) (size 15 to 20)
#    0.000    1.714    1.429    3.429    0.000    7.143 
#    0.000    2.143    0.000    1.714    0.000    0.000 
#    0.000    0.000    0.000    0.000    0.000    0.000 
#
# Total GULP energy -694592.870475 kJ/mol
# GULP energy per Si atom -12403.444116 kJ/mol
# Density = 1.970838 g / cm^3
# Si number density = 19.753337 Si / 1000 Ang^3
#
#
#
# Elastic Constant Matrix: (Units=GPa)
#
#
# Indices 1 2 3 4 5 6 
#
# 1 90.7906 26.8871 29.8856 0.0000 0.0000 0.0000
# 2 26.8871 76.4339 9.8345 0.0000 0.0000 0.0000
# 3 29.8856 9.8345 79.1416 0.0000 0.0000 0.0000
# 4 0.0000 0.0000 0.0000 12.8870 0.0000 0.0000
# 5 0.0000 0.0000 0.0000 0.0000 33.2165 0.0000
# 6 0.0000 0.0000 0.0000 0.0000 0.0000 33.9361
#
#
#
# Elastic Compliance Matrix: (Units=1/GPa)
#
#
# Indices 1 2 3 4 5 6 
#
# 1 0.013819 -0.004258 -0.004689 0.000000 0.000000 0.000000
# 2 -0.004258 0.014608 -0.000207 0.000000 0.000000 0.000000
# 3 -0.004689 -0.000207 0.014432 0.000000 0.000000 0.000000
# 4 0.000000 0.000000 0.000000 0.077598 0.000000 0.000000
# 5 0.000000 0.000000 0.000000 0.000000 0.030106 0.000000
# 6 0.000000 0.000000 0.000000 0.000000 0.000000 0.029467
#
#
# Mechanical properties :
#
#
# Convention : Reuss Voigt Hill
#
# Bulk Modulus (GPa) = 40.73334 42.17560 41.45447
# Shear Modulus (GPa) = 24.21065 27.99184 26.10124
#
# Velocity S-wave (km/s) = 3.50472 3.76848 3.63899
# Velocity P-wave (km/s) = 6.08631 6.35081 6.21997
#
# Compressibility (1/GPa) = 0.02454991
#
# Stress axis : x y z
#
# Youngs Moduli (GPa) = 72.36519 68.45741 69.29000
#
# Poissons Ratio (x) = 0.29147 0.32491
# Poissons Ratio (y) = 0.30811 0.01437
# Poissons Ratio (z) = 0.33933 0.01420
#
# Static dielectric constant tensor:
#      x y z
#    x 3.586820 0.000000 0.000000 
#    y 0.000000 3.550180 0.000000 
#    z 0.000000 0.000000 3.716880 
# 
# 
# High freq. dielectric constant tensor:
#      x y z
#    x 1.774910 0.000000 0.000000 
#    y 0.000000 1.763630 0.000000 
#    z 0.000000 0.000000 1.769330 
# 
# From -- ./inp_files/20634.got.cif
#   From: 2010.03.12/outbox.cif.g09.slc.cpg/sg53_11_cif.got.tgz:20634.got - 2010.04.16 14:36:59.
