data_PCOD8219929
_publ_section_title
;
Structure prediction by ZEFSAII (Michael W. Deem and Ramdas Pophale) SiO2 
 PCOD8219929
Probable space group: P M N A
;
_chemical_formula_sum "Si O2"
_cell_formula_units_Z 64
_cell_length_a 8.866009
_cell_length_b 12.867284
_cell_length_c 27.627740
_cell_angle_alpha 90.000000
_cell_angle_beta 90.000000
_cell_angle_gamma 90.000000
_cell_volume 3151.812798
_symmetry_space_group_name_H-M "P M N A"
_symmetry_group_IT_number 53
_symmetry_cell_setting 'orthorhombic'
loop_
_space_group_symop_operation_xyz
x,y,z
1/2-x,-y,1/2+z
x,-y,-z
1/2-x,y,1/2-z
-x,-y,-z
1/2+x,y,1/2-z
-x,y,z
1/2+x,-y,1/2+z
loop_
_atom_site_type_symbol
_atom_site_label
_atom_site_fract_x
_atom_site_fract_y
_atom_site_fract_z
Si Si1 0.320630 0.809410 0.698328
Si Si2 0.328211 0.254545 0.556945
Si Si3 0.166267 0.054245 0.550770
Si Si4 0.677412 0.244653 0.846035
Si Si5 0.177886 0.634554 0.632250
Si Si6 0.176381 0.397156 0.029134
Si Si7 0.326767 0.007631 0.844569
Si Si8 0.823009 0.449708 0.701312
O O1 0.250000 0.778064 0.750000
O O2 0.500000 0.801521 0.701585
O O3 0.260625 0.732088 0.656996
O O4 0.274930 0.927830 0.685390
O O5 0.500000 0.281885 0.568716
O O6 0.304630 0.132599 0.550049
O O7 0.229998 0.290409 0.602435
O O8 0.277059 0.305385 0.506934
O O9 0.187505 0.980613 0.597920
O O10 0.000000 0.108145 0.556972
O O11 0.171913 0.000000 0.500000
O O12 0.500000 0.242087 0.846789
O O13 0.734317 0.126650 0.835333
O O14 0.735693 0.331367 0.808125
O O15 0.227329 0.619935 0.577078
O O16 0.224720 0.528120 0.658867
O O17 0.000000 0.655923 0.634621
O O18 0.000000 0.397196 0.042904
O O19 0.221955 0.500000 0.000000
O O20 0.500000 0.996405 0.827118
O O21 0.750000 0.492592 0.750000
O O22 0.000000 0.450326 0.708160
#
# Coordination Sequence:
#
# PCOD8219929 Si02
#       8
#     8   8   8   8   8   8   8   8
#     4  12  26  44  65  88 121 162 208 259 312 363
#     4  10  20  33  53  83 115 151 193 236 284 337
#     4   9  19  35  56  82 114 155 193 233 288 346
#     4   9  19  38  61  87 121 156 193 240 294 356
#     4  11  24  41  63  90 121 158 205 252 300 362
#     4  10  22  39  58  86 124 162 199 243 298 356
#     4   9  19  37  60  88 122 158 200 245 295 355
#     4  10  22  39  61  89 116 147 190 241 297 356
#
# _framework density 20.305776000000002
#
# number of rings (size 3 to 8) (size 9 to 14) (size 15 to 20)
#    0.000    2.000    0.000    3.750    1.750    6.500 
#    0.000    1.250    0.000    0.000    0.000    0.000 
#    0.000    0.000    0.000    0.000    0.000    0.000 
#
# Total GULP energy -793248.393796 kJ/mol
# GULP energy per Si atom -12394.506153 kJ/mol
# Density = 2.025956 g / cm^3
# Si number density = 20.305776 Si / 1000 Ang^3
#
#
#
# Elastic Constant Matrix: (Units=GPa)
#
#
# Indices 1 2 3 4 5 6 
#
# 1 59.4514 43.4230 36.8785 0.0000 0.0000 0.0000
# 2 43.4230 96.1486 48.0426 0.0000 0.0000 0.0000
# 3 36.8785 48.0426 111.9503 0.0000 0.0000 0.0000
# 4 0.0000 0.0000 0.0000 21.6416 0.0000 0.0000
# 5 0.0000 0.0000 0.0000 0.0000 35.8964 0.0000
# 6 0.0000 0.0000 0.0000 0.0000 0.0000 25.9888
#
#
#
# Elastic Compliance Matrix: (Units=1/GPa)
#
#
# Indices 1 2 3 4 5 6 
#
# 1 0.026867 -0.009816 -0.004638 0.000000 0.000000 0.000000
# 2 -0.009816 0.016826 -0.003987 0.000000 0.000000 0.000000
# 3 -0.004638 -0.003987 0.012171 0.000000 0.000000 0.000000
# 4 0.000000 0.000000 0.000000 0.046207 0.000000 0.000000
# 5 0.000000 0.000000 0.000000 0.000000 0.027858 0.000000
# 6 0.000000 0.000000 0.000000 0.000000 0.000000 0.038478
#
#
# Mechanical properties :
#
#
# Convention : Reuss Voigt Hill
#
# Bulk Modulus (GPa) = 52.68183 58.24873 55.46528
# Shear Modulus (GPa) = 23.62743 25.98577 24.80660
#
# Velocity S-wave (km/s) = 3.41483 3.58120 3.49901
# Velocity P-wave (km/s) = 6.44583 6.77112 6.61048
#
# Compressibility (1/GPa) = 0.01898188
#
# Stress axis : x y z
#
# Youngs Moduli (GPa) = 37.21995 59.43133 82.15998
#
# Poissons Ratio (x) = 0.58341 0.38105
# Poissons Ratio (y) = 0.36537 0.32758
# Poissons Ratio (z) = 0.17262 0.23696
#
# Static dielectric constant tensor:
#      x y z
#    x 3.625630 0.000000 0.000000 
#    y 0.000000 4.019920 0.000000 
#    z 0.000000 0.000000 3.878900 
# 
# 
# High freq. dielectric constant tensor:
#      x y z
#    x 1.784410 0.000000 0.000000 
#    y 0.000000 1.793900 0.000000 
#    z 0.000000 0.000000 1.802780 
# 
# From -- ./inp_files/34150.got.cif
#   From: 2010.03.12/outbox.cif.g09.slc.cpg/sg53_18_cif.got.tgz:34150.got - 2010.04.16 14:36:59.
