data_PCOD8219520
_publ_section_title
;
Structure prediction by ZEFSAII (Michael W. Deem and Ramdas Pophale) SiO2 
 PCOD8219520
Probable space group: P M N A
;
_chemical_formula_sum "Si O2"
_cell_formula_units_Z 64
_cell_length_a 8.504526
_cell_length_b 11.874317
_cell_length_c 31.022389
_cell_angle_alpha 90.000000
_cell_angle_beta 90.000000
_cell_angle_gamma 90.000000
_cell_volume 3132.809530
_symmetry_space_group_name_H-M "P M N A"
_symmetry_group_IT_number 53
_symmetry_cell_setting 'orthorhombic'
loop_
_space_group_symop_operation_xyz
x,y,z
1/2-x,-y,1/2+z
x,-y,-z
1/2-x,y,1/2-z
-x,-y,-z
1/2+x,y,1/2-z
-x,y,z
1/2+x,-y,1/2+z
loop_
_atom_site_type_symbol
_atom_site_label
_atom_site_fract_x
_atom_site_fract_y
_atom_site_fract_z
Si Si1 0.815629 0.882329 0.874431
Si Si2 0.186215 0.267800 0.547370
Si Si3 0.814006 0.501924 0.580839
Si Si4 0.315617 0.734627 0.705712
Si Si5 0.685769 0.256446 0.048467
Si Si6 0.184466 0.730798 0.205601
Si Si7 0.315966 0.127236 0.871263
Si Si8 0.685269 0.504297 0.822285
O O1 0.752641 0.803822 0.835554
O O2 0.782191 0.822704 0.919718
O O3 0.000000 0.908564 0.870321
O O4 0.716495 0.995662 0.872236
O O5 0.256884 0.392087 0.557041
O O6 0.238925 0.225198 0.500139
O O7 0.244133 0.180396 0.583621
O O8 0.000000 0.276862 0.547632
O O9 0.764185 0.614017 0.555684
O O10 0.746731 0.505846 0.629221
O O11 0.000000 0.490852 0.582931
O O12 0.250000 0.788524 0.750000
O O13 0.500000 0.742278 0.706940
O O14 0.263514 0.605402 0.703715
O O15 0.500000 0.239019 0.056249
O O16 0.250000 0.784222 0.250000
O O17 0.220961 0.816809 0.167417
O O18 0.271805 0.612710 0.199601
O O19 0.000000 0.710305 0.208420
O O20 0.500000 0.151259 0.864525
O O21 0.500000 0.522239 0.821336
#
# Coordination Sequence:
#
# PCOD8219520 Si02
#       8
#     8   8   8   8   8   8   8   8
#     4  11  25  43  60  84 121 161 204 255 308 366
#     4   9  18  34  60  94 124 152 198 251 301 356
#     4   9  16  30  58  92 123 153 192 243 299 355
#     4  11  24  41  62  88 120 156 198 247 303 362
#     4  10  19  35  63  93 120 158 202 249 300 359
#     4  12  25  42  64  92 125 162 201 245 301 360
#     4  11  23  42  65  89 119 158 206 258 304 356
#     4  11  20  36  63  93 125 160 199 243 299 358
#
# _framework density 20.428947999999998
#
# number of rings (size 3 to 8) (size 9 to 14) (size 15 to 20)
#    0.000    1.500    2.500    3.375    0.000    4.000 
#    0.000    5.000    0.000    0.750    0.000    0.000 
#    0.000    0.000    0.000    0.000    0.000    0.000 
#
# Total GULP energy -793784.303517 kJ/mol
# GULP energy per Si atom -12402.879742 kJ/mol
# Density = 2.038245 g / cm^3
# Si number density = 20.428948 Si / 1000 Ang^3
#
#
#
# Elastic Constant Matrix: (Units=GPa)
#
#
# Indices 1 2 3 4 5 6 
#
# 1 37.0559 6.4755 21.1567 0.0000 0.0000 0.0000
# 2 6.4755 108.3010 48.5316 0.0000 0.0000 0.0000
# 3 21.1567 48.5316 171.0049 0.0000 0.0000 0.0000
# 4 0.0000 0.0000 0.0000 10.7600 0.0000 0.0000
# 5 0.0000 0.0000 0.0000 0.0000 28.4700 0.0000
# 6 0.0000 0.0000 0.0000 0.0000 0.0000 26.5886
#
#
#
# Elastic Compliance Matrix: (Units=1/GPa)
#
#
# Indices 1 2 3 4 5 6 
#
# 1 0.029039 -0.000145 -0.003552 0.000000 0.000000 0.000000
# 2 -0.000145 0.010580 -0.002985 0.000000 0.000000 0.000000
# 3 -0.003552 -0.002985 0.007134 0.000000 0.000000 0.000000
# 4 0.000000 0.000000 0.000000 0.092937 0.000000 0.000000
# 5 0.000000 0.000000 0.000000 0.000000 0.035125 0.000000
# 6 0.000000 0.000000 0.000000 0.000000 0.000000 0.037610
#
#
# Mechanical properties :
#
#
# Convention : Reuss Voigt Hill
#
# Bulk Modulus (GPa) = 29.94806 52.07660 41.01233
# Shear Modulus (GPa) = 21.10443 29.17692 25.14067
#
# Velocity S-wave (km/s) = 3.21762 3.78327 3.51185
# Velocity P-wave (km/s) = 5.33812 6.68065 6.04676
#
# Compressibility (1/GPa) = 0.03339114
#
# Stress axis : x y z
#
# Youngs Moduli (GPa) = 34.43609 94.52117 140.16920
#
# Poissons Ratio (x) = 0.01368 0.49783
# Poissons Ratio (y) = 0.00498 0.41835
# Poissons Ratio (z) = 0.12231 0.28211
#
# Static dielectric constant tensor:
#      x y z
#    x 3.395360 0.000000 0.000000 
#    y 0.000000 3.679430 0.000000 
#    z 0.000000 0.000000 4.195770 
# 
# 
# High freq. dielectric constant tensor:
#      x y z
#    x 1.773820 0.000000 0.000000 
#    y 0.000000 1.794540 0.000000 
#    z 0.000000 0.000000 1.818930 
# 
# From -- ./inp_files/38312.got.cif
#   From: 2010.03.12/outbox.cif.g09.slc.cpg/sg53_20_cif.got.tgz:38312.got - 2010.04.16 14:36:59.
