data_PCOD8219574
_publ_section_title
;
Structure prediction by ZEFSAII (Michael W. Deem and Ramdas Pophale) SiO2 
 PCOD8219574
Probable space group: P M N A
;
_chemical_formula_sum "Si O2"
_cell_formula_units_Z 64
_cell_length_a 16.156599
_cell_length_b 21.020722
_cell_length_c 9.119257
_cell_angle_alpha 90.000000
_cell_angle_beta 90.000000
_cell_angle_gamma 90.000000
_cell_volume 3097.112849
_symmetry_space_group_name_H-M "P M N A"
_symmetry_group_IT_number 53
_symmetry_cell_setting 'orthorhombic'
loop_
_space_group_symop_operation_xyz
x,y,z
1/2-x,-y,1/2+z
x,-y,-z
1/2-x,y,1/2-z
-x,-y,-z
1/2+x,y,1/2-z
-x,y,z
1/2+x,-y,1/2+z
loop_
_atom_site_type_symbol
_atom_site_label
_atom_site_fract_x
_atom_site_fract_y
_atom_site_fract_z
Si Si1 0.904028 0.927100 0.645810
Si Si2 0.096509 0.822215 0.124800
Si Si3 0.094201 0.676891 0.868345
Si Si4 0.158370 0.193272 0.189649
Si Si5 0.598251 0.065056 0.822624
Si Si6 0.657737 0.691586 0.315906
Si Si7 0.338729 0.432067 0.177240
Si Si8 0.663423 0.427601 0.835799
O O1 0.889219 0.865945 0.742466
O O2 0.865192 0.919210 0.483955
O O3 0.000000 0.937607 0.621425
O O4 0.872427 0.993242 0.721454
O O5 0.133554 0.882518 0.211274
O O6 0.108305 0.756885 0.217241
O O7 0.000000 0.830075 0.081409
O O8 0.155251 0.816464 0.984178
O O9 0.114927 0.739654 0.771302
O O10 0.101983 0.616284 0.762456
O O11 0.000000 0.681087 0.925391
O O12 0.155247 0.675267 0.009310
O O13 0.250000 0.194237 0.250000
O O14 0.500000 0.072817 0.818594
O O15 0.750000 0.698964 0.250000
O O16 0.612650 0.631839 0.233363
O O17 0.250000 0.428854 0.250000
O O18 0.378199 0.503202 0.190641
O O19 0.326809 0.413827 0.007932
O O20 0.750000 0.428066 0.750000
#
# Coordination Sequence:
#
# PCOD8219574 Si02
#       8
#     8   8   8   8   8   8   8   8
#     4   9  17  35  58  82 111 147 189 234 278 335
#     4  10  21  39  59  85 118 154 193 238 286 343
#     4  11  24  42  60  85 118 154 194 244 296 349
#     4  11  23  37  55  82 112 147 190 237 287 341
#     4   8  17  33  57  83 111 148 189 227 278 341
#     4  10  20  36  58  84 114 152 195 239 288 345
#     4  10  19  36  61  87 116 154 198 240 284 345
#     4   9  19  34  57  88 119 152 194 239 287 345
#
# _framework density 20.664408000000002
#
# number of rings (size 3 to 8) (size 9 to 14) (size 15 to 20)
#    0.000    2.250    0.000    4.875    0.000    7.000 
#    0.000   10.625    0.000    0.000    0.000    0.000 
#    0.000    0.000    0.000    0.000    0.000    0.000 
#
# Total GULP energy -792960.184489 kJ/mol
# GULP energy per Si atom -12390.002883 kJ/mol
# Density = 2.061737 g / cm^3
# Si number density = 20.664408 Si / 1000 Ang^3
#
#
#
# Elastic Constant Matrix: (Units=GPa)
#
#
# Indices 1 2 3 4 5 6 
#
# 1 46.3433 23.7665 28.6944 0.0000 0.0000 0.0000
# 2 23.7665 177.6250 81.5816 0.0000 0.0000 0.0000
# 3 28.6944 81.5816 111.8251 0.0000 0.0000 0.0000
# 4 0.0000 0.0000 0.0000 42.3688 0.0000 0.0000
# 5 0.0000 0.0000 0.0000 0.0000 43.1242 0.0000
# 6 0.0000 0.0000 0.0000 0.0000 0.0000 22.0304
#
#
#
# Elastic Compliance Matrix: (Units=1/GPa)
#
#
# Indices 1 2 3 4 5 6 
#
# 1 0.025699 -0.000616 -0.006145 0.000000 0.000000 0.000000
# 2 -0.000616 0.008482 -0.006030 0.000000 0.000000 0.000000
# 3 -0.006145 -0.006030 0.014918 0.000000 0.000000 0.000000
# 4 0.000000 0.000000 0.000000 0.023602 0.000000 0.000000
# 5 0.000000 0.000000 0.000000 0.000000 0.023189 0.000000
# 6 0.000000 0.000000 0.000000 0.000000 0.000000 0.045392
#
#
# Mechanical properties :
#
#
# Convention : Reuss Voigt Hill
#
# Bulk Modulus (GPa) = 42.52187 67.09761 54.80974
# Shear Modulus (GPa) = 28.62019 34.95474 31.78747
#
# Velocity S-wave (km/s) = 3.72560 4.11730 3.92634
# Velocity P-wave (km/s) = 6.25530 7.42587 6.86558
#
# Compressibility (1/GPa) = 0.02351731
#
# Stress axis : x y z
#
# Youngs Moduli (GPa) = 38.91242 117.90149 67.03246
#
# Poissons Ratio (x) = 0.07267 0.41189
# Poissons Ratio (y) = 0.02398 0.40418
# Poissons Ratio (z) = 0.23910 0.71090
#
# Static dielectric constant tensor:
#      x y z
#    x 3.256290 0.000000 0.000000 
#    y 0.000000 4.696900 0.000000 
#    z 0.000000 0.000000 3.822770 
# 
# 
# High freq. dielectric constant tensor:
#      x y z
#    x 1.764390 0.000000 0.000000 
#    y 0.000000 1.840120 0.000000 
#    z 0.000000 0.000000 1.803290 
# 
# From -- ./inp_files/8950.got.cif
#   From: 2010.03.12/outbox.cif.g09.slc.cpg/sg53_5_cif.got.tgz:8950.got - 2010.04.16 14:36:59.
