data_PCOD8219337
_publ_section_title
;
Structure prediction by ZEFSAII (Michael W. Deem and Ramdas Pophale) SiO2 
 PCOD8219337
Probable space group: P M N A
;
_chemical_formula_sum "Si O2"
_cell_formula_units_Z 64
_cell_length_a 8.794118
_cell_length_b 21.552455
_cell_length_c 17.815494
_cell_angle_alpha 90.000000
_cell_angle_beta 90.000000
_cell_angle_gamma 90.000000
_cell_volume 3376.656670
_symmetry_space_group_name_H-M "P M N A"
_symmetry_group_IT_number 53
_symmetry_cell_setting 'orthorhombic'
loop_
_space_group_symop_operation_xyz
x,y,z
1/2-x,-y,1/2+z
x,-y,-z
1/2-x,y,1/2-z
-x,-y,-z
1/2+x,y,1/2-z
-x,y,z
1/2+x,-y,1/2+z
loop_
_atom_site_type_symbol
_atom_site_label
_atom_site_fract_x
_atom_site_fract_y
_atom_site_fract_z
Si Si1 0.674796 0.692370 0.459996
Si Si2 0.820169 0.105187 0.580822
Si Si3 0.323579 0.218049 0.670242
Si Si4 0.678880 0.371040 0.326408
Si Si5 0.825286 0.258209 0.397178
Si Si6 0.824510 0.117347 0.408005
Si Si7 0.820512 0.004903 0.169486
Si Si8 0.678781 0.565448 0.523894
O O1 0.500000 0.700505 0.486238
O O2 0.700283 0.718602 0.376771
O O3 0.778194 0.731408 0.516575
O O4 0.718346 0.619174 0.463061
O O5 0.756811 0.161253 0.629708
O O6 0.772779 0.113811 0.494501
O O7 0.000000 0.102496 0.591058
O O8 0.747112 0.041314 0.607917
O O9 0.250000 0.230846 0.750000
O O10 0.500000 0.201435 0.679697
O O11 0.750000 0.397033 0.250000
O O12 0.500000 0.374148 0.319761
O O13 0.726984 0.299808 0.340521
O O14 0.741178 0.413280 0.394806
O O15 0.799180 0.186536 0.377071
O O16 0.000000 0.277224 0.387941
O O17 0.720753 0.074179 0.356220
O O18 0.000000 0.096823 0.400322
O O19 0.750000 0.989184 0.250000
O O20 0.000000 0.996998 0.174811
O O21 0.755687 0.500000 0.500000
O O22 0.500000 0.555850 0.530308
#
# Coordination Sequence:
#
# PCOD8219337 Si02
#       8
#     8   8   8   8   8   8   8   8
#     4   9  18  33  54  80 110 144 184 228 272 326
#     4  11  22  40  62  83 110 143 183 228 280 336
#     4  11  22  35  54  81 113 145 185 231 279 332
#     4  10  20  34  54  82 114 150 189 233 280 328
#     4  10  19  34  57  83 110 143 180 222 277 333
#     4  10  22  39  60  85 111 143 180 225 279 336
#     4  12  26  42  59  80 109 146 185 230 280 331
#     4   8  15  31  56  82 108 145 190 230 273 326
#
# _framework density 18.953659999999999
#
# number of rings (size 3 to 8) (size 9 to 14) (size 15 to 20)
#    0.000    1.875    1.250    4.125    0.000    4.500 
#    0.000    0.625    0.000    9.375    0.000    0.000 
#    0.000    0.000    0.000    0.000    0.000    0.000 
#
# Total GULP energy -793707.857828 kJ/mol
# GULP energy per Si atom -12401.685279 kJ/mol
# Density = 1.891052 g / cm^3
# Si number density = 18.953660 Si / 1000 Ang^3
#
#
#
# Elastic Constant Matrix: (Units=GPa)
#
#
# Indices 1 2 3 4 5 6 
#
# 1 78.8613 30.4028 26.7241 0.0000 0.0000 0.0000
# 2 30.4028 112.2367 33.4339 0.0000 0.0000 0.0000
# 3 26.7241 33.4339 81.8739 0.0000 0.0000 0.0000
# 4 0.0000 0.0000 0.0000 22.6989 0.0000 0.0000
# 5 0.0000 0.0000 0.0000 0.0000 30.9114 0.0000
# 6 0.0000 0.0000 0.0000 0.0000 0.0000 16.6657
#
#
#
# Elastic Compliance Matrix: (Units=1/GPa)
#
#
# Indices 1 2 3 4 5 6 
#
# 1 0.015086 -0.002983 -0.003706 0.000000 0.000000 0.000000
# 2 -0.002983 0.010733 -0.003410 0.000000 0.000000 0.000000
# 3 -0.003706 -0.003410 0.014816 0.000000 0.000000 0.000000
# 4 0.000000 0.000000 0.000000 0.044055 0.000000 0.000000
# 5 0.000000 0.000000 0.000000 0.000000 0.032350 0.000000
# 6 0.000000 0.000000 0.000000 0.000000 0.000000 0.060004
#
#
# Mechanical properties :
#
#
# Convention : Reuss Voigt Hill
#
# Bulk Modulus (GPa) = 48.92643 50.45483 49.69063
# Shear Modulus (GPa) = 24.50328 26.21595 25.35961
#
# Velocity S-wave (km/s) = 3.59945 3.72312 3.66181
# Velocity P-wave (km/s) = 6.56845 6.72012 6.64472
#
# Compressibility (1/GPa) = 0.02043885
#
# Stress axis : x y z
#
# Youngs Moduli (GPa) = 66.28528 93.16798 67.49474
#
# Poissons Ratio (x) = 0.27788 0.25016
# Poissons Ratio (y) = 0.19770 0.23012
# Poissons Ratio (z) = 0.24567 0.31766
#
# Static dielectric constant tensor:
#      x y z
#    x 3.435330 0.000000 0.000000 
#    y 0.000000 3.644750 0.000000 
#    z 0.000000 0.000000 3.548880 
# 
# 
# High freq. dielectric constant tensor:
#      x y z
#    x 1.732840 0.000000 0.000000 
#    y 0.000000 1.735670 0.000000 
#    z 0.000000 0.000000 1.734700 
# 
# From -- ./inp_files/26863.got.cif
#   From: 2010.03.12/outbox.cif.g09.slc.cpg/sg53_14_cif.got.tgz:26863.got - 2010.04.16 14:36:59.
