data_PCOD8219823
_publ_section_title
;
Structure prediction by ZEFSAII (Michael W. Deem and Ramdas Pophale) SiO2 
 PCOD8219823
Probable space group: P M N A
;
_chemical_formula_sum "Si O2"
_cell_formula_units_Z 40
_cell_length_a 8.962571
_cell_length_b 26.135822
_cell_length_c 9.142361
_cell_angle_alpha 90.000000
_cell_angle_beta 90.000000
_cell_angle_gamma 90.000000
_cell_volume 2141.544676
_symmetry_space_group_name_H-M "P M N A"
_symmetry_group_IT_number 53
_symmetry_cell_setting 'orthorhombic'
loop_
_space_group_symop_operation_xyz
x,y,z
1/2-x,-y,1/2+z
x,-y,-z
1/2-x,y,1/2-z
-x,-y,-z
1/2+x,y,1/2-z
-x,y,z
1/2+x,-y,1/2+z
loop_
_atom_site_type_symbol
_atom_site_label
_atom_site_fract_x
_atom_site_fract_y
_atom_site_fract_z
Si Si1 0.823963 0.854254 0.594193
Si Si2 0.324176 0.951553 0.093095
Si Si3 0.673786 0.759983 0.094194
Si Si4 0.323989 0.450642 0.592386
Si Si5 0.325339 0.647398 0.093093
O O1 0.750000 0.861329 0.750000
O O2 0.773062 0.900592 0.490814
O O3 0.766010 0.801663 0.520545
O O4 0.000000 0.853774 0.617012
O O5 0.250000 0.952863 0.250000
O O6 0.500000 0.953157 0.115960
O O7 0.268275 0.000000 0.000000
O O8 0.750000 0.767549 0.250000
O O9 0.500000 0.768303 0.123773
O O10 0.703415 0.703542 0.023164
O O11 0.279738 0.500000 0.500000
O O12 0.250000 0.457181 0.750000
O O13 0.500000 0.444168 0.608318
O O14 0.255594 0.400035 0.510207
O O15 0.250000 0.649276 0.250000
O O16 0.500000 0.635512 0.106241
#
# Coordination Sequence:
#
# PCOD8219823 Si02
#       5
#     8   8   8   8   8
#     4  10  21  36  52  74 105 137 171 209 250 299
#     4  10  21  36  55  80 107 136 173 214 254 300
#     4   9  18  32  51  75  99 126 164 207 249 297
#     4  10  20  33  50  73  99 128 164 203 245 296
#     4   9  16  28  48  71  96 126 161 202 247 294
#
# _framework density 18.678106
#
# number of rings (size 3 to 8) (size 9 to 14) (size 15 to 20)
#    0.000    2.400    0.000    3.600    0.000    4.400 
#    0.000    1.000    0.000    4.800    0.000    0.000 
#    0.000    0.000    0.000    0.000    0.000    0.000 
#
# Total GULP energy -495797.838329 kJ/mol
# GULP energy per Si atom -12394.945958 kJ/mol
# Density = 1.863559 g / cm^3
# Si number density = 18.678106 Si / 1000 Ang^3
#
#
#
# Elastic Constant Matrix: (Units=GPa)
#
#
# Indices 1 2 3 4 5 6 
#
# 1 62.4325 57.5336 40.3681 0.0000 0.0000 0.0000
# 2 57.5336 203.4041 80.7754 0.0000 0.0000 0.0000
# 3 40.3681 80.7754 113.7225 0.0000 0.0000 0.0000
# 4 0.0000 0.0000 0.0000 34.0119 0.0000 0.0000
# 5 0.0000 0.0000 0.0000 0.0000 28.1934 0.0000
# 6 0.0000 0.0000 0.0000 0.0000 0.0000 -1.2022
#
#
#
# Elastic Compliance Matrix: (Units=1/GPa)
#
#
# Indices 1 2 3 4 5 6 
#
# 1 0.023585 -0.004661 -0.005061 0.000000 0.000000 0.000000
# 2 -0.004661 0.007769 -0.003864 0.000000 0.000000 0.000000
# 3 -0.005061 -0.003864 0.013334 0.000000 0.000000 0.000000
# 4 0.000000 0.000000 0.000000 0.029401 0.000000 0.000000
# 5 0.000000 0.000000 0.000000 0.000000 0.035469 0.000000
# 6 0.000000 0.000000 0.000000 0.000000 0.000000 -0.831788
#
#
# Mechanical properties :
#
#
# Convention : Reuss Voigt Hill
#
# Bulk Modulus (GPa) = 57.08971 81.87925 69.48448
# Shear Modulus (GPa) = -7.25461 25.59275 9.16907
#
# Velocity S-wave (km/s) = -1.97293 3.70564 2.21803
# Velocity P-wave (km/s) = 5.04395 7.88931 6.62128
#
# Compressibility (1/GPa) = 0.01751629
#
# Stress axis : x y z
#
# Youngs Moduli (GPa) = 42.39917 128.71473 74.99492
#
# Poissons Ratio (x) = 0.59998 0.37957
# Poissons Ratio (y) = 0.19764 0.28976
# Poissons Ratio (z) = 0.21459 0.49731
#
# Static dielectric constant tensor:
#      x y z
#    x 3.419620 0.000000 0.000000 
#    y 0.000000 4.486590 0.000000 
#    z 0.000000 0.000000 3.101700 
# 
# 
# High freq. dielectric constant tensor:
#      x y z
#    x 1.725390 0.000000 0.000000 
#    y 0.000000 1.756610 0.000000 
#    z 0.000000 0.000000 1.691880 
# 
# From -- ./inp_files/6427.got.cif
#   From: 2010.03.12/outbox.cif.g09.slc.cpg/sg53_4_cif.got.tgz:6427.got - 2010.04.16 14:36:59.
