data_PCOD8219679
_publ_section_title
;
Structure prediction by ZEFSAII (Michael W. Deem and Ramdas Pophale) SiO2 
 PCOD8219679
Probable space group: P M N A
;
_chemical_formula_sum "Si O2"
_cell_formula_units_Z 32
_cell_length_a 17.979522
_cell_length_b 7.690708
_cell_length_c 11.694186
_cell_angle_alpha 90.000000
_cell_angle_beta 90.000000
_cell_angle_gamma 90.000000
_cell_volume 1617.016536
_symmetry_space_group_name_H-M "P M N A"
_symmetry_group_IT_number 53
_symmetry_cell_setting 'orthorhombic'
loop_
_space_group_symop_operation_xyz
x,y,z
1/2-x,-y,1/2+z
x,-y,-z
1/2-x,y,1/2-z
-x,-y,-z
1/2+x,y,1/2-z
-x,y,z
1/2+x,-y,1/2+z
loop_
_atom_site_type_symbol
_atom_site_label
_atom_site_fract_x
_atom_site_fract_y
_atom_site_fract_z
Si Si1 0.414534 0.800817 0.516536
Si Si2 0.585896 0.982128 0.866341
Si Si3 0.914182 0.676812 0.235941
Si Si4 0.162462 0.325233 0.239447
O O1 0.500000 0.789370 0.558752
O O2 0.403290 0.697847 0.399385
O O3 0.362014 0.713916 0.610081
O O4 0.390955 0.000000 0.500000
O O5 0.500000 0.952756 0.834059
O O6 0.631633 0.817424 0.825621
O O7 0.615922 0.153707 0.802174
O O8 0.598643 0.000000 0.000000
O O9 0.867774 0.512296 0.279110
O O10 0.000000 0.645258 0.267182
O O11 0.250000 0.326810 0.250000
#
# Coordination Sequence:
#
# PCOD8219679 Si02
#       4
#     8   8   8   8
#     4  10  19  39  71  95 115 154 213 267 305 348
#     4  10  22  43  67  89 117 162 215 254 295 358
#     4  10  21  41  69  93 117 158 213 265 300 347
#     4  12  25  39  58  93 133 165 193 247 316 380
#
# _framework density 19.789529999999999
#
# number of rings (size 3 to 8) (size 9 to 14) (size 15 to 20)
#    0.000    1.500    2.500    3.000    0.000    5.000 
#    9.000    3.750    0.000    0.000    0.000    0.000 
#    0.000    0.000    0.000    0.000    0.000    0.000 
#
# Total GULP energy -396990.936421 kJ/mol
# GULP energy per Si atom -12405.966763 kJ/mol
# Density = 1.974449 g / cm^3
# Si number density = 19.789530 Si / 1000 Ang^3
#
#
#
# Elastic Constant Matrix: (Units=GPa)
#
#
# Indices 1 2 3 4 5 6 
#
# 1 105.0307 71.5442 43.5083 0.0000 0.0000 0.0000
# 2 71.5442 155.7014 36.3088 0.0000 0.0000 0.0000
# 3 43.5083 36.3088 84.7338 0.0000 0.0000 0.0000
# 4 0.0000 0.0000 0.0000 13.0295 0.0000 0.0000
# 5 0.0000 0.0000 0.0000 0.0000 21.7564 0.0000
# 6 0.0000 0.0000 0.0000 0.0000 0.0000 -0.7949
#
#
#
# Elastic Compliance Matrix: (Units=1/GPa)
#
#
# Indices 1 2 3 4 5 6 
#
# 1 0.015943 -0.006018 -0.005608 0.000000 0.000000 0.000000
# 2 -0.006018 0.009407 -0.000941 0.000000 0.000000 0.000000
# 3 -0.005608 -0.000941 0.015084 0.000000 0.000000 0.000000
# 4 0.000000 0.000000 0.000000 0.076749 0.000000 0.000000
# 5 0.000000 0.000000 0.000000 0.000000 0.045964 0.000000
# 6 0.000000 0.000000 0.000000 0.000000 0.000000 -1.258097
#
#
# Mechanical properties :
#
#
# Convention : Reuss Voigt Hill
#
# Bulk Modulus (GPa) = 65.35349 72.02094 68.68722
# Shear Modulus (GPa) = -4.69609 19.73851 7.52121
#
# Velocity S-wave (km/s) = -1.54213 3.16163 1.95163
# Velocity P-wave (km/s) = 5.47038 7.05693 6.31369
#
# Compressibility (1/GPa) = 0.01530140
#
# Stress axis : x y z
#
# Youngs Moduli (GPa) = 62.72169 106.30005 66.29453
#
# Poissons Ratio (x) = 0.63974 0.37176
# Poissons Ratio (y) = 0.37748 0.06237
# Poissons Ratio (z) = 0.35172 0.10002
#
# Static dielectric constant tensor:
#      x y z
#    x 3.400560 0.000000 0.000000 
#    y 0.000000 3.796730 0.000000 
#    z 0.000000 0.000000 3.583150 
# 
# 
# High freq. dielectric constant tensor:
#      x y z
#    x 1.748600 0.000000 0.000000 
#    y 0.000000 1.791860 0.000000 
#    z 0.000000 0.000000 1.774890 
# 
# From -- ./inp_files/15409.got.cif
#   From: 2010.03.12/outbox.cif.g09.slc.cpg/sg53_8_cif.got.tgz:15409.got - 2010.04.16 14:36:59.
