data_PCOD8219930
_publ_section_title
;
Structure prediction by ZEFSAII (Michael W. Deem and Ramdas Pophale) SiO2 
 PCOD8219930
Probable space group: P M N A
;
_chemical_formula_sum "Si O2"
_cell_formula_units_Z 52
_cell_length_a 23.679146
_cell_length_b 11.518415
_cell_length_c 9.419237
_cell_angle_alpha 90.000000
_cell_angle_beta 90.000000
_cell_angle_gamma 90.000000
_cell_volume 2569.061386
_symmetry_space_group_name_H-M "P M N A"
_symmetry_group_IT_number 53
_symmetry_cell_setting 'orthorhombic'
loop_
_space_group_symop_operation_xyz
x,y,z
1/2-x,-y,1/2+z
x,-y,-z
1/2-x,y,1/2-z
-x,-y,-z
1/2+x,y,1/2-z
-x,y,z
1/2+x,-y,1/2+z
loop_
_atom_site_type_symbol
_atom_site_label
_atom_site_fract_x
_atom_site_fract_y
_atom_site_fract_z
Si Si1 0.500000 0.865084 0.182648
Si Si2 0.192168 0.020564 0.667555
Si Si3 0.935429 0.449064 0.649953
Si Si4 0.877170 0.200794 0.283357
Si Si5 0.101534 0.599789 0.905298
Si Si6 0.000000 0.877227 0.782676
Si Si7 0.500000 0.271028 0.539383
Si Si8 0.114484 0.218283 0.598675
O O1 0.500000 0.761738 0.296884
O O2 0.444344 0.854413 0.085181
O O3 0.500000 0.986528 0.263057
O O4 0.250000 0.034570 0.750000
O O5 0.158199 0.140660 0.688368
O O6 0.201361 0.000000 0.500000
O O7 0.157416 0.917313 0.744033
O O8 0.915866 0.500000 0.500000
O O9 0.929341 0.545067 0.769878
O O10 0.895216 0.338440 0.681823
O O11 0.000000 0.406785 0.639620
O O12 0.859667 0.296539 0.161811
O O13 0.944413 0.181719 0.282391
O O14 0.862085 0.244991 0.441084
O O15 0.134047 0.500000 0.000000
O O16 0.055023 0.651231 0.011476
O O17 0.000000 0.847719 0.949807
#
# Coordination Sequence:
#
# PCOD8219930 Si02
#       8
#     4   8   8   8   8   4   4   8
#     4  12  20  33  52  92 127 156 206 243 312 377
#     4  10  23  46  67  90 117 157 207 262 318 364
#     4  11  21  33  56  90 128 164 204 238 289 373
#     4  10  21  38  60  90 123 161 197 250 306 366
#     4  11  21  36  53  81 127 170 201 233 292 359
#     4  10  20  33  53  86 129 161 194 238 314 369
#     4  10  22  34  47  76 133 178 193 237 290 361
#     4  11  21  35  62  90 125 159 200 254 304 363
#
# _framework density 20.240856000000001
#
# number of rings (size 3 to 8) (size 9 to 14) (size 15 to 20)
#    0.000    1.385    4.615    1.846    0.000    0.615 
#    8.308    0.000    0.000    0.923    0.000    0.000 
#    0.000    0.000    0.000    0.000    0.000    0.000 
#
# Total GULP energy -644549.094713 kJ/mol
# GULP energy per Si atom -12395.174898 kJ/mol
# Density = 2.019479 g / cm^3
# Si number density = 20.240856 Si / 1000 Ang^3
#
#
#
# Elastic Constant Matrix: (Units=GPa)
#
#
# Indices 1 2 3 4 5 6 
#
# 1 77.5330 37.0717 12.3567 0.0000 0.0000 0.0000
# 2 37.0717 137.0546 43.7987 0.0000 0.0000 0.0000
# 3 12.3567 43.7987 81.4497 0.0000 0.0000 0.0000
# 4 0.0000 0.0000 0.0000 40.2789 0.0000 0.0000
# 5 0.0000 0.0000 0.0000 0.0000 22.0561 0.0000
# 6 0.0000 0.0000 0.0000 0.0000 0.0000 13.9363
#
#
#
# Elastic Compliance Matrix: (Units=1/GPa)
#
#
# Indices 1 2 3 4 5 6 
#
# 1 0.014814 -0.003971 -0.000112 0.000000 0.000000 0.000000
# 2 -0.003971 0.009875 -0.004708 0.000000 0.000000 0.000000
# 3 -0.000112 -0.004708 0.014826 0.000000 0.000000 0.000000
# 4 0.000000 0.000000 0.000000 0.024827 0.000000 0.000000
# 5 0.000000 0.000000 0.000000 0.000000 0.045339 0.000000
# 6 0.000000 0.000000 0.000000 0.000000 0.000000 0.071755
#
#
# Mechanical properties :
#
#
# Convention : Reuss Voigt Hill
#
# Bulk Modulus (GPa) = 45.59238 53.61016 49.60127
# Shear Modulus (GPa) = 24.23306 28.77493 26.50399
#
# Velocity S-wave (km/s) = 3.46386 3.77454 3.62253
# Velocity P-wave (km/s) = 6.21060 6.74832 6.48504
#
# Compressibility (1/GPa) = 0.02193349
#
# Stress axis : x y z
#
# Youngs Moduli (GPa) = 67.50172 101.26569 67.44904
#
# Poissons Ratio (x) = 0.40216 0.00755
# Poissons Ratio (y) = 0.26807 0.31753
# Poissons Ratio (z) = 0.00756 0.47673
#
# Static dielectric constant tensor:
#      x y z
#    x 3.169670 0.000000 0.000000 
#    y 0.000000 3.983840 0.000000 
#    z 0.000000 0.000000 3.714670 
# 
# 
# High freq. dielectric constant tensor:
#      x y z
#    x 1.723430 0.000000 0.000000 
#    y 0.000000 1.812230 0.000000 
#    z 0.000000 0.000000 1.797990 
# 
# From -- ./inp_files/12537.got.cif
#   From: 2010.03.12/outbox.cif.g09.slc.cpg/sg53_7_cif.got.tgz:12537.got - 2010.04.16 14:36:59.
