data_PCOD8219396
_publ_section_title
;
Structure prediction by ZEFSAII (Michael W. Deem and Ramdas Pophale) SiO2 
 PCOD8219396
Probable space group: P M N A
;
_chemical_formula_sum "Si O2"
_cell_formula_units_Z 28
_cell_length_a 16.492726
_cell_length_b 7.467288
_cell_length_c 10.106065
_cell_angle_alpha 90.000000
_cell_angle_beta 90.000000
_cell_angle_gamma 90.000000
_cell_volume 1244.621884
_symmetry_space_group_name_H-M "P M N A"
_symmetry_group_IT_number 53
_symmetry_cell_setting 'orthorhombic'
loop_
_space_group_symop_operation_xyz
x,y,z
1/2-x,-y,1/2+z
x,-y,-z
1/2-x,y,1/2-z
-x,-y,-z
1/2+x,y,1/2-z
-x,y,z
1/2+x,-y,1/2+z
loop_
_atom_site_type_symbol
_atom_site_label
_atom_site_fract_x
_atom_site_fract_y
_atom_site_fract_z
Si Si1 0.192666 0.500000 0.500000
Si Si2 0.406524 0.267081 0.834601
Si Si3 0.403582 0.951003 0.646867
Si Si4 0.847131 0.560474 0.858363
O O1 0.140622 0.681844 0.470633
O O2 0.248702 0.537473 0.630058
O O3 0.500000 0.237212 0.870353
O O4 0.393673 0.442454 0.747306
O O5 0.371632 0.095157 0.755602
O O6 0.500000 0.946100 0.649777
O O7 0.366372 0.761737 0.683556
O O8 0.372415 0.000000 0.500000
O O9 0.885059 0.500000 0.000000
#
# Coordination Sequence:
#
# PCOD8219396 Si02
#       4
#     4   8   8   8
#     4  10  23  42  59  88 134 180 212 264 341 404
#     4  11  22  40  65  91 128 170 219 272 329 397
#     4  10  19  34  60  94 120 153 207 268 325 380
#     4  10  21  37  63  88 128 161 214 274 327 390
#
# _framework density 22.496794000000001
#
# number of rings (size 3 to 8) (size 9 to 14) (size 15 to 20)
#    0.857    0.857    2.857    2.143    0.000    1.143 
#    0.000   15.714    0.000    5.143    0.000    0.000 
#    0.000    0.000    0.000    0.000    0.000    0.000 
#
# Total GULP energy -347042.524117 kJ/mol
# GULP energy per Si atom -12394.375861 kJ/mol
# Density = 2.244559 g / cm^3
# Si number density = 22.496794 Si / 1000 Ang^3
#
#
#
# Elastic Constant Matrix: (Units=GPa)
#
#
# Indices 1 2 3 4 5 6 
#
# 1 20.9531 19.1858 26.6623 0.0000 0.0000 0.0000
# 2 19.1858 170.8358 26.7716 0.0000 0.0000 0.0000
# 3 26.6623 26.7716 60.8767 0.0000 0.0000 0.0000
# 4 0.0000 0.0000 0.0000 41.0777 0.0000 0.0000
# 5 0.0000 0.0000 0.0000 0.0000 23.0551 0.0000
# 6 0.0000 0.0000 0.0000 0.0000 0.0000 14.7972
#
#
#
# Elastic Compliance Matrix: (Units=1/GPa)
#
#
# Indices 1 2 3 4 5 6 
#
# 1 0.112034 -0.005255 -0.046757 0.000000 0.000000 0.000000
# 2 -0.005255 0.006533 -0.000572 0.000000 0.000000 0.000000
# 3 -0.046757 -0.000572 0.037156 0.000000 0.000000 0.000000
# 4 0.000000 0.000000 0.000000 0.024344 0.000000 0.000000
# 5 0.000000 0.000000 0.000000 0.000000 0.043374 0.000000
# 6 0.000000 0.000000 0.000000 0.000000 0.000000 0.067580
#
#
# Mechanical properties :
#
#
# Convention : Reuss Voigt Hill
#
# Bulk Modulus (GPa) = 19.77971 44.21166 31.99568
# Shear Modulus (GPa) = 12.10534 27.78909 19.94722
#
# Velocity S-wave (km/s) = 2.32220 3.51842 2.98093
# Velocity P-wave (km/s) = 4.00018 6.01671 5.10893
#
# Compressibility (1/GPa) = 0.05055687
#
# Stress axis : x y z
#
# Youngs Moduli (GPa) = 8.92587 153.06194 26.91341
#
# Poissons Ratio (x) = 0.80431 1.25838
# Poissons Ratio (y) = 0.04690 0.01539
# Poissons Ratio (z) = 0.41735 0.08750
#
# Static dielectric constant tensor:
#      x y z
#    x 3.950700 0.000000 0.000000 
#    y 0.000000 4.224040 0.000000 
#    z 0.000000 0.000000 5.186300 
# 
# 
# High freq. dielectric constant tensor:
#      x y z
#    x 1.875280 0.000000 0.000000 
#    y 0.000000 1.882130 0.000000 
#    z 0.000000 0.000000 1.891160 
# 
# From -- ./inp_files/17299.got.cif
#   From: 2010.03.12/outbox.cif.g09.slc.cpg/sg53_9_cif.got.tgz:17299.got - 2010.04.16 14:36:59.
