data_PCOD8219744
_publ_section_title
;
Structure prediction by ZEFSAII (Michael W. Deem and Ramdas Pophale) SiO2 
 PCOD8219744
Probable space group: P M N A
;
_chemical_formula_sum "Si O2"
_cell_formula_units_Z 60
_cell_length_a 9.564340
_cell_length_b 11.574711
_cell_length_c 30.719656
_cell_angle_alpha 90.000000
_cell_angle_beta 90.000000
_cell_angle_gamma 90.000000
_cell_volume 3400.803279
_symmetry_space_group_name_H-M "P M N A"
_symmetry_group_IT_number 53
_symmetry_cell_setting 'orthorhombic'
loop_
_space_group_symop_operation_xyz
x,y,z
1/2-x,-y,1/2+z
x,-y,-z
1/2-x,y,1/2-z
-x,-y,-z
1/2+x,y,1/2-z
-x,y,z
1/2+x,-y,1/2+z
loop_
_atom_site_type_symbol
_atom_site_label
_atom_site_fract_x
_atom_site_fract_y
_atom_site_fract_z
Si Si1 0.157715 0.380059 0.320694
Si Si2 0.663731 0.249388 0.387879
Si Si3 0.165574 0.840263 0.537231
Si Si4 0.654197 0.952247 0.676920
Si Si5 0.163250 0.155182 0.650157
Si Si6 0.661725 0.632931 0.208975
Si Si7 0.164777 0.900120 0.444147
Si Si8 0.250000 0.208352 0.250000
O O1 0.266174 0.347999 0.358445
O O2 0.207666 0.504843 0.304347
O O3 0.156175 0.289563 0.280819
O O4 0.000000 0.385158 0.339529
O O5 0.500000 0.277577 0.394048
O O6 0.743403 0.248778 0.434226
O O7 0.688514 0.126375 0.364872
O O8 0.209065 0.824322 0.486383
O O9 0.000000 0.819511 0.544906
O O10 0.213802 0.968242 0.551151
O O11 0.500000 0.005938 0.672648
O O12 0.654985 0.873788 0.720170
O O13 0.763559 0.056761 0.679289
O O14 0.194458 0.281169 0.669161
O O15 0.223791 0.153848 0.600719
O O16 0.000000 0.125139 0.651114
O O17 0.750000 0.675522 0.250000
O O18 0.500000 0.637204 0.222273
O O19 0.000000 0.900367 0.442971
#
# Coordination Sequence:
#
# PCOD8219744 Si02
#       8
#     8   8   8   8   8   8   8   4
#     4  10  20  36  56  74  97 133 175 214 254 301
#     4  10  20  32  49  78 109 133 163 211 260 305
#     4   9  15  28  51  76 102 136 173 206 252 311
#     4  10  21  33  47  72 103 132 164 202 251 306
#     4  10  20  35  53  74 104 138 170 208 251 301
#     4  10  22  38  56  77  99 133 177 215 251 296
#     4   8  15  28  49  75 102 135 174 210 247 303
#     4  10  20  34  52  72 100 128 170 212 260 294
#
# _framework density 17.642890999999999
#
# number of rings (size 3 to 8) (size 9 to 14) (size 15 to 20)
#    0.000    2.400    2.000    1.600    0.933    4.267 
#    0.000    2.000    0.000    0.800    0.000    5.600 
#    0.000    0.000    0.000    0.000    0.000    0.000 
#
# Total GULP energy -743810.590804 kJ/mol
# GULP energy per Si atom -12396.843180 kJ/mol
# Density = 1.760274 g / cm^3
# Si number density = 17.642891 Si / 1000 Ang^3
#
#
#
# Elastic Constant Matrix: (Units=GPa)
#
#
# Indices 1 2 3 4 5 6 
#
# 1 70.6749 34.4742 40.8855 0.0000 0.0000 0.0000
# 2 34.4742 76.5920 56.4492 0.0000 0.0000 0.0000
# 3 40.8855 56.4492 123.0265 0.0000 0.0000 0.0000
# 4 0.0000 0.0000 0.0000 22.2604 0.0000 0.0000
# 5 0.0000 0.0000 0.0000 0.0000 23.1913 0.0000
# 6 0.0000 0.0000 0.0000 0.0000 0.0000 20.8670
#
#
#
# Elastic Compliance Matrix: (Units=1/GPa)
#
#
# Indices 1 2 3 4 5 6 
#
# 1 0.019151 -0.005937 -0.003640 0.000000 0.000000 0.000000
# 2 -0.005937 0.021568 -0.007923 0.000000 0.000000 0.000000
# 3 -0.003640 -0.007923 0.012974 0.000000 0.000000 0.000000
# 4 0.000000 0.000000 0.000000 0.044923 0.000000 0.000000
# 5 0.000000 0.000000 0.000000 0.000000 0.043120 0.000000
# 6 0.000000 0.000000 0.000000 0.000000 0.000000 0.047922
#
#
# Mechanical properties :
#
#
# Convention : Reuss Voigt Hill
#
# Bulk Modulus (GPa) = 53.49981 59.32348 56.41164
# Shear Modulus (GPa) = 21.65541 22.49604 22.07572
#
# Velocity S-wave (km/s) = 3.50727 3.57470 3.54114
# Velocity P-wave (km/s) = 6.84038 7.12289 6.98306
#
# Compressibility (1/GPa) = 0.01869166
#
# Stress axis : x y z
#
# Youngs Moduli (GPa) = 52.21590 46.36532 77.07958
#
# Poissons Ratio (x) = 0.27527 0.28061
# Poissons Ratio (y) = 0.31000 0.61071
# Poissons Ratio (z) = 0.19009 0.36736
#
# Static dielectric constant tensor:
#      x y z
#    x 3.068800 0.000000 0.000000 
#    y 0.000000 3.063580 0.000000 
#    z 0.000000 0.000000 3.610320 
# 
# 
# High freq. dielectric constant tensor:
#      x y z
#    x 1.669120 0.000000 0.000000 
#    y 0.000000 1.653950 0.000000 
#    z 0.000000 0.000000 1.686070 
# 
# From -- ./inp_files/38053.got.cif
#   From: 2010.03.12/outbox.cif.g09.slc.cpg/sg53_20_cif.got.tgz:38053.got - 2010.04.16 14:36:59.
