data_PCOD8219209
_publ_section_title
;
Structure prediction by ZEFSAII (Michael W. Deem and Ramdas Pophale) SiO2 
 PCOD8219209
Probable space group: P M N A
;
_chemical_formula_sum "Si O2"
_cell_formula_units_Z 64
_cell_length_a 9.123023
_cell_length_b 23.120051
_cell_length_c 14.715619
_cell_angle_alpha 90.000000
_cell_angle_beta 90.000000
_cell_angle_gamma 90.000000
_cell_volume 3103.888362
_symmetry_space_group_name_H-M "P M N A"
_symmetry_group_IT_number 53
_symmetry_cell_setting 'orthorhombic'
loop_
_space_group_symop_operation_xyz
x,y,z
1/2-x,-y,1/2+z
x,-y,-z
1/2-x,y,1/2-z
-x,-y,-z
1/2+x,y,1/2-z
-x,y,z
1/2+x,-y,1/2+z
loop_
_atom_site_type_symbol
_atom_site_label
_atom_site_fract_x
_atom_site_fract_y
_atom_site_fract_z
Si Si1 0.840424 0.104382 0.831491
Si Si2 0.159717 0.237616 0.832487
Si Si3 0.330872 0.456933 0.157911
Si Si4 0.830952 0.065886 0.499389
Si Si5 0.170907 0.845286 0.654678
Si Si6 0.669995 0.407759 0.842569
Si Si7 0.331261 0.247747 0.465711
Si Si8 0.168754 0.377219 0.018072
O O1 0.750000 0.073483 0.750000
O O2 0.860475 0.170965 0.806687
O O3 0.000000 0.074286 0.837689
O O4 0.759911 0.100996 0.927159
O O5 0.250000 0.267694 0.750000
O O6 0.000000 0.268090 0.836361
O O7 0.234216 0.243290 0.931760
O O8 0.250000 0.439029 0.250000
O O9 0.500000 0.438474 0.166011
O O10 0.314439 0.524356 0.137033
O O11 0.256354 0.423741 0.075735
O O12 0.803858 0.095806 0.402165
O O13 0.000000 0.068967 0.527958
O O14 0.775108 0.000000 0.500000
O O15 0.250000 0.853953 0.750000
O O16 0.235439 0.790154 0.602323
O O17 0.000000 0.833462 0.671387
O O18 0.750000 0.391129 0.750000
O O19 0.500000 0.389355 0.839039
O O20 0.755116 0.372445 0.919880
O O21 0.500000 0.225509 0.464597
O O22 0.321885 0.314435 0.434121
O O23 0.000000 0.396956 0.007535
#
# Coordination Sequence:
#
# PCOD8219209 Si02
#       8
#     8   8   8   8   8   8   8   8
#     4  10  19  33  57  85 115 150 186 230 281 338
#     4   9  18  33  55  81 110 144 182 228 278 336
#     4  10  21  38  60  85 115 153 199 249 301 356
#     4  10  22  40  61  89 123 154 192 242 292 347
#     4  11  24  42  66  89 116 158 201 245 295 348
#     4  10  21  38  60  86 119 158 198 245 299 358
#     4  10  22  41  60  84 119 156 199 246 292 346
#     4  11  23  37  58  87 120 157 196 246 301 355
#
# _framework density 20.619298000000001
#
# number of rings (size 3 to 8) (size 9 to 14) (size 15 to 20)
#    0.000    1.875    1.250    2.250    0.000    7.250 
#    0.000    2.500    0.000    0.000    0.000    0.000 
#    0.000    0.000    0.000    0.000    0.000    0.000 
#
# Total GULP energy -793688.898681 kJ/mol
# GULP energy per Si atom -12401.389042 kJ/mol
# Density = 2.057237 g / cm^3
# Si number density = 20.619298 Si / 1000 Ang^3
#
#
#
# Elastic Constant Matrix: (Units=GPa)
#
#
# Indices 1 2 3 4 5 6 
#
# 1 142.5904 39.5239 70.1583 0.0000 0.0000 0.0000
# 2 39.5239 63.5800 26.0991 0.0000 0.0000 0.0000
# 3 70.1583 26.0991 130.3125 0.0000 0.0000 0.0000
# 4 0.0000 0.0000 0.0000 9.0521 0.0000 0.0000
# 5 0.0000 0.0000 0.0000 0.0000 41.4212 0.0000
# 6 0.0000 0.0000 0.0000 0.0000 0.0000 7.8683
#
#
#
# Elastic Compliance Matrix: (Units=1/GPa)
#
#
# Indices 1 2 3 4 5 6 
#
# 1 0.010672 -0.004659 -0.004813 0.000000 0.000000 0.000000
# 2 -0.004659 0.019171 -0.001331 0.000000 0.000000 0.000000
# 3 -0.004813 -0.001331 0.010532 0.000000 0.000000 0.000000
# 4 0.000000 0.000000 0.000000 0.110471 0.000000 0.000000
# 5 0.000000 0.000000 0.000000 0.000000 0.024142 0.000000
# 6 0.000000 0.000000 0.000000 0.000000 0.000000 0.127092
#
#
# Mechanical properties :
#
#
# Convention : Reuss Voigt Hill
#
# Bulk Modulus (GPa) = 53.27925 67.56060 60.41993
# Shear Modulus (GPa) = 15.15415 25.04846 20.10130
#
# Velocity S-wave (km/s) = 2.71394 3.48919 3.12569
# Velocity P-wave (km/s) = 5.97630 7.00496 6.51098
#
# Compressibility (1/GPa) = 0.01876903
#
# Stress axis : x y z
#
# Youngs Moduli (GPa) = 93.69882 52.16266 94.95188
#
# Poissons Ratio (x) = 0.24302 0.45699
# Poissons Ratio (y) = 0.43653 0.12641
# Poissons Ratio (z) = 0.45096 0.06944
#
# Static dielectric constant tensor:
#      x y z
#    x 3.987810 0.000000 0.000000 
#    y 0.000000 3.556570 0.000000 
#    z 0.000000 0.000000 3.748460 
# 
# 
# High freq. dielectric constant tensor:
#      x y z
#    x 1.815050 0.000000 0.000000 
#    y 0.000000 1.794830 0.000000 
#    z 0.000000 0.000000 1.808880 
# 
# From -- ./inp_files/20888.got.cif
#   From: 2010.03.12/outbox.cif.g09.slc.cpg/sg53_11_cif.got.tgz:20888.got - 2010.04.16 14:36:59.
