data_PCOD8219236
_publ_section_title
;
Structure prediction by ZEFSAII (Michael W. Deem and Ramdas Pophale) SiO2 
 PCOD8219236
Probable space group: P M N A
;
_chemical_formula_sum "Si O2"
_cell_formula_units_Z 48
_cell_length_a 9.006888
_cell_length_b 9.539070
_cell_length_c 30.708048
_cell_angle_alpha 90.000000
_cell_angle_beta 90.000000
_cell_angle_gamma 90.000000
_cell_volume 2638.353651
_symmetry_space_group_name_H-M "P M N A"
_symmetry_group_IT_number 53
_symmetry_cell_setting 'orthorhombic'
loop_
_space_group_symop_operation_xyz
x,y,z
1/2-x,-y,1/2+z
x,-y,-z
1/2-x,y,1/2-z
-x,-y,-z
1/2+x,y,1/2-z
-x,y,z
1/2+x,-y,1/2+z
loop_
_atom_site_type_symbol
_atom_site_label
_atom_site_fract_x
_atom_site_fract_y
_atom_site_fract_z
Si Si1 0.825446 0.586905 0.641153
Si Si2 0.824649 0.787915 0.795786
Si Si3 0.169707 0.010642 0.868359
Si Si4 0.327220 0.712530 0.108955
Si Si5 0.673572 0.233400 0.431112
Si Si6 0.325305 0.659079 0.011949
O O1 0.742927 0.646332 0.683654
O O2 0.791981 0.421415 0.639041
O O3 0.764030 0.654411 0.597040
O O4 0.000000 0.618580 0.644216
O O5 0.750000 0.819590 0.750000
O O6 0.000000 0.767662 0.790720
O O7 0.784019 0.917528 0.826922
O O8 0.261949 0.152228 0.867640
O O9 0.000000 0.055031 0.864991
O O10 0.200332 0.922314 0.912272
O O11 0.500000 0.736092 0.104485
O O12 0.264091 0.690499 0.060251
O O13 0.500000 0.272251 0.429087
O O14 0.735675 0.237192 0.480028
O O15 0.500000 0.687738 0.007083
O O16 0.286232 0.500000 0.000000
#
# Coordination Sequence:
#
# PCOD8219236 Si02
#       6
#     8   8   8   8   8   8
#     4  10  19  35  57  81 110 143 178 224 271 319
#     4  10  21  39  62  88 110 138 178 219 268 329
#     4   9  21  38  54  77 113 146 178 223 275 327
#     4  10  21  35  54  80 109 145 187 225 273 326
#     4  10  20  34  52  78 107 145 191 229 270 322
#     4  10  19  34  52  75 109 146 189 237 275 318
#
# _framework density 18.193162999999998
#
# number of rings (size 3 to 8) (size 9 to 14) (size 15 to 20)
#    0.000    2.167    1.667    2.500    0.000    7.000 
#    0.000    4.167    0.000    2.000    0.000    0.000 
#    0.000    0.000    0.000    0.000    0.000    0.000 
#
# Total GULP energy -595292.397211 kJ/mol
# GULP energy per Si atom -12401.924942 kJ/mol
# Density = 1.815175 g / cm^3
# Si number density = 18.193163 Si / 1000 Ang^3
#
#
#
# Elastic Constant Matrix: (Units=GPa)
#
#
# Indices 1 2 3 4 5 6 
#
# 1 69.7184 55.2653 44.2710 0.0000 0.0000 0.0000
# 2 55.2653 120.0907 55.5734 0.0000 0.0000 0.0000
# 3 44.2710 55.5734 112.7220 0.0000 0.0000 0.0000
# 4 0.0000 0.0000 0.0000 15.2164 0.0000 0.0000
# 5 0.0000 0.0000 0.0000 0.0000 19.1549 0.0000
# 6 0.0000 0.0000 0.0000 0.0000 0.0000 32.5328
#
#
#
# Elastic Compliance Matrix: (Units=1/GPa)
#
#
# Indices 1 2 3 4 5 6 
#
# 1 0.024834 -0.008959 -0.005336 0.000000 0.000000 0.000000
# 2 -0.008959 0.014020 -0.003394 0.000000 0.000000 0.000000
# 3 -0.005336 -0.003394 0.012640 0.000000 0.000000 0.000000
# 4 0.000000 0.000000 0.000000 0.065719 0.000000 0.000000
# 5 0.000000 0.000000 0.000000 0.000000 0.052206 0.000000
# 6 0.000000 0.000000 0.000000 0.000000 0.000000 0.030738
#
#
# Mechanical properties :
#
#
# Convention : Reuss Voigt Hill
#
# Bulk Modulus (GPa) = 62.04856 68.08340 65.06598
# Shear Modulus (GPa) = 20.75487 23.20892 21.98189
#
# Velocity S-wave (km/s) = 3.38125 3.57556 3.47976
# Velocity P-wave (km/s) = 7.03017 7.38579 7.21017
#
# Compressibility (1/GPa) = 0.01611641
#
# Stress axis : x y z
#
# Youngs Moduli (GPa) = 40.26790 71.32508 79.11155
#
# Poissons Ratio (x) = 0.63899 0.42218
# Poissons Ratio (y) = 0.36075 0.26848
# Poissons Ratio (z) = 0.21489 0.24205
#
# Static dielectric constant tensor:
#      x y z
#    x 3.336140 0.000000 0.000000 
#    y 0.000000 3.276830 0.000000 
#    z 0.000000 0.000000 3.357700 
# 
# 
# High freq. dielectric constant tensor:
#      x y z
#    x 1.709850 0.000000 0.000000 
#    y 0.000000 1.698480 0.000000 
#    z 0.000000 0.000000 1.697450 
# 
# From -- ./inp_files/37679.got.cif
#   From: 2010.03.12/outbox.cif.g09.slc.cpg/sg53_19_cif.got.tgz:37679.got - 2010.04.16 14:36:59.
