data_PCOD8219254
_publ_section_title
;
Structure prediction by ZEFSAII (Michael W. Deem and Ramdas Pophale) SiO2 
 PCOD8219254
Probable space group: P M N A
;
_chemical_formula_sum "Si O2"
_cell_formula_units_Z 40
_cell_length_a 8.608705
_cell_length_b 12.542997
_cell_length_c 20.043253
_cell_angle_alpha 90.000000
_cell_angle_beta 90.000000
_cell_angle_gamma 90.000000
_cell_volume 2164.249634
_symmetry_space_group_name_H-M "P M N A"
_symmetry_group_IT_number 53
_symmetry_cell_setting 'orthorhombic'
loop_
_space_group_symop_operation_xyz
x,y,z
1/2-x,-y,1/2+z
x,-y,-z
1/2-x,y,1/2-z
-x,-y,-z
1/2+x,y,1/2-z
-x,y,z
1/2+x,-y,1/2+z
loop_
_atom_site_type_symbol
_atom_site_label
_atom_site_fract_x
_atom_site_fract_y
_atom_site_fract_z
Si Si1 0.182947 0.801779 0.897115
Si Si2 0.817830 0.548077 0.071161
Si Si3 0.671538 0.967750 0.423444
Si Si4 0.682890 0.387363 0.177737
Si Si5 0.820280 0.762781 0.460316
O O1 0.277473 0.733518 0.843371
O O2 0.221707 0.763973 0.971861
O O3 0.000000 0.784283 0.886623
O O4 0.230145 0.925953 0.884856
O O5 0.765334 0.467508 0.127643
O O6 0.000000 0.568933 0.076491
O O7 0.770182 0.500000 0.000000
O O8 0.728127 0.659359 0.081866
O O9 0.500000 0.934735 0.398038
O O10 0.786035 0.867291 0.414671
O O11 0.661926 0.000000 0.500000
O O12 0.750000 0.411461 0.250000
O O13 0.500000 0.405575 0.176849
O O14 0.000000 0.759903 0.479153
#
# Coordination Sequence:
#
# PCOD8219254 Si02
#       5
#     8   8   8   8   8
#     4  10  19  34  54  78 110 147 186 228 278 332
#     4  11  22  37  59  82 112 151 192 237 286 339
#     4   8  16  30  49  74 108 145 179 219 271 328
#     4  12  25  40  59  83 114 149 190 235 286 345
#     4  11  20  30  51  83 115 145 183 232 284 334
#
# _framework density 18.482157999999998
#
# number of rings (size 3 to 8) (size 9 to 14) (size 15 to 20)
#    0.000    1.600    2.000    6.000    0.000    5.200 
#    0.000    0.000    0.000    1.200    0.000    2.800 
#    0.000    0.000    0.000    0.000    0.000    0.000 
#
# Total GULP energy -496012.130741 kJ/mol
# GULP energy per Si atom -12400.303269 kJ/mol
# Density = 1.844009 g / cm^3
# Si number density = 18.482158 Si / 1000 Ang^3
#
#
#
# Elastic Constant Matrix: (Units=GPa)
#
#
# Indices 1 2 3 4 5 6 
#
# 1 57.5755 32.8226 10.8424 0.0000 0.0000 0.0000
# 2 32.8226 130.1334 37.6116 0.0000 0.0000 0.0000
# 3 10.8424 37.6116 75.5505 0.0000 0.0000 0.0000
# 4 0.0000 0.0000 0.0000 19.7856 0.0000 0.0000
# 5 0.0000 0.0000 0.0000 0.0000 23.4295 0.0000
# 6 0.0000 0.0000 0.0000 0.0000 0.0000 27.7394
#
#
#
# Elastic Compliance Matrix: (Units=1/GPa)
#
#
# Indices 1 2 3 4 5 6 
#
# 1 0.020297 -0.004996 -0.000425 0.000000 0.000000 0.000000
# 2 -0.004996 0.010206 -0.004364 0.000000 0.000000 0.000000
# 3 -0.000425 -0.004364 0.015470 0.000000 0.000000 0.000000
# 4 0.000000 0.000000 0.000000 0.050542 0.000000 0.000000
# 5 0.000000 0.000000 0.000000 0.000000 0.042681 0.000000
# 6 0.000000 0.000000 0.000000 0.000000 0.000000 0.036050
#
#
# Mechanical properties :
#
#
# Convention : Reuss Voigt Hill
#
# Bulk Modulus (GPa) = 37.87707 47.31252 42.59479
# Shear Modulus (GPa) = 24.55591 26.32309 25.43950
#
# Velocity S-wave (km/s) = 3.64899 3.77801 3.71406
# Velocity P-wave (km/s) = 6.18804 6.68474 6.44118
#
# Compressibility (1/GPa) = 0.02640120
#
# Stress axis : x y z
#
# Youngs Moduli (GPa) = 49.26848 97.98287 64.64254
#
# Poissons Ratio (x) = 0.48956 0.02750
# Poissons Ratio (y) = 0.24616 0.28209
# Poissons Ratio (z) = 0.02096 0.42758
#
# Static dielectric constant tensor:
#      x y z
#    x 3.425390 0.000000 0.000000 
#    y 0.000000 3.942990 0.000000 
#    z 0.000000 0.000000 3.163670 
# 
# 
# High freq. dielectric constant tensor:
#      x y z
#    x 1.726880 0.000000 0.000000 
#    y 0.000000 1.736540 0.000000 
#    z 0.000000 0.000000 1.661900 
# 
# From -- ./inp_files/30362.got.cif
#   From: 2010.03.12/outbox.cif.g09.slc.cpg/sg53_16_cif.got.tgz:30362.got - 2010.04.16 14:36:59.
