data_PCOD8219372
_publ_section_title
;
Structure prediction by ZEFSAII (Michael W. Deem and Ramdas Pophale) SiO2 
 PCOD8219372
Probable space group: P M N A
;
_chemical_formula_sum "Si O2"
_cell_formula_units_Z 64
_cell_length_a 14.873769
_cell_length_b 12.222748
_cell_length_c 17.855078
_cell_angle_alpha 90.000000
_cell_angle_beta 90.000000
_cell_angle_gamma 90.000000
_cell_volume 3246.023368
_symmetry_space_group_name_H-M "P M N A"
_symmetry_group_IT_number 53
_symmetry_cell_setting 'orthorhombic'
loop_
_space_group_symop_operation_xyz
x,y,z
1/2-x,-y,1/2+z
x,-y,-z
1/2-x,y,1/2-z
-x,-y,-z
1/2+x,y,1/2-z
-x,y,z
1/2+x,-y,1/2+z
loop_
_atom_site_type_symbol
_atom_site_label
_atom_site_fract_x
_atom_site_fract_y
_atom_site_fract_z
Si Si1 0.824154 0.615643 0.033753
Si Si2 0.232924 0.147652 0.336569
Si Si3 0.605519 0.502735 0.324433
Si Si4 0.103324 0.024883 0.586764
Si Si5 0.900195 0.315108 0.397272
Si Si6 0.146592 0.266224 0.560324
Si Si7 0.102107 0.462636 0.662601
Si Si8 0.102351 0.723768 0.894713
O O1 0.858180 0.591692 0.116858
O O2 0.748116 0.707473 0.039130
O O3 0.790356 0.500000 0.000000
O O4 0.896038 0.674257 0.979280
O O5 0.250000 0.121645 0.250000
O O6 0.166848 0.249650 0.344523
O O7 0.327413 0.176436 0.379121
O O8 0.179616 0.045149 0.371531
O O9 0.500000 0.516656 0.328404
O O10 0.649761 0.533488 0.243984
O O11 0.630955 0.376655 0.340932
O O12 0.131793 0.149937 0.598922
O O13 0.000000 0.003569 0.615647
O O14 0.108734 0.000000 0.500000
O O15 0.907409 0.274123 0.482591
O O16 0.864439 0.440499 0.392801
O O17 0.000000 0.302006 0.363089
O O18 0.111776 0.348560 0.622462
O O19 0.000000 0.486424 0.681416
O O20 0.000000 0.764822 0.879822
#
# Coordination Sequence:
#
# PCOD8219372 Si02
#       8
#     8   8   8   8   8   8   8   8
#     4  10  19  34  58  90 124 166 213 250 294 368
#     4  12  25  41  64  96 126 152 208 266 317 366
#     4   9  19  35  54  85 128 171 208 246 303 376
#     4  11  23  44  70  90 120 167 217 260 305 370
#     4  11  21  38  64  95 129 162 198 251 316 378
#     4  12  22  37  62  91 124 163 209 250 305 375
#     4  10  21  34  53  90 132 163 197 249 319 380
#     4  10  20  38  63  89 120 164 209 257 309 366
#
# _framework density 19.716432000000001
#
# number of rings (size 3 to 8) (size 9 to 14) (size 15 to 20)
#    0.000    1.375    2.500    3.750    1.750    5.000 
#    2.250    0.000    0.000    4.125    0.000    0.000 
#    0.000    0.000    0.000    0.000    0.000    0.000 
#
# Total GULP energy -793141.094742 kJ/mol
# GULP energy per Si atom -12392.829605 kJ/mol
# Density = 1.967156 g / cm^3
# Si number density = 19.716432 Si / 1000 Ang^3
#
#
#
# Elastic Constant Matrix: (Units=GPa)
#
#
# Indices 1 2 3 4 5 6 
#
# 1 112.3785 53.5391 36.0703 0.0000 0.0000 0.0000
# 2 53.5391 131.6479 43.5585 0.0000 0.0000 0.0000
# 3 36.0703 43.5585 110.6320 0.0000 0.0000 0.0000
# 4 0.0000 0.0000 0.0000 26.2540 0.0000 0.0000
# 5 0.0000 0.0000 0.0000 0.0000 24.3573 0.0000
# 6 0.0000 0.0000 0.0000 0.0000 0.0000 41.3099
#
#
#
# Elastic Compliance Matrix: (Units=1/GPa)
#
#
# Indices 1 2 3 4 5 6 
#
# 1 0.011481 -0.003944 -0.002190 0.000000 0.000000 0.000000
# 2 -0.003944 0.010089 -0.002686 0.000000 0.000000 0.000000
# 3 -0.002190 -0.002686 0.010811 0.000000 0.000000 0.000000
# 4 0.000000 0.000000 0.000000 0.038089 0.000000 0.000000
# 5 0.000000 0.000000 0.000000 0.000000 0.041055 0.000000
# 6 0.000000 0.000000 0.000000 0.000000 0.000000 0.024207
#
#
# Mechanical properties :
#
#
# Convention : Reuss Voigt Hill
#
# Bulk Modulus (GPa) = 67.84822 68.99935 68.42378
# Shear Modulus (GPa) = 31.58823 33.15026 32.36925
#
# Velocity S-wave (km/s) = 4.00700 4.10488 4.05623
# Velocity P-wave (km/s) = 7.47628 7.58542 7.53105
#
# Compressibility (1/GPa) = 0.01473878
#
# Stress axis : x y z
#
# Youngs Moduli (GPa) = 87.10325 99.11858 92.50101
#
# Poissons Ratio (x) = 0.39096 0.20259
# Poissons Ratio (y) = 0.34356 0.24848
# Poissons Ratio (z) = 0.19077 0.26626
#
# Static dielectric constant tensor:
#      x y z
#    x 3.760350 0.000000 0.000000 
#    y 0.000000 3.578690 0.000000 
#    z 0.000000 0.000000 3.721290 
# 
# 
# High freq. dielectric constant tensor:
#      x y z
#    x 1.776410 0.000000 0.000000 
#    y 0.000000 1.746350 0.000000 
#    z 0.000000 0.000000 1.767630 
# 
# From -- ./inp_files/28589.got.cif
#   From: 2010.03.12/outbox.cif.g09.slc.cpg/sg53_15_cif.got.tgz:28589.got - 2010.04.16 14:36:59.
