data_PCOD8219468
_publ_section_title
;
Structure prediction by ZEFSAII (Michael W. Deem and Ramdas Pophale) SiO2 
 PCOD8219468
Probable space group: P M N A
;
_chemical_formula_sum "Si O2"
_cell_formula_units_Z 64
_cell_length_a 8.961306
_cell_length_b 11.900748
_cell_length_c 30.760958
_cell_angle_alpha 90.000000
_cell_angle_beta 90.000000
_cell_angle_gamma 90.000000
_cell_volume 3280.540647
_symmetry_space_group_name_H-M "P M N A"
_symmetry_group_IT_number 53
_symmetry_cell_setting 'orthorhombic'
loop_
_space_group_symop_operation_xyz
x,y,z
1/2-x,-y,1/2+z
x,-y,-z
1/2-x,y,1/2-z
-x,-y,-z
1/2+x,y,1/2-z
-x,y,z
1/2+x,-y,1/2+z
loop_
_atom_site_type_symbol
_atom_site_label
_atom_site_fract_x
_atom_site_fract_y
_atom_site_fract_z
Si Si1 0.675220 0.115863 0.622479
Si Si2 0.176694 0.141295 0.122789
Si Si3 0.677494 0.280209 0.459906
Si Si4 0.675244 0.492089 0.076966
Si Si5 0.825804 0.739085 0.205297
Si Si6 0.828726 0.731255 0.793610
Si Si7 0.324566 0.258204 0.951738
Si Si8 0.827741 0.496071 0.832550
O O1 0.500000 0.128764 0.612228
O O2 0.715313 0.169531 0.668948
O O3 0.769184 0.175586 0.585454
O O4 0.728056 0.987347 0.623374
O O5 0.236248 0.202330 0.079503
O O6 0.242873 0.204108 0.165139
O O7 0.000000 0.152007 0.123702
O O8 0.500000 0.285523 0.461912
O O9 0.742144 0.405268 0.454639
O O10 0.740637 0.225867 0.503924
O O11 0.500000 0.469868 0.074024
O O12 0.718866 0.615815 0.061425
O O13 0.729358 0.474706 0.125906
O O14 0.750000 0.776155 0.250000
O O15 0.767108 0.617040 0.189936
O O16 0.000000 0.733134 0.214137
O O17 0.750000 0.772678 0.750000
O O18 0.808990 0.597484 0.798777
O O19 0.000000 0.765222 0.789131
O O20 0.500000 0.243265 0.958223
O O21 0.000000 0.482368 0.847405
#
# Coordination Sequence:
#
# PCOD8219468 Si02
#       8
#     8   8   8   8   8   8   8   8
#     4  10  21  40  63  84 110 153 202 240 281 340
#     4   9  20  39  61  84 113 149 195 246 284 327
#     4  11  22  39  63  87 115 154 194 234 284 347
#     4  11  22  36  58  87 120 151 184 233 293 345
#     4  10  21  35  57  86 116 150 191 236 285 342
#     4  10  20  36  57  84 118 150 188 237 286 342
#     4  11  24  40  58  87 122 151 185 239 295 342
#     4  10  19  35  58  84 114 151 194 234 282 347
#
# _framework density 19.508980000000001
#
# number of rings (size 3 to 8) (size 9 to 14) (size 15 to 20)
#    0.000    1.750    2.500    1.875    0.000    5.500 
#    0.000    4.375    0.000    0.000    0.000    0.000 
#    0.000    0.000    0.000    0.000    0.000    0.000 
#
# Total GULP energy -793878.507119 kJ/mol
# GULP energy per Si atom -12404.351674 kJ/mol
# Density = 1.946458 g / cm^3
# Si number density = 19.508980 Si / 1000 Ang^3
#
#
#
# Elastic Constant Matrix: (Units=GPa)
#
#
# Indices 1 2 3 4 5 6 
#
# 1 52.7890 32.4247 41.8323 0.0000 0.0000 0.0000
# 2 32.4247 118.6934 39.3843 0.0000 0.0000 0.0000
# 3 41.8323 39.3843 129.1020 0.0000 0.0000 0.0000
# 4 0.0000 0.0000 0.0000 8.6787 0.0000 0.0000
# 5 0.0000 0.0000 0.0000 0.0000 37.7165 0.0000
# 6 0.0000 0.0000 0.0000 0.0000 0.0000 16.0728
#
#
#
# Elastic Compliance Matrix: (Units=1/GPa)
#
#
# Indices 1 2 3 4 5 6 
#
# 1 0.028082 -0.005176 -0.007520 0.000000 0.000000 0.000000
# 2 -0.005176 0.010328 -0.001474 0.000000 0.000000 0.000000
# 3 -0.007520 -0.001474 0.010632 0.000000 0.000000 0.000000
# 4 0.000000 0.000000 0.000000 0.115224 0.000000 0.000000
# 5 0.000000 0.000000 0.000000 0.000000 0.026514 0.000000
# 6 0.000000 0.000000 0.000000 0.000000 0.000000 0.062217
#
#
# Mechanical properties :
#
#
# Convention : Reuss Voigt Hill
#
# Bulk Modulus (GPa) = 48.30364 58.65189 53.47777
# Shear Modulus (GPa) = 17.34679 24.95648 21.15163
#
# Velocity S-wave (km/s) = 2.98513 3.58051 3.29629
# Velocity P-wave (km/s) = 6.05762 6.87188 6.47756
#
# Compressibility (1/GPa) = 0.02070237
#
# Stress axis : x y z
#
# Youngs Moduli (GPa) = 35.60998 96.82398 94.05513
#
# Poissons Ratio (x) = 0.50117 0.70732
# Poissons Ratio (y) = 0.18432 0.13859
# Poissons Ratio (z) = 0.26779 0.14267
#
# Static dielectric constant tensor:
#      x y z
#    x 3.352390 0.000000 0.000000 
#    y 0.000000 3.646810 0.000000 
#    z 0.000000 0.000000 3.653800 
# 
# 
# High freq. dielectric constant tensor:
#      x y z
#    x 1.742290 0.000000 0.000000 
#    y 0.000000 1.759950 0.000000 
#    z 0.000000 0.000000 1.772030 
# 
# From -- ./inp_files/38169.got.cif
#   From: 2010.03.12/outbox.cif.g09.slc.cpg/sg53_20_cif.got.tgz:38169.got - 2010.04.16 14:36:59.
