data_PCOD8219875
_publ_section_title
;
Structure prediction by ZEFSAII (Michael W. Deem and Ramdas Pophale) SiO2 
 PCOD8219875
Probable space group: P M N A
;
_chemical_formula_sum "Si O2"
_cell_formula_units_Z 40
_cell_length_a 8.943121
_cell_length_b 9.497275
_cell_length_c 25.236691
_cell_angle_alpha 90.000000
_cell_angle_beta 90.000000
_cell_angle_gamma 90.000000
_cell_volume 2143.485404
_symmetry_space_group_name_H-M "P M N A"
_symmetry_group_IT_number 53
_symmetry_cell_setting 'orthorhombic'
loop_
_space_group_symop_operation_xyz
x,y,z
1/2-x,-y,1/2+z
x,-y,-z
1/2-x,y,1/2-z
-x,-y,-z
1/2+x,y,1/2-z
-x,y,z
1/2+x,-y,1/2+z
loop_
_atom_site_type_symbol
_atom_site_label
_atom_site_fract_x
_atom_site_fract_y
_atom_site_fract_z
Si Si1 0.327768 0.959634 0.401612
Si Si2 0.674862 0.236348 0.695238
Si Si3 0.173542 0.460505 0.626412
Si Si4 0.174727 0.279366 0.081210
Si Si5 0.827224 0.743064 0.470988
O O1 0.500000 0.934009 0.417175
O O2 0.289364 0.889727 0.345391
O O3 0.228355 0.892156 0.448071
O O4 0.289315 0.123577 0.397632
O O5 0.750000 0.191736 0.750000
O O6 0.500000 0.258790 0.703584
O O7 0.744384 0.381963 0.674415
O O8 0.242264 0.615487 0.621145
O O9 0.200944 0.378253 0.571795
O O10 0.000000 0.471574 0.640600
O O11 0.000000 0.313032 0.081673
O O12 0.234080 0.300388 0.022050
O O13 0.000000 0.756236 0.486663
#
# Coordination Sequence:
#
# PCOD8219875 Si02
#       5
#     8   8   8   8   8
#     4   9  20  36  53  76 106 139 175 214 258 312
#     4  10  20  38  61  80 100 130 170 215 263 313
#     4  10  21  36  53  77 107 139 177 217 258 307
#     4  11  21  33  51  77 110 144 176 214 261 310
#     4  10  20  33  51  76 107 143 181 217 255 306
#
# _framework density 18.661193999999998
#
# number of rings (size 3 to 8) (size 9 to 14) (size 15 to 20)
#    0.000    2.000    0.000    3.600    0.000    9.600 
#    0.000    1.000    0.000    2.400    0.000    0.000 
#    0.000    0.000    0.000    0.000    0.000    0.000 
#
# Total GULP energy -496235.105060 kJ/mol
# GULP energy per Si atom -12405.877626 kJ/mol
# Density = 1.861872 g / cm^3
# Si number density = 18.661194 Si / 1000 Ang^3
#
#
#
# Elastic Constant Matrix: (Units=GPa)
#
#
# Indices 1 2 3 4 5 6 
#
# 1 92.4868 38.8143 26.9423 0.0000 0.0000 0.0000
# 2 38.8143 93.8029 12.7069 0.0000 0.0000 0.0000
# 3 26.9423 12.7069 61.0002 0.0000 0.0000 0.0000
# 4 0.0000 0.0000 0.0000 11.3533 0.0000 0.0000
# 5 0.0000 0.0000 0.0000 0.0000 33.8650 0.0000
# 6 0.0000 0.0000 0.0000 0.0000 0.0000 27.8852
#
#
#
# Elastic Compliance Matrix: (Units=1/GPa)
#
#
# Indices 1 2 3 4 5 6 
#
# 1 0.014600 -0.005318 -0.005341 0.000000 0.000000 0.000000
# 2 -0.005318 0.012907 -0.000340 0.000000 0.000000 0.000000
# 3 -0.005341 -0.000340 0.018823 0.000000 0.000000 0.000000
# 4 0.000000 0.000000 0.000000 0.088080 0.000000 0.000000
# 5 0.000000 0.000000 0.000000 0.000000 0.029529 0.000000
# 6 0.000000 0.000000 0.000000 0.000000 0.000000 0.035861
#
#
# Mechanical properties :
#
#
# Convention : Reuss Voigt Hill
#
# Bulk Modulus (GPa) = 41.09598 44.91300 43.00449
# Shear Modulus (GPa) = 21.74784 25.87582 23.81183
#
# Velocity S-wave (km/s) = 3.41751 3.72776 3.57600
# Velocity P-wave (km/s) = 6.13534 6.53055 6.33603
#
# Compressibility (1/GPa) = 0.02433328
#
# Stress axis : x y z
#
# Youngs Moduli (GPa) = 68.49387 77.47672 53.12639
#
# Poissons Ratio (x) = 0.41200 0.28373
# Poissons Ratio (y) = 0.36423 0.01806
# Poissons Ratio (z) = 0.36580 0.02634
#
# Static dielectric constant tensor:
#      x y z
#    x 3.547290 0.000000 0.000000 
#    y 0.000000 3.474500 0.000000 
#    z 0.000000 0.000000 3.281930 
# 
# 
# High freq. dielectric constant tensor:
#      x y z
#    x 1.738660 0.000000 0.000000 
#    y 0.000000 1.727100 0.000000 
#    z 0.000000 0.000000 1.707620 
# 
# From -- ./inp_files/33604.got.cif
#   From: 2010.03.12/outbox.cif.g09.slc.cpg/sg53_17_cif.got.tgz:33604.got - 2010.04.16 14:36:59.
