data_PCOD8219599
_publ_section_title
;
Structure prediction by ZEFSAII (Michael W. Deem and Ramdas Pophale) SiO2 
 PCOD8219599
Probable space group: P M N A
;
_chemical_formula_sum "Si O2"
_cell_formula_units_Z 56
_cell_length_a 13.586865
_cell_length_b 6.917639
_cell_length_c 28.379950
_cell_angle_alpha 90.000000
_cell_angle_beta 90.000000
_cell_angle_gamma 90.000000
_cell_volume 2667.403893
_symmetry_space_group_name_H-M "P M N A"
_symmetry_group_IT_number 53
_symmetry_cell_setting 'orthorhombic'
loop_
_space_group_symop_operation_xyz
x,y,z
1/2-x,-y,1/2+z
x,-y,-z
1/2-x,y,1/2-z
-x,-y,-z
1/2+x,y,1/2-z
-x,y,z
1/2+x,-y,1/2+z
loop_
_atom_site_type_symbol
_atom_site_label
_atom_site_fract_x
_atom_site_fract_y
_atom_site_fract_z
Si Si1 0.112107 0.852538 0.457846
Si Si2 0.787013 0.593292 0.046277
Si Si3 0.114081 0.113693 0.891431
Si Si4 0.611155 0.043839 0.142394
Si Si5 0.681129 0.617974 0.312463
Si Si6 0.205231 0.285062 0.127337
Si Si7 0.608870 0.304802 0.788357
O O1 0.177907 0.665322 0.466652
O O2 0.139597 0.937455 0.406465
O O3 0.000000 0.783365 0.458601
O O4 0.134269 0.000000 0.500000
O O5 0.853940 0.777290 0.060807
O O6 0.774170 0.431388 0.085403
O O7 0.836237 0.500000 0.000000
O O8 0.175121 0.207489 0.849125
O O9 0.000000 0.148318 0.882921
O O10 0.137476 0.886598 0.892362
O O11 0.500000 0.128580 0.138371
O O12 0.616894 0.907126 0.188446
O O13 0.690724 0.213030 0.148741
O O14 0.644853 0.410131 0.332940
O O15 0.797802 0.572597 0.305402
O O16 0.619399 0.695991 0.268288
O O17 0.500000 0.391842 0.800883
#
# Coordination Sequence:
#
# PCOD8219599 Si02
#       7
#     8   8   8   8   8   8   8
#     4  10  20  37  65  97 133 177 214 251 315 394
#     4  11  24  39  66  96 129 165 210 268 319 378
#     4  11  24  44  66  88 123 166 214 269 324 383
#     4  10  19  36  64  93 129 170 210 259 321 379
#     4  10  22  41  65  91 127 168 212 264 317 385
#     4  11  22  41  64  92 124 171 213 258 323 381
#     4  10  20  39  64  92 129 167 206 261 319 374
#
# _framework density 20.994197
#
# number of rings (size 3 to 8) (size 9 to 14) (size 15 to 20)
#    0.000    1.571    2.857    2.143    0.000    4.571 
#    5.143    0.714    0.000    0.000    0.000    0.000 
#    0.000    0.000    0.000    0.000    0.000    0.000 
#
# Total GULP energy -694037.469619 kJ/mol
# GULP energy per Si atom -12393.526243 kJ/mol
# Density = 2.094641 g / cm^3
# Si number density = 20.994197 Si / 1000 Ang^3
#
#
#
# Elastic Constant Matrix: (Units=GPa)
#
#
# Indices 1 2 3 4 5 6 
#
# 1 95.7796 28.8098 28.4248 0.0000 0.0000 0.0000
# 2 28.8098 112.6278 56.6365 0.0000 0.0000 0.0000
# 3 28.4248 56.6365 127.7985 0.0000 0.0000 0.0000
# 4 0.0000 0.0000 0.0000 31.0967 0.0000 0.0000
# 5 0.0000 0.0000 0.0000 0.0000 24.8553 0.0000
# 6 0.0000 0.0000 0.0000 0.0000 0.0000 16.2642
#
#
#
# Elastic Compliance Matrix: (Units=1/GPa)
#
#
# Indices 1 2 3 4 5 6 
#
# 1 0.011567 -0.002143 -0.001623 0.000000 0.000000 0.000000
# 2 -0.002143 0.011822 -0.004763 0.000000 0.000000 0.000000
# 3 -0.001623 -0.004763 0.010296 0.000000 0.000000 0.000000
# 4 0.000000 0.000000 0.000000 0.032158 0.000000 0.000000
# 5 0.000000 0.000000 0.000000 0.000000 0.040233 0.000000
# 6 0.000000 0.000000 0.000000 0.000000 0.000000 0.061485
#
#
# Mechanical properties :
#
#
# Convention : Reuss Voigt Hill
#
# Bulk Modulus (GPa) = 60.13736 62.66090 61.39913
# Shear Modulus (GPa) = 26.29371 29.26556 27.77964
#
# Velocity S-wave (km/s) = 3.54280 3.73766 3.64154
# Velocity P-wave (km/s) = 6.74109 6.96695 6.85495
#
# Compressibility (1/GPa) = 0.01662860
#
# Stress axis : x y z
#
# Youngs Moduli (GPa) = 86.45428 84.58986 97.12084
#
# Poissons Ratio (x) = 0.18123 0.15764
# Poissons Ratio (y) = 0.18523 0.46254
# Poissons Ratio (z) = 0.14033 0.40286
#
# Static dielectric constant tensor:
#      x y z
#    x 3.849470 0.000000 0.000000 
#    y 0.000000 3.637600 0.000000 
#    z 0.000000 0.000000 3.968340 
# 
# 
# High freq. dielectric constant tensor:
#      x y z
#    x 1.825530 0.000000 0.000000 
#    y 0.000000 1.808410 0.000000 
#    z 0.000000 0.000000 1.826650 
# 
# From -- ./inp_files/38862.got.cif
#   From: 2010.03.12/outbox.cif.g09.slc.cpg/sg53_20_cif.got.tgz:38862.got - 2010.04.16 14:36:59.
