data_PCOD8219952
_publ_section_title
;
Structure prediction by ZEFSAII (Michael W. Deem and Ramdas Pophale) SiO2 
 PCOD8219952
Probable space group: P M N A
;
_chemical_formula_sum "Si O2"
_cell_formula_units_Z 64
_cell_length_a 18.571136
_cell_length_b 9.386778
_cell_length_c 18.344766
_cell_angle_alpha 90.000000
_cell_angle_beta 90.000000
_cell_angle_gamma 90.000000
_cell_volume 3197.917044
_symmetry_space_group_name_H-M "P M N A"
_symmetry_group_IT_number 53
_symmetry_cell_setting 'orthorhombic'
loop_
_space_group_symop_operation_xyz
x,y,z
1/2-x,-y,1/2+z
x,-y,-z
1/2-x,y,1/2-z
-x,-y,-z
1/2+x,y,1/2-z
-x,y,z
1/2+x,-y,1/2+z
loop_
_atom_site_type_symbol
_atom_site_label
_atom_site_fract_x
_atom_site_fract_y
_atom_site_fract_z
Si Si1 0.416750 0.078210 0.284710
Si Si2 0.417327 0.724142 0.849117
Si Si3 0.808297 0.925258 0.573801
Si Si4 0.320709 0.860867 0.203536
Si Si5 0.338825 0.448918 0.820382
Si Si6 0.345327 0.208829 0.419257
Si Si7 0.181122 0.492082 0.847978
Si Si8 0.918905 0.354071 0.955448
O O1 0.500000 0.040799 0.290091
O O2 0.403235 0.214337 0.232177
O O3 0.386970 0.103144 0.365516
O O4 0.377400 0.940018 0.254048
O O5 0.500000 0.743776 0.872118
O O6 0.368939 0.810408 0.906149
O O7 0.398185 0.556029 0.853553
O O8 0.733123 0.847181 0.560487
O O9 0.834288 0.000000 0.500000
O O10 0.796981 0.040630 0.636951
O O11 0.250000 0.816358 0.250000
O O12 0.359926 0.717686 0.174005
O O13 0.264956 0.467380 0.865547
O O14 0.330827 0.493514 0.737258
O O15 0.341798 0.357432 0.378537
O O16 0.389938 0.225438 0.494128
O O17 0.132822 0.368453 0.885177
O O18 0.000000 0.318702 0.929504
O O19 0.917416 0.500000 0.000000
#
# Coordination Sequence:
#
# PCOD8219952 Si02
#       8
#     8   8   8   8   8   8   8   8
#     4  10  21  37  62  93 125 163 207 253 306 362
#     4  10  22  41  66  93 118 154 205 261 317 376
#     4  11  25  40  63  93 122 163 209 257 313 375
#     4  11  22  38  62  89 126 166 205 260 310 369
#     4  11  21  36  63  92 118 155 212 261 313 362
#     4  11  19  35  65  88 125 167 214 248 294 371
#     4  10  20  33  59  90 123 158 208 262 304 354
#     4   9  20  35  53  88 130 167 202 248 308 365
#
# _framework density 20.013027999999998
#
# number of rings (size 3 to 8) (size 9 to 14) (size 15 to 20)
#    0.000    1.625    5.000    0.375    1.750    1.750 
#    0.000    0.625    0.000    1.500    0.000    0.000 
#    0.000    0.000    0.000    0.000    0.000    0.000 
#
# Total GULP energy -793638.535180 kJ/mol
# GULP energy per Si atom -12400.602112 kJ/mol
# Density = 1.996748 g / cm^3
# Si number density = 20.013028 Si / 1000 Ang^3
#
#
#
# Elastic Constant Matrix: (Units=GPa)
#
#
# Indices 1 2 3 4 5 6 
#
# 1 142.1114 48.9140 48.1460 0.0000 0.0000 0.0000
# 2 48.9140 77.8890 14.2155 0.0000 0.0000 0.0000
# 3 48.1460 14.2155 73.5828 0.0000 0.0000 0.0000
# 4 0.0000 0.0000 0.0000 19.7099 0.0000 0.0000
# 5 0.0000 0.0000 0.0000 0.0000 20.7021 0.0000
# 6 0.0000 0.0000 0.0000 0.0000 0.0000 11.5579
#
#
#
# Elastic Compliance Matrix: (Units=1/GPa)
#
#
# Indices 1 2 3 4 5 6 
#
# 1 0.011145 -0.005875 -0.006157 0.000000 0.000000 0.000000
# 2 -0.005875 0.016405 0.000675 0.000000 0.000000 0.000000
# 3 -0.006157 0.000675 0.017488 0.000000 0.000000 0.000000
# 4 0.000000 0.000000 0.000000 0.050736 0.000000 0.000000
# 5 0.000000 0.000000 0.000000 0.000000 0.048304 0.000000
# 6 0.000000 0.000000 0.000000 0.000000 0.000000 0.086521
#
#
# Mechanical properties :
#
#
# Convention : Reuss Voigt Hill
#
# Bulk Modulus (GPa) = 44.79576 57.34824 51.07200
# Shear Modulus (GPa) = 19.17497 22.54781 20.86139
#
# Velocity S-wave (km/s) = 3.09872 3.36021 3.23211
# Velocity P-wave (km/s) = 5.93588 6.61607 6.28518
#
# Compressibility (1/GPa) = 0.02232354
#
# Stress axis : x y z
#
# Youngs Moduli (GPa) = 89.72652 60.95611 57.18044
#
# Poissons Ratio (x) = 0.35813 0.35207
# Poissons Ratio (y) = 0.52717 -0.03859
# Poissons Ratio (z) = 0.55247 -0.04114
#
# Static dielectric constant tensor:
#      x y z
#    x 3.674720 0.000000 0.000000 
#    y 0.000000 3.660040 0.000000 
#    z 0.000000 0.000000 3.612280 
# 
# 
# High freq. dielectric constant tensor:
#      x y z
#    x 1.778970 0.000000 0.000000 
#    y 0.000000 1.782900 0.000000 
#    z 0.000000 0.000000 1.766920 
# 
# From -- ./inp_files/29417.got.cif
#   From: 2010.03.12/outbox.cif.g09.slc.cpg/sg53_15_cif.got.tgz:29417.got - 2010.04.16 14:36:59.
