data_PCOD8219385
_publ_section_title
;
Structure prediction by ZEFSAII (Michael W. Deem and Ramdas Pophale) SiO2 
 PCOD8219385
Probable space group: P M N A
;
_chemical_formula_sum "Si O2"
_cell_formula_units_Z 40
_cell_length_a 8.762460
_cell_length_b 7.859654
_cell_length_c 28.481949
_cell_angle_alpha 90.000000
_cell_angle_beta 90.000000
_cell_angle_gamma 90.000000
_cell_volume 1961.549087
_symmetry_space_group_name_H-M "P M N A"
_symmetry_group_IT_number 53
_symmetry_cell_setting 'orthorhombic'
loop_
_space_group_symop_operation_xyz
x,y,z
1/2-x,-y,1/2+z
x,-y,-z
1/2-x,y,1/2-z
-x,-y,-z
1/2+x,y,1/2-z
-x,y,z
1/2+x,-y,1/2+z
loop_
_atom_site_type_symbol
_atom_site_label
_atom_site_fract_x
_atom_site_fract_y
_atom_site_fract_z
Si Si1 0.179603 0.931151 0.451487
Si Si2 0.319343 0.251241 0.699125
Si Si3 0.679110 0.582541 0.641656
Si Si4 0.321513 0.552809 0.052697
Si Si5 0.179247 0.069267 0.352544
O O1 0.241348 0.743469 0.440040
O O2 0.000000 0.915995 0.459299
O O3 0.254141 0.000000 0.500000
O O4 0.220237 0.051949 0.407845
O O5 0.250000 0.275567 0.750000
O O6 0.500000 0.240886 0.702411
O O7 0.265735 0.413787 0.668797
O O8 0.259165 0.078256 0.676607
O O9 0.500000 0.609356 0.645506
O O10 0.729010 0.568752 0.587482
O O11 0.759576 0.747810 0.664509
O O12 0.500000 0.533374 0.064477
O O13 0.285352 0.500000 0.000000
O O14 0.000000 0.055929 0.343500
#
# Coordination Sequence:
#
# PCOD8219385 Si02
#       5
#     8   8   8   8   8
#     4   9  17  31  54  88 124 160 207 257 306 364
#     4  11  25  45  68  93 125 164 210 263 320 378
#     4  11  24  41  62  91 131 169 208 262 318 381
#     4  10  19  34  59  89 124 166 215 263 310 375
#     4  11  22  39  66  94 127 167 210 263 316 373
#
# _framework density 20.392046000000001
#
# number of rings (size 3 to 8) (size 9 to 14) (size 15 to 20)
#    0.000    1.600    2.000    3.000    0.000    6.800 
#    0.000    2.000    0.000    3.000    0.000    0.000 
#    0.000    0.000    0.000    0.000    0.000    0.000 
#
# Total GULP energy -496101.567103 kJ/mol
# GULP energy per Si atom -12402.539178 kJ/mol
# Density = 2.034563 g / cm^3
# Si number density = 20.392046 Si / 1000 Ang^3
#
#
#
# Elastic Constant Matrix: (Units=GPa)
#
#
# Indices 1 2 3 4 5 6 
#
# 1 65.3095 44.9935 46.5799 0.0000 0.0000 0.0000
# 2 44.9935 159.2503 49.4499 0.0000 0.0000 0.0000
# 3 46.5799 49.4499 99.7488 0.0000 0.0000 0.0000
# 4 0.0000 0.0000 0.0000 27.1033 0.0000 0.0000
# 5 0.0000 0.0000 0.0000 0.0000 26.5157 0.0000
# 6 0.0000 0.0000 0.0000 0.0000 0.0000 33.3670
#
#
#
# Elastic Compliance Matrix: (Units=1/GPa)
#
#
# Indices 1 2 3 4 5 6 
#
# 1 0.025001 -0.004064 -0.009660 0.000000 0.000000 0.000000
# 2 -0.004064 0.008083 -0.002109 0.000000 0.000000 0.000000
# 3 -0.009660 -0.002109 0.015582 0.000000 0.000000 0.000000
# 4 0.000000 0.000000 0.000000 0.036896 0.000000 0.000000
# 5 0.000000 0.000000 0.000000 0.000000 0.037714 0.000000
# 6 0.000000 0.000000 0.000000 0.000000 0.000000 0.029970
#
#
# Mechanical properties :
#
#
# Convention : Reuss Voigt Hill
#
# Bulk Modulus (GPa) = 58.82685 67.37279 63.09982
# Shear Modulus (GPa) = 26.23598 29.61621 27.92610
#
# Velocity S-wave (km/s) = 3.59078 3.81509 3.70464
# Velocity P-wave (km/s) = 6.78986 7.24687 7.02208
#
# Compressibility (1/GPa) = 0.01699904
#
# Stress axis : x y z
#
# Youngs Moduli (GPa) = 39.99779 123.72313 64.17747
#
# Poissons Ratio (x) = 0.50282 0.61997
# Poissons Ratio (y) = 0.16255 0.13536
# Poissons Ratio (z) = 0.38639 0.26094
#
# Static dielectric constant tensor:
#      x y z
#    x 3.457000 0.000000 0.000000 
#    y 0.000000 3.937740 0.000000 
#    z 0.000000 0.000000 3.605100 
# 
# 
# High freq. dielectric constant tensor:
#      x y z
#    x 1.774980 0.000000 0.000000 
#    y 0.000000 1.816200 0.000000 
#    z 0.000000 0.000000 1.796770 
# 
# From -- ./inp_files/33626.got.cif
#   From: 2010.03.12/outbox.cif.g09.slc.cpg/sg53_17_cif.got.tgz:33626.got - 2010.04.16 14:36:59.
