data_PCOD8219908
_publ_section_title
;
Structure prediction by ZEFSAII (Michael W. Deem and Ramdas Pophale) SiO2 
 PCOD8219908
Probable space group: P M N A
;
_chemical_formula_sum "Si O2"
_cell_formula_units_Z 64
_cell_length_a 18.110011
_cell_length_b 9.105279
_cell_length_c 20.281312
_cell_angle_alpha 90.000000
_cell_angle_beta 90.000000
_cell_angle_gamma 90.000000
_cell_volume 3344.321478
_symmetry_space_group_name_H-M "P M N A"
_symmetry_group_IT_number 53
_symmetry_cell_setting 'orthorhombic'
loop_
_space_group_symop_operation_xyz
x,y,z
1/2-x,-y,1/2+z
x,-y,-z
1/2-x,y,1/2-z
-x,-y,-z
1/2+x,y,1/2-z
-x,y,z
1/2+x,-y,1/2+z
loop_
_atom_site_type_symbol
_atom_site_label
_atom_site_fract_x
_atom_site_fract_y
_atom_site_fract_z
Si Si1 0.633464 0.337039 0.254030
Si Si2 0.084622 0.352357 0.711401
Si Si3 0.208803 0.657158 0.391894
Si Si4 0.080160 0.087887 0.165101
Si Si5 0.738103 0.173647 0.491010
Si Si6 0.921650 0.832485 0.980011
Si Si7 0.741478 0.337936 0.138661
Si Si8 0.687227 0.840946 0.299145
O O1 0.587097 0.484410 0.241682
O O2 0.582469 0.198875 0.272723
O O3 0.673911 0.296759 0.186085
O O4 0.687807 0.361166 0.315494
O O5 0.128982 0.335489 0.642867
O O6 0.121341 0.242458 0.762919
O O7 0.000000 0.307451 0.698637
O O8 0.204782 0.739447 0.462252
O O9 0.229018 0.487549 0.401949
O O10 0.273072 0.731724 0.349097
O O11 0.085950 0.182504 0.098626
O O12 0.000000 0.007301 0.168131
O O13 0.148926 0.976372 0.163870
O O14 0.654455 0.229957 0.510855
O O15 0.752626 0.207632 0.414322
O O16 0.747587 0.000000 0.500000
O O17 0.000000 0.754989 0.002537
O O18 0.927961 0.000000 0.000000
O O19 0.750000 0.903563 0.250000
#
# Coordination Sequence:
#
# PCOD8219908 Si02
#       8
#     8   8   8   8   8   8   8   8
#     4  10  20  35  58  81 111 148 195 241 285 343
#     4  10  20  38  60  83 115 150 187 240 297 342
#     4  10  21  37  58  83 113 149 195 234 282 351
#     4  11  21  32  51  81 114 150 190 235 291 341
#     4  11  21  35  59  84 114 151 195 240 284 338
#     4   9  18  31  46  69 107 148 181 219 272 330
#     4  10  20  36  57  82 111 149 192 241 289 332
#     4  10  20  33  52  82 114 149 192 235 283 341
#
# _framework density 19.136915999999999
#
# number of rings (size 3 to 8) (size 9 to 14) (size 15 to 20)
#    0.000    1.875    2.500    2.625    1.750    1.000 
#    0.000    0.625    0.000    7.875    0.000    0.000 
#    0.000    0.000    0.000    0.000    0.000    0.000 
#
# Total GULP energy -793127.439253 kJ/mol
# GULP energy per Si atom -12392.616238 kJ/mol
# Density = 1.909336 g / cm^3
# Si number density = 19.136916 Si / 1000 Ang^3
#
#
#
# Elastic Constant Matrix: (Units=GPa)
#
#
# Indices 1 2 3 4 5 6 
#
# 1 105.9769 30.3911 29.2051 0.0000 0.0000 0.0000
# 2 30.3911 66.2952 29.6997 0.0000 0.0000 0.0000
# 3 29.2051 29.6997 86.3770 0.0000 0.0000 0.0000
# 4 0.0000 0.0000 0.0000 34.7409 0.0000 0.0000
# 5 0.0000 0.0000 0.0000 0.0000 27.5878 0.0000
# 6 0.0000 0.0000 0.0000 0.0000 0.0000 24.3883
#
#
#
# Elastic Compliance Matrix: (Units=1/GPa)
#
#
# Indices 1 2 3 4 5 6 
#
# 1 0.011272 -0.004090 -0.002405 0.000000 0.000000 0.000000
# 2 -0.004090 0.019315 -0.005258 0.000000 0.000000 0.000000
# 3 -0.002405 -0.005258 0.014198 0.000000 0.000000 0.000000
# 4 0.000000 0.000000 0.000000 0.028785 0.000000 0.000000
# 5 0.000000 0.000000 0.000000 0.000000 0.036248 0.000000
# 6 0.000000 0.000000 0.000000 0.000000 0.000000 0.041003
#
#
# Mechanical properties :
#
#
# Convention : Reuss Voigt Hill
#
# Bulk Modulus (GPa) = 46.99556 48.58232 47.78894
# Shear Modulus (GPa) = 27.56057 28.63362 28.09710
#
# Velocity S-wave (km/s) = 3.79909 3.87234 3.83589
# Velocity P-wave (km/s) = 6.62230 6.74056 6.68169
#
# Compressibility (1/GPa) = 0.02127860
#
# Stress axis : x y z
#
# Youngs Moduli (GPa) = 88.71872 51.77449 70.43121
#
# Poissons Ratio (x) = 0.21175 0.16938
# Poissons Ratio (y) = 0.36284 0.37035
# Poissons Ratio (z) = 0.21335 0.27224
#
# Static dielectric constant tensor:
#      x y z
#    x 3.666880 0.000000 0.000000 
#    y 0.000000 3.369230 0.000000 
#    z 0.000000 0.000000 3.560110 
# 
# 
# High freq. dielectric constant tensor:
#      x y z
#    x 1.739360 0.000000 0.000000 
#    y 0.000000 1.728400 0.000000 
#    z 0.000000 0.000000 1.739030 
# 
# From -- ./inp_files/32855.got.cif
#   From: 2010.03.12/outbox.cif.g09.slc.cpg/sg53_17_cif.got.tgz:32855.got - 2010.04.16 14:36:59.
