data_PCOD8219204
_publ_section_title
;
Structure prediction by ZEFSAII (Michael W. Deem and Ramdas Pophale) SiO2 
 PCOD8219204
Probable space group: P M N A
;
_chemical_formula_sum "Si O2"
_cell_formula_units_Z 56
_cell_length_a 9.470086
_cell_length_b 16.150463
_cell_length_c 19.239672
_cell_angle_alpha 90.000000
_cell_angle_beta 90.000000
_cell_angle_gamma 90.000000
_cell_volume 2942.636137
_symmetry_space_group_name_H-M "P M N A"
_symmetry_group_IT_number 53
_symmetry_cell_setting 'orthorhombic'
loop_
_space_group_symop_operation_xyz
x,y,z
1/2-x,-y,1/2+z
x,-y,-z
1/2-x,y,1/2-z
-x,-y,-z
1/2+x,y,1/2-z
-x,y,z
1/2+x,-y,1/2+z
loop_
_atom_site_type_symbol
_atom_site_label
_atom_site_fract_x
_atom_site_fract_y
_atom_site_fract_z
Si Si1 0.657834 0.514722 0.312349
Si Si2 0.333873 0.702527 0.318170
Si Si3 0.838350 0.574518 0.953593
Si Si4 0.842107 0.811043 0.416294
Si Si5 0.163246 0.002793 0.576821
Si Si6 0.840961 0.264763 0.440088
Si Si7 0.832385 0.859957 0.677557
O O1 0.750000 0.479483 0.250000
O O2 0.500000 0.517972 0.283747
O O3 0.702585 0.607068 0.335314
O O4 0.674780 0.450740 0.374016
O O5 0.250000 0.731856 0.250000
O O6 0.500000 0.718422 0.308281
O O7 0.277439 0.754474 0.382689
O O8 0.755781 0.659185 0.963339
O O9 0.000000 0.589995 0.976601
O O10 0.774144 0.500000 0.000000
O O11 0.816048 0.905251 0.392800
O O12 0.829755 0.804854 0.499925
O O13 0.000000 0.782746 0.393093
O O14 0.000000 0.978427 0.567532
O O15 0.235572 0.000000 0.500000
O O16 0.226380 0.938493 0.633176
O O17 0.796489 0.222438 0.367328
O O18 0.000000 0.298824 0.434056
O O19 0.750000 0.854827 0.750000
O O20 0.000000 0.866879 0.692057
#
# Coordination Sequence:
#
# PCOD8219204 Si02
#       7
#     8   8   8   8   8   8   8
#     4   9  19  35  54  74 100 139 180 219 268 327
#     4  10  20  35  54  78 110 144 179 223 275 327
#     4  10  21  37  56  79 109 143 182 227 279 331
#     4  10  19  33  57  84 108 140 184 226 270 325
#     4   9  16  33  60  82 105 144 188 227 270 326
#     4  10  21  36  56  82 110 144 186 229 274 328
#     4  10  21  38  59  84 114 149 189 231 278 331
#
# _framework density 19.030556000000001
#
# number of rings (size 3 to 8) (size 9 to 14) (size 15 to 20)
#    0.000    2.286    1.429    1.286    0.000    4.857 
#    0.000    5.000    0.000    0.857    0.000    0.000 
#    0.000    0.000    0.000    0.000    0.000    0.000 
#
# Total GULP energy -694333.171153 kJ/mol
# GULP energy per Si atom -12398.806628 kJ/mol
# Density = 1.898724 g / cm^3
# Si number density = 19.030556 Si / 1000 Ang^3
#
#
#
# Elastic Constant Matrix: (Units=GPa)
#
#
# Indices 1 2 3 4 5 6 
#
# 1 66.5970 38.7502 35.6210 0.0000 0.0000 0.0000
# 2 38.7502 98.2162 34.5340 0.0000 0.0000 0.0000
# 3 35.6210 34.5340 84.0840 0.0000 0.0000 0.0000
# 4 0.0000 0.0000 0.0000 26.0972 0.0000 0.0000
# 5 0.0000 0.0000 0.0000 0.0000 32.6795 0.0000
# 6 0.0000 0.0000 0.0000 0.0000 0.0000 6.8389
#
#
#
# Elastic Compliance Matrix: (Units=1/GPa)
#
#
# Indices 1 2 3 4 5 6 
#
# 1 0.022430 -0.006438 -0.006858 0.000000 0.000000 0.000000
# 2 -0.006438 0.013748 -0.002919 0.000000 0.000000 0.000000
# 3 -0.006858 -0.002919 0.015997 0.000000 0.000000 0.000000
# 4 0.000000 0.000000 0.000000 0.038318 0.000000 0.000000
# 5 0.000000 0.000000 0.000000 0.000000 0.030600 0.000000
# 6 0.000000 0.000000 0.000000 0.000000 0.000000 0.146222
#
#
# Mechanical properties :
#
#
# Convention : Reuss Voigt Hill
#
# Bulk Modulus (GPa) = 50.64622 51.85641 51.25132
# Shear Modulus (GPa) = 16.32243 22.45594 19.38918
#
# Velocity S-wave (km/s) = 2.93182 3.43883 3.19540
# Velocity P-wave (km/s) = 6.17508 6.56320 6.37210
#
# Compressibility (1/GPa) = 0.01974481
#
# Stress axis : x y z
#
# Youngs Moduli (GPa) = 44.58329 72.73736 62.51177
#
# Poissons Ratio (x) = 0.46830 0.42870
# Poissons Ratio (y) = 0.28703 0.18247
# Poissons Ratio (z) = 0.30575 0.21232
#
# Static dielectric constant tensor:
#      x y z
#    x 3.289870 0.000000 0.000000 
#    y 0.000000 3.404010 0.000000 
#    z 0.000000 0.000000 3.482540 
# 
# 
# High freq. dielectric constant tensor:
#      x y z
#    x 1.715810 0.000000 0.000000 
#    y 0.000000 1.740590 0.000000 
#    z 0.000000 0.000000 1.742860 
# 
# From -- ./inp_files/30725.got.cif
#   From: 2010.03.12/outbox.cif.g09.slc.cpg/sg53_16_cif.got.tgz:30725.got - 2010.04.16 14:36:59.
