data_PCOD8219641
_publ_section_title
;
Structure prediction by ZEFSAII (Michael W. Deem and Ramdas Pophale) SiO2 
 PCOD8219641
Probable space group: P M N A
;
_chemical_formula_sum "Si O2"
_cell_formula_units_Z 56
_cell_length_a 8.896976
_cell_length_b 20.910629
_cell_length_c 15.404245
_cell_angle_alpha 90.000000
_cell_angle_beta 90.000000
_cell_angle_gamma 90.000000
_cell_volume 2865.826757
_symmetry_space_group_name_H-M "P M N A"
_symmetry_group_IT_number 53
_symmetry_cell_setting 'orthorhombic'
loop_
_space_group_symop_operation_xyz
x,y,z
1/2-x,-y,1/2+z
x,-y,-z
1/2-x,y,1/2-z
-x,-y,-z
1/2+x,y,1/2-z
-x,y,z
1/2+x,-y,1/2+z
loop_
_atom_site_type_symbol
_atom_site_label
_atom_site_fract_x
_atom_site_fract_y
_atom_site_fract_z
Si Si1 0.824416 0.427414 0.340210
Si Si2 0.174522 0.005553 0.100966
Si Si3 0.324349 0.575564 0.159745
Si Si4 0.324062 0.133901 0.661887
Si Si5 0.173245 0.357521 0.000936
Si Si6 0.673037 0.206776 0.492619
Si Si7 0.177195 0.867129 0.660924
O O1 0.750000 0.406592 0.250000
O O2 0.792527 0.501462 0.360619
O O3 0.752640 0.385811 0.415264
O O4 0.000000 0.412728 0.334749
O O5 0.274578 0.060237 0.143241
O O6 0.000000 0.022534 0.115077
O O7 0.220364 0.939666 0.146676
O O8 0.212302 0.000000 0.000000
O O9 0.250000 0.596256 0.250000
O O10 0.500000 0.590173 0.164893
O O11 0.251793 0.617267 0.084974
O O12 0.250000 0.159396 0.750000
O O13 0.500000 0.142780 0.671495
O O14 0.264941 0.176395 0.581836
O O15 0.000000 0.378590 0.000542
O O16 0.192011 0.282046 0.002871
O O17 0.500000 0.186047 0.477939
O O18 0.771247 0.180112 0.414529
O O19 0.250000 0.842359 0.750000
O O20 0.000000 0.864057 0.669939
#
# Coordination Sequence:
#
# PCOD8219641 Si02
#       7
#     8   8   8   8   8   8   8
#     4  10  21  38  61  89 121 156 195 242 296 350
#     4  10  19  37  64  88 117 154 188 237 298 348
#     4  10  21  38  61  89 122 157 196 243 292 349
#     4  10  21  38  61  85 114 151 191 236 289 346
#     4  11  23  38  61  88 118 157 200 245 294 353
#     4  10  23  44  61  81 116 159 201 241 291 347
#     4  12  25  40  62  89 118 153 196 245 296 353
#
# _framework density 19.540610000000001
#
# number of rings (size 3 to 8) (size 9 to 14) (size 15 to 20)
#    0.000    1.571    1.429    3.429    0.000    8.286 
#    0.000    1.429    0.000    0.000    0.000    0.000 
#    0.000    0.000    0.000    0.000    0.000    0.000 
#
# Total GULP energy -694726.229106 kJ/mol
# GULP energy per Si atom -12405.825520 kJ/mol
# Density = 1.949613 g / cm^3
# Si number density = 19.540610 Si / 1000 Ang^3
#
#
#
# Elastic Constant Matrix: (Units=GPa)
#
#
# Indices 1 2 3 4 5 6 
#
# 1 122.9995 55.2974 81.2916 0.0000 0.0000 0.0000
# 2 55.2974 80.8911 64.3361 0.0000 0.0000 0.0000
# 3 81.2916 64.3361 175.5403 0.0000 0.0000 0.0000
# 4 0.0000 0.0000 0.0000 1.0995 0.0000 0.0000
# 5 0.0000 0.0000 0.0000 0.0000 40.8655 0.0000
# 6 0.0000 0.0000 0.0000 0.0000 0.0000 20.9617
#
#
#
# Elastic Compliance Matrix: (Units=1/GPa)
#
#
# Indices 1 2 3 4 5 6 
#
# 1 0.013513 -0.006013 -0.004054 0.000000 0.000000 0.000000
# 2 -0.006013 0.020124 -0.004591 0.000000 0.000000 0.000000
# 3 -0.004054 -0.004591 0.009257 0.000000 0.000000 0.000000
# 4 0.000000 0.000000 0.000000 0.909533 0.000000 0.000000
# 5 0.000000 0.000000 0.000000 0.000000 0.024471 0.000000
# 6 0.000000 0.000000 0.000000 0.000000 0.000000 0.047706
#
#
# Mechanical properties :
#
#
# Convention : Reuss Voigt Hill
#
# Bulk Modulus (GPa) = 73.65001 86.80903 80.22952
# Shear Modulus (GPa) = 4.72391 24.48570 14.60481
#
# Velocity S-wave (km/s) = 1.55651 3.54371 2.73684
# Velocity P-wave (km/s) = 6.40335 7.82721 7.15081
#
# Compressibility (1/GPa) = 0.01357773
#
# Stress axis : x y z
#
# Youngs Moduli (GPa) = 74.00460 49.69113 108.03104
#
# Poissons Ratio (x) = 0.29880 0.43794
# Poissons Ratio (y) = 0.44500 0.49597
# Poissons Ratio (z) = 0.30000 0.22813
#
# Static dielectric constant tensor:
#      x y z
#    x 3.594610 0.000000 0.000000 
#    y 0.000000 3.541120 0.000000 
#    z 0.000000 0.000000 3.995520 
# 
# 
# High freq. dielectric constant tensor:
#      x y z
#    x 1.764270 0.000000 0.000000 
#    y 0.000000 1.757970 0.000000 
#    z 0.000000 0.000000 1.780180 
# 
# From -- ./inp_files/20443.got.cif
#   From: 2010.03.12/outbox.cif.g09.slc.cpg/sg53_11_cif.got.tgz:20443.got - 2010.04.16 14:36:59.
