data_PCOD8219452
_publ_section_title
;
Structure prediction by ZEFSAII (Michael W. Deem and Ramdas Pophale) SiO2 
 PCOD8219452
Probable space group: P M N A
;
_chemical_formula_sum "Si O2"
_cell_formula_units_Z 64
_cell_length_a 8.882300
_cell_length_b 15.071509
_cell_length_c 25.034796
_cell_angle_alpha 90.000000
_cell_angle_beta 90.000000
_cell_angle_gamma 90.000000
_cell_volume 3351.399739
_symmetry_space_group_name_H-M "P M N A"
_symmetry_group_IT_number 53
_symmetry_cell_setting 'orthorhombic'
loop_
_space_group_symop_operation_xyz
x,y,z
1/2-x,-y,1/2+z
x,-y,-z
1/2-x,y,1/2-z
-x,-y,-z
1/2+x,y,1/2-z
-x,y,z
1/2+x,-y,1/2+z
loop_
_atom_site_type_symbol
_atom_site_label
_atom_site_fract_x
_atom_site_fract_y
_atom_site_fract_z
Si Si1 0.675249 0.768890 0.994385
Si Si2 0.160592 0.068343 0.044868
Si Si3 0.829279 0.867641 0.695516
Si Si4 0.320024 0.559291 0.806235
Si Si5 0.830561 0.033830 0.631931
Si Si6 0.678423 0.716486 0.882722
Si Si7 0.677307 0.235655 0.885176
Si Si8 0.679392 0.372344 0.693675
O O1 0.500000 0.755742 0.000813
O O2 0.740918 0.752366 0.053882
O O3 0.708202 0.868275 0.975858
O O4 0.738849 0.709274 0.944556
O O5 0.000000 0.117323 0.057935
O O6 0.210993 0.011540 0.094702
O O7 0.123502 0.000000 0.000000
O O8 0.750000 0.841366 0.750000
O O9 0.762966 0.807460 0.646294
O O10 0.000000 0.837517 0.703189
O O11 0.817828 0.974125 0.685740
O O12 0.250000 0.589759 0.750000
O O13 0.500000 0.551355 0.801288
O O14 0.268249 0.630445 0.850346
O O15 0.249637 0.466021 0.824113
O O16 0.791008 0.137422 0.638786
O O17 0.000000 0.026650 0.608420
O O18 0.500000 0.720484 0.885932
O O19 0.500000 0.258495 0.881058
O O20 0.776919 0.301314 0.850567
O O21 0.750000 0.342324 0.750000
O O22 0.500000 0.379937 0.699101
#
# Coordination Sequence:
#
# PCOD8219452 Si02
#       8
#     8   8   8   8   8   8   8   8
#     4  10  19  35  58  81 111 150 191 229 274 333
#     4  11  21  31  48  77 111 144 187 237 280 319
#     4  10  20  34  51  75 111 146 186 229 277 333
#     4  10  19  35  60  87 113 141 183 232 277 333
#     4  10  20  35  55  76 105 148 192 231 271 328
#     4   9  18  33  56  84 112 145 184 229 275 327
#     4  10  21  36  59  87 110 144 192 235 280 332
#     4  11  23  41  64  85 111 143 180 231 283 335
#
# _framework density 19.096496999999999
#
# number of rings (size 3 to 8) (size 9 to 14) (size 15 to 20)
#    0.000    1.875    2.500    3.000    0.000    2.500 
#    0.000    3.750    0.000    3.750    0.000    0.000 
#    0.000    0.000    0.000    0.000    0.000    0.000 
#
# Total GULP energy -792915.954830 kJ/mol
# GULP energy per Si atom -12389.311794 kJ/mol
# Density = 1.905303 g / cm^3
# Si number density = 19.096497 Si / 1000 Ang^3
#
#
#
# Elastic Constant Matrix: (Units=GPa)
#
#
# Indices 1 2 3 4 5 6 
#
# 1 56.6858 30.2334 33.1627 0.0000 0.0000 0.0000
# 2 30.2334 111.1583 66.2263 0.0000 0.0000 0.0000
# 3 33.1627 66.2263 111.9982 0.0000 0.0000 0.0000
# 4 0.0000 0.0000 0.0000 33.8633 0.0000 0.0000
# 5 0.0000 0.0000 0.0000 0.0000 27.7767 0.0000
# 6 0.0000 0.0000 0.0000 0.0000 0.0000 20.6512
#
#
#
# Elastic Compliance Matrix: (Units=1/GPa)
#
#
# Indices 1 2 3 4 5 6 
#
# 1 0.022076 -0.003257 -0.004610 0.000000 0.000000 0.000000
# 2 -0.003257 0.014370 -0.007533 0.000000 0.000000 0.000000
# 3 -0.004610 -0.007533 0.014748 0.000000 0.000000 0.000000
# 4 0.000000 0.000000 0.000000 0.029531 0.000000 0.000000
# 5 0.000000 0.000000 0.000000 0.000000 0.036001 0.000000
# 6 0.000000 0.000000 0.000000 0.000000 0.000000 0.048423
#
#
# Mechanical properties :
#
#
# Convention : Reuss Voigt Hill
#
# Bulk Modulus (GPa) = 49.03730 59.89856 54.46793
# Shear Modulus (GPa) = 24.66120 26.47290 25.56705
#
# Velocity S-wave (km/s) = 3.59750 3.72730 3.66298
# Velocity P-wave (km/s) = 6.55671 7.06810 6.81720
#
# Compressibility (1/GPa) = 0.02039264
#
# Stress axis : x y z
#
# Youngs Moduli (GPa) = 45.29872 69.58943 67.80558
#
# Poissons Ratio (x) = 0.22668 0.31261
# Poissons Ratio (y) = 0.14756 0.51076
# Poissons Ratio (z) = 0.20885 0.52419
#
# Static dielectric constant tensor:
#      x y z
#    x 3.433580 0.000000 0.000000 
#    y 0.000000 3.448680 0.000000 
#    z 0.000000 0.000000 3.752740 
# 
# 
# High freq. dielectric constant tensor:
#      x y z
#    x 1.731530 0.000000 0.000000 
#    y 0.000000 1.729880 0.000000 
#    z 0.000000 0.000000 1.745290 
# 
# From -- ./inp_files/34319.got.cif
#   From: 2010.03.12/outbox.cif.g09.slc.cpg/sg53_18_cif.got.tgz:34319.got - 2010.04.16 14:36:59.
