data_PCOD8219317
_publ_section_title
;
Structure prediction by ZEFSAII (Michael W. Deem and Ramdas Pophale) SiO2 
 PCOD8219317
Probable space group: P M N A
;
_chemical_formula_sum "Si O2"
_cell_formula_units_Z 64
_cell_length_a 8.432870
_cell_length_b 20.512987
_cell_length_c 19.533390
_cell_angle_alpha 90.000000
_cell_angle_beta 90.000000
_cell_angle_gamma 90.000000
_cell_volume 3378.951291
_symmetry_space_group_name_H-M "P M N A"
_symmetry_group_IT_number 53
_symmetry_cell_setting 'orthorhombic'
loop_
_space_group_symop_operation_xyz
x,y,z
1/2-x,-y,1/2+z
x,-y,-z
1/2-x,y,1/2-z
-x,-y,-z
1/2+x,y,1/2-z
-x,y,z
1/2+x,-y,1/2+z
loop_
_atom_site_type_symbol
_atom_site_label
_atom_site_fract_x
_atom_site_fract_y
_atom_site_fract_z
Si Si1 0.186764 0.372853 0.320581
Si Si2 0.314389 0.686288 0.960424
Si Si3 0.685431 0.986722 0.320988
Si Si4 0.683138 0.177339 0.460743
Si Si5 0.314550 0.565423 0.461186
Si Si6 0.313813 0.129426 0.176604
Si Si7 0.688281 0.478784 0.821947
Si Si8 0.315449 0.939174 0.045020
O O1 0.250000 0.341609 0.250000
O O2 0.249616 0.331241 0.384493
O O3 0.248555 0.446765 0.328518
O O4 0.000000 0.372737 0.319052
O O5 0.500000 0.701979 0.959607
O O6 0.220613 0.749775 0.986410
O O7 0.282343 0.626310 0.010286
O O8 0.750000 0.955988 0.250000
O O9 0.500000 0.001334 0.314249
O O10 0.720865 0.937565 0.383134
O O11 0.776763 0.053763 0.336248
O O12 0.500000 0.160688 0.471475
O O13 0.729589 0.172408 0.381142
O O14 0.785631 0.127554 0.505398
O O15 0.257163 0.500000 0.500000
O O16 0.500000 0.577222 0.472435
O O17 0.273102 0.561657 0.381379
O O18 0.250000 0.152840 0.250000
O O19 0.500000 0.141491 0.172208
O O20 0.750000 0.449779 0.750000
O O21 0.500000 0.472324 0.828083
O O22 0.500000 0.946765 0.061203
O O23 0.253528 0.000000 0.000000
#
# Coordination Sequence:
#
# PCOD8219317 Si02
#       8
#     8   8   8   8   8   8   8   8
#     4   9  19  33  53  79 111 150 191 232 279 336
#     4  11  23  40  58  81 115 156 197 240 290 345
#     4  11  21  35  58  88 120 152 190 239 291 342
#     4  12  25  40  58  84 117 155 196 241 292 348
#     4  11  22  36  58  87 116 150 193 241 289 341
#     4  11  21  36  56  82 115 155 197 238 285 342
#     4  10  19  34  56  85 116 149 188 236 288 341
#     4  11  22  38  62  88 116 152 195 242 290 343
#
# _framework density 18.940788999999999
#
# number of rings (size 3 to 8) (size 9 to 14) (size 15 to 20)
#    0.000    1.250    2.500    5.625    0.000    3.000 
#    0.000    1.250    0.000    0.750    0.000    5.250 
#    0.000    0.000    0.000    0.000    0.000    0.000 
#
# Total GULP energy -793960.728678 kJ/mol
# GULP energy per Si atom -12405.636386 kJ/mol
# Density = 1.889768 g / cm^3
# Si number density = 18.940789 Si / 1000 Ang^3
#
#
#
# Elastic Constant Matrix: (Units=GPa)
#
#
# Indices 1 2 3 4 5 6 
#
# 1 64.6560 8.0544 18.0804 0.0000 0.0000 0.0000
# 2 8.0544 85.5748 43.2875 0.0000 0.0000 0.0000
# 3 18.0804 43.2875 119.1908 0.0000 0.0000 0.0000
# 4 0.0000 0.0000 0.0000 22.1842 0.0000 0.0000
# 5 0.0000 0.0000 0.0000 0.0000 34.4048 0.0000
# 6 0.0000 0.0000 0.0000 0.0000 0.0000 24.5315
#
#
#
# Elastic Compliance Matrix: (Units=1/GPa)
#
#
# Indices 1 2 3 4 5 6 
#
# 1 0.016160 -0.000344 -0.002326 0.000000 0.000000 0.000000
# 2 -0.000344 0.014323 -0.005150 0.000000 0.000000 0.000000
# 3 -0.002326 -0.005150 0.010613 0.000000 0.000000 0.000000
# 4 0.000000 0.000000 0.000000 0.045077 0.000000 0.000000
# 5 0.000000 0.000000 0.000000 0.000000 0.029066 0.000000
# 6 0.000000 0.000000 0.000000 0.000000 0.000000 0.040764
#
#
# Mechanical properties :
#
#
# Convention : Reuss Voigt Hill
#
# Bulk Modulus (GPa) = 39.28409 45.36293 42.32351
# Shear Modulus (GPa) = 27.75802 29.55737 28.65769
#
# Velocity S-wave (km/s) = 3.83236 3.95462 3.89397
# Velocity P-wave (km/s) = 6.35359 6.69730 6.52771
#
# Compressibility (1/GPa) = 0.02545560
#
# Stress axis : x y z
#
# Youngs Moduli (GPa) = 61.88163 69.81792 94.22395
#
# Poissons Ratio (x) = 0.02403 0.21920
# Poissons Ratio (y) = 0.02130 0.48521
# Poissons Ratio (z) = 0.14396 0.35953
#
# Static dielectric constant tensor:
#      x y z
#    x 3.448980 0.000000 0.000000 
#    y 0.000000 3.207090 0.000000 
#    z 0.000000 0.000000 3.725440 
# 
# 
# High freq. dielectric constant tensor:
#      x y z
#    x 1.747470 0.000000 0.000000 
#    y 0.000000 1.705440 0.000000 
#    z 0.000000 0.000000 1.741850 
# 
# From -- ./inp_files/31152.got.cif
#   From: 2010.03.12/outbox.cif.g09.slc.cpg/sg53_16_cif.got.tgz:31152.got - 2010.04.16 14:36:59.
