data_PCOD8219889
_publ_section_title
;
Structure prediction by ZEFSAII (Michael W. Deem and Ramdas Pophale) SiO2 
 PCOD8219889
Probable space group: P M N A
;
_chemical_formula_sum "Si O2"
_cell_formula_units_Z 52
_cell_length_a 9.487650
_cell_length_b 21.017533
_cell_length_c 14.524782
_cell_angle_alpha 90.000000
_cell_angle_beta 90.000000
_cell_angle_gamma 90.000000
_cell_volume 2896.343160
_symmetry_space_group_name_H-M "P M N A"
_symmetry_group_IT_number 53
_symmetry_cell_setting 'orthorhombic'
loop_
_space_group_symop_operation_xyz
x,y,z
1/2-x,-y,1/2+z
x,-y,-z
1/2-x,y,1/2-z
-x,-y,-z
1/2+x,y,1/2-z
-x,y,z
1/2+x,-y,1/2+z
loop_
_atom_site_type_symbol
_atom_site_label
_atom_site_fract_x
_atom_site_fract_y
_atom_site_fract_z
Si Si1 0.000000 0.570123 0.959192
Si Si2 0.330335 0.262073 0.838156
Si Si3 0.500000 0.460579 0.908176
Si Si4 0.835795 0.147848 0.528779
Si Si5 0.662436 0.894126 0.838740
Si Si6 0.214196 0.606672 0.099702
Si Si7 0.336755 0.040454 0.839282
Si Si8 0.500000 0.482807 0.699896
O O1 0.000000 0.553713 0.849370
O O2 0.000000 0.500000 0.000000
O O3 0.864212 0.607432 0.999682
O O4 0.250000 0.231890 0.750000
O O5 0.500000 0.274116 0.822700
O O6 0.304798 0.214661 0.922789
O O7 0.233922 0.323698 0.858474
O O8 0.368482 0.416185 0.918070
O O9 0.500000 0.497377 0.809416
O O10 0.500000 0.500000 0.000000
O O11 0.778456 0.148119 0.423925
O O12 0.773341 0.087355 0.583278
O O13 0.000000 0.134477 0.520654
O O14 0.750000 0.874058 0.750000
O O15 0.500000 0.880434 0.815551
O O16 0.685530 0.967440 0.867938
O O17 0.134892 0.560223 0.172014
O O18 0.250000 0.057727 0.750000
O O19 0.500000 0.055401 0.819018
#
# Coordination Sequence:
#
# PCOD8219889 Si02
#       8
#     4   8   4   8   8   8   8   4
#     4   8  18  36  54  72 102 134 164 198 246 293
#     4  11  22  34  51  76 105 138 169 203 247 302
#     4  12  20  30  52  82 106 128 167 208 242 288
#     4   9  18  32  49  71 100 134 170 208 250 301
#     4   9  17  31  52  72  94 126 170 216 256 302
#     4  10  20  33  52  76 102 135 167 200 242 298
#     4   9  16  28  48  73  99 130 163 204 259 309
#     4  10  20  36  54  76 106 138 162 200 252 293
#
# _framework density 17.953673999999999
#
# number of rings (size 3 to 8) (size 9 to 14) (size 15 to 20)
#    0.000    2.462    0.769    3.692    2.154    1.846 
#    0.000    1.538    0.000    5.538    0.000    0.000 
#    0.000    0.000    0.000    0.000    0.000    0.000 
#
# Total GULP energy -644207.888795 kJ/mol
# GULP energy per Si atom -12388.613246 kJ/mol
# Density = 1.791281 g / cm^3
# Si number density = 17.953674 Si / 1000 Ang^3
#
#
#
# Elastic Constant Matrix: (Units=GPa)
#
#
# Indices 1 2 3 4 5 6 
#
# 1 90.8346 29.2073 48.6847 0.0000 0.0000 0.0000
# 2 29.2073 50.3074 52.9343 0.0000 0.0000 0.0000
# 3 48.6847 52.9343 153.3888 0.0000 0.0000 0.0000
# 4 0.0000 0.0000 0.0000 22.6911 0.0000 0.0000
# 5 0.0000 0.0000 0.0000 0.0000 20.5341 0.0000
# 6 0.0000 0.0000 0.0000 0.0000 0.0000 54.6607
#
#
#
# Elastic Compliance Matrix: (Units=1/GPa)
#
#
# Indices 1 2 3 4 5 6 
#
# 1 0.014169 -0.005486 -0.002604 0.000000 0.000000 0.000000
# 2 -0.005486 0.033336 -0.009763 0.000000 0.000000 0.000000
# 3 -0.002604 -0.009763 0.010715 0.000000 0.000000 0.000000
# 4 0.000000 0.000000 0.000000 0.044070 0.000000 0.000000
# 5 0.000000 0.000000 0.000000 0.000000 0.048700 0.000000
# 6 0.000000 0.000000 0.000000 0.000000 0.000000 0.018295
#
#
# Mechanical properties :
#
#
# Convention : Reuss Voigt Hill
#
# Bulk Modulus (GPa) = 44.41768 61.79813 53.10790
# Shear Modulus (GPa) = 23.53014 30.49081 27.01048
#
# Velocity S-wave (km/s) = 3.62415 4.12552 3.88294
# Velocity P-wave (km/s) = 6.50435 7.56233 7.05320
#
# Compressibility (1/GPa) = 0.02251356
#
# Stress axis : x y z
#
# Youngs Moduli (GPa) = 70.57847 29.99802 93.32803
#
# Poissons Ratio (x) = 0.16458 0.24300
# Poissons Ratio (y) = 0.38721 0.91114
# Poissons Ratio (z) = 0.18377 0.29286
#
# Static dielectric constant tensor:
#      x y z
#    x 3.365330 0.000000 0.000000 
#    y 0.000000 3.363330 0.000000 
#    z 0.000000 0.000000 3.834450 
# 
# 
# High freq. dielectric constant tensor:
#      x y z
#    x 1.690660 0.000000 0.000000 
#    y 0.000000 1.668730 0.000000 
#    z 0.000000 0.000000 1.697070 
# 
# From -- ./inp_files/20435.got.cif
#   From: 2010.03.12/outbox.cif.g09.slc.cpg/sg53_11_cif.got.tgz:20435.got - 2010.04.16 14:36:59.
