data_PCOD8219362
_publ_section_title
;
Structure prediction by ZEFSAII (Michael W. Deem and Ramdas Pophale) SiO2 
 PCOD8219362
Probable space group: P M N A
;
_chemical_formula_sum "Si O2"
_cell_formula_units_Z 64
_cell_length_a 8.648098
_cell_length_b 21.467003
_cell_length_c 17.861668
_cell_angle_alpha 90.000000
_cell_angle_beta 90.000000
_cell_angle_gamma 90.000000
_cell_volume 3315.996260
_symmetry_space_group_name_H-M "P M N A"
_symmetry_group_IT_number 53
_symmetry_cell_setting 'orthorhombic'
loop_
_space_group_symop_operation_xyz
x,y,z
1/2-x,-y,1/2+z
x,-y,-z
1/2-x,y,1/2-z
-x,-y,-z
1/2+x,y,1/2-z
-x,y,z
1/2+x,-y,1/2+z
loop_
_atom_site_type_symbol
_atom_site_label
_atom_site_fract_x
_atom_site_fract_y
_atom_site_fract_z
Si Si1 0.317771 0.692432 0.048063
Si Si2 0.318915 0.893952 0.429902
Si Si3 0.819781 0.999227 0.331037
Si Si4 0.818104 0.225438 0.831912
Si Si5 0.819432 0.745259 0.900453
Si Si6 0.182374 0.370611 0.327535
Si Si7 0.182485 0.566002 0.523746
Si Si8 0.822091 0.872976 0.589487
O O1 0.500000 0.702779 0.040209
O O2 0.257403 0.713959 0.128890
O O3 0.234603 0.734143 0.985487
O O4 0.274716 0.619571 0.036429
O O5 0.500000 0.893274 0.448185
O O6 0.271973 0.835696 0.378278
O O7 0.225406 0.892158 0.506376
O O8 0.273408 0.957185 0.389000
O O9 0.750000 0.987208 0.250000
O O10 0.793503 0.070446 0.354005
O O11 0.000000 0.980833 0.331894
O O12 0.750000 0.217981 0.750000
O O13 0.000000 0.235319 0.826993
O O14 0.734250 0.700121 0.842195
O O15 0.779520 0.815999 0.879175
O O16 0.000000 0.733241 0.893779
O O17 0.250000 0.396184 0.250000
O O18 0.246334 0.414149 0.394648
O O19 0.000000 0.372489 0.323781
O O20 0.258508 0.500000 0.500000
O O21 0.000000 0.558430 0.529226
O O22 0.000000 0.852529 0.588300
#
# Coordination Sequence:
#
# PCOD8219362 Si02
#       8
#     8   8   8   8   8   8   8   8
#     4  10  19  34  58  84 114 150 186 231 281 335
#     4  11  23  39  61  86 112 147 190 237 288 344
#     4  11  25  42  59  81 111 149 189 238 290 343
#     4  11  23  37  56  84 115 149 190 237 288 340
#     4  11  21  35  57  84 114 148 188 234 283 339
#     4  10  20  35  57  85 117 154 194 239 291 341
#     4   8  16  33  58  86 115 152 195 234 280 339
#     4  11  23  39  60  85 114 148 191 237 288 346
#
# _framework density 19.300384999999999
#
# number of rings (size 3 to 8) (size 9 to 14) (size 15 to 20)
#    0.000    1.625    1.250    4.875    0.000    6.500 
#    0.000    1.875    0.000   15.000    0.000    0.000 
#    0.000    0.000    0.000    0.000    0.000    0.000 
#
# Total GULP energy -793842.086509 kJ/mol
# GULP energy per Si atom -12403.782602 kJ/mol
# Density = 1.925646 g / cm^3
# Si number density = 19.300385 Si / 1000 Ang^3
#
#
#
# Elastic Constant Matrix: (Units=GPa)
#
#
# Indices 1 2 3 4 5 6 
#
# 1 65.6503 21.2502 17.3257 0.0000 0.0000 0.0000
# 2 21.2502 96.4512 16.3820 0.0000 0.0000 0.0000
# 3 17.3257 16.3820 66.4650 0.0000 0.0000 0.0000
# 4 0.0000 0.0000 0.0000 724.8994 0.0000 0.0000
# 5 0.0000 0.0000 0.0000 0.0000 35.1336 0.0000
# 6 0.0000 0.0000 0.0000 0.0000 0.0000 16.5480
#
#
#
# Elastic Compliance Matrix: (Units=1/GPa)
#
#
# Indices 1 2 3 4 5 6 
#
# 1 0.017237 -0.003167 -0.003713 0.000000 0.000000 0.000000
# 2 -0.003167 0.011403 -0.001985 0.000000 0.000000 0.000000
# 3 -0.003713 -0.001985 0.016503 0.000000 0.000000 0.000000
# 4 0.000000 0.000000 0.000000 0.001380 0.000000 0.000000
# 5 0.000000 0.000000 0.000000 0.000000 0.028463 0.000000
# 6 0.000000 0.000000 0.000000 0.000000 0.000000 0.060430
#
#
# Mechanical properties :
#
#
# Convention : Reuss Voigt Hill
#
# Bulk Modulus (GPa) = 36.47885 37.60913 37.04399
# Shear Modulus (GPa) = 30.81052 166.89012 98.85032
#
# Velocity S-wave (km/s) = 3.99979 9.30900 7.16435
# Velocity P-wave (km/s) = 6.34608 11.62204 9.36335
#
# Compressibility (1/GPa) = 0.02741315
#
# Stress axis : x y z
#
# Youngs Moduli (GPa) = 58.01407 87.69736 60.59668
#
# Poissons Ratio (x) = 0.27775 0.22498
# Poissons Ratio (y) = 0.18374 0.12028
# Poissons Ratio (z) = 0.21539 0.17407
#
# Static dielectric constant tensor:
#      x y z
#    x 3.516270 0.000000 0.000000 
#    y 0.000000 3.732280 0.000000 
#    z 0.000000 0.000000 3.604810 
# 
# 
# High freq. dielectric constant tensor:
#      x y z
#    x 1.753670 0.000000 0.000000 
#    y 0.000000 1.749670 0.000000 
#    z 0.000000 0.000000 1.749400 
# 
# From -- ./inp_files/26864.got.cif
#   From: 2010.03.12/outbox.cif.g09.slc.cpg/sg53_14_cif.got.tgz:26864.got - 2010.04.16 14:36:59.
