data_PCOD8219148
_publ_section_title
;
Structure prediction by ZEFSAII (Michael W. Deem and Ramdas Pophale) SiO2 
 PCOD8219148
Probable space group: P M N A
;
_chemical_formula_sum "Si O2"
_cell_formula_units_Z 48
_cell_length_a 9.059132
_cell_length_b 31.235055
_cell_length_c 9.081943
_cell_angle_alpha 90.000000
_cell_angle_beta 90.000000
_cell_angle_gamma 90.000000
_cell_volume 2569.849171
_symmetry_space_group_name_H-M "P M N A"
_symmetry_group_IT_number 53
_symmetry_cell_setting 'orthorhombic'
loop_
_space_group_symop_operation_xyz
x,y,z
1/2-x,-y,1/2+z
x,-y,-z
1/2-x,y,1/2-z
-x,-y,-z
1/2+x,y,1/2-z
-x,y,z
1/2+x,-y,1/2+z
loop_
_atom_site_type_symbol
_atom_site_label
_atom_site_fract_x
_atom_site_fract_y
_atom_site_fract_z
Si Si1 0.673881 0.122236 0.905104
Si Si2 0.826599 0.798412 0.592716
Si Si3 0.326451 0.959484 0.906182
Si Si4 0.168668 0.705926 0.599183
Si Si5 0.329797 0.541736 0.401630
Si Si6 0.674029 0.387115 0.090889
O O1 0.750000 0.115884 0.750000
O O2 0.500000 0.123180 0.879093
O O3 0.732239 0.166099 0.979396
O O4 0.721523 0.083361 0.009573
O O5 0.750000 0.804138 0.750000
O O6 0.789773 0.751181 0.520312
O O7 0.000000 0.804877 0.618648
O O8 0.250000 0.960375 0.750000
O O9 0.500000 0.961340 0.879996
O O10 0.271442 0.000000 0.000000
O O11 0.250000 0.703837 0.750000
O O12 0.200848 0.660563 0.518362
O O13 0.000000 0.707953 0.643399
O O14 0.315502 0.500000 0.500000
O O15 0.250000 0.530966 0.250000
O O16 0.500000 0.554079 0.374178
O O17 0.247488 0.580922 0.477455
O O18 0.750000 0.391808 0.250000
O O19 0.500000 0.397071 0.108291
#
# Coordination Sequence:
#
# PCOD8219148 Si02
#       6
#     8   8   8   8   8   8
#     4  10  21  35  51  73 102 136 173 213 256 305
#     4   9  17  31  51  75 102 132 171 214 255 302
#     4  10  21  36  54  78 105 133 169 211 255 305
#     4   8  15  28  48  74 103 134 168 209 253 299
#     4  11  24  40  58  80 106 137 173 213 258 308
#     4  10  19  33  55  81 109 140 174 213 258 307
#
# _framework density 18.678137
#
# number of rings (size 3 to 8) (size 9 to 14) (size 15 to 20)
#    0.000    2.333    0.000    2.500    0.000    5.000 
#    0.000    0.833    0.000    2.000    0.000    0.000 
#    0.000    0.000    0.000    0.000    0.000    0.000 
#
# Total GULP energy -594831.382123 kJ/mol
# GULP energy per Si atom -12392.320461 kJ/mol
# Density = 1.863563 g / cm^3
# Si number density = 18.678137 Si / 1000 Ang^3
#
#
#
# Elastic Constant Matrix: (Units=GPa)
#
#
# Indices 1 2 3 4 5 6 
#
# 1 71.7937 56.9896 51.2563 0.0000 0.0000 0.0000
# 2 56.9896 158.9447 64.8233 0.0000 0.0000 0.0000
# 3 51.2563 64.8233 118.1810 0.0000 0.0000 0.0000
# 4 0.0000 0.0000 0.0000 26.5274 0.0000 0.0000
# 5 0.0000 0.0000 0.0000 0.0000 32.6146 0.0000
# 6 0.0000 0.0000 0.0000 0.0000 0.0000 -14.5629
#
#
#
# Elastic Compliance Matrix: (Units=1/GPa)
#
#
# Indices 1 2 3 4 5 6 
#
# 1 0.023361 -0.005467 -0.007133 0.000000 0.000000 0.000000
# 2 -0.005467 0.009384 -0.002776 0.000000 0.000000 0.000000
# 3 -0.007133 -0.002776 0.013078 0.000000 0.000000 0.000000
# 4 0.000000 0.000000 0.000000 0.037697 0.000000 0.000000
# 5 0.000000 0.000000 0.000000 0.000000 0.030661 0.000000
# 6 0.000000 0.000000 0.000000 0.000000 0.000000 -0.068668
#
#
# Mechanical properties :
#
#
# Convention : Reuss Voigt Hill
#
# Bulk Modulus (GPa) = 66.35486 77.22866 71.79176
# Shear Modulus (GPa) = 61.50855 20.63916 41.07385
#
# Velocity S-wave (km/s) = 5.74476 3.32775 4.69447
# Velocity P-wave (km/s) = 8.92219 7.49680 8.24038
#
# Compressibility (1/GPa) = 0.01507049
#
# Stress axis : x y z
#
# Youngs Moduli (GPa) = 42.80608 106.56623 76.46375
#
# Poissons Ratio (x) = 0.58259 0.54544
# Poissons Ratio (y) = 0.23402 0.21227
# Poissons Ratio (z) = 0.30535 0.29583
#
# Static dielectric constant tensor:
#      x y z
#    x 3.463100 0.000000 0.000000 
#    y 0.000000 4.270130 0.000000 
#    z 0.000000 0.000000 3.199880 
# 
# 
# High freq. dielectric constant tensor:
#      x y z
#    x 1.727240 0.000000 0.000000 
#    y 0.000000 1.755840 0.000000 
#    z 0.000000 0.000000 1.697830 
# 
# From -- ./inp_files/6618.got.cif
#   From: 2010.03.12/outbox.cif.g09.slc.cpg/sg53_4_cif.got.tgz:6618.got - 2010.04.16 14:36:59.
