data_PCOD8219798
_publ_section_title
;
Structure prediction by ZEFSAII (Michael W. Deem and Ramdas Pophale) SiO2 
 PCOD8219798
Probable space group: P M N A
;
_chemical_formula_sum "Si O2"
_cell_formula_units_Z 64
_cell_length_a 9.013253
_cell_length_b 27.221103
_cell_length_c 14.667750
_cell_angle_alpha 90.000000
_cell_angle_beta 90.000000
_cell_angle_gamma 90.000000
_cell_volume 3598.742558
_symmetry_space_group_name_H-M "P M N A"
_symmetry_group_IT_number 53
_symmetry_cell_setting 'orthorhombic'
loop_
_space_group_symop_operation_xyz
x,y,z
1/2-x,-y,1/2+z
x,-y,-z
1/2-x,y,1/2-z
-x,-y,-z
1/2+x,y,1/2-z
-x,y,z
1/2+x,-y,1/2+z
loop_
_atom_site_type_symbol
_atom_site_label
_atom_site_fract_x
_atom_site_fract_y
_atom_site_fract_z
Si Si1 0.671901 0.417937 0.657259
Si Si2 0.826472 0.082744 0.838052
Si Si3 0.827991 0.309923 0.340925
Si Si4 0.175281 0.605409 0.522920
Si Si5 0.174961 0.198104 0.343760
Si Si6 0.175164 0.017522 0.094027
Si Si7 0.824969 0.119890 0.038232
Si Si8 0.671880 0.533421 0.657156
O O1 0.750000 0.400925 0.750000
O O2 0.500000 0.402897 0.660215
O O3 0.754214 0.389225 0.576636
O O4 0.691677 0.475775 0.642026
O O5 0.750000 0.108125 0.750000
O O6 0.000000 0.089069 0.825835
O O7 0.778833 0.024426 0.833635
O O8 0.778388 0.107811 0.933622
O O9 0.750000 0.329723 0.250000
O O10 0.783959 0.344407 0.425036
O O11 0.779606 0.254369 0.364016
O O12 0.000000 0.312765 0.319694
O O13 0.248791 0.559187 0.572796
O O14 0.000000 0.596608 0.515863
O O15 0.250000 0.180029 0.250000
O O16 0.235641 0.167267 0.429014
O O17 0.000000 0.190948 0.334902
O O18 0.222455 0.074622 0.106932
O O19 0.000000 0.017086 0.082876
O O20 0.248313 0.000000 0.000000
O O21 0.000000 0.130232 0.044272
O O22 0.750000 0.550870 0.750000
O O23 0.500000 0.548700 0.661296
#
# Coordination Sequence:
#
# PCOD8219798 Si02
#       8
#     8   8   8   8   8   8   8   8
#     4  10  21  36  52  72 101 136 171 206 243 286
#     4   9  17  29  46  68  97 132 165 198 237 281
#     4   9  20  36  53  75 101 127 156 195 243 294
#     4  11  21  33  52  76 101 131 167 205 247 293
#     4  10  20  35  53  73  98 126 157 196 244 293
#     4   7  12  25  43  62  88 123 158 193 233 275
#     4   9  17  31  50  71  96 127 164 201 239 286
#     4  10  20  33  49  73 105 137 169 204 243 289
#
# _framework density 17.783989999999999
#
# number of rings (size 3 to 8) (size 9 to 14) (size 15 to 20)
#    0.000    2.625    0.000    3.750    0.000    6.500 
#    0.000    1.875    0.000    3.000    0.000    1.750 
#    0.000    0.000    0.000    0.000    0.000    0.000 
#
# Total GULP energy -793159.072403 kJ/mol
# GULP energy per Si atom -12393.110506 kJ/mol
# Density = 1.774351 g / cm^3
# Si number density = 17.783990 Si / 1000 Ang^3
#
#
#
# Elastic Constant Matrix: (Units=GPa)
#
#
# Indices 1 2 3 4 5 6 
#
# 1 84.2479 42.0307 63.0767 0.0000 0.0000 0.0000
# 2 42.0307 68.3683 55.4803 0.0000 0.0000 0.0000
# 3 63.0767 55.4803 138.9348 0.0000 0.0000 0.0000
# 4 0.0000 0.0000 0.0000 19.5027 0.0000 0.0000
# 5 0.0000 0.0000 0.0000 0.0000 35.2731 0.0000
# 6 0.0000 0.0000 0.0000 0.0000 0.0000 9.3762
#
#
#
# Elastic Compliance Matrix: (Units=1/GPa)
#
#
# Indices 1 2 3 4 5 6 
#
# 1 0.020213 -0.007367 -0.006235 0.000000 0.000000 0.000000
# 2 -0.007367 0.024323 -0.006369 0.000000 0.000000 0.000000
# 3 -0.006235 -0.006369 0.012571 0.000000 0.000000 0.000000
# 4 0.000000 0.000000 0.000000 0.051275 0.000000 0.000000
# 5 0.000000 0.000000 0.000000 0.000000 0.028350 0.000000
# 6 0.000000 0.000000 0.000000 0.000000 0.000000 0.106653
#
#
# Mechanical properties :
#
#
# Convention : Reuss Voigt Hill
#
# Bulk Modulus (GPa) = 58.24955 68.08072 63.16513
# Shear Modulus (GPa) = 17.29806 21.56128 19.42967
#
# Velocity S-wave (km/s) = 3.12216 3.48573 3.30894
# Velocity P-wave (km/s) = 6.76921 7.38685 7.08476
#
# Compressibility (1/GPa) = 0.01716751
#
# Stress axis : x y z
#
# Youngs Moduli (GPa) = 49.47273 41.11257 79.54501
#
# Poissons Ratio (x) = 0.30286 0.49597
# Poissons Ratio (y) = 0.36445 0.50658
# Poissons Ratio (z) = 0.30847 0.26183
#
# Static dielectric constant tensor:
#      x y z
#    x 3.194240 0.000000 0.000000 
#    y 0.000000 3.281120 0.000000 
#    z 0.000000 0.000000 3.332430 
# 
# 
# High freq. dielectric constant tensor:
#      x y z
#    x 1.683360 0.000000 0.000000 
#    y 0.000000 1.668440 0.000000 
#    z 0.000000 0.000000 1.685230 
# 
# From -- ./inp_files/21072.got.cif
#   From: 2010.03.12/outbox.cif.g09.slc.cpg/sg53_11_cif.got.tgz:21072.got - 2010.04.16 14:36:59.
