data_PCOD8219524
_publ_section_title
;
Structure prediction by ZEFSAII (Michael W. Deem and Ramdas Pophale) SiO2 
 PCOD8219524
Probable space group: P M N A
;
_chemical_formula_sum "Si O2"
_cell_formula_units_Z 64
_cell_length_a 18.356544
_cell_length_b 16.889465
_cell_length_c 12.400977
_cell_angle_alpha 90.000000
_cell_angle_beta 90.000000
_cell_angle_gamma 90.000000
_cell_volume 3844.702273
_symmetry_space_group_name_H-M "P M N A"
_symmetry_group_IT_number 53
_symmetry_cell_setting 'orthorhombic'
loop_
_space_group_symop_operation_xyz
x,y,z
1/2-x,-y,1/2+z
x,-y,-z
1/2-x,y,1/2-z
-x,-y,-z
1/2+x,y,1/2-z
-x,y,z
1/2+x,-y,1/2+z
loop_
_atom_site_type_symbol
_atom_site_label
_atom_site_fract_x
_atom_site_fract_y
_atom_site_fract_z
Si Si1 0.324857 0.822203 0.306271
Si Si2 0.833794 0.809968 0.776810
Si Si3 0.635958 0.090919 0.082231
Si Si4 0.302646 0.086364 0.474054
Si Si5 0.582895 0.920305 0.142505
Si Si6 0.413647 0.323842 0.620346
Si Si7 0.079786 0.495250 0.872485
Si Si8 0.086371 0.665935 0.871549
O O1 0.250000 0.797852 0.250000
O O2 0.308156 0.857128 0.423276
O O3 0.365788 0.888278 0.236643
O O4 0.373459 0.743424 0.311781
O O5 0.750000 0.794547 0.750000
O O6 0.874816 0.842785 0.672111
O O7 0.844869 0.871527 0.875518
O O8 0.871461 0.726823 0.797498
O O9 0.720179 0.071344 0.061994
O O10 0.597052 0.012801 0.126196
O O11 0.599498 0.122503 0.971826
O O12 0.337656 0.000000 0.500000
O O13 0.500000 0.905036 0.176948
O O14 0.500000 0.317671 0.640703
O O15 0.382827 0.410965 0.658412
O O16 0.395617 0.312758 0.494803
O O17 0.117682 0.578182 0.837831
O O18 0.000000 0.493607 0.819151
O O19 0.070350 0.500000 0.000000
O O20 0.000000 0.670265 0.851735
#
# Coordination Sequence:
#
# PCOD8219524 Si02
#       8
#     8   8   8   8   8   8   8   8
#     4  12  21  33  52  75 103 132 166 209 254 306
#     4  10  21  32  51  76 100 132 165 208 256 299
#     4  10  19  36  52  69  95 134 177 213 237 293
#     4  11  19  34  52  71  97 132 173 207 255 301
#     4  11  22  36  53  73  98 134 176 216 249 286
#     4   9  17  31  51  75 102 127 158 204 250 296
#     4   7  12  25  48  73  96 127 160 191 239 301
#     4   9  16  30  51  75 101 127 159 201 250 301
#
# _framework density 16.646281999999999
#
# number of rings (size 3 to 8) (size 9 to 14) (size 15 to 20)
#    0.000    2.125    3.750    3.375    0.000    2.000 
#    0.000    0.625    0.000    1.875    0.000    0.875 
#    0.000    4.000    0.000    0.000    0.000    0.000 
#
# Total GULP energy -793129.791753 kJ/mol
# GULP energy per Si atom -12392.652996 kJ/mol
# Density = 1.660839 g / cm^3
# Si number density = 16.646282 Si / 1000 Ang^3
#
#
#
# Elastic Constant Matrix: (Units=GPa)
#
#
# Indices 1 2 3 4 5 6 
#
# 1 48.6926 23.4777 21.7422 0.0000 0.0000 0.0000
# 2 23.4777 109.7981 36.0112 0.0000 0.0000 0.0000
# 3 21.7422 36.0112 69.7591 0.0000 0.0000 0.0000
# 4 0.0000 0.0000 0.0000 21.7870 0.0000 0.0000
# 5 0.0000 0.0000 0.0000 0.0000 14.0273 0.0000
# 6 0.0000 0.0000 0.0000 0.0000 0.0000 17.5640
#
#
#
# Elastic Compliance Matrix: (Units=1/GPa)
#
#
# Indices 1 2 3 4 5 6 
#
# 1 0.024833 -0.003336 -0.006017 0.000000 0.000000 0.000000
# 2 -0.003336 0.011412 -0.004851 0.000000 0.000000 0.000000
# 3 -0.006017 -0.004851 0.018715 0.000000 0.000000 0.000000
# 4 0.000000 0.000000 0.000000 0.045899 0.000000 0.000000
# 5 0.000000 0.000000 0.000000 0.000000 0.071289 0.000000
# 6 0.000000 0.000000 0.000000 0.000000 0.000000 0.056935
#
#
# Mechanical properties :
#
#
# Convention : Reuss Voigt Hill
#
# Bulk Modulus (GPa) = 37.66560 43.41246 40.53903
# Shear Modulus (GPa) = 18.77282 20.47692 19.62487
#
# Velocity S-wave (km/s) = 3.36184 3.51111 3.43729
# Velocity P-wave (km/s) = 6.14373 6.52481 6.33714
#
# Compressibility (1/GPa) = 0.02654943
#
# Stress axis : x y z
#
# Youngs Moduli (GPa) = 40.26978 87.62600 53.43330
#
# Poissons Ratio (x) = 0.29234 0.32153
# Poissons Ratio (y) = 0.13435 0.25922
# Poissons Ratio (z) = 0.24232 0.42511
#
# Static dielectric constant tensor:
#      x y z
#    x 2.908200 0.000000 0.000000 
#    y 0.000000 3.336260 0.000000 
#    z 0.000000 0.000000 3.115150 
# 
# 
# High freq. dielectric constant tensor:
#      x y z
#    x 1.618730 0.000000 0.000000 
#    y 0.000000 1.646410 0.000000 
#    z 0.000000 0.000000 1.626840 
# 
# From -- ./inp_files/17166.got.cif
#   From: 2010.03.12/outbox.cif.g09.slc.cpg/sg53_9_cif.got.tgz:17166.got - 2010.04.16 14:36:59.
