data_PCOD8219565
_publ_section_title
;
Structure prediction by ZEFSAII (Michael W. Deem and Ramdas Pophale) SiO2 
 PCOD8219565
Probable space group: P M N A
;
_chemical_formula_sum "Si O2"
_cell_formula_units_Z 48
_cell_length_a 20.337654
_cell_length_b 9.155606
_cell_length_c 13.191542
_cell_angle_alpha 90.000000
_cell_angle_beta 90.000000
_cell_angle_gamma 90.000000
_cell_volume 2456.311911
_symmetry_space_group_name_H-M "P M N A"
_symmetry_group_IT_number 53
_symmetry_cell_setting 'orthorhombic'
loop_
_space_group_symop_operation_xyz
x,y,z
1/2-x,-y,1/2+z
x,-y,-z
1/2-x,y,1/2-z
-x,-y,-z
1/2+x,y,1/2-z
-x,y,z
1/2+x,-y,1/2+z
loop_
_atom_site_type_symbol
_atom_site_label
_atom_site_fract_x
_atom_site_fract_y
_atom_site_fract_z
Si Si1 0.572554 0.172247 0.807449
Si Si2 0.076459 0.847285 0.641409
Si Si3 0.143877 0.666117 0.468456
Si Si4 0.381227 0.092200 0.590411
Si Si5 0.816065 0.836574 0.804053
Si Si6 0.794906 0.334081 0.009674
O O1 0.500000 0.231160 0.830222
O O2 0.621871 0.295453 0.852557
O O3 0.575614 0.142202 0.686371
O O4 0.585304 0.021446 0.867734
O O5 0.101540 0.772325 0.539454
O O6 0.122174 0.793132 0.733902
O O7 0.000000 0.806624 0.662419
O O8 0.128151 0.500000 0.500000
O O9 0.221070 0.697795 0.472961
O O10 0.346567 0.237940 0.551778
O O11 0.419701 0.000000 0.500000
O O12 0.326984 0.977437 0.626472
O O13 0.750000 0.882297 0.750000
O O14 0.800707 0.695508 0.871117
O O15 0.816073 0.500000 0.000000
#
# Coordination Sequence:
#
# PCOD8219565 Si02
#       6
#     8   8   8   8   8   8
#     4  10  22  38  58  84 113 151 194 236 292 354
#     4  10  21  37  58  84 115 151 189 239 291 343
#     4  11  23  36  54  83 121 157 190 236 290 354
#     4   9  21  37  60  86 109 145 192 248 293 336
#     4  10  19  36  60  85 110 147 195 239 281 342
#     4  10  22  38  55  84 117 149 190 240 295 338
#
# _framework density 19.541492000000002
#
# number of rings (size 3 to 8) (size 9 to 14) (size 15 to 20)
#    0.000    2.000    1.667    1.000    4.667    5.667 
#    0.000    2.500    0.000    1.000    0.000    0.000 
#    0.000    0.000    0.000    0.000    0.000    0.000 
#
# Total GULP energy -594866.409180 kJ/mol
# GULP energy per Si atom -12393.050191 kJ/mol
# Density = 1.949701 g / cm^3
# Si number density = 19.541492 Si / 1000 Ang^3
#
#
#
# Elastic Constant Matrix: (Units=GPa)
#
#
# Indices 1 2 3 4 5 6 
#
# 1 71.4902 32.0984 14.9150 0.0000 0.0000 0.0000
# 2 32.0984 86.5840 37.5219 0.0000 0.0000 0.0000
# 3 14.9150 37.5219 89.7999 0.0000 0.0000 0.0000
# 4 0.0000 0.0000 0.0000 24.6132 0.0000 0.0000
# 5 0.0000 0.0000 0.0000 0.0000 24.2209 0.0000
# 6 0.0000 0.0000 0.0000 0.0000 0.0000 19.6091
#
#
#
# Elastic Compliance Matrix: (Units=1/GPa)
#
#
# Indices 1 2 3 4 5 6 
#
# 1 0.016785 -0.006123 -0.000229 0.000000 0.000000 0.000000
# 2 -0.006123 0.016337 -0.005809 0.000000 0.000000 0.000000
# 3 -0.000229 -0.005809 0.013601 0.000000 0.000000 0.000000
# 4 0.000000 0.000000 0.000000 0.040629 0.000000 0.000000
# 5 0.000000 0.000000 0.000000 0.000000 0.041287 0.000000
# 6 0.000000 0.000000 0.000000 0.000000 0.000000 0.050997
#
#
# Mechanical properties :
#
#
# Convention : Reuss Voigt Hill
#
# Bulk Modulus (GPa) = 44.64323 46.32716 45.48519
# Shear Modulus (GPa) = 23.64903 24.57790 24.11347
#
# Velocity S-wave (km/s) = 3.48256 3.55030 3.51659
# Velocity P-wave (km/s) = 6.25027 6.36904 6.30994
#
# Compressibility (1/GPa) = 0.02239982
#
# Stress axis : x y z
#
# Youngs Moduli (GPa) = 59.57694 61.21107 73.52251
#
# Poissons Ratio (x) = 0.37480 0.01686
# Poissons Ratio (y) = 0.36480 0.42711
# Poissons Ratio (z) = 0.01366 0.35559
#
# Static dielectric constant tensor:
#      x y z
#    x 3.450130 0.000000 0.000000 
#    y 0.000000 3.488600 0.000000 
#    z 0.000000 0.000000 3.856960 
# 
# 
# High freq. dielectric constant tensor:
#      x y z
#    x 1.754760 0.000000 0.000000 
#    y 0.000000 1.752210 0.000000 
#    z 0.000000 0.000000 1.772730 
# 
# From -- ./inp_files/18253.got.cif
#   From: 2010.03.12/outbox.cif.g09.slc.cpg/sg53_10_cif.got.tgz:18253.got - 2010.04.16 14:36:59.
