data_PCOD8219830
_publ_section_title
;
Structure prediction by ZEFSAII (Michael W. Deem and Ramdas Pophale) SiO2 
 PCOD8219830
Probable space group: P M N A
;
_chemical_formula_sum "Si O2"
_cell_formula_units_Z 64
_cell_length_a 9.020008
_cell_length_b 11.094605
_cell_length_c 34.005873
_cell_angle_alpha 90.000000
_cell_angle_beta 90.000000
_cell_angle_gamma 90.000000
_cell_volume 3403.084210
_symmetry_space_group_name_H-M "P M N A"
_symmetry_group_IT_number 53
_symmetry_cell_setting 'orthorhombic'
loop_
_space_group_symop_operation_xyz
x,y,z
1/2-x,-y,1/2+z
x,-y,-z
1/2-x,y,1/2-z
-x,-y,-z
1/2+x,y,1/2-z
-x,y,z
1/2+x,-y,1/2+z
loop_
_atom_site_type_symbol
_atom_site_label
_atom_site_fract_x
_atom_site_fract_y
_atom_site_fract_z
Si Si1 0.669821 0.270913 0.442203
Si Si2 0.325910 0.356924 0.867269
Si Si3 0.176005 0.762769 0.480974
Si Si4 0.323442 0.144744 0.126807
Si Si5 0.826106 0.109310 0.596938
Si Si6 0.327291 0.483001 0.788519
Si Si7 0.169951 0.549405 0.060144
Si Si8 0.325720 0.757401 0.789739
O O1 0.500000 0.229056 0.439233
O O2 0.750048 0.198772 0.477746
O O3 0.751208 0.245168 0.401124
O O4 0.682147 0.411400 0.452797
O O5 0.500000 0.377969 0.875982
O O6 0.281302 0.217487 0.873692
O O7 0.281311 0.394717 0.823596
O O8 0.230953 0.441253 0.895724
O O9 0.226263 0.858631 0.447431
O O10 0.230416 0.630182 0.468530
O O11 0.000000 0.760436 0.485925
O O12 0.500000 0.155298 0.122918
O O13 0.274857 0.166695 0.172019
O O14 0.257749 0.015342 0.112901
O O15 0.000000 0.092597 0.596831
O O16 0.250000 0.430189 0.750000
O O17 0.500000 0.480489 0.780889
O O18 0.274989 0.619553 0.797213
O O19 0.000000 0.593971 0.057948
O O20 0.250000 0.808706 0.750000
O O21 0.500000 0.767724 0.783504
#
# Coordination Sequence:
#
# PCOD8219830 Si02
#       8
#     8   8   8   8   8   8   8   8
#     4  11  23  35  49  75 108 136 165 209 260 301
#     4   9  17  32  53  74  98 130 169 208 249 302
#     4  10  20  35  55  76 100 134 173 210 252 303
#     4  10  20  36  56  75  98 133 177 213 246 296
#     4   8  17  34  54  74  96 128 171 217 254 286
#     4   9  17  29  47  73 102 129 160 200 248 303
#     4  10  20  33  50  74 104 133 163 206 259 308
#     4   9  18  32  52  76 101 131 164 202 249 299
#
# _framework density 18.806470000000001
#
# number of rings (size 3 to 8) (size 9 to 14) (size 15 to 20)
#    0.000    2.500    0.000    3.000    0.000    6.000 
#    0.000    8.750    0.000    0.000    0.000    0.000 
#    0.000    0.000    0.000    0.000    0.000    0.000 
#
# Total GULP energy -793517.814372 kJ/mol
# GULP energy per Si atom -12398.715850 kJ/mol
# Density = 1.876367 g / cm^3
# Si number density = 18.806470 Si / 1000 Ang^3
#
#
#
# Elastic Constant Matrix: (Units=GPa)
#
#
# Indices 1 2 3 4 5 6 
#
# 1 54.1354 21.0059 47.4169 0.0000 0.0000 0.0000
# 2 21.0059 52.3842 35.7892 0.0000 0.0000 0.0000
# 3 47.4169 35.7892 151.8893 0.0000 0.0000 0.0000
# 4 0.0000 0.0000 0.0000 21.9151 0.0000 0.0000
# 5 0.0000 0.0000 0.0000 0.0000 32.7820 0.0000
# 6 0.0000 0.0000 0.0000 0.0000 0.0000 14.2920
#
#
#
# Elastic Compliance Matrix: (Units=1/GPa)
#
#
# Indices 1 2 3 4 5 6 
#
# 1 0.026930 -0.006025 -0.006987 0.000000 0.000000 0.000000
# 2 -0.006025 0.024100 -0.003798 0.000000 0.000000 0.000000
# 3 -0.006987 -0.003798 0.009660 0.000000 0.000000 0.000000
# 4 0.000000 0.000000 0.000000 0.045631 0.000000 0.000000
# 5 0.000000 0.000000 0.000000 0.000000 0.030505 0.000000
# 6 0.000000 0.000000 0.000000 0.000000 0.000000 0.069969
#
#
# Mechanical properties :
#
#
# Convention : Reuss Voigt Hill
#
# Bulk Modulus (GPa) = 36.94119 51.87030 44.40575
# Shear Modulus (GPa) = 20.04498 24.07763 22.06130
#
# Velocity S-wave (km/s) = 3.26829 3.58199 3.42873
# Velocity P-wave (km/s) = 5.82475 6.68943 6.27201
#
# Compressibility (1/GPa) = 0.02707005
#
# Stress axis : x y z
#
# Youngs Moduli (GPa) = 37.13280 41.49306 103.52013
#
# Poissons Ratio (x) = 0.25000 0.72334
# Poissons Ratio (y) = 0.22373 0.39315
# Poissons Ratio (z) = 0.25946 0.15758
#
# Static dielectric constant tensor:
#      x y z
#    x 3.323190 0.000000 0.000000 
#    y 0.000000 3.461810 0.000000 
#    z 0.000000 0.000000 3.590370 
# 
# 
# High freq. dielectric constant tensor:
#      x y z
#    x 1.716300 0.000000 0.000000 
#    y 0.000000 1.713230 0.000000 
#    z 0.000000 0.000000 1.738730 
# 
# From -- ./inp_files/38160.got.cif
#   From: 2010.03.12/outbox.cif.g09.slc.cpg/sg53_20_cif.got.tgz:38160.got - 2010.04.16 14:36:59.
