data_PCOD8219233
_publ_section_title
;
Structure prediction by ZEFSAII (Michael W. Deem and Ramdas Pophale) SiO2 
 PCOD8219233
Probable space group: P M N A
;
_chemical_formula_sum "Si O2"
_cell_formula_units_Z 64
_cell_length_a 8.783972
_cell_length_b 15.366654
_cell_length_c 28.495846
_cell_angle_alpha 90.000000
_cell_angle_beta 90.000000
_cell_angle_gamma 90.000000
_cell_volume 3846.376658
_symmetry_space_group_name_H-M "P M N A"
_symmetry_group_IT_number 53
_symmetry_cell_setting 'orthorhombic'
loop_
_space_group_symop_operation_xyz
x,y,z
1/2-x,-y,1/2+z
x,-y,-z
1/2-x,y,1/2-z
-x,-y,-z
1/2+x,y,1/2-z
-x,y,z
1/2+x,-y,1/2+z
loop_
_atom_site_type_symbol
_atom_site_label
_atom_site_fract_x
_atom_site_fract_y
_atom_site_fract_z
Si Si1 0.320555 0.822678 0.945712
Si Si2 0.821853 0.186028 0.953023
Si Si3 0.820547 0.336427 0.607770
Si Si4 0.821212 0.414283 0.202667
Si Si5 0.332529 0.012727 0.944772
Si Si6 0.819894 0.387465 0.798226
Si Si7 0.675926 0.511046 0.945245
Si Si8 0.321082 0.332142 0.393764
O O1 0.500000 0.815510 0.956300
O O2 0.279367 0.918595 0.924928
O O3 0.270274 0.754417 0.906591
O O4 0.231352 0.803059 0.993568
O O5 0.733606 0.254713 0.921791
O O6 0.000000 0.203314 0.949705
O O7 0.785153 0.089540 0.932738
O O8 0.743093 0.331427 0.658646
O O9 0.770185 0.424070 0.581088
O O10 0.000000 0.332201 0.613876
O O11 0.750000 0.374421 0.250000
O O12 0.764138 0.513021 0.194821
O O13 0.768278 0.356867 0.158687
O O14 0.000000 0.413149 0.208368
O O15 0.500000 0.037954 0.925091
O O16 0.343864 0.000000 0.000000
O O17 0.750000 0.349981 0.750000
O O18 0.000000 0.379149 0.796320
O O19 0.500000 0.532565 0.934465
O O20 0.780200 0.590233 0.928876
O O21 0.704308 0.500000 0.000000
O O22 0.500000 0.314390 0.396816
#
# Coordination Sequence:
#
# PCOD8219233 Si02
#       8
#     8   8   8   8   8   8   8   8
#     4  10  20  34  51  72 100 135 170 204 244 296
#     4  11  21  32  50  75 102 132 166 208 251 293
#     4  11  21  33  50  72 100 135 171 205 247 298
#     4   9  19  33  50  71  96 126 162 206 251 293
#     4   8  16  32  51  70  96 129 165 205 247 292
#     4  10  19  34  52  72  98 127 166 211 256 298
#     4  10  21  34  47  65  94 134 173 203 235 286
#     4  11  21  33  49  73 100 129 164 206 250 292
#
# _framework density 16.639036000000001
#
# number of rings (size 3 to 8) (size 9 to 14) (size 15 to 20)
#    0.000    2.000    1.250    4.125    0.000    6.000 
#    0.000    0.000    0.000    0.000    0.000    0.875 
#    0.000    4.000    0.000    0.000    0.000    0.000 
#
# Total GULP energy -793662.047408 kJ/mol
# GULP energy per Si atom -12400.969491 kJ/mol
# Density = 1.660116 g / cm^3
# Si number density = 16.639036 Si / 1000 Ang^3
#
#
#
# Elastic Constant Matrix: (Units=GPa)
#
#
# Indices 1 2 3 4 5 6 
#
# 1 48.5681 14.3148 15.3851 0.0000 0.0000 0.0000
# 2 14.3148 72.4031 17.8423 0.0000 0.0000 0.0000
# 3 15.3851 17.8423 70.9381 0.0000 0.0000 0.0000
# 4 0.0000 0.0000 0.0000 7.7980 0.0000 0.0000
# 5 0.0000 0.0000 0.0000 0.0000 28.0004 0.0000
# 6 0.0000 0.0000 0.0000 0.0000 0.0000 21.1462
#
#
#
# Elastic Compliance Matrix: (Units=1/GPa)
#
#
# Indices 1 2 3 4 5 6 
#
# 1 0.022923 -0.003525 -0.004085 0.000000 0.000000 0.000000
# 2 -0.003525 0.015266 -0.003075 0.000000 0.000000 0.000000
# 3 -0.004085 -0.003075 0.015756 0.000000 0.000000 0.000000
# 4 0.000000 0.000000 0.000000 0.128237 0.000000 0.000000
# 5 0.000000 0.000000 0.000000 0.000000 0.035714 0.000000
# 6 0.000000 0.000000 0.000000 0.000000 0.000000 0.047290
#
#
# Mechanical properties :
#
#
# Convention : Reuss Voigt Hill
#
# Bulk Modulus (GPa) = 30.69890 31.88818 31.29354
# Shear Modulus (GPa) = 16.81153 21.01340 18.91246
#
# Velocity S-wave (km/s) = 3.18207 3.55758 3.37505
# Velocity P-wave (km/s) = 5.65604 6.00679 5.83405
#
# Compressibility (1/GPa) = 0.03257446
#
# Stress axis : x y z
#
# Youngs Moduli (GPa) = 43.62491 65.50330 63.46715
#
# Poissons Ratio (x) = 0.23093 0.25925
# Poissons Ratio (y) = 0.15380 0.19517
# Poissons Ratio (z) = 0.17820 0.20144
#
# Static dielectric constant tensor:
#      x y z
#    x 3.136710 0.000000 0.000000 
#    y 0.000000 3.375190 0.000000 
#    z 0.000000 0.000000 3.094150 
# 
# 
# High freq. dielectric constant tensor:
#      x y z
#    x 1.650000 0.000000 0.000000 
#    y 0.000000 1.630460 0.000000 
#    z 0.000000 0.000000 1.621200 
# 
# From -- ./inp_files/38427.got.cif
#   From: 2010.03.12/outbox.cif.g09.slc.cpg/sg53_20_cif.got.tgz:38427.got - 2010.04.16 14:36:59.
