data_PCOD8219069
_publ_section_title
;
Structure prediction by ZEFSAII (Michael W. Deem and Ramdas Pophale) SiO2 
 PCOD8219069
Probable space group: P M N A
;
_chemical_formula_sum "Si O2"
_cell_formula_units_Z 64
_cell_length_a 8.834388
_cell_length_b 15.167790
_cell_length_c 24.924438
_cell_angle_alpha 90.000000
_cell_angle_beta 90.000000
_cell_angle_gamma 90.000000
_cell_volume 3339.828381
_symmetry_space_group_name_H-M "P M N A"
_symmetry_group_IT_number 53
_symmetry_cell_setting 'orthorhombic'
loop_
_space_group_symop_operation_xyz
x,y,z
1/2-x,-y,1/2+z
x,-y,-z
1/2-x,y,1/2-z
-x,-y,-z
1/2+x,y,1/2-z
-x,y,z
1/2+x,-y,1/2+z
loop_
_atom_site_type_symbol
_atom_site_label
_atom_site_fract_x
_atom_site_fract_y
_atom_site_fract_z
Si Si1 0.678349 0.929683 0.805489
Si Si2 0.172162 0.280380 0.490915
Si Si3 0.821398 0.375062 0.194519
Si Si4 0.320459 0.127770 0.806089
Si Si5 0.678980 0.271487 0.888373
Si Si6 0.323487 0.534455 0.141846
Si Si7 0.837077 0.555942 0.948949
Si Si8 0.826582 0.771370 0.622923
O O1 0.750000 0.898205 0.750000
O O2 0.500000 0.927988 0.798781
O O3 0.734543 0.861473 0.850647
O O4 0.732464 0.028467 0.820720
O O5 0.227143 0.249262 0.549981
O O6 0.287820 0.351388 0.470739
O O7 0.183242 0.210528 0.441626
O O8 0.000000 0.316094 0.496086
O O9 0.750000 0.339540 0.250000
O O10 0.768215 0.476931 0.185686
O O11 0.767452 0.313672 0.144470
O O12 0.000000 0.370451 0.200112
O O13 0.250000 0.158364 0.750000
O O14 0.500000 0.134272 0.801545
O O15 0.255868 0.192771 0.851862
O O16 0.500000 0.274318 0.884595
O O17 0.739434 0.365334 0.865088
O O18 0.500000 0.533053 0.156751
O O19 0.296880 0.487106 0.085161
O O20 0.000000 0.564062 0.917116
O O21 0.871085 0.500000 0.000000
O O22 0.000000 0.752818 0.639579
#
# Coordination Sequence:
#
# PCOD8219069 Si02
#       8
#     8   8   8   8   8   8   8   8
#     4   9  18  33  55  81 106 136 176 225 272 321
#     4  10  19  33  53  76 107 146 184 218 263 325
#     4  12  25  39  54  76 108 145 183 227 279 328
#     4   9  18  36  58  80 107 136 176 226 274 323
#     4   9  19  34  55  81 107 142 183 223 269 321
#     4  11  21  35  54  76 104 142 185 224 269 323
#     4  11  21  32  49  76 107 139 183 230 268 307
#     4  10  20  34  54  81 110 142 180 220 268 326
#
# _framework density 19.162662000000001
#
# number of rings (size 3 to 8) (size 9 to 14) (size 15 to 20)
#    0.000    1.875    2.500    2.250    0.000    2.500 
#    0.000    3.750    0.000    3.750    0.000    0.000 
#    0.000    6.000    0.000    0.000    0.000    0.000 
#
# Total GULP energy -793045.683074 kJ/mol
# GULP energy per Si atom -12391.338798 kJ/mol
# Density = 1.911905 g / cm^3
# Si number density = 19.162662 Si / 1000 Ang^3
#
#
#
# Elastic Constant Matrix: (Units=GPa)
#
#
# Indices 1 2 3 4 5 6 
#
# 1 55.0591 22.7886 22.1690 0.0000 0.0000 0.0000
# 2 22.7886 116.1268 67.7103 0.0000 0.0000 0.0000
# 3 22.1690 67.7103 120.6744 0.0000 0.0000 0.0000
# 4 0.0000 0.0000 0.0000 33.0331 0.0000 0.0000
# 5 0.0000 0.0000 0.0000 0.0000 24.4934 0.0000
# 6 0.0000 0.0000 0.0000 0.0000 0.0000 16.1409
#
#
#
# Elastic Compliance Matrix: (Units=1/GPa)
#
#
# Indices 1 2 3 4 5 6 
#
# 1 0.020155 -0.002670 -0.002205 0.000000 0.000000 0.000000
# 2 -0.002670 0.013152 -0.006889 0.000000 0.000000 0.000000
# 3 -0.002205 -0.006889 0.012557 0.000000 0.000000 0.000000
# 4 0.000000 0.000000 0.000000 0.030273 0.000000 0.000000
# 5 0.000000 0.000000 0.000000 0.000000 0.040827 0.000000
# 6 0.000000 0.000000 0.000000 0.000000 0.000000 0.061954
#
#
# Mechanical properties :
#
#
# Convention : Reuss Voigt Hill
#
# Bulk Modulus (GPa) = 44.76834 57.46623 51.11729
# Shear Modulus (GPa) = 23.82184 26.67965 25.25074
#
# Velocity S-wave (km/s) = 3.52964 3.73536 3.63396
# Velocity P-wave (km/s) = 6.32646 6.97551 6.65890
#
# Compressibility (1/GPa) = 0.02233721
#
# Stress axis : x y z
#
# Youngs Moduli (GPa) = 49.61559 76.03371 79.63500
#
# Poissons Ratio (x) = 0.20299 0.17557
# Poissons Ratio (y) = 0.13246 0.54862
# Poissons Ratio (z) = 0.10939 0.52381
#
# Static dielectric constant tensor:
#      x y z
#    x 3.395950 0.000000 0.000000 
#    y 0.000000 3.682270 0.000000 
#    z 0.000000 0.000000 3.747110 
# 
# 
# High freq. dielectric constant tensor:
#      x y z
#    x 1.732100 0.000000 0.000000 
#    y 0.000000 1.729940 0.000000 
#    z 0.000000 0.000000 1.751100 
# 
# From -- ./inp_files/34265.got.cif
#   From: 2010.03.12/outbox.cif.g09.slc.cpg/sg53_18_cif.got.tgz:34265.got - 2010.04.16 14:36:59.
