data_PCOD8219964
_publ_section_title
;
Structure prediction by ZEFSAII (Michael W. Deem and Ramdas Pophale) SiO2 
 PCOD8219964
Probable space group: P M N A
;
_chemical_formula_sum "Si O2"
_cell_formula_units_Z 56
_cell_length_a 18.536867
_cell_length_b 11.392876
_cell_length_c 14.801065
_cell_angle_alpha 90.000000
_cell_angle_beta 90.000000
_cell_angle_gamma 90.000000
_cell_volume 3125.810677
_symmetry_space_group_name_H-M "P M N A"
_symmetry_group_IT_number 53
_symmetry_cell_setting 'orthorhombic'
loop_
_space_group_symop_operation_xyz
x,y,z
1/2-x,-y,1/2+z
x,-y,-z
1/2-x,y,1/2-z
-x,-y,-z
1/2+x,y,1/2-z
-x,y,z
1/2+x,-y,1/2+z
loop_
_atom_site_type_symbol
_atom_site_label
_atom_site_fract_x
_atom_site_fract_y
_atom_site_fract_z
Si Si1 0.083448 0.153219 0.160615
Si Si2 0.582831 0.380603 0.243740
Si Si3 0.155006 0.467756 0.879283
Si Si4 0.415340 0.270048 0.519033
Si Si5 0.820218 0.514295 0.398772
Si Si6 0.416326 0.895762 0.311860
Si Si7 0.327706 0.281590 0.775664
O O1 0.092790 0.239629 0.246716
O O2 0.000000 0.132138 0.137487
O O3 0.118372 0.025988 0.180701
O O4 0.117477 0.210315 0.070422
O O5 0.500000 0.413320 0.220491
O O6 0.601935 0.429102 0.344769
O O7 0.635376 0.426553 0.165552
O O8 0.126382 0.395595 0.967295
O O9 0.235441 0.517921 0.893415
O O10 0.150435 0.379260 0.796000
O O11 0.500000 0.298412 0.513256
O O12 0.398686 0.178192 0.598679
O O13 0.849569 0.500000 0.500000
O O14 0.830036 0.651606 0.371993
O O15 0.500000 0.904510 0.291129
O O16 0.381904 0.828351 0.225964
O O17 0.250000 0.230065 0.750000
#
# Coordination Sequence:
#
# PCOD8219964 Si02
#       7
#     8   8   8   8   8   8   8
#     4   9  18  29  45  74 106 134 161 200 250 299
#     4  10  20  34  50  72 103 132 167 207 253 306
#     4   9  18  32  50  74 102 133 161 202 254 306
#     4   9  16  27  48  78 106 134 166 201 244 298
#     4  10  21  35  53  73  97 133 171 216 259 300
#     4   9  16  29  50  72  99 133 168 202 244 298
#     4   8  16  32  49  69  96 124 164 207 248 291
#
# _framework density 17.915353
#
# number of rings (size 3 to 8) (size 9 to 14) (size 15 to 20)
#    0.000    2.857    0.000    2.143    2.000    5.429 
#    0.000    3.571    0.000    0.857    0.000    3.000 
#    0.000    0.000    0.000    0.000    0.000    0.000 
#
# Total GULP energy -694088.541791 kJ/mol
# GULP energy per Si atom -12394.438246 kJ/mol
# Density = 1.787458 g / cm^3
# Si number density = 17.915353 Si / 1000 Ang^3
#
#
#
# Elastic Constant Matrix: (Units=GPa)
#
#
# Indices 1 2 3 4 5 6 
#
# 1 74.0257 47.9520 27.6571 0.0000 0.0000 0.0000
# 2 47.9520 109.9588 37.1575 0.0000 0.0000 0.0000
# 3 27.6571 37.1575 80.8485 0.0000 0.0000 0.0000
# 4 0.0000 0.0000 0.0000 21.7614 0.0000 0.0000
# 5 0.0000 0.0000 0.0000 0.0000 18.8197 0.0000
# 6 0.0000 0.0000 0.0000 0.0000 0.0000 15.6938
#
#
#
# Elastic Compliance Matrix: (Units=1/GPa)
#
#
# Indices 1 2 3 4 5 6 
#
# 1 0.019534 -0.007411 -0.003276 0.000000 0.000000 0.000000
# 2 -0.007411 0.013578 -0.003705 0.000000 0.000000 0.000000
# 3 -0.003276 -0.003705 0.015192 0.000000 0.000000 0.000000
# 4 0.000000 0.000000 0.000000 0.045953 0.000000 0.000000
# 5 0.000000 0.000000 0.000000 0.000000 0.053136 0.000000
# 6 0.000000 0.000000 0.000000 0.000000 0.000000 0.063719
#
#
# Mechanical properties :
#
#
# Convention : Reuss Voigt Hill
#
# Bulk Modulus (GPa) = 51.23137 54.48514 52.85826
# Shear Modulus (GPa) = 20.29188 21.39277 20.84232
#
# Velocity S-wave (km/s) = 3.36914 3.45933 3.41453
# Velocity P-wave (km/s) = 6.61765 6.81429 6.71669
#
# Compressibility (1/GPa) = 0.01951929
#
# Stress axis : x y z
#
# Youngs Moduli (GPa) = 51.19354 73.64609 65.82258
#
# Poissons Ratio (x) = 0.54582 0.21563
# Poissons Ratio (y) = 0.37942 0.24389
# Poissons Ratio (z) = 0.16771 0.27288
#
# Static dielectric constant tensor:
#      x y z
#    x 3.201160 0.000000 0.000000 
#    y 0.000000 3.564510 0.000000 
#    z 0.000000 0.000000 3.270500 
# 
# 
# High freq. dielectric constant tensor:
#      x y z
#    x 1.673420 0.000000 0.000000 
#    y 0.000000 1.695760 0.000000 
#    z 0.000000 0.000000 1.673900 
# 
# From -- ./inp_files/29074.got.cif
#   From: 2010.03.12/outbox.cif.g09.slc.cpg/sg53_15_cif.got.tgz:29074.got - 2010.04.16 14:36:59.
