data_PCOD8219239
_publ_section_title
;
Structure prediction by ZEFSAII (Michael W. Deem and Ramdas Pophale) SiO2 
 PCOD8219239
Probable space group: P M N A
;
_chemical_formula_sum "Si O2"
_cell_formula_units_Z 48
_cell_length_a 9.190312
_cell_length_b 16.317034
_cell_length_c 17.929392
_cell_angle_alpha 90.000000
_cell_angle_beta 90.000000
_cell_angle_gamma 90.000000
_cell_volume 2688.667122
_symmetry_space_group_name_H-M "P M N A"
_symmetry_group_IT_number 53
_symmetry_cell_setting 'orthorhombic'
loop_
_space_group_symop_operation_xyz
x,y,z
1/2-x,-y,1/2+z
x,-y,-z
1/2-x,y,1/2-z
-x,-y,-z
1/2+x,y,1/2-z
-x,y,z
1/2+x,-y,1/2+z
loop_
_atom_site_type_symbol
_atom_site_label
_atom_site_fract_x
_atom_site_fract_y
_atom_site_fract_z
Si Si1 0.671096 0.339521 0.173442
Si Si2 0.171478 0.988656 0.914403
Si Si3 0.334823 0.750744 0.464412
Si Si4 0.169677 0.827972 0.595646
Si Si5 0.331969 0.583406 0.538128
Si Si6 0.832555 0.851589 0.174313
O O1 0.750000 0.361624 0.250000
O O2 0.500000 0.355690 0.180892
O O3 0.704815 0.245022 0.153360
O O4 0.734072 0.399312 0.110169
O O5 0.249671 0.910108 0.877533
O O6 0.000000 0.975192 0.909215
O O7 0.223772 0.067164 0.867652
O O8 0.220776 0.000000 0.000000
O O9 0.500000 0.776662 0.486216
O O10 0.226526 0.803623 0.514285
O O11 0.310270 0.654309 0.476444
O O12 0.305102 0.772721 0.378390
O O13 0.000000 0.845777 0.590217
O O14 0.277818 0.500000 0.500000
O O15 0.500000 0.577225 0.563457
O O16 0.750000 0.835224 0.250000
O O17 0.000000 0.862082 0.194573
#
# Coordination Sequence:
#
# PCOD8219239 Si02
#       6
#     8   8   8   8   8   8
#     4  10  21  36  54  79 111 144 177 218 270 320
#     4  10  19  34  53  72  99 138 180 214 258 316
#     4   9  17  34  55  73 101 139 173 206 254 316
#     4  10  20  32  51  79 104 131 174 221 262 305
#     4   9  18  34  59  86 108 136 176 218 262 320
#     4  10  21  35  51  72 100 136 174 213 256 305
#
# _framework density 17.852713999999999
#
# number of rings (size 3 to 8) (size 9 to 14) (size 15 to 20)
#    0.000    2.333    1.667    1.000    0.000    4.667 
#    0.000    4.167    0.000    2.000    0.000    0.000 
#    0.000    0.000    0.000    0.000    0.000    0.000 
#
# Total GULP energy -595276.196790 kJ/mol
# GULP energy per Si atom -12401.587433 kJ/mol
# Density = 1.781208 g / cm^3
# Si number density = 17.852714 Si / 1000 Ang^3
#
#
#
# Elastic Constant Matrix: (Units=GPa)
#
#
# Indices 1 2 3 4 5 6 
#
# 1 67.8654 47.9587 53.3509 0.0000 0.0000 0.0000
# 2 47.9587 118.1746 60.7846 0.0000 0.0000 0.0000
# 3 53.3509 60.7846 127.3432 0.0000 0.0000 0.0000
# 4 0.0000 0.0000 0.0000 20.0313 0.0000 0.0000
# 5 0.0000 0.0000 0.0000 0.0000 31.7344 0.0000
# 6 0.0000 0.0000 0.0000 0.0000 0.0000 23.4018
#
#
#
# Elastic Compliance Matrix: (Units=1/GPa)
#
#
# Indices 1 2 3 4 5 6 
#
# 1 0.025101 -0.006332 -0.007493 0.000000 0.000000 0.000000
# 2 -0.006332 0.012813 -0.003463 0.000000 0.000000 0.000000
# 3 -0.007493 -0.003463 0.012645 0.000000 0.000000 0.000000
# 4 0.000000 0.000000 0.000000 0.049922 0.000000 0.000000
# 5 0.000000 0.000000 0.000000 0.000000 0.031512 0.000000
# 6 0.000000 0.000000 0.000000 0.000000 0.000000 0.042732
#
#
# Mechanical properties :
#
#
# Convention : Reuss Voigt Hill
#
# Bulk Modulus (GPa) = 62.57280 70.84129 66.70704
# Shear Modulus (GPa) = 23.29599 25.11944 24.20771
#
# Velocity S-wave (km/s) = 3.61626 3.75512 3.68634
# Velocity P-wave (km/s) = 7.24996 7.65300 7.45420
#
# Compressibility (1/GPa) = 0.01598139
#
# Stress axis : x y z
#
# Youngs Moduli (GPa) = 39.83959 78.04454 79.08087
#
# Poissons Ratio (x) = 0.49420 0.59259
# Poissons Ratio (y) = 0.25227 0.27387
# Poissons Ratio (z) = 0.29854 0.27028
#
# Static dielectric constant tensor:
#      x y z
#    x 3.279310 0.000000 0.000000 
#    y 0.000000 3.372580 0.000000 
#    z 0.000000 0.000000 3.156870 
# 
# 
# High freq. dielectric constant tensor:
#      x y z
#    x 1.689600 0.000000 0.000000 
#    y 0.000000 1.687780 0.000000 
#    z 0.000000 0.000000 1.678020 
# 
# From -- ./inp_files/20170.got.cif
#   From: 2010.03.12/outbox.cif.g09.slc.cpg/sg53_11_cif.got.tgz:20170.got - 2010.04.16 14:36:59.
