data_PCOD8219726
_publ_section_title
;
Structure prediction by ZEFSAII (Michael W. Deem and Ramdas Pophale) SiO2 
 PCOD8219726
Probable space group: P M N A
;
_chemical_formula_sum "Si O2"
_cell_formula_units_Z 64
_cell_length_a 8.954276
_cell_length_b 22.601165
_cell_length_c 17.330210
_cell_angle_alpha 90.000000
_cell_angle_beta 90.000000
_cell_angle_gamma 90.000000
_cell_volume 3507.237111
_symmetry_space_group_name_H-M "P M N A"
_symmetry_group_IT_number 53
_symmetry_cell_setting 'orthorhombic'
loop_
_space_group_symop_operation_xyz
x,y,z
1/2-x,-y,1/2+z
x,-y,-z
1/2-x,y,1/2-z
-x,-y,-z
1/2+x,y,1/2-z
-x,y,z
1/2+x,-y,1/2+z
loop_
_atom_site_type_symbol
_atom_site_label
_atom_site_fract_x
_atom_site_fract_y
_atom_site_fract_z
Si Si1 0.331707 0.542321 0.426959
Si Si2 0.175061 0.795562 0.174632
Si Si3 0.829271 0.912084 0.370799
Si Si4 0.175797 0.448374 0.330347
Si Si5 0.175282 0.634059 0.525975
Si Si6 0.175795 0.754110 0.007628
Si Si7 0.170697 0.130245 0.460048
Si Si8 0.676805 0.042219 0.171638
O O1 0.332352 0.500000 0.500000
O O2 0.500000 0.556809 0.399647
O O3 0.243300 0.511376 0.357027
O O4 0.250058 0.602480 0.452023
O O5 0.250000 0.765329 0.250000
O O6 0.227566 0.863398 0.170275
O O7 0.223374 0.760265 0.097595
O O8 0.000000 0.794118 0.185492
O O9 0.816293 0.907631 0.462506
O O10 0.000000 0.902537 0.343897
O O11 0.766577 0.976172 0.347395
O O12 0.250000 0.428600 0.250000
O O13 0.214279 0.398551 0.393784
O O14 0.000000 0.455912 0.319064
O O15 0.239046 0.699766 0.531324
O O16 0.000000 0.634930 0.511424
O O17 0.000000 0.744884 0.998744
O O18 0.224451 0.812381 0.961534
O O19 0.231174 0.087787 0.393206
O O20 0.000000 0.150636 0.446114
O O21 0.750000 0.064791 0.250000
O O22 0.500000 0.042643 0.177926
#
# Coordination Sequence:
#
# PCOD8219726 Si02
#       8
#     8   8   8   8   8   8   8   8
#     4   9  17  31  53  79 107 138 169 204 249 298
#     4  10  20  33  50  74 102 130 162 204 254 307
#     4   9  17  31  52  74  96 125 162 205 253 308
#     4  10  20  34  54  82 113 142 175 216 259 303
#     4  10  20  35  56  80 106 139 179 217 255 304
#     4  10  21  36  54  76 101 132 174 218 257 301
#     4   9  18  34  53  71  95 130 170 209 253 307
#     4  10  20  32  48  72 100 129 163 205 255 310
#
# _framework density 18.247980999999999
#
# number of rings (size 3 to 8) (size 9 to 14) (size 15 to 20)
#    0.000    2.375    0.000    2.625    0.000    8.000 
#    0.000    1.250    0.000    5.250    0.000    0.000 
#    0.000    0.000    0.000    0.000    0.000    0.000 
#
# Total GULP energy -793723.487242 kJ/mol
# GULP energy per Si atom -12401.929488 kJ/mol
# Density = 1.820645 g / cm^3
# Si number density = 18.247981 Si / 1000 Ang^3
#
#
#
# Elastic Constant Matrix: (Units=GPa)
#
#
# Indices 1 2 3 4 5 6 
#
# 1 81.0625 36.9865 42.4159 0.0000 0.0000 0.0000
# 2 36.9865 80.1877 37.4491 0.0000 0.0000 0.0000
# 3 42.4159 37.4491 93.5073 0.0000 0.0000 0.0000
# 4 0.0000 0.0000 0.0000 17.9738 0.0000 0.0000
# 5 0.0000 0.0000 0.0000 0.0000 32.3591 0.0000
# 6 0.0000 0.0000 0.0000 0.0000 0.0000 27.7490
#
#
#
# Elastic Compliance Matrix: (Units=1/GPa)
#
#
# Indices 1 2 3 4 5 6 
#
# 1 0.017958 -0.005509 -0.005939 0.000000 0.000000 0.000000
# 2 -0.005509 0.017030 -0.004321 0.000000 0.000000 0.000000
# 3 -0.005939 -0.004321 0.015119 0.000000 0.000000 0.000000
# 4 0.000000 0.000000 0.000000 0.055637 0.000000 0.000000
# 5 0.000000 0.000000 0.000000 0.000000 0.030903 0.000000
# 6 0.000000 0.000000 0.000000 0.000000 0.000000 0.036037
#
#
# Mechanical properties :
#
#
# Convention : Reuss Voigt Hill
#
# Bulk Modulus (GPa) = 53.85909 54.27339 54.06624
# Shear Modulus (GPa) = 23.76282 24.81011 24.28646
#
# Velocity S-wave (km/s) = 3.61254 3.69129 3.65212
# Velocity P-wave (km/s) = 6.85418 6.92634 6.89035
#
# Compressibility (1/GPa) = 0.01856697
#
# Stress axis : x y z
#
# Youngs Moduli (GPa) = 55.68672 58.71987 66.14095
#
# Poissons Ratio (x) = 0.32350 0.39284
# Poissons Ratio (y) = 0.30679 0.28582
# Poissons Ratio (z) = 0.33074 0.25375
#
# Static dielectric constant tensor:
#      x y z
#    x 3.377150 0.000000 0.000000 
#    y 0.000000 3.253530 0.000000 
#    z 0.000000 0.000000 3.394760 
# 
# 
# High freq. dielectric constant tensor:
#      x y z
#    x 1.712770 0.000000 0.000000 
#    y 0.000000 1.693330 0.000000 
#    z 0.000000 0.000000 1.702140 
# 
# From -- ./inp_files/26801.got.cif
#   From: 2010.03.12/outbox.cif.g09.slc.cpg/sg53_14_cif.got.tgz:26801.got - 2010.04.16 14:36:59.
