data_PCOD8219541
_publ_section_title
;
Structure prediction by ZEFSAII (Michael W. Deem and Ramdas Pophale) SiO2 
 PCOD8219541
Probable space group: P M N A
;
_chemical_formula_sum "Si O2"
_cell_formula_units_Z 56
_cell_length_a 9.198343
_cell_length_b 22.964501
_cell_length_c 14.036323
_cell_angle_alpha 90.000000
_cell_angle_beta 90.000000
_cell_angle_gamma 90.000000
_cell_volume 2964.967700
_symmetry_space_group_name_H-M "P M N A"
_symmetry_group_IT_number 53
_symmetry_cell_setting 'orthorhombic'
loop_
_space_group_symop_operation_xyz
x,y,z
1/2-x,-y,1/2+z
x,-y,-z
1/2-x,y,1/2-z
-x,-y,-z
1/2+x,y,1/2-z
-x,y,z
1/2+x,-y,1/2+z
loop_
_atom_site_type_symbol
_atom_site_label
_atom_site_fract_x
_atom_site_fract_y
_atom_site_fract_z
Si Si1 0.333347 0.184313 0.540069
Si Si2 0.671440 0.903028 0.160127
Si Si3 0.334918 0.142680 0.340079
Si Si4 0.327538 0.531035 0.650591
Si Si5 0.828117 0.699175 0.149010
Si Si6 0.328038 0.415761 0.544580
Si Si7 0.163891 0.986836 0.889517
O O1 0.500000 0.167957 0.566087
O O2 0.227721 0.131813 0.568997
O O3 0.315450 0.188655 0.426096
O O4 0.285058 0.244166 0.588534
O O5 0.750000 0.872112 0.250000
O O6 0.500000 0.898333 0.168833
O O7 0.721129 0.970180 0.159387
O O8 0.250000 0.167765 0.250000
O O9 0.500000 0.137897 0.308536
O O10 0.279804 0.078357 0.369975
O O11 0.250000 0.547328 0.750000
O O12 0.500000 0.533716 0.667357
O O13 0.275788 0.467284 0.614945
O O14 0.277521 0.575231 0.565548
O O15 0.750000 0.701194 0.250000
O O16 0.768914 0.644711 0.087419
O O17 0.000000 0.695041 0.166202
O O18 0.500000 0.416638 0.543306
O O19 0.000000 0.997229 0.849618
O O20 0.164251 0.000000 0.000000
#
# Coordination Sequence:
#
# PCOD8219541 Si02
#       7
#     8   8   8   8   8   8   8
#     4  10  21  39  57  75 102 137 174 216 264 312
#     4  12  24  36  54  79 107 136 170 210 258 316
#     4  10  21  37  57  77 101 134 170 209 259 312
#     4   9  16  29  50  75 109 144 180 217 261 311
#     4  10  20  35  57  79 103 135 177 218 263 315
#     4   8  16  31  50  75 106 145 179 214 262 320
#     4  10  19  36  58  78 105 135 165 209 262 316
#
# _framework density 18.887222000000001
#
# number of rings (size 3 to 8) (size 9 to 14) (size 15 to 20)
#    0.000    2.143    1.429    3.429    0.000    4.286 
#    0.000    2.857    0.000    0.000    0.000    0.000 
#    0.000    0.000    0.000    0.000    0.000    0.000 
#
# Total GULP energy -694219.767390 kJ/mol
# GULP energy per Si atom -12396.781561 kJ/mol
# Density = 1.884423 g / cm^3
# Si number density = 18.887222 Si / 1000 Ang^3
#
#
#
# Elastic Constant Matrix: (Units=GPa)
#
#
# Indices 1 2 3 4 5 6 
#
# 1 74.3299 34.3722 52.4406 0.0000 0.0000 0.0000
# 2 34.3722 104.1509 60.6169 0.0000 0.0000 0.0000
# 3 52.4406 60.6169 147.4587 0.0000 0.0000 0.0000
# 4 0.0000 0.0000 0.0000 30.0516 0.0000 0.0000
# 5 0.0000 0.0000 0.0000 0.0000 35.4844 0.0000
# 6 0.0000 0.0000 0.0000 0.0000 0.0000 8.5605
#
#
#
# Elastic Compliance Matrix: (Units=1/GPa)
#
#
# Indices 1 2 3 4 5 6 
#
# 1 0.018654 -0.003017 -0.005394 0.000000 0.000000 0.000000
# 2 -0.003017 0.013109 -0.004316 0.000000 0.000000 0.000000
# 3 -0.005394 -0.004316 0.010474 0.000000 0.000000 0.000000
# 4 0.000000 0.000000 0.000000 0.033276 0.000000 0.000000
# 5 0.000000 0.000000 0.000000 0.000000 0.028181 0.000000
# 6 0.000000 0.000000 0.000000 0.000000 0.000000 0.116815
#
#
# Mechanical properties :
#
#
# Convention : Reuss Voigt Hill
#
# Bulk Modulus (GPa) = 59.58162 68.97764 64.27963
# Shear Modulus (GPa) = 19.87620 26.71997 23.29808
#
# Velocity S-wave (km/s) = 3.24753 3.76535 3.51598
# Velocity P-wave (km/s) = 6.75843 7.45009 7.11267
#
# Compressibility (1/GPa) = 0.01678370
#
# Stress axis : x y z
#
# Youngs Moduli (GPa) = 53.60779 76.28320 95.47592
#
# Poissons Ratio (x) = 0.23015 0.51496
# Poissons Ratio (y) = 0.16174 0.41206
# Poissons Ratio (z) = 0.28914 0.32923
#
# Static dielectric constant tensor:
#      x y z
#    x 3.221500 0.000000 0.000000 
#    y 0.000000 3.567670 0.000000 
#    z 0.000000 0.000000 3.647280 
# 
# 
# High freq. dielectric constant tensor:
#      x y z
#    x 1.709370 0.000000 0.000000 
#    y 0.000000 1.715170 0.000000 
#    z 0.000000 0.000000 1.747400 
# 
# From -- ./inp_files/20510.got.cif
#   From: 2010.03.12/outbox.cif.g09.slc.cpg/sg53_11_cif.got.tgz:20510.got - 2010.04.16 14:36:59.
