data_PCOD8219470
_publ_section_title
;
Structure prediction by ZEFSAII (Michael W. Deem and Ramdas Pophale) SiO2 
 PCOD8219470
Probable space group: P M N A
;
_chemical_formula_sum "Si O2"
_cell_formula_units_Z 64
_cell_length_a 16.400045
_cell_length_b 14.968132
_cell_length_c 14.162133
_cell_angle_alpha 90.000000
_cell_angle_beta 90.000000
_cell_angle_gamma 90.000000
_cell_volume 3476.492628
_symmetry_space_group_name_H-M "P M N A"
_symmetry_group_IT_number 53
_symmetry_cell_setting 'orthorhombic'
loop_
_space_group_symop_operation_xyz
x,y,z
1/2-x,-y,1/2+z
x,-y,-z
1/2-x,y,1/2-z
-x,-y,-z
1/2+x,y,1/2-z
-x,y,z
1/2+x,-y,1/2+z
loop_
_atom_site_type_symbol
_atom_site_label
_atom_site_fract_x
_atom_site_fract_y
_atom_site_fract_z
Si Si1 0.763709 0.741714 0.469386
Si Si2 0.094498 0.053815 0.777618
Si Si3 0.156432 0.903391 0.023719
Si Si4 0.095735 0.221843 0.665982
Si Si5 0.593372 0.860784 0.671641
Si Si6 0.170525 0.644807 0.190838
Si Si7 0.698565 0.310305 0.337318
Si Si8 0.095801 0.476259 0.103941
O O1 0.736459 0.843738 0.471845
O O2 0.854551 0.741901 0.424954
O O3 0.698311 0.686645 0.408248
O O4 0.761499 0.703684 0.575631
O O5 0.108943 0.100171 0.878034
O O6 0.127522 0.121718 0.696264
O O7 0.000000 0.045091 0.760979
O O8 0.128369 0.951406 0.776415
O O9 0.094001 0.872851 0.941789
O O10 0.191749 0.000000 0.000000
O O11 0.112267 0.286531 0.754346
O O12 0.000000 0.222709 0.640949
O O13 0.500000 0.841024 0.702138
O O14 0.652767 0.779500 0.697677
O O15 0.250000 0.620103 0.250000
O O16 0.120518 0.554501 0.175410
O O17 0.750000 0.347307 0.250000
O O18 0.631578 0.382452 0.363900
O O19 0.000000 0.464180 0.104210
O O20 0.128630 0.500000 0.000000
#
# Coordination Sequence:
#
# PCOD8219470 Si02
#       8
#     8   8   8   8   8   8   8   8
#     4  10  20  36  54  81 112 145 189 232 280 327
#     4   9  16  28  49  79 113 149 183 225 282 335
#     4   9  16  28  47  78 108 145 183 227 280 331
#     4  10  20  34  55  83 116 151 185 228 281 338
#     4   9  18  33  52  78 111 145 188 235 279 327
#     4  10  19  35  58  84 115 144 175 224 281 343
#     4  11  23  41  58  81 111 152 193 231 276 335
#     4  11  22  37  60  88 113 140 177 229 291 342
#
# _framework density 18.409358999999998
#
# number of rings (size 3 to 8) (size 9 to 14) (size 15 to 20)
#    0.000    2.125    2.500    1.500    0.000    1.500 
#    6.750    1.250    0.000    0.375    0.000    4.375 
#    0.000    0.000    0.000    0.000    0.000    0.000 
#
# Total GULP energy -793289.135693 kJ/mol
# GULP energy per Si atom -12395.142745 kJ/mol
# Density = 1.836746 g / cm^3
# Si number density = 18.409359 Si / 1000 Ang^3
#
#
#
# Elastic Constant Matrix: (Units=GPa)
#
#
# Indices 1 2 3 4 5 6 
#
# 1 62.5769 40.4331 26.0189 0.0000 0.0000 0.0000
# 2 40.4331 105.4208 37.3817 0.0000 0.0000 0.0000
# 3 26.0189 37.3817 72.6976 0.0000 0.0000 0.0000
# 4 0.0000 0.0000 0.0000 26.1741 0.0000 0.0000
# 5 0.0000 0.0000 0.0000 0.0000 16.3637 0.0000
# 6 0.0000 0.0000 0.0000 0.0000 0.0000 24.9408
#
#
#
# Elastic Compliance Matrix: (Units=1/GPa)
#
#
# Indices 1 2 3 4 5 6 
#
# 1 0.022335 -0.007010 -0.004389 0.000000 0.000000 0.000000
# 2 -0.007010 0.013801 -0.004588 0.000000 0.000000 0.000000
# 3 -0.004389 -0.004588 0.017686 0.000000 0.000000 0.000000
# 4 0.000000 0.000000 0.000000 0.038206 0.000000 0.000000
# 5 0.000000 0.000000 0.000000 0.000000 0.061111 0.000000
# 6 0.000000 0.000000 0.000000 0.000000 0.000000 0.040095
#
#
# Mechanical properties :
#
#
# Convention : Reuss Voigt Hill
#
# Bulk Modulus (GPa) = 45.77132 49.81807 47.79470
# Shear Modulus (GPa) = 21.50639 22.61983 22.06311
#
# Velocity S-wave (km/s) = 3.42165 3.50910 3.46565
# Velocity P-wave (km/s) = 6.36610 6.59837 6.48328
#
# Compressibility (1/GPa) = 0.02184774
#
# Stress axis : x y z
#
# Youngs Moduli (GPa) = 44.77358 72.45766 56.54311
#
# Poissons Ratio (x) = 0.50792 0.24818
# Poissons Ratio (y) = 0.31386 0.25941
# Poissons Ratio (z) = 0.19652 0.33242
#
# Static dielectric constant tensor:
#      x y z
#    x 3.109330 0.000000 0.000000 
#    y 0.000000 3.595610 0.000000 
#    z 0.000000 0.000000 3.064240 
# 
# 
# High freq. dielectric constant tensor:
#      x y z
#    x 1.697180 0.000000 0.000000 
#    y 0.000000 1.724270 0.000000 
#    z 0.000000 0.000000 1.695550 
# 
# From -- ./inp_files/23980.got.cif
#   From: 2010.03.12/outbox.cif.g09.slc.cpg/sg53_12_cif.got.tgz:23980.got - 2010.04.16 14:36:59.
