data_PCOD8219521
_publ_section_title
;
Structure prediction by ZEFSAII (Michael W. Deem and Ramdas Pophale) SiO2 
 PCOD8219521
Probable space group: P M N A
;
_chemical_formula_sum "Si O2"
_cell_formula_units_Z 64
_cell_length_a 15.127712
_cell_length_b 23.602380
_cell_length_c 8.846538
_cell_angle_alpha 90.000000
_cell_angle_beta 90.000000
_cell_angle_gamma 90.000000
_cell_volume 3158.656456
_symmetry_space_group_name_H-M "P M N A"
_symmetry_group_IT_number 53
_symmetry_cell_setting 'orthorhombic'
loop_
_space_group_symop_operation_xyz
x,y,z
1/2-x,-y,1/2+z
x,-y,-z
1/2-x,y,1/2-z
-x,-y,-z
1/2+x,y,1/2-z
-x,y,z
1/2+x,-y,1/2+z
loop_
_atom_site_type_symbol
_atom_site_label
_atom_site_fract_x
_atom_site_fract_y
_atom_site_fract_z
Si Si1 0.851660 0.754549 0.927572
Si Si2 0.900217 0.865153 0.078210
Si Si3 0.143424 0.240298 0.417590
Si Si4 0.400269 0.873242 0.076751
Si Si5 0.246900 0.560331 0.427444
Si Si6 0.900510 0.365346 0.429611
Si Si7 0.245071 0.060297 0.072318
Si Si8 0.101674 0.628897 0.919220
O O1 0.882321 0.768564 0.757386
O O2 0.747361 0.759274 0.942312
O O3 0.883031 0.692487 0.978928
O O4 0.897379 0.798681 0.039892
O O5 0.868431 0.873565 0.249874
O O6 0.000000 0.887715 0.056114
O O7 0.835397 0.898237 0.966500
O O8 0.101315 0.190390 0.514453
O O9 0.103209 0.299383 0.474687
O O10 0.500000 0.896520 0.063040
O O11 0.337704 0.914805 0.983736
O O12 0.228506 0.500000 0.500000
O O13 0.250000 0.552468 0.250000
O O14 0.165148 0.600859 0.463798
O O15 0.339049 0.585404 0.487275
O O16 0.870042 0.373694 0.256309
O O17 0.000000 0.387823 0.454464
O O18 0.250000 0.053187 0.250000
O O19 0.225612 0.000000 0.000000
O O20 0.000000 0.611239 0.942144
#
# Coordination Sequence:
#
# PCOD8219521 Si02
#       8
#     8   8   8   8   8   8   8   8
#     4  10  19  35  63  95 127 164 203 247 302 363
#     4  11  24  41  63  93 129 166 205 252 304 361
#     4  10  19  35  63  95 127 164 203 247 302 363
#     4  11  24  41  63  93 129 166 205 252 304 361
#     4  12  26  43  64  87 120 161 205 257 305 364
#     4  10  21  40  66  93 124 161 203 252 305 364
#     4  12  26  45  68  91 120 161 207 259 309 364
#     4  10  21  40  66  93 124 161 203 252 305 364
#
# _framework density 20.261779000000001
#
# number of rings (size 3 to 8) (size 9 to 14) (size 15 to 20)
#    0.000    1.250    2.500    3.750    0.000    5.500 
#    0.000    0.000    0.000    0.000    0.000    0.000 
#    0.000    0.000    0.000    0.000    0.000    0.000 
#
# Total GULP energy -793972.625069 kJ/mol
# GULP energy per Si atom -12405.822267 kJ/mol
# Density = 2.021566 g / cm^3
# Si number density = 20.261779 Si / 1000 Ang^3
#
#
#
# Elastic Constant Matrix: (Units=GPa)
#
#
# Indices 1 2 3 4 5 6 
#
# 1 88.8396 18.9831 27.1312 0.0000 0.0000 0.0000
# 2 18.9831 61.5086 22.0272 0.0000 0.0000 0.0000
# 3 27.1312 22.0272 104.6632 0.0000 0.0000 0.0000
# 4 0.0000 0.0000 0.0000 36.9739 0.0000 0.0000
# 5 0.0000 0.0000 0.0000 0.0000 21.9589 0.0000
# 6 0.0000 0.0000 0.0000 0.0000 0.0000 32.6826
#
#
#
# Elastic Compliance Matrix: (Units=1/GPa)
#
#
# Indices 1 2 3 4 5 6 
#
# 1 0.012705 -0.002965 -0.002669 0.000000 0.000000 0.000000
# 2 -0.002965 0.018275 -0.003078 0.000000 0.000000 0.000000
# 3 -0.002669 -0.003078 0.010894 0.000000 0.000000 0.000000
# 4 0.000000 0.000000 0.000000 0.027046 0.000000 0.000000
# 5 0.000000 0.000000 0.000000 0.000000 0.045540 0.000000
# 6 0.000000 0.000000 0.000000 0.000000 0.000000 0.030597
#
#
# Mechanical properties :
#
#
# Convention : Reuss Voigt Hill
#
# Bulk Modulus (GPa) = 40.89952 43.47714 42.18833
# Shear Modulus (GPa) = 29.30290 30.78106 30.04198
#
# Velocity S-wave (km/s) = 3.80704 3.90188 3.85475
# Velocity P-wave (km/s) = 6.28921 6.46559 6.37801
#
# Compressibility (1/GPa) = 0.02445017
#
# Stress axis : x y z
#
# Youngs Moduli (GPa) = 78.70885 54.71925 91.79264
#
# Poissons Ratio (x) = 0.16225 0.24503
# Poissons Ratio (y) = 0.23338 0.28249
# Poissons Ratio (z) = 0.21011 0.16840
#
# Static dielectric constant tensor:
#      x y z
#    x 3.746390 0.000000 0.000000 
#    y 0.000000 3.674280 0.000000 
#    z 0.000000 0.000000 3.660210 
# 
# 
# High freq. dielectric constant tensor:
#      x y z
#    x 1.806740 0.000000 0.000000 
#    y 0.000000 1.789370 0.000000 
#    z 0.000000 0.000000 1.787120 
# 
# From -- ./inp_files/8966.got.cif
#   From: 2010.03.12/outbox.cif.g09.slc.cpg/sg53_5_cif.got.tgz:8966.got - 2010.04.16 14:36:59.
