data_PCOD8219134
_publ_section_title
;
Structure prediction by ZEFSAII (Michael W. Deem and Ramdas Pophale) SiO2 
 PCOD8219134
Probable space group: P M N A
;
_chemical_formula_sum "Si O2"
_cell_formula_units_Z 48
_cell_length_a 14.294623
_cell_length_b 9.861531
_cell_length_c 18.094684
_cell_angle_alpha 90.000000
_cell_angle_beta 90.000000
_cell_angle_gamma 90.000000
_cell_volume 2550.750928
_symmetry_space_group_name_H-M "P M N A"
_symmetry_group_IT_number 53
_symmetry_cell_setting 'orthorhombic'
loop_
_space_group_symop_operation_xyz
x,y,z
1/2-x,-y,1/2+z
x,-y,-z
1/2-x,y,1/2-z
-x,-y,-z
1/2+x,y,1/2-z
-x,y,z
1/2+x,-y,1/2+z
loop_
_atom_site_type_symbol
_atom_site_label
_atom_site_fract_x
_atom_site_fract_y
_atom_site_fract_z
Si Si1 0.398005 0.027345 0.584760
Si Si2 0.756139 0.539384 0.917469
Si Si3 0.395006 0.717881 0.220361
Si Si4 0.890614 0.260566 0.147506
Si Si5 0.894968 0.405151 0.297444
Si Si6 0.718185 0.747724 0.360717
O O1 0.500000 0.077537 0.615325
O O2 0.366381 0.896781 0.633138
O O3 0.412901 0.000000 0.500000
O O4 0.316515 0.140149 0.582332
O O5 0.836790 0.652666 0.915172
O O6 0.670224 0.601297 0.869812
O O7 0.803027 0.405206 0.884011
O O8 0.722049 0.500000 0.000000
O O9 0.500000 0.773225 0.207838
O O10 0.393707 0.557226 0.233610
O O11 0.330467 0.760021 0.150635
O O12 0.345208 0.785506 0.290014
O O13 0.859635 0.306994 0.230691
O O14 0.000000 0.288835 0.136130
O O15 0.000000 0.363488 0.321670
#
# Coordination Sequence:
#
# PCOD8219134 Si02
#       6
#     8   8   8   8   8   8
#     4  10  21  36  53  78 114 148 178 221 278 334
#     4  11  21  33  54  83 111 142 183 229 277 332
#     4   9  17  32  55  80 102 129 176 229 264 311
#     4  10  20  35  55  78 109 148 183 224 278 332
#     4   9  18  35  56  77 106 143 182 227 274 324
#     4  10  19  33  55  78 104 139 178 220 272 321
#
# _framework density 18.817986000000001
#
# number of rings (size 3 to 8) (size 9 to 14) (size 15 to 20)
#    0.000    2.167    1.667    2.000    0.000    1.333 
#    6.000    0.000    0.000    0.500    0.000    0.000 
#    0.000    0.000    0.000    0.000    0.000    0.000 
#
# Total GULP energy -594789.402058 kJ/mol
# GULP energy per Si atom -12391.445876 kJ/mol
# Density = 1.877516 g / cm^3
# Si number density = 18.817986 Si / 1000 Ang^3
#
#
#
# Elastic Constant Matrix: (Units=GPa)
#
#
# Indices 1 2 3 4 5 6 
#
# 1 111.3864 47.5373 30.3976 0.0000 0.0000 0.0000
# 2 47.5373 72.2670 17.6742 0.0000 0.0000 0.0000
# 3 30.3976 17.6742 70.7166 0.0000 0.0000 0.0000
# 4 0.0000 0.0000 0.0000 24.9382 0.0000 0.0000
# 5 0.0000 0.0000 0.0000 0.0000 25.1808 0.0000
# 6 0.0000 0.0000 0.0000 0.0000 0.0000 5.4370
#
#
#
# Elastic Compliance Matrix: (Units=1/GPa)
#
#
# Indices 1 2 3 4 5 6 
#
# 1 0.013367 -0.007869 -0.003779 0.000000 0.000000 0.000000
# 2 -0.007869 0.019370 -0.001459 0.000000 0.000000 0.000000
# 3 -0.003779 -0.001459 0.016130 0.000000 0.000000 0.000000
# 4 0.000000 0.000000 0.000000 0.040099 0.000000 0.000000
# 5 0.000000 0.000000 0.000000 0.000000 0.039713 0.000000
# 6 0.000000 0.000000 0.000000 0.000000 0.000000 0.183925
#
#
# Mechanical properties :
#
#
# Convention : Reuss Voigt Hill
#
# Bulk Modulus (GPa) = 44.14232 49.50983 46.82607
# Shear Modulus (GPa) = 14.43542 21.69525 18.06534
#
# Velocity S-wave (km/s) = 2.77268 3.39912 3.10175
# Velocity P-wave (km/s) = 5.81023 6.46315 6.14537
#
# Compressibility (1/GPa) = 0.02265400
#
# Stress axis : x y z
#
# Youngs Moduli (GPa) = 74.80904 51.62500 61.99585
#
# Poissons Ratio (x) = 0.40623 0.23430
# Poissons Ratio (y) = 0.58866 0.09044
# Poissons Ratio (z) = 0.28273 0.07531
#
# Static dielectric constant tensor:
#      x y z
#    x 3.660570 0.000000 0.000000 
#    y 0.000000 3.336390 0.000000 
#    z 0.000000 0.000000 3.354260 
# 
# 
# High freq. dielectric constant tensor:
#      x y z
#    x 1.734240 0.000000 0.000000 
#    y 0.000000 1.712580 0.000000 
#    z 0.000000 0.000000 1.714000 
# 
# From -- ./inp_files/28232.got.cif
#   From: 2010.03.12/outbox.cif.g09.slc.cpg/sg53_15_cif.got.tgz:28232.got - 2010.04.16 14:36:59.
