data_PCOD8219150
_publ_section_title
;
Structure prediction by ZEFSAII (Michael W. Deem and Ramdas Pophale) SiO2 
 PCOD8219150
Probable space group: P M N A
;
_chemical_formula_sum "Si O2"
_cell_formula_units_Z 48
_cell_length_a 17.528162
_cell_length_b 16.415107
_cell_length_c 8.720264
_cell_angle_alpha 90.000000
_cell_angle_beta 90.000000
_cell_angle_gamma 90.000000
_cell_volume 2509.052389
_symmetry_space_group_name_H-M "P M N A"
_symmetry_group_IT_number 53
_symmetry_cell_setting 'orthorhombic'
loop_
_space_group_symop_operation_xyz
x,y,z
1/2-x,-y,1/2+z
x,-y,-z
1/2-x,y,1/2-z
-x,-y,-z
1/2+x,y,1/2-z
-x,y,z
1/2+x,-y,1/2+z
loop_
_atom_site_type_symbol
_atom_site_label
_atom_site_fract_x
_atom_site_fract_y
_atom_site_fract_z
Si Si1 0.589980 0.167669 0.191212
Si Si2 0.165922 0.499922 0.319469
Si Si3 0.837787 0.333254 0.199297
Si Si4 0.412270 0.588711 0.426582
Si Si5 0.916054 0.919327 0.399581
Si Si6 0.828974 0.980791 0.824590
O O1 0.500000 0.168227 0.196215
O O2 0.620371 0.253744 0.243374
O O3 0.615759 0.096418 0.306837
O O4 0.617015 0.149899 0.014939
O O5 0.170304 0.500000 0.500000
O O6 0.250000 0.503509 0.250000
O O7 0.126543 0.413275 0.279027
O O8 0.117618 0.575915 0.248909
O O9 0.750000 0.324748 0.250000
O O10 0.856988 0.347030 0.017124
O O11 0.404231 0.500000 0.500000
O O12 0.500000 0.619985 0.426852
O O13 0.000000 0.894887 0.337167
O O14 0.922660 0.000000 0.500000
O O15 0.861018 0.936749 0.255930
O O16 0.750000 0.954487 0.750000
O O17 0.815488 0.000000 0.000000
#
# Coordination Sequence:
#
# PCOD8219150 Si02
#       6
#     8   8   8   8   8   8
#     4  10  20  35  55  78 108 144 180 221 273 332
#     4  10  19  34  56  81 109 144 189 237 285 340
#     4  10  19  33  55  81 109 145 186 224 273 335
#     4   9  18  33  53  78 109 144 183 227 275 333
#     4   8  16  32  52  74 102 136 172 210 257 316
#     4  11  21  34  55  80 106 137 179 227 273 327
#
# _framework density 19.130728000000001
#
# number of rings (size 3 to 8) (size 9 to 14) (size 15 to 20)
#    0.000    2.333    0.000    6.500    0.000    2.333 
#    0.000    1.667    0.000    6.000    0.000    0.000 
#    0.000    0.000    0.000    0.000    0.000    0.000 
#
# Total GULP energy -594760.767825 kJ/mol
# GULP energy per Si atom -12390.849330 kJ/mol
# Density = 1.908719 g / cm^3
# Si number density = 19.130728 Si / 1000 Ang^3
#
#
#
# Elastic Constant Matrix: (Units=GPa)
#
#
# Indices 1 2 3 4 5 6 
#
# 1 95.5903 38.3490 58.6764 0.0000 0.0000 0.0000
# 2 38.3490 96.9864 54.6750 0.0000 0.0000 0.0000
# 3 58.6764 54.6750 156.6994 0.0000 0.0000 0.0000
# 4 0.0000 0.0000 0.0000 49.8169 0.0000 0.0000
# 5 0.0000 0.0000 0.0000 0.0000 27.4889 0.0000
# 6 0.0000 0.0000 0.0000 0.0000 0.0000 1.5706
#
#
#
# Elastic Compliance Matrix: (Units=1/GPa)
#
#
# Indices 1 2 3 4 5 6 
#
# 1 0.014385 -0.003301 -0.004235 0.000000 0.000000 0.000000
# 2 -0.003301 0.013593 -0.003507 0.000000 0.000000 0.000000
# 3 -0.004235 -0.003507 0.009191 0.000000 0.000000 0.000000
# 4 0.000000 0.000000 0.000000 0.020073 0.000000 0.000000
# 5 0.000000 0.000000 0.000000 0.000000 0.036378 0.000000
# 6 0.000000 0.000000 0.000000 0.000000 0.000000 0.636681
#
#
# Mechanical properties :
#
#
# Convention : Reuss Voigt Hill
#
# Bulk Modulus (GPa) = 66.29459 72.51964 69.40711
# Shear Modulus (GPa) = 6.60141 28.94701 17.77421
#
# Velocity S-wave (km/s) = 1.85962 3.89410 3.05141
# Velocity P-wave (km/s) = 6.27213 7.62944 6.98384
#
# Compressibility (1/GPa) = 0.01508419
#
# Stress axis : x y z
#
# Youngs Moduli (GPa) = 69.51731 73.56886 108.80235
#
# Poissons Ratio (x) = 0.24282 0.46076
# Poissons Ratio (y) = 0.22944 0.38155
# Poissons Ratio (z) = 0.29439 0.25799
#
# Static dielectric constant tensor:
#      x y z
#    x 3.609160 0.000000 0.000000 
#    y 0.000000 3.654280 0.000000 
#    z 0.000000 0.000000 3.674190 
# 
# 
# High freq. dielectric constant tensor:
#      x y z
#    x 1.748450 0.000000 0.000000 
#    y 0.000000 1.717460 0.000000 
#    z 0.000000 0.000000 1.737640 
# 
# From -- ./inp_files/8630.got.cif
#   From: 2010.03.12/outbox.cif.g09.slc.cpg/sg53_5_cif.got.tgz:8630.got - 2010.04.16 14:36:59.
