data_PCOD8219921
_publ_section_title
;
Structure prediction by ZEFSAII (Michael W. Deem and Ramdas Pophale) SiO2 
 PCOD8219921
Probable space group: P M N A
;
_chemical_formula_sum "Si O2"
_cell_formula_units_Z 56
_cell_length_a 8.781675
_cell_length_b 18.757888
_cell_length_c 18.399752
_cell_angle_alpha 90.000000
_cell_angle_beta 90.000000
_cell_angle_gamma 90.000000
_cell_volume 3030.911588
_symmetry_space_group_name_H-M "P M N A"
_symmetry_group_IT_number 53
_symmetry_cell_setting 'orthorhombic'
loop_
_space_group_symop_operation_xyz
x,y,z
1/2-x,-y,1/2+z
x,-y,-z
1/2-x,y,1/2-z
-x,-y,-z
1/2+x,y,1/2-z
-x,y,z
1/2+x,-y,1/2+z
loop_
_atom_site_type_symbol
_atom_site_label
_atom_site_fract_x
_atom_site_fract_y
_atom_site_fract_z
Si Si1 0.676367 0.558642 0.328132
Si Si2 0.177563 0.283537 0.829129
Si Si3 0.823571 0.071042 0.461644
Si Si4 0.323300 0.217501 0.962541
Si Si5 0.678737 0.860134 0.672761
Si Si6 0.678653 0.714808 0.597048
Si Si7 0.820460 0.580768 0.670211
O O1 0.750000 0.564023 0.250000
O O2 0.500000 0.538829 0.321397
O O3 0.699475 0.636683 0.363611
O O4 0.760970 0.492725 0.368336
O O5 0.250000 0.276809 0.750000
O O6 0.263605 0.228199 0.880969
O O7 0.000000 0.264349 0.823638
O O8 0.795444 0.135408 0.517449
O O9 0.735460 0.082990 0.386384
O O10 0.000000 0.062649 0.441708
O O11 0.759883 0.000000 0.500000
O O12 0.500000 0.238327 0.969000
O O13 0.224653 0.267930 0.014787
O O14 0.750000 0.878767 0.750000
O O15 0.500000 0.866847 0.679263
O O16 0.727282 0.780527 0.648736
O O17 0.500000 0.699288 0.601460
O O18 0.771419 0.646025 0.620581
O O19 0.750000 0.589737 0.750000
O O20 0.000000 0.579006 0.677043
#
# Coordination Sequence:
#
# PCOD8219921 Si02
#       7
#     8   8   8   8   8   8   8
#     4   9  17  30  48  70  97 131 170 213 260 306
#     4  10  20  35  56  79 103 133 172 217 261 307
#     4   9  19  37  59  81 108 141 173 208 255 310
#     4  10  20  35  56  80 105 133 167 208 256 311
#     4  10  20  33  53  80 108 140 177 216 255 301
#     4  10  20  34  51  73 104 139 174 213 258 307
#     4  11  20  30  47  72 102 136 175 217 259 305
#
# _framework density 18.476289999999999
#
# number of rings (size 3 to 8) (size 9 to 14) (size 15 to 20)
#    0.000    2.143    0.000    4.714    0.000    5.429 
#    0.000    1.429    0.000    4.286    0.000    0.000 
#    0.000    0.000    0.000    0.000    0.000    0.000 
#
# Total GULP energy -694353.907439 kJ/mol
# GULP energy per Si atom -12399.176919 kJ/mol
# Density = 1.843424 g / cm^3
# Si number density = 18.476290 Si / 1000 Ang^3
#
#
#
# Elastic Constant Matrix: (Units=GPa)
#
#
# Indices 1 2 3 4 5 6 
#
# 1 103.6661 45.1982 40.1989 0.0000 0.0000 0.0000
# 2 45.1982 95.0077 55.6540 0.0000 0.0000 0.0000
# 3 40.1989 55.6540 101.8032 0.0000 0.0000 0.0000
# 4 0.0000 0.0000 0.0000 22.1657 0.0000 0.0000
# 5 0.0000 0.0000 0.0000 0.0000 32.8174 0.0000
# 6 0.0000 0.0000 0.0000 0.0000 0.0000 32.2331
#
#
#
# Elastic Compliance Matrix: (Units=1/GPa)
#
#
# Indices 1 2 3 4 5 6 
#
# 1 0.012588 -0.004526 -0.002496 0.000000 0.000000 0.000000
# 2 -0.004526 0.017112 -0.007567 0.000000 0.000000 0.000000
# 3 -0.002496 -0.007567 0.014945 0.000000 0.000000 0.000000
# 4 0.000000 0.000000 0.000000 0.045115 0.000000 0.000000
# 5 0.000000 0.000000 0.000000 0.000000 0.030472 0.000000
# 6 0.000000 0.000000 0.000000 0.000000 0.000000 0.031024
#
#
# Mechanical properties :
#
#
# Convention : Reuss Voigt Hill
#
# Bulk Modulus (GPa) = 64.66035 64.73102 64.69568
# Shear Modulus (GPa) = 26.94120 28.07164 27.50642
#
# Velocity S-wave (km/s) = 3.82272 3.90209 3.86261
# Velocity P-wave (km/s) = 7.38624 7.44395 7.41515
#
# Compressibility (1/GPa) = 0.01546543
#
# Stress axis : x y z
#
# Youngs Moduli (GPa) = 79.44275 58.44014 66.91006
#
# Poissons Ratio (x) = 0.26451 0.16701
# Poissons Ratio (y) = 0.35957 0.50633
# Poissons Ratio (z) = 0.19830 0.44224
#
# Static dielectric constant tensor:
#      x y z
#    x 3.500900 0.000000 0.000000 
#    y 0.000000 3.744700 0.000000 
#    z 0.000000 0.000000 3.219680 
# 
# 
# High freq. dielectric constant tensor:
#      x y z
#    x 1.732160 0.000000 0.000000 
#    y 0.000000 1.713990 0.000000 
#    z 0.000000 0.000000 1.695660 
# 
# From -- ./inp_files/20595.got.cif
#   From: 2010.03.12/outbox.cif.g09.slc.cpg/sg53_11_cif.got.tgz:20595.got - 2010.04.16 14:36:59.
