data_PCOD8219566
_publ_section_title
;
Structure prediction by ZEFSAII (Michael W. Deem and Ramdas Pophale) SiO2 
 PCOD8219566
Probable space group: P M N A
;
_chemical_formula_sum "Si O2"
_cell_formula_units_Z 56
_cell_length_a 9.063599
_cell_length_b 14.510297
_cell_length_c 20.366650
_cell_angle_alpha 90.000000
_cell_angle_beta 90.000000
_cell_angle_gamma 90.000000
_cell_volume 2678.530431
_symmetry_space_group_name_H-M "P M N A"
_symmetry_group_IT_number 53
_symmetry_cell_setting 'orthorhombic'
loop_
_space_group_symop_operation_xyz
x,y,z
1/2-x,-y,1/2+z
x,-y,-z
1/2-x,y,1/2-z
-x,-y,-z
1/2+x,y,1/2-z
-x,y,z
1/2+x,-y,1/2+z
loop_
_atom_site_type_symbol
_atom_site_label
_atom_site_fract_x
_atom_site_fract_y
_atom_site_fract_z
Si Si1 0.330238 0.343376 0.357437
Si Si2 0.165068 0.511355 0.306014
Si Si3 0.671903 0.014177 0.076674
Si Si4 0.823674 0.396959 0.487042
Si Si5 0.171127 0.859969 0.316460
Si Si6 0.171657 0.136784 0.182249
Si Si7 0.165739 0.686463 0.386716
O O1 0.500000 0.360847 0.375144
O O2 0.269573 0.422716 0.310809
O O3 0.231705 0.350962 0.421523
O O4 0.306833 0.246067 0.322430
O O5 0.250000 0.570167 0.250000
O O6 0.162689 0.578929 0.367218
O O7 0.000000 0.479991 0.287591
O O8 0.500000 0.041395 0.075999
O O9 0.760063 0.094051 0.115379
O O10 0.701082 0.923208 0.120050
O O11 0.724904 0.000000 0.000000
O O12 0.760528 0.500000 0.500000
O O13 0.763999 0.323171 0.541248
O O14 0.000000 0.400932 0.485850
O O15 0.250000 0.895069 0.250000
O O16 0.241516 0.759912 0.337684
O O17 0.000000 0.855928 0.297996
O O18 0.250000 0.102398 0.250000
O O19 0.000000 0.108910 0.186577
O O20 0.000000 0.725362 0.392415
#
# Coordination Sequence:
#
# PCOD8219566 Si02
#       7
#     8   8   8   8   8   8   8
#     4  11  24  39  57  87 122 159 204 254 307 361
#     4  11  21  36  56  82 116 156 201 247 298 357
#     4  10  23  42  67  98 126 158 202 252 310 373
#     4  10  19  36  60  85 115 161 207 248 303 361
#     4  10  21  39  62  90 123 157 199 247 300 363
#     4  11  25  44  66  92 125 164 208 258 315 374
#     4   9  19  35  57  85 118 155 198 243 294 358
#
# _framework density 20.906987999999998
#
# number of rings (size 3 to 8) (size 9 to 14) (size 15 to 20)
#    0.000    1.714    1.429    2.571    2.000    5.714 
#    0.000    1.429    0.000    0.000    0.000    0.000 
#    0.000    0.000    0.000    0.000    0.000    0.000 
#
# Total GULP energy -693770.989758 kJ/mol
# GULP energy per Si atom -12388.767674 kJ/mol
# Density = 2.085940 g / cm^3
# Si number density = 20.906988 Si / 1000 Ang^3
#
#
#
# Elastic Constant Matrix: (Units=GPa)
#
#
# Indices 1 2 3 4 5 6 
#
# 1 50.8341 34.4179 35.8531 0.0000 0.0000 0.0000
# 2 34.4179 81.8930 26.8571 0.0000 0.0000 0.0000
# 3 35.8531 26.8571 149.3990 0.0000 0.0000 0.0000
# 4 0.0000 0.0000 0.0000 27.2109 0.0000 0.0000
# 5 0.0000 0.0000 0.0000 0.0000 33.2369 0.0000
# 6 0.0000 0.0000 0.0000 0.0000 0.0000 22.5947
#
#
#
# Elastic Compliance Matrix: (Units=1/GPa)
#
#
# Indices 1 2 3 4 5 6 
#
# 1 0.031175 -0.011316 -0.005447 0.000000 0.000000 0.000000
# 2 -0.011316 0.017083 -0.000355 0.000000 0.000000 0.000000
# 3 -0.005447 -0.000355 0.008065 0.000000 0.000000 0.000000
# 4 0.000000 0.000000 0.000000 0.036750 0.000000 0.000000
# 5 0.000000 0.000000 0.000000 0.000000 0.030087 0.000000
# 6 0.000000 0.000000 0.000000 0.000000 0.000000 0.044258
#
#
# Mechanical properties :
#
#
# Convention : Reuss Voigt Hill
#
# Bulk Modulus (GPa) = 45.27716 52.93138 49.10427
# Shear Modulus (GPa) = 23.92138 28.94169 26.43153
#
# Velocity S-wave (km/s) = 3.38624 3.72466 3.55948
# Velocity P-wave (km/s) = 6.08213 6.62344 6.35855
#
# Compressibility (1/GPa) = 0.02208619
#
# Stress axis : x y z
#
# Youngs Moduli (GPa) = 32.07661 58.53622 123.99811
#
# Poissons Ratio (x) = 0.66239 0.67546
# Poissons Ratio (y) = 0.36298 0.04407
# Poissons Ratio (z) = 0.17473 0.02081
#
# Static dielectric constant tensor:
#      x y z
#    x 3.636220 0.000000 0.000000 
#    y 0.000000 4.077070 0.000000 
#    z 0.000000 0.000000 3.933740 
# 
# 
# High freq. dielectric constant tensor:
#      x y z
#    x 1.793980 0.000000 0.000000 
#    y 0.000000 1.819870 0.000000 
#    z 0.000000 0.000000 1.840110 
# 
# From -- ./inp_files/30760.got.cif
#   From: 2010.03.12/outbox.cif.g09.slc.cpg/sg53_16_cif.got.tgz:30760.got - 2010.04.16 14:36:59.
