data_PCOD8219097
_publ_section_title
;
Structure prediction by ZEFSAII (Michael W. Deem and Ramdas Pophale) SiO2 
 PCOD8219097
Probable space group: P M N A
;
_chemical_formula_sum "Si O2"
_cell_formula_units_Z 48
_cell_length_a 23.832274
_cell_length_b 5.005971
_cell_length_c 21.505864
_cell_angle_alpha 90.000000
_cell_angle_beta 90.000000
_cell_angle_gamma 90.000000
_cell_volume 2565.728556
_symmetry_space_group_name_H-M "P M N A"
_symmetry_group_IT_number 53
_symmetry_cell_setting 'orthorhombic'
loop_
_space_group_symop_operation_xyz
x,y,z
1/2-x,-y,1/2+z
x,-y,-z
1/2-x,y,1/2-z
-x,-y,-z
1/2+x,y,1/2-z
-x,y,z
1/2+x,-y,1/2+z
loop_
_atom_site_type_symbol
_atom_site_label
_atom_site_fract_x
_atom_site_fract_y
_atom_site_fract_z
Si Si1 0.936504 0.089073 0.733171
Si Si2 0.063884 0.574767 0.654950
Si Si3 0.763214 0.247200 0.041241
Si Si4 0.119553 0.378585 0.069200
Si Si5 0.066660 0.877514 0.128116
Si Si6 0.640483 0.245892 0.042849
O O1 0.908904 0.304084 0.684869
O O2 0.910596 0.068920 0.802114
O O3 0.000000 0.193272 0.740007
O O4 0.933111 0.791582 0.708730
O O5 0.098117 0.692536 0.597768
O O6 0.000000 0.526651 0.631913
O O7 0.814877 0.320387 0.086957
O O8 0.702638 0.177718 0.072248
O O9 0.749749 0.500000 0.000000
O O10 0.784934 0.000000 0.000000
O O11 0.093493 0.591961 0.114972
O O12 0.086448 0.101525 0.078946
O O13 0.114210 0.500000 0.000000
O O14 0.000000 0.859091 0.123448
O O15 0.642791 0.500000 0.000000
O O16 0.619371 0.000000 0.000000
#
# Coordination Sequence:
#
# PCOD8219097 Si02
#       6
#     8   8   8   8   8   8
#     4   9  19  35  52  71  98 139 179 202 239 305
#     4  10  19  33  54  77 104 136 169 208 251 299
#     4   9  18  34  52  71  99 137 174 199 237 306
#     4  11  21  34  53  76 103 134 167 211 263 309
#     4  11  22  35  53  76 103 134 170 213 257 306
#     4  10  20  33  53  80 106 133 166 208 255 301
#
# _framework density 18.708137000000001
#
# number of rings (size 3 to 8) (size 9 to 14) (size 15 to 20)
#    0.000    2.000    0.000    5.000    0.000    5.333 
#    0.000    0.000    0.000    6.000    0.000    0.000 
#    0.000    0.000    0.000    0.000    0.000    0.000 
#
# Total GULP energy -594746.330216 kJ/mol
# GULP energy per Si atom -12390.548546 kJ/mol
# Density = 1.866556 g / cm^3
# Si number density = 18.708137 Si / 1000 Ang^3
#
#
#
# Elastic Constant Matrix: (Units=GPa)
#
#
# Indices 1 2 3 4 5 6 
#
# 1 95.0440 17.8785 38.8158 0.0000 0.0000 0.0000
# 2 17.8785 89.4250 4.0714 0.0000 0.0000 0.0000
# 3 38.8158 4.0714 64.6999 0.0000 0.0000 0.0000
# 4 0.0000 0.0000 0.0000 29.0146 0.0000 0.0000
# 5 0.0000 0.0000 0.0000 0.0000 -8.0001 0.0000
# 6 0.0000 0.0000 0.0000 0.0000 0.0000 25.0504
#
#
#
# Elastic Compliance Matrix: (Units=1/GPa)
#
#
# Indices 1 2 3 4 5 6 
#
# 1 0.014475 -0.002506 -0.008526 0.000000 0.000000 0.000000
# 2 -0.002506 0.011648 0.000770 0.000000 0.000000 0.000000
# 3 -0.008526 0.000770 0.020523 0.000000 0.000000 0.000000
# 4 0.000000 0.000000 0.000000 0.034465 0.000000 0.000000
# 5 0.000000 0.000000 0.000000 0.000000 -0.124999 0.000000
# 6 0.000000 0.000000 0.000000 0.000000 0.000000 0.039919
#
#
# Mechanical properties :
#
#
# Convention : Reuss Voigt Hill
#
# Bulk Modulus (GPa) = 38.28116 41.18894 39.73505
# Shear Modulus (GPa) = 197.91400 21.77320 109.84360
#
# Velocity S-wave (km/s) = 10.29660 3.41520 7.67084
# Velocity P-wave (km/s) = 12.72269 6.13318 9.98706
#
# Compressibility (1/GPa) = 0.02612251
#
# Stress axis : x y z
#
# Youngs Moduli (GPa) = 69.08489 85.84834 48.72635
#
# Poissons Ratio (x) = 0.21511 0.41546
# Poissons Ratio (y) = 0.17311 -0.03753
# Poissons Ratio (z) = 0.58904 -0.06613
#
# Static dielectric constant tensor:
#      x y z
#    x 3.650040 0.000000 0.000000 
#    y 0.000000 3.659120 0.000000 
#    z 0.000000 0.000000 3.259200 
# 
# 
# High freq. dielectric constant tensor:
#      x y z
#    x 1.712630 0.000000 0.000000 
#    y 0.000000 1.754730 0.000000 
#    z 0.000000 0.000000 1.699470 
# 
# From -- ./inp_files/33144.got.cif
#   From: 2010.03.12/outbox.cif.g09.slc.cpg/sg53_17_cif.got.tgz:33144.got - 2010.04.16 14:36:59.
