data_PCOD8219220
_publ_section_title
;
Structure prediction by ZEFSAII (Michael W. Deem and Ramdas Pophale) SiO2 
 PCOD8219220
Probable space group: P M N A
;
_chemical_formula_sum "Si O2"
_cell_formula_units_Z 48
_cell_length_a 15.091400
_cell_length_b 5.380598
_cell_length_c 29.630844
_cell_angle_alpha 90.000000
_cell_angle_beta 90.000000
_cell_angle_gamma 90.000000
_cell_volume 2406.046953
_symmetry_space_group_name_H-M "P M N A"
_symmetry_group_IT_number 53
_symmetry_cell_setting 'orthorhombic'
loop_
_space_group_symop_operation_xyz
x,y,z
1/2-x,-y,1/2+z
x,-y,-z
1/2-x,y,1/2-z
-x,-y,-z
1/2+x,y,1/2-z
-x,y,z
1/2+x,-y,1/2+z
loop_
_atom_site_type_symbol
_atom_site_label
_atom_site_fract_x
_atom_site_fract_y
_atom_site_fract_z
Si Si1 0.500000 0.482690 0.829483
Si Si2 0.601955 0.998012 0.946676
Si Si3 0.813809 0.499431 0.834016
Si Si4 0.855776 0.999468 0.802710
Si Si5 0.000000 0.982606 0.727727
Si Si6 0.157068 0.501483 0.399334
Si Si7 0.000000 0.499125 0.880073
Si Si8 0.500000 0.000933 0.379059
O O1 0.500000 0.212699 0.806484
O O2 0.412643 0.503591 0.859169
O O3 0.500000 0.712987 0.795290
O O4 0.500000 0.998159 0.930887
O O5 0.647626 0.248073 0.928499
O O6 0.647724 0.746381 0.929272
O O7 0.610505 0.000000 0.000000
O O8 0.795074 0.749493 0.804479
O O9 0.755276 0.499504 0.879033
O O10 0.917591 0.499116 0.846107
O O11 0.794937 0.249117 0.804572
O O12 0.913705 0.998628 0.848125
O O13 0.912100 0.002636 0.757403
O O14 0.000000 0.750534 0.910219
O O15 0.000000 0.247640 0.910194
#
# Coordination Sequence:
#
# PCOD8219220 Si02
#       8
#     4   8   8   8   4   8   4   4
#     4  12  24  39  53  82 118 162 194 250 319 354
#     4  11  22  41  67  92 118 154 191 233 289 365
#     4  10  19  33  58  84 114 150 196 253 292 333
#     4   9  17  33  51  76 102 148 204 245 281 332
#     4  11  22  38  60  76 115 168 209 254 304 338
#     4  12  23  40  60  92 125 151 190 245 301 363
#     4   8  14  27  46  76 103 136 184 228 276 322
#     4   7  12  22  44  64  92 124 171 236 275 298
#
# _framework density 19.949733999999999
#
# number of rings (size 3 to 8) (size 9 to 14) (size 15 to 20)
#    0.000    1.833    1.667    4.500    0.000    2.667 
#    0.000    5.000    0.000    0.000    0.000    3.500 
#    0.000    0.000    0.000    0.000    0.000    0.000 
#
# Total GULP energy -594649.788718 kJ/mol
# GULP energy per Si atom -12388.537265 kJ/mol
# Density = 1.990433 g / cm^3
# Si number density = 19.949734 Si / 1000 Ang^3
#
#
#
# Elastic Constant Matrix: (Units=GPa)
#
#
# Indices 1 2 3 4 5 6 
#
# 1 60.3374 16.1195 28.4601 0.0000 0.0000 0.0000
# 2 16.1195 245.6738 34.9940 0.0000 0.0000 0.0000
# 3 28.4601 34.9940 63.1721 0.0000 0.0000 0.0000
# 4 0.0000 0.0000 0.0000 37.6559 0.0000 0.0000
# 5 0.0000 0.0000 0.0000 0.0000 -22.4800 0.0000
# 6 0.0000 0.0000 0.0000 0.0000 0.0000 14.1666
#
#
#
# Elastic Compliance Matrix: (Units=1/GPa)
#
#
# Indices 1 2 3 4 5 6 
#
# 1 0.021046 -0.000033 -0.009463 0.000000 0.000000 0.000000
# 2 -0.000033 0.004419 -0.002433 0.000000 0.000000 0.000000
# 3 -0.009463 -0.002433 0.021441 0.000000 0.000000 0.000000
# 4 0.000000 0.000000 0.000000 0.026556 0.000000 0.000000
# 5 0.000000 0.000000 0.000000 0.000000 -0.044484 0.000000
# 6 0.000000 0.000000 0.000000 0.000000 0.000000 0.070589
#
#
# Mechanical properties :
#
#
# Convention : Reuss Voigt Hill
#
# Bulk Modulus (GPa) = 43.38901 58.70342 51.04621
# Shear Modulus (GPa) = 38.13640 25.17581 31.65610
#
# Velocity S-wave (km/s) = 4.37696 3.55626 3.98778
# Velocity P-wave (km/s) = 6.88041 6.80825 6.84442
#
# Compressibility (1/GPa) = 0.02304731
#
# Stress axis : x y z
#
# Youngs Moduli (GPa) = 47.51504 226.28633 46.63956
#
# Poissons Ratio (x) = 0.00745 0.44137
# Poissons Ratio (y) = 0.00156 0.11348
# Poissons Ratio (z) = 0.44965 0.55059
#
# Static dielectric constant tensor:
#      x y z
#    x 3.628830 0.000000 0.000000 
#    y 0.000000 5.196150 0.000000 
#    z 0.000000 0.000000 3.169330 
# 
# 
# High freq. dielectric constant tensor:
#      x y z
#    x 1.764750 0.000000 0.000000 
#    y 0.000000 1.830190 0.000000 
#    z 0.000000 0.000000 1.726640 
# 
# From -- ./inp_files/35512.got.cif
#   From: 2010.03.12/outbox.cif.g09.slc.cpg/sg53_18_cif.got.tgz:35512.got - 2010.04.16 14:36:59.
