data_PCOD8219052
_publ_section_title
;
Structure prediction by ZEFSAII (Michael W. Deem and Ramdas Pophale) SiO2 
 PCOD8219052
Probable space group: P M N A
;
_chemical_formula_sum "Si O2"
_cell_formula_units_Z 64
_cell_length_a 9.338632
_cell_length_b 15.049071
_cell_length_c 23.809214
_cell_angle_alpha 90.000000
_cell_angle_beta 90.000000
_cell_angle_gamma 90.000000
_cell_volume 3346.093032
_symmetry_space_group_name_H-M "P M N A"
_symmetry_group_IT_number 53
_symmetry_cell_setting 'orthorhombic'
loop_
_space_group_symop_operation_xyz
x,y,z
1/2-x,-y,1/2+z
x,-y,-z
1/2-x,y,1/2-z
-x,-y,-z
1/2+x,y,1/2-z
-x,y,z
1/2+x,-y,1/2+z
loop_
_atom_site_type_symbol
_atom_site_label
_atom_site_fract_x
_atom_site_fract_y
_atom_site_fract_z
Si Si1 0.162176 0.629909 0.489262
Si Si2 0.662653 0.834513 0.003796
Si Si3 0.165386 0.891269 0.375576
Si Si4 0.164937 0.814964 0.896538
Si Si5 0.165551 0.281342 0.694720
Si Si6 0.832116 0.037577 0.191817
Si Si7 0.334330 0.454094 0.869586
Si Si8 0.331161 0.613645 0.597766
O O1 0.186837 0.733333 0.477787
O O2 0.192884 0.577864 0.432653
O O3 0.271903 0.594105 0.535591
O O4 0.000000 0.612169 0.510579
O O5 0.500000 0.852563 0.986201
O O6 0.703270 0.893673 0.058056
O O7 0.755482 0.859486 0.949477
O O8 0.191829 0.792211 0.352800
O O9 0.000000 0.919414 0.365578
O O10 0.272246 0.957005 0.344616
O O11 0.196582 0.870579 0.840686
O O12 0.214468 0.713727 0.884638
O O13 0.000000 0.816638 0.913324
O O14 0.250000 0.253240 0.750000
O O15 0.219527 0.376864 0.672238
O O16 0.000000 0.286727 0.710715
O O17 0.750000 0.043514 0.250000
O O18 0.000000 0.021499 0.202744
O O19 0.500000 0.475665 0.858725
O O20 0.241871 0.543568 0.859303
O O21 0.500000 0.599623 0.599138
#
# Coordination Sequence:
#
# PCOD8219052 Si02
#       8
#     8   8   8   8   8   8   8   8
#     4   9  16  30  51  76 108 147 182 215 261 319
#     4   9  17  32  57  86 115 149 185 221 267 328
#     4  10  20  37  60  87 117 145 180 226 274 330
#     4   9  21  40  57  78 114 150 181 228 285 334
#     4  10  21  37  55  77 110 148 185 226 274 326
#     4  11  24  42  62  83 107 142 187 233 282 333
#     4  10  19  33  52  75 106 145 184 221 264 319
#     4  10  20  33  51  78 110 141 178 226 274 320
#
# _framework density 19.126785000000002
#
# number of rings (size 3 to 8) (size 9 to 14) (size 15 to 20)
#    0.000    2.250    1.250    1.500    0.000    6.500 
#    0.000    3.125    0.000    3.000    0.000    0.000 
#    0.000    0.000    0.000    0.000    0.000    0.000 
#
# Total GULP energy -793607.494506 kJ/mol
# GULP energy per Si atom -12400.117102 kJ/mol
# Density = 1.908325 g / cm^3
# Si number density = 19.126785 Si / 1000 Ang^3
#
#
#
# Elastic Constant Matrix: (Units=GPa)
#
#
# Indices 1 2 3 4 5 6 
#
# 1 73.2222 39.2303 27.7222 0.0000 0.0000 0.0000
# 2 39.2303 64.9035 28.7920 0.0000 0.0000 0.0000
# 3 27.7222 28.7920 25.3128 0.0000 0.0000 0.0000
# 4 0.0000 0.0000 0.0000 25.7264 0.0000 0.0000
# 5 0.0000 0.0000 0.0000 0.0000 26.7022 0.0000
# 6 0.0000 0.0000 0.0000 0.0000 0.0000 33.5156
#
#
#
# Elastic Compliance Matrix: (Units=1/GPa)
#
#
# Indices 1 2 3 4 5 6 
#
# 1 0.024379 -0.005836 -0.020061 0.000000 0.000000 0.000000
# 2 -0.005836 0.032498 -0.030572 0.000000 0.000000 0.000000
# 3 -0.020061 -0.030572 0.096251 0.000000 0.000000 0.000000
# 4 0.000000 0.000000 0.000000 0.038871 0.000000 0.000000
# 5 0.000000 0.000000 0.000000 0.000000 0.037450 0.000000
# 6 0.000000 0.000000 0.000000 0.000000 0.000000 0.029837
#
#
# Mechanical properties :
#
#
# Convention : Reuss Voigt Hill
#
# Bulk Modulus (GPa) = 24.88314 39.43641 32.15977
# Shear Modulus (GPa) = 12.96608 21.70178 17.33393
#
# Velocity S-wave (km/s) = 2.60648 3.37208 3.01369
# Velocity P-wave (km/s) = 4.70065 5.98535 5.38147
#
# Compressibility (1/GPa) = 0.04018786
#
# Stress axis : x y z
#
# Youngs Moduli (GPa) = 41.01840 30.77154 10.38949
#
# Poissons Ratio (x) = 0.17960 0.20843
# Poissons Ratio (y) = 0.23940 0.31763
# Poissons Ratio (z) = 0.82288 0.94076
#
# Static dielectric constant tensor:
#      x y z
#    x 3.464310 0.000000 0.000000 
#    y 0.000000 3.709640 0.000000 
#    z 0.000000 0.000000 3.449780 
# 
# 
# High freq. dielectric constant tensor:
#      x y z
#    x 1.737490 0.000000 0.000000 
#    y 0.000000 1.751820 0.000000 
#    z 0.000000 0.000000 1.728510 
# 
# From -- ./inp_files/34273.got.cif
#   From: 2010.03.12/outbox.cif.g09.slc.cpg/sg53_18_cif.got.tgz:34273.got - 2010.04.16 14:36:59.
