data_PCOD8219904
_publ_section_title
;
Structure prediction by ZEFSAII (Michael W. Deem and Ramdas Pophale) SiO2 
 PCOD8219904
Probable space group: P M N A
;
_chemical_formula_sum "Si O2"
_cell_formula_units_Z 48
_cell_length_a 9.231812
_cell_length_b 15.248332
_cell_length_c 17.874813
_cell_angle_alpha 90.000000
_cell_angle_beta 90.000000
_cell_angle_gamma 90.000000
_cell_volume 2516.232677
_symmetry_space_group_name_H-M "P M N A"
_symmetry_group_IT_number 53
_symmetry_cell_setting 'orthorhombic'
loop_
_space_group_symop_operation_xyz
x,y,z
1/2-x,-y,1/2+z
x,-y,-z
1/2-x,y,1/2-z
-x,-y,-z
1/2+x,y,1/2-z
-x,y,z
1/2+x,-y,1/2+z
loop_
_atom_site_type_symbol
_atom_site_label
_atom_site_fract_x
_atom_site_fract_y
_atom_site_fract_z
Si Si1 0.331641 0.022013 0.584624
Si Si2 0.330706 0.846903 0.672603
Si Si3 0.159670 0.499036 0.089062
Si Si4 0.170822 0.690733 0.933460
Si Si5 0.167029 0.836748 0.326433
Si Si6 0.666164 0.664120 0.085515
O O1 0.500000 0.047781 0.591059
O O2 0.292520 0.939920 0.636592
O O3 0.290074 0.000000 0.500000
O O4 0.235009 0.103883 0.608723
O O5 0.250000 0.836668 0.750000
O O6 0.500000 0.836731 0.687577
O O7 0.275728 0.770853 0.617183
O O8 0.208729 0.400077 0.110646
O O9 0.270008 0.572882 0.118378
O O10 0.000000 0.519901 0.121818
O O11 0.154610 0.500000 0.000000
O O12 0.000000 0.695509 0.950639
O O13 0.250900 0.697357 0.012415
O O14 0.250000 0.855011 0.250000
O O15 0.183346 0.735604 0.349483
O O16 0.000000 0.862935 0.315320
O O17 0.500000 0.648550 0.063729
#
# Coordination Sequence:
#
# PCOD8219904 Si02
#       6
#     8   8   8   8   8   8
#     4  10  21  38  61  85 107 137 176 217 264 317
#     4  10  21  36  54  78 108 140 174 212 257 311
#     4   8  15  29  51  77 104 137 175 215 260 309
#     4   9  18  34  55  78 105 140 180 216 256 313
#     4  11  24  39  55  78 109 144 180 220 268 319
#     4  10  20  33  52  80 108 135 174 223 269 310
#
# _framework density 19.076136999999999
#
# number of rings (size 3 to 8) (size 9 to 14) (size 15 to 20)
#    0.000    2.333    0.000    3.500    0.000   10.000 
#    0.000    0.833    0.000    4.000    0.000    0.000 
#    0.000    0.000    0.000    0.000    0.000    0.000 
#
# Total GULP energy -595237.579367 kJ/mol
# GULP energy per Si atom -12400.782903 kJ/mol
# Density = 1.903272 g / cm^3
# Si number density = 19.076137 Si / 1000 Ang^3
#
#
#
# Elastic Constant Matrix: (Units=GPa)
#
#
# Indices 1 2 3 4 5 6 
#
# 1 87.6726 42.1482 36.4788 0.0000 0.0000 0.0000
# 2 42.1482 85.0595 10.7500 0.0000 0.0000 0.0000
# 3 36.4788 10.7500 60.9402 0.0000 0.0000 0.0000
# 4 0.0000 0.0000 0.0000 17.1292 0.0000 0.0000
# 5 0.0000 0.0000 0.0000 0.0000 6.8120 0.0000
# 6 0.0000 0.0000 0.0000 0.0000 0.0000 27.4545
#
#
#
# Elastic Compliance Matrix: (Units=1/GPa)
#
#
# Indices 1 2 3 4 5 6 
#
# 1 0.019802 -0.008504 -0.010353 0.000000 0.000000 0.000000
# 2 -0.008504 0.015676 0.002325 0.000000 0.000000 0.000000
# 3 -0.010353 0.002325 0.022197 0.000000 0.000000 0.000000
# 4 0.000000 0.000000 0.000000 0.058380 0.000000 0.000000
# 5 0.000000 0.000000 0.000000 0.000000 0.146801 0.000000
# 6 0.000000 0.000000 0.000000 0.000000 0.000000 0.036424
#
#
# Mechanical properties :
#
#
# Convention : Reuss Voigt Hill
#
# Bulk Modulus (GPa) = 40.63220 45.82516 43.22868
# Shear Modulus (GPa) = 14.68221 19.89880 17.29051
#
# Velocity S-wave (km/s) = 2.77729 3.23325 3.01391
# Velocity P-wave (km/s) = 5.62412 6.16546 5.90100
#
# Compressibility (1/GPa) = 0.02461102
#
# Stress axis : x y z
#
# Youngs Moduli (GPa) = 50.49976 63.79027 45.05119
#
# Poissons Ratio (x) = 0.54246 0.46644
# Poissons Ratio (y) = 0.42944 -0.10474
# Poissons Ratio (z) = 0.52285 -0.14831
#
# Static dielectric constant tensor:
#      x y z
#    x 3.485750 0.000000 0.000000 
#    y 0.000000 4.087610 0.000000 
#    z 0.000000 0.000000 3.190010 
# 
# 
# High freq. dielectric constant tensor:
#      x y z
#    x 1.738760 0.000000 0.000000 
#    y 0.000000 1.760970 0.000000 
#    z 0.000000 0.000000 1.717160 
# 
# From -- ./inp_files/30498.got.cif
#   From: 2010.03.12/outbox.cif.g09.slc.cpg/sg53_16_cif.got.tgz:30498.got - 2010.04.16 14:36:59.
