data_PCOD8219489
_publ_section_title
;
Structure prediction by ZEFSAII (Michael W. Deem and Ramdas Pophale) SiO2 
 PCOD8219489
Probable space group: P M N A
;
_chemical_formula_sum "Si O2"
_cell_formula_units_Z 48
_cell_length_a 8.809572
_cell_length_b 14.467506
_cell_length_c 20.406035
_cell_angle_alpha 90.000000
_cell_angle_beta 90.000000
_cell_angle_gamma 90.000000
_cell_volume 2600.800906
_symmetry_space_group_name_H-M "P M N A"
_symmetry_group_IT_number 53
_symmetry_cell_setting 'orthorhombic'
loop_
_space_group_symop_operation_xyz
x,y,z
1/2-x,-y,1/2+z
x,-y,-z
1/2-x,y,1/2-z
-x,-y,-z
1/2+x,y,1/2-z
-x,y,z
1/2+x,-y,1/2+z
loop_
_atom_site_type_symbol
_atom_site_label
_atom_site_fract_x
_atom_site_fract_y
_atom_site_fract_z
Si Si1 0.178341 0.747940 0.374521
Si Si2 0.320079 0.566318 0.318346
Si Si3 0.324847 0.251069 0.486073
Si Si4 0.321411 0.446886 0.437546
Si Si5 0.324367 0.948223 0.565047
Si Si6 0.321556 0.945131 0.180615
O O1 0.268332 0.668828 0.336888
O O2 0.219124 0.750332 0.450742
O O3 0.231381 0.843764 0.342067
O O4 0.000000 0.731162 0.366480
O O5 0.250000 0.534812 0.250000
O O6 0.500000 0.565415 0.313078
O O7 0.256444 0.492911 0.371542
O O8 0.500000 0.258023 0.509480
O O9 0.279893 0.338637 0.441071
O O10 0.297443 0.160927 0.442410
O O11 0.249858 0.500000 0.500000
O O12 0.500000 0.462864 0.437810
O O13 0.500000 0.973162 0.576327
O O14 0.264225 0.000000 0.500000
O O15 0.230406 0.979861 0.627622
O O16 0.250000 0.970811 0.250000
O O17 0.500000 0.950838 0.187471
#
# Coordination Sequence:
#
# PCOD8219489 Si02
#       6
#     8   8   8   8   8   8
#     4  11  22  35  55  86 117 147 182 230 286 334
#     4  11  22  37  57  81 113 148 186 228 278 337
#     4  10  19  35  59  86 114 147 188 230 274 331
#     4   9  17  33  58  83 108 147 188 224 270 326
#     4  10  20  35  59  87 114 148 189 231 277 334
#     4  11  24  39  57  81 115 152 188 232 283 339
#
# _framework density 18.455853999999999
#
# number of rings (size 3 to 8) (size 9 to 14) (size 15 to 20)
#    0.000    1.667    3.333    2.000    0.000    4.333 
#    0.000    3.333    0.000    2.000    0.000    0.000 
#    0.000    0.000    0.000    0.000    0.000    0.000 
#
# Total GULP energy -595364.775329 kJ/mol
# GULP energy per Si atom -12403.432819 kJ/mol
# Density = 1.841385 g / cm^3
# Si number density = 18.455854 Si / 1000 Ang^3
#
#
#
# Elastic Constant Matrix: (Units=GPa)
#
#
# Indices 1 2 3 4 5 6 
#
# 1 49.5110 30.0648 38.7922 0.0000 0.0000 0.0000
# 2 30.0648 135.3041 70.1238 0.0000 0.0000 0.0000
# 3 38.7922 70.1238 156.4104 0.0000 0.0000 0.0000
# 4 0.0000 0.0000 0.0000 8.8310 0.0000 0.0000
# 5 0.0000 0.0000 0.0000 0.0000 33.7968 0.0000
# 6 0.0000 0.0000 0.0000 0.0000 0.0000 17.0414
#
#
#
# Elastic Compliance Matrix: (Units=1/GPa)
#
#
# Indices 1 2 3 4 5 6 
#
# 1 0.026080 -0.003182 -0.005042 0.000000 0.000000 0.000000
# 2 -0.003182 0.010016 -0.003701 0.000000 0.000000 0.000000
# 3 -0.005042 -0.003701 0.009303 0.000000 0.000000 0.000000
# 4 0.000000 0.000000 0.000000 0.113238 0.000000 0.000000
# 5 0.000000 0.000000 0.000000 0.000000 0.029589 0.000000
# 6 0.000000 0.000000 0.000000 0.000000 0.000000 0.058681
#
#
# Mechanical properties :
#
#
# Convention : Reuss Voigt Hill
#
# Bulk Modulus (GPa) = 46.40536 68.79859 57.60198
# Shear Modulus (GPa) = 17.98953 25.41683 21.70318
#
# Velocity S-wave (km/s) = 3.12546 3.71505 3.43293
# Velocity P-wave (km/s) = 6.18249 7.46729 6.85506
#
# Compressibility (1/GPa) = 0.02154923
#
# Stress axis : x y z
#
# Youngs Moduli (GPa) = 38.34369 99.83915 107.48923
#
# Poissons Ratio (x) = 0.31770 0.54192
# Poissons Ratio (y) = 0.12201 0.39785
# Poissons Ratio (z) = 0.19331 0.36954
#
# Static dielectric constant tensor:
#      x y z
#    x 3.239820 0.000000 0.000000 
#    y 0.000000 3.553080 0.000000 
#    z 0.000000 0.000000 3.518110 
# 
# 
# High freq. dielectric constant tensor:
#      x y z
#    x 1.702250 0.000000 0.000000 
#    y 0.000000 1.720890 0.000000 
#    z 0.000000 0.000000 1.715640 
# 
# From -- ./inp_files/26181.got.cif
#   From: 2010.03.12/outbox.cif.g09.slc.cpg/sg53_14_cif.got.tgz:26181.got - 2010.04.16 14:36:59.
