data_PCOD8219280
_publ_section_title
;
Structure prediction by ZEFSAII (Michael W. Deem and Ramdas Pophale) SiO2 
 PCOD8219280
Probable space group: P M N A
;
_chemical_formula_sum "Si O2"
_cell_formula_units_Z 64
_cell_length_a 8.752976
_cell_length_b 20.393468
_cell_length_c 19.278301
_cell_angle_alpha 90.000000
_cell_angle_beta 90.000000
_cell_angle_gamma 90.000000
_cell_volume 3441.244896
_symmetry_space_group_name_H-M "P M N A"
_symmetry_group_IT_number 53
_symmetry_cell_setting 'orthorhombic'
loop_
_space_group_symop_operation_xyz
x,y,z
1/2-x,-y,1/2+z
x,-y,-z
1/2-x,y,1/2-z
-x,-y,-z
1/2+x,y,1/2-z
-x,y,z
1/2+x,-y,1/2+z
loop_
_atom_site_type_symbol
_atom_site_label
_atom_site_fract_x
_atom_site_fract_y
_atom_site_fract_z
Si Si1 0.676007 0.931652 0.961722
Si Si2 0.681052 0.565766 0.033916
Si Si3 0.820381 0.186051 0.957130
Si Si4 0.179881 0.768701 0.321249
Si Si5 0.177865 0.102494 0.176811
Si Si6 0.178080 0.744289 0.822714
Si Si7 0.680295 0.618224 0.178494
Si Si8 0.319959 0.696974 0.957755
O O1 0.500000 0.909367 0.959761
O O2 0.738453 0.938302 0.883396
O O3 0.774732 0.878869 0.002429
O O4 0.697138 0.000000 0.000000
O O5 0.500000 0.560205 0.037042
O O6 0.741769 0.576349 0.112758
O O7 0.752206 0.500000 0.000000
O O8 0.729758 0.626178 0.985742
O O9 0.742892 0.185465 0.881966
O O10 0.000000 0.187659 0.948043
O O11 0.769063 0.249343 0.998894
O O12 0.250000 0.795482 0.250000
O O13 0.231129 0.693451 0.333662
O O14 0.000000 0.775504 0.318378
O O15 0.250000 0.081655 0.250000
O O16 0.205130 0.179197 0.161865
O O17 0.000000 0.084828 0.177833
O O18 0.250000 0.723925 0.750000
O O19 0.268969 0.701184 0.878305
O O20 0.000000 0.726610 0.823983
O O21 0.750000 0.590196 0.250000
O O22 0.500000 0.613421 0.184702
O O23 0.500000 0.709070 0.965988
#
# Coordination Sequence:
#
# PCOD8219280 Si02
#       8
#     8   8   8   8   8   8   8   8
#     4  11  24  41  61  86 117 153 192 236 284 338
#     4   9  18  34  55  80 111 149 192 232 281 342
#     4  12  23  36  57  85 115 150 188 233 282 335
#     4  10  19  34  55  84 115 146 186 236 289 341
#     4  10  20  35  58  86 116 151 189 234 282 338
#     4  10  20  34  54  84 115 148 187 234 286 339
#     4   9  17  31  52  79 106 141 184 229 279 336
#     4  11  20  34  57  83 112 148 187 236 285 333
#
# _framework density 18.597920999999999
#
# number of rings (size 3 to 8) (size 9 to 14) (size 15 to 20)
#    0.000    1.750    2.500    3.000    0.000    2.500 
#    0.000    1.250    0.000    7.875    0.000    0.000 
#    0.000    0.000    0.000    0.000    0.000    0.000 
#
# Total GULP energy -793791.049845 kJ/mol
# GULP energy per Si atom -12402.985154 kJ/mol
# Density = 1.855559 g / cm^3
# Si number density = 18.597921 Si / 1000 Ang^3
#
#
#
# Elastic Constant Matrix: (Units=GPa)
#
#
# Indices 1 2 3 4 5 6 
#
# 1 69.7066 22.9246 40.7911 0.0000 0.0000 0.0000
# 2 22.9246 63.2277 44.4094 0.0000 0.0000 0.0000
# 3 40.7911 44.4094 163.6412 0.0000 0.0000 0.0000
# 4 0.0000 0.0000 0.0000 29.2666 0.0000 0.0000
# 5 0.0000 0.0000 0.0000 0.0000 38.5485 0.0000
# 6 0.0000 0.0000 0.0000 0.0000 0.0000 -3.6666
#
#
#
# Elastic Compliance Matrix: (Units=1/GPa)
#
#
# Indices 1 2 3 4 5 6 
#
# 1 0.017608 -0.004079 -0.003282 0.000000 0.000000 0.000000
# 2 -0.004079 0.020485 -0.004543 0.000000 0.000000 0.000000
# 3 -0.003282 -0.004543 0.008162 0.000000 0.000000 0.000000
# 4 0.000000 0.000000 0.000000 0.034169 0.000000 0.000000
# 5 0.000000 0.000000 0.000000 0.000000 0.025941 0.000000
# 6 0.000000 0.000000 0.000000 0.000000 0.000000 -0.272736
#
#
# Mechanical properties :
#
#
# Convention : Reuss Voigt Hill
#
# Bulk Modulus (GPa) = 44.54774 56.98064 50.76419
# Shear Modulus (GPa) = -37.01495 25.39305 -5.81095
#
# Velocity S-wave (km/s) = -4.46609 3.69910 -1.76955
# Velocity P-wave (km/s) = 1.60920 6.99637 4.81454
#
# Compressibility (1/GPa) = 0.02244783
#
# Stress axis : x y z
#
# Youngs Moduli (GPa) = 56.79250 48.81534 122.52048
#
# Poissons Ratio (x) = 0.19911 0.40214
# Poissons Ratio (y) = 0.23165 0.55657
# Poissons Ratio (z) = 0.18641 0.22175
#
# Static dielectric constant tensor:
#      x y z
#    x 3.404320 0.000000 0.000000 
#    y 0.000000 3.462620 0.000000 
#    z 0.000000 0.000000 3.754860 
# 
# 
# High freq. dielectric constant tensor:
#      x y z
#    x 1.722150 0.000000 0.000000 
#    y 0.000000 1.689030 0.000000 
#    z 0.000000 0.000000 1.742880 
# 
# From -- ./inp_files/26847.got.cif
#   From: 2010.03.12/outbox.cif.g09.slc.cpg/sg53_14_cif.got.tgz:26847.got - 2010.04.16 14:36:59.
