data_PCOD8219705
_publ_section_title
;
Structure prediction by ZEFSAII (Michael W. Deem and Ramdas Pophale) SiO2 
 PCOD8219705
Probable space group: P M N A
;
_chemical_formula_sum "Si O2"
_cell_formula_units_Z 36
_cell_length_a 9.306649
_cell_length_b 10.910098
_cell_length_c 21.562044
_cell_angle_alpha 90.000000
_cell_angle_beta 90.000000
_cell_angle_gamma 90.000000
_cell_volume 2189.333459
_symmetry_space_group_name_H-M "P M N A"
_symmetry_group_IT_number 53
_symmetry_cell_setting 'orthorhombic'
loop_
_space_group_symop_operation_xyz
x,y,z
1/2-x,-y,1/2+z
x,-y,-z
1/2-x,y,1/2-z
-x,-y,-z
1/2+x,y,1/2-z
-x,y,z
1/2+x,-y,1/2+z
loop_
_atom_site_type_symbol
_atom_site_label
_atom_site_fract_x
_atom_site_fract_y
_atom_site_fract_z
Si Si1 0.657818 0.693011 0.088421
Si Si2 0.830554 0.138943 0.995573
Si Si3 0.340861 0.674162 0.598106
Si Si4 0.829162 0.508714 0.685312
Si Si5 0.250611 0.500000 0.500000
O O1 0.500000 0.749318 0.100434
O O2 0.764018 0.801341 0.066965
O O3 0.710660 0.617063 0.148835
O O4 0.645266 0.596433 0.032449
O O5 0.000000 0.147583 0.986620
O O6 0.785366 0.206023 0.060099
O O7 0.775667 0.000000 0.000000
O O8 0.500000 0.697259 0.626799
O O9 0.228999 0.632021 0.651092
O O10 0.355892 0.564615 0.548733
O O11 0.750000 0.497235 0.750000
O O12 0.000000 0.522986 0.693186
#
# Coordination Sequence:
#
# PCOD8219705 Si02
#       5
#     8   8   8   8   4
#     4   9  17  28  44  67  92 118 149 187 228 269
#     4   9  18  31  47  69  96 125 154 184 222 269
#     4   9  16  27  45  67  92 120 151 185 223 268
#     4  10  20  32  47  68  94 121 152 189 230 274
#     4   8  14  24  42  66  92 116 142 178 228 280
#
# _framework density 16.443359999999998
#
# number of rings (size 3 to 8) (size 9 to 14) (size 15 to 20)
#    0.000    2.889    0.000    1.333    0.000   12.000 
#    0.000    0.000    0.000    1.333    0.000    3.111 
#    0.000    0.000    0.000    0.000    0.000    0.000 
#
# Total GULP energy -445995.011844 kJ/mol
# GULP energy per Si atom -12388.750329 kJ/mol
# Density = 1.640593 g / cm^3
# Si number density = 16.443360 Si / 1000 Ang^3
#
#
#
# Elastic Constant Matrix: (Units=GPa)
#
#
# Indices 1 2 3 4 5 6 
#
# 1 78.4351 41.7339 51.1974 0.0000 0.0000 0.0000
# 2 41.7339 108.8617 49.6369 0.0000 0.0000 0.0000
# 3 51.1974 49.6369 104.9053 0.0000 0.0000 0.0000
# 4 0.0000 0.0000 0.0000 19.2012 0.0000 0.0000
# 5 0.0000 0.0000 0.0000 0.0000 23.3226 0.0000
# 6 0.0000 0.0000 0.0000 0.0000 0.0000 19.8586
#
#
#
# Elastic Compliance Matrix: (Units=1/GPa)
#
#
# Indices 1 2 3 4 5 6 
#
# 1 0.020057 -0.004113 -0.007842 0.000000 0.000000 0.000000
# 2 -0.004113 0.012557 -0.003934 0.000000 0.000000 0.000000
# 3 -0.007842 -0.003934 0.015221 0.000000 0.000000 0.000000
# 4 0.000000 0.000000 0.000000 0.052080 0.000000 0.000000
# 5 0.000000 0.000000 0.000000 0.000000 0.042877 0.000000
# 6 0.000000 0.000000 0.000000 0.000000 0.000000 0.050356
#
#
# Mechanical properties :
#
#
# Convention : Reuss Voigt Hill
#
# Bulk Modulus (GPa) = 62.28297 64.14870 63.21584
# Shear Modulus (GPa) = 21.71287 22.45206 22.08246
#
# Velocity S-wave (km/s) = 3.63776 3.69917 3.66859
# Velocity P-wave (km/s) = 7.45680 7.57243 7.51484
#
# Compressibility (1/GPa) = 0.01605575
#
# Stress axis : x y z
#
# Youngs Moduli (GPa) = 49.85806 79.63969 65.69885
#
# Poissons Ratio (x) = 0.32759 0.51522
# Poissons Ratio (y) = 0.20509 0.25844
# Poissons Ratio (z) = 0.39100 0.31328
#
# Static dielectric constant tensor:
#      x y z
#    x 3.010160 0.000000 0.000000 
#    y 0.000000 3.115940 0.000000 
#    z 0.000000 0.000000 3.012710 
# 
# 
# High freq. dielectric constant tensor:
#      x y z
#    x 1.634280 0.000000 0.000000 
#    y 0.000000 1.610310 0.000000 
#    z 0.000000 0.000000 1.612080 
# 
# From -- ./inp_files/30287.got.cif
#   From: 2010.03.12/outbox.cif.g09.slc.cpg/sg53_16_cif.got.tgz:30287.got - 2010.04.16 14:36:59.
