data_PCOD8219691
_publ_section_title
;
Structure prediction by ZEFSAII (Michael W. Deem and Ramdas Pophale) SiO2 
 PCOD8219691
Probable space group: P M N A
;
_chemical_formula_sum "Si O2"
_cell_formula_units_Z 56
_cell_length_a 13.503034
_cell_length_b 9.590047
_cell_length_c 22.234548
_cell_angle_alpha 90.000000
_cell_angle_beta 90.000000
_cell_angle_gamma 90.000000
_cell_volume 2879.256806
_symmetry_space_group_name_H-M "P M N A"
_symmetry_group_IT_number 53
_symmetry_cell_setting 'orthorhombic'
loop_
_space_group_symop_operation_xyz
x,y,z
1/2-x,-y,1/2+z
x,-y,-z
1/2-x,y,1/2-z
-x,-y,-z
1/2+x,y,1/2-z
-x,y,z
1/2+x,-y,1/2+z
loop_
_atom_site_type_symbol
_atom_site_label
_atom_site_fract_x
_atom_site_fract_y
_atom_site_fract_z
Si Si1 0.747227 0.647988 0.382889
Si Si2 0.112707 0.081833 0.407845
Si Si3 0.614206 0.426522 0.341318
Si Si4 0.389579 0.377746 0.771027
Si Si5 0.217519 0.147157 0.184350
Si Si6 0.387788 0.212949 0.966841
Si Si7 0.886446 0.857213 0.176941
O O1 0.674408 0.516230 0.391104
O O2 0.813588 0.612769 0.324957
O O3 0.815142 0.667083 0.441844
O O4 0.681577 0.787239 0.374194
O O5 0.183872 0.120433 0.353653
O O6 0.144148 0.171407 0.466091
O O7 0.000000 0.117910 0.389006
O O8 0.120560 0.918708 0.422429
O O9 0.500000 0.428814 0.360154
O O10 0.629380 0.497259 0.275951
O O11 0.652857 0.269695 0.344118
O O12 0.500000 0.388848 0.797801
O O13 0.375175 0.228864 0.738672
O O14 0.250000 0.194433 0.250000
O O15 0.147861 0.013289 0.188681
O O16 0.500000 0.269611 0.966695
O O17 0.000000 0.855463 0.154748
#
# Coordination Sequence:
#
# PCOD8219691 Si02
#       7
#     8   8   8   8   8   8   8
#     4  11  17  33  57  82 104 144 189 228 274 326
#     4   9  20  38  58  86 118 144 175 225 287 339
#     4  10  22  37  52  74 115 156 187 227 279 333
#     4   9  18  32  50  78 111 143 180 230 281 331
#     4  12  22  36  55  82 110 152 188 227 280 333
#     4   9  18  35  61  88 113 142 178 226 283 337
#     4  10  20  31  48  76 110 141 184 234 274 322
#
# _framework density 19.449463000000002
#
# number of rings (size 3 to 8) (size 9 to 14) (size 15 to 20)
#    0.000    2.000    1.429    6.429    0.000    1.143 
#    0.000    2.143    0.000    6.857    0.000    0.000 
#    0.000    0.000    0.000    0.000    0.000    0.000 
#
# Total GULP energy -694410.624268 kJ/mol
# GULP energy per Si atom -12400.189719 kJ/mol
# Density = 1.940519 g / cm^3
# Si number density = 19.449463 Si / 1000 Ang^3
#
#
#
# Elastic Constant Matrix: (Units=GPa)
#
#
# Indices 1 2 3 4 5 6 
#
# 1 123.5565 26.1926 35.7266 0.0000 0.0000 0.0000
# 2 26.1926 87.8511 2.2981 0.0000 0.0000 0.0000
# 3 35.7266 2.2981 59.1433 0.0000 0.0000 0.0000
# 4 0.0000 0.0000 0.0000 2.8946 0.0000 0.0000
# 5 0.0000 0.0000 0.0000 0.0000 28.3406 0.0000
# 6 0.0000 0.0000 0.0000 0.0000 0.0000 27.5206
#
#
#
# Elastic Compliance Matrix: (Units=1/GPa)
#
#
# Indices 1 2 3 4 5 6 
#
# 1 0.010530 -0.002976 -0.006245 0.000000 0.000000 0.000000
# 2 -0.002976 0.012236 0.001322 0.000000 0.000000 0.000000
# 3 -0.006245 0.001322 0.020629 0.000000 0.000000 0.000000
# 4 0.000000 0.000000 0.000000 0.345475 0.000000 0.000000
# 5 0.000000 0.000000 0.000000 0.000000 0.035285 0.000000
# 6 0.000000 0.000000 0.000000 0.000000 0.000000 0.036336
#
#
# Mechanical properties :
#
#
# Convention : Reuss Voigt Hill
#
# Bulk Modulus (GPa) = 36.23596 44.33175 40.28386
# Shear Modulus (GPa) = 10.29890 25.50671 17.90280
#
# Velocity S-wave (km/s) = 2.30363 3.62530 3.03723
# Velocity P-wave (km/s) = 5.07414 6.35347 5.74950
#
# Compressibility (1/GPa) = 0.02759690
#
# Stress axis : x y z
#
# Youngs Moduli (GPa) = 94.96465 81.72839 48.47471
#
# Poissons Ratio (x) = 0.24324 0.30274
# Poissons Ratio (y) = 0.28263 -0.06410
# Poissons Ratio (z) = 0.59309 -0.10808
#
# Static dielectric constant tensor:
#      x y z
#    x 3.847470 0.000000 0.000000 
#    y 0.000000 3.515120 0.000000 
#    z 0.000000 0.000000 3.167050 
# 
# 
# High freq. dielectric constant tensor:
#      x y z
#    x 1.779060 0.000000 0.000000 
#    y 0.000000 1.751440 0.000000 
#    z 0.000000 0.000000 1.716590 
# 
# From -- ./inp_files/32419.got.cif
#   From: 2010.03.12/outbox.cif.g09.slc.cpg/sg53_17_cif.got.tgz:32419.got - 2010.04.16 14:36:59.
