data_PCOD8219950
_publ_section_title
;
Structure prediction by ZEFSAII (Michael W. Deem and Ramdas Pophale) SiO2 
 PCOD8219950
Probable space group: P M N A
;
_chemical_formula_sum "Si O2"
_cell_formula_units_Z 64
_cell_length_a 14.169024
_cell_length_b 11.532758
_cell_length_c 19.406529
_cell_angle_alpha 90.000000
_cell_angle_beta 90.000000
_cell_angle_gamma 90.000000
_cell_volume 3171.180633
_symmetry_space_group_name_H-M "P M N A"
_symmetry_group_IT_number 53
_symmetry_cell_setting 'orthorhombic'
loop_
_space_group_symop_operation_xyz
x,y,z
1/2-x,-y,1/2+z
x,-y,-z
1/2-x,y,1/2-z
-x,-y,-z
1/2+x,y,1/2-z
-x,y,z
1/2+x,-y,1/2+z
loop_
_atom_site_type_symbol
_atom_site_label
_atom_site_fract_x
_atom_site_fract_y
_atom_site_fract_z
Si Si1 0.897056 0.690487 0.728118
Si Si2 0.605743 0.864367 0.013190
Si Si3 0.204425 0.885493 0.349485
Si Si4 0.199571 0.147161 0.375236
Si Si5 0.894491 0.803537 0.215870
Si Si6 0.899075 0.789383 0.879835
Si Si7 0.107485 0.459063 0.072823
Si Si8 0.156014 0.449222 0.786291
O O1 0.817484 0.751379 0.681025
O O2 0.894685 0.750413 0.801336
O O3 0.883046 0.552563 0.737849
O O4 0.000000 0.710142 0.693854
O O5 0.500000 0.818621 0.028795
O O6 0.675592 0.833028 0.076236
O O7 0.643616 0.809003 0.942457
O O8 0.605257 0.000000 0.000000
O O9 0.315883 0.859900 0.335691
O O10 0.137916 0.826772 0.293484
O O11 0.173572 0.021017 0.346041
O O12 0.309892 0.130212 0.394995
O O13 0.907745 0.665087 0.208145
O O14 0.000000 0.856520 0.202108
O O15 0.891477 0.679229 0.929590
O O16 0.000000 0.853024 0.893753
O O17 0.171595 0.505349 0.135658
O O18 0.000000 0.504479 0.083625
O O19 0.150078 0.500000 0.000000
O O20 0.250000 0.404094 0.750000
#
# Coordination Sequence:
#
# PCOD8219950 Si02
#       8
#     8   8   8   8   8   8   8   8
#     4  10  20  33  57  88 118 152 193 243 305 360
#     4   9  19  38  61  82 113 155 198 241 292 357
#     4  10  23  40  58  87 114 155 205 248 296 355
#     4  11  21  36  59  87 120 154 200 251 297 365
#     4  11  23  40  61  85 116 157 203 253 301 355
#     4   9  19  33  50  83 122 155 185 238 305 350
#     4   9  18  34  57  85 115 154 201 240 289 363
#     4  11  20  38  59  83 122 159 200 248 304 369
#
# _framework density 20.181757000000001
#
# number of rings (size 3 to 8) (size 9 to 14) (size 15 to 20)
#    0.000    2.000    1.250    4.500    3.500    3.000 
#    0.000    1.875    0.000    2.250    0.000    2.625 
#    0.000    0.000    0.000    0.000    0.000    0.000 
#
# Total GULP energy -793071.556793 kJ/mol
# GULP energy per Si atom -12391.743075 kJ/mol
# Density = 2.013582 g / cm^3
# Si number density = 20.181757 Si / 1000 Ang^3
#
#
#
# Elastic Constant Matrix: (Units=GPa)
#
#
# Indices 1 2 3 4 5 6 
#
# 1 122.2425 10.0137 24.8383 0.0000 0.0000 0.0000
# 2 10.0137 64.2473 33.2138 0.0000 0.0000 0.0000
# 3 24.8383 33.2138 87.1647 0.0000 0.0000 0.0000
# 4 0.0000 0.0000 0.0000 25.0052 0.0000 0.0000
# 5 0.0000 0.0000 0.0000 0.0000 29.3465 0.0000
# 6 0.0000 0.0000 0.0000 0.0000 0.0000 23.4612
#
#
#
# Elastic Compliance Matrix: (Units=1/GPa)
#
#
# Indices 1 2 3 4 5 6 
#
# 1 0.008684 -0.000092 -0.002439 0.000000 0.000000 0.000000
# 2 -0.000092 0.019384 -0.007360 0.000000 0.000000 0.000000
# 3 -0.002439 -0.007360 0.014972 0.000000 0.000000 0.000000
# 4 0.000000 0.000000 0.000000 0.039992 0.000000 0.000000
# 5 0.000000 0.000000 0.000000 0.000000 0.034076 0.000000
# 6 0.000000 0.000000 0.000000 0.000000 0.000000 0.042624
#
#
# Mechanical properties :
#
#
# Convention : Reuss Voigt Hill
#
# Bulk Modulus (GPa) = 42.99844 45.53178 44.26511
# Shear Modulus (GPa) = 26.69998 29.26850 27.98424
#
# Velocity S-wave (km/s) = 3.64122 3.81234 3.72776
# Velocity P-wave (km/s) = 6.24739 6.47985 6.36468
#
# Compressibility (1/GPa) = 0.02325666
#
# Stress axis : x y z
#
# Youngs Moduli (GPa) = 115.15881 51.58873 66.79095
#
# Poissons Ratio (x) = 0.00477 0.16292
# Poissons Ratio (y) = 0.01064 0.49157
# Poissons Ratio (z) = 0.28090 0.37969
#
# Static dielectric constant tensor:
#      x y z
#    x 3.927290 0.000000 0.000000 
#    y 0.000000 3.439190 0.000000 
#    z 0.000000 0.000000 3.636620 
# 
# 
# High freq. dielectric constant tensor:
#      x y z
#    x 1.793780 0.000000 0.000000 
#    y 0.000000 1.765340 0.000000 
#    z 0.000000 0.000000 1.777570 
# 
# From -- ./inp_files/28515.got.cif
#   From: 2010.03.12/outbox.cif.g09.slc.cpg/sg53_15_cif.got.tgz:28515.got - 2010.04.16 14:36:59.
