data_PCOD8219128
_publ_section_title
;
Structure prediction by ZEFSAII (Michael W. Deem and Ramdas Pophale) SiO2 
 PCOD8219128
Probable space group: P M N A
;
_chemical_formula_sum "Si O2"
_cell_formula_units_Z 64
_cell_length_a 8.892654
_cell_length_b 11.085258
_cell_length_c 33.736774
_cell_angle_alpha 90.000000
_cell_angle_beta 90.000000
_cell_angle_gamma 90.000000
_cell_volume 3325.682247
_symmetry_space_group_name_H-M "P M N A"
_symmetry_group_IT_number 53
_symmetry_cell_setting 'orthorhombic'
loop_
_space_group_symop_operation_xyz
x,y,z
1/2-x,-y,1/2+z
x,-y,-z
1/2-x,y,1/2-z
-x,-y,-z
1/2+x,y,1/2-z
-x,y,z
1/2+x,-y,1/2+z
loop_
_atom_site_type_symbol
_atom_site_label
_atom_site_fract_x
_atom_site_fract_y
_atom_site_fract_z
Si Si1 0.170245 0.220465 0.518759
Si Si2 0.826848 0.464722 0.564985
Si Si3 0.175854 0.154558 0.373625
Si Si4 0.823251 0.710191 0.944441
Si Si5 0.322423 0.340816 0.636501
Si Si6 0.822437 0.463969 0.709203
Si Si7 0.324718 0.114445 0.899619
Si Si8 0.675591 0.260153 0.209383
O O1 0.188613 0.356737 0.534036
O O2 0.276003 0.200336 0.480463
O O3 0.216962 0.127756 0.553742
O O4 0.000000 0.195009 0.505086
O O5 0.757618 0.584119 0.545835
O O6 0.734479 0.436329 0.604409
O O7 0.000000 0.486940 0.576553
O O8 0.269958 0.240500 0.402225
O O9 0.225757 0.179436 0.328267
O O10 0.000000 0.183164 0.379491
O O11 0.214559 0.017701 0.384400
O O12 0.000000 0.692702 0.943795
O O13 0.500000 0.348928 0.639853
O O14 0.247116 0.374348 0.677582
O O15 0.274318 0.205295 0.625995
O O16 0.750000 0.421722 0.750000
O O17 0.776573 0.602364 0.700195
O O18 0.000000 0.447432 0.710583
O O19 0.500000 0.148234 0.894012
O O20 0.750000 0.211901 0.250000
O O21 0.500000 0.249903 0.216504
#
# Coordination Sequence:
#
# PCOD8219128 Si02
#       8
#     8   8   8   8   8   8   8   8
#     4   9  19  36  56  77 104 143 187 230 276 326
#     4  10  20  36  57  79 106 143 185 226 271 330
#     4  10  21  39  60  80 106 146 193 230 266 321
#     4  12  24  34  51  82 115 144 177 227 285 333
#     4  11  21  34  55  82 111 142 177 223 281 336
#     4  10  19  33  54  82 115 146 179 221 272 333
#     4   9  20  39  60  78 102 145 195 234 267 316
#     4   9  19  35  58  85 111 140 172 215 268 319
#
# _framework density 19.244171999999999
#
# number of rings (size 3 to 8) (size 9 to 14) (size 15 to 20)
#    0.000    2.000    0.000    4.875    0.000    7.000 
#    0.000    3.125    0.000    1.500    0.000    0.000 
#    0.000    0.000    0.000    0.000    0.000    0.000 
#
# Total GULP energy -793762.323822 kJ/mol
# GULP energy per Si atom -12402.536310 kJ/mol
# Density = 1.920037 g / cm^3
# Si number density = 19.244172 Si / 1000 Ang^3
#
#
#
# Elastic Constant Matrix: (Units=GPa)
#
#
# Indices 1 2 3 4 5 6 
#
# 1 83.6101 29.3026 36.5954 0.0000 0.0000 0.0000
# 2 29.3026 46.7257 32.1531 0.0000 0.0000 0.0000
# 3 36.5954 32.1531 118.6998 0.0000 0.0000 0.0000
# 4 0.0000 0.0000 0.0000 24.1870 0.0000 0.0000
# 5 0.0000 0.0000 0.0000 0.0000 34.2364 0.0000
# 6 0.0000 0.0000 0.0000 0.0000 0.0000 -13.7506
#
#
#
# Elastic Compliance Matrix: (Units=1/GPa)
#
#
# Indices 1 2 3 4 5 6 
#
# 1 0.016016 -0.008169 -0.002725 0.000000 0.000000 0.000000
# 2 -0.008169 0.030471 -0.005735 0.000000 0.000000 0.000000
# 3 -0.002725 -0.005735 0.010818 0.000000 0.000000 0.000000
# 4 0.000000 0.000000 0.000000 0.041345 0.000000 0.000000
# 5 0.000000 0.000000 0.000000 0.000000 0.029209 0.000000
# 6 0.000000 0.000000 0.000000 0.000000 0.000000 -0.072724
#
#
# Mechanical properties :
#
#
# Convention : Reuss Voigt Hill
#
# Bulk Modulus (GPa) = 41.58557 49.45975 45.52266
# Shear Modulus (GPa) = 51.86293 19.00020 35.43156
#
# Velocity S-wave (km/s) = 5.19697 3.14558 4.29553
# Velocity P-wave (km/s) = 7.59392 6.24098 6.95045
#
# Compressibility (1/GPa) = 0.02404680
#
# Stress axis : x y z
#
# Youngs Moduli (GPa) = 62.43822 32.81819 92.43563
#
# Poissons Ratio (x) = 0.26808 0.25189
# Poissons Ratio (y) = 0.51004 0.53016
# Poissons Ratio (z) = 0.17014 0.18823
#
# Static dielectric constant tensor:
#      x y z
#    x 3.464860 0.000000 0.000000 
#    y 0.000000 3.397390 0.000000 
#    z 0.000000 0.000000 3.580800 
# 
# 
# High freq. dielectric constant tensor:
#      x y z
#    x 1.745140 0.000000 0.000000 
#    y 0.000000 1.734140 0.000000 
#    z 0.000000 0.000000 1.757810 
# 
# From -- ./inp_files/38261.got.cif
#   From: 2010.03.12/outbox.cif.g09.slc.cpg/sg53_20_cif.got.tgz:38261.got - 2010.04.16 14:36:59.
