data_PCOD8219347
_publ_section_title
;
Structure prediction by ZEFSAII (Michael W. Deem and Ramdas Pophale) SiO2 
 PCOD8219347
Probable space group: P M N A
;
_chemical_formula_sum "Si O2"
_cell_formula_units_Z 48
_cell_length_a 8.734037
_cell_length_b 31.056445
_cell_length_c 9.092301
_cell_angle_alpha 90.000000
_cell_angle_beta 90.000000
_cell_angle_gamma 90.000000
_cell_volume 2466.269732
_symmetry_space_group_name_H-M "P M N A"
_symmetry_group_IT_number 53
_symmetry_cell_setting 'orthorhombic'
loop_
_space_group_symop_operation_xyz
x,y,z
1/2-x,-y,1/2+z
x,-y,-z
1/2-x,y,1/2-z
-x,-y,-z
1/2+x,y,1/2-z
-x,y,z
1/2+x,-y,1/2+z
loop_
_atom_site_type_symbol
_atom_site_label
_atom_site_fract_x
_atom_site_fract_y
_atom_site_fract_z
Si Si1 0.318715 0.118508 0.909400
Si Si2 0.680213 0.458473 0.908260
Si Si3 0.823670 0.711196 0.905116
Si Si4 0.323284 0.042829 0.406492
Si Si5 0.181869 0.195166 0.087050
Si Si6 0.179833 0.382000 0.088191
O O1 0.250000 0.109136 0.750000
O O2 0.500000 0.120042 0.896933
O O3 0.269720 0.081007 0.018928
O O4 0.257528 0.163468 0.970899
O O5 0.750000 0.465046 0.750000
O O6 0.500000 0.454015 0.896395
O O7 0.730679 0.500000 0.000000
O O8 0.744819 0.415504 0.979593
O O9 0.750000 0.705947 0.750000
O O10 0.772841 0.756890 0.976368
O O11 0.787855 0.665661 0.985972
O O12 0.000000 0.715542 0.872720
O O13 0.250000 0.033036 0.250000
O O14 0.500000 0.056620 0.389958
O O15 0.305602 0.000000 0.500000
O O16 0.250000 0.187879 0.250000
O O17 0.000000 0.187371 0.093242
O O18 0.250000 0.386810 0.250000
O O19 0.000000 0.390980 0.100978
#
# Coordination Sequence:
#
# PCOD8219347 Si02
#       6
#     8   8   8   8   8   8
#     4  12  25  41  60  84 116 153 194 239 288 339
#     4  11  24  40  58  81 109 143 183 227 277 332
#     4   8  16  30  52  81 112 146 184 228 275 328
#     4  11  24  42  65  92 121 154 192 234 282 336
#     4  10  19  35  58  85 116 150 191 235 281 332
#     4  10  19  34  57  85 115 147 185 228 277 331
#
# _framework density 19.462591
#
# number of rings (size 3 to 8) (size 9 to 14) (size 15 to 20)
#    0.000    1.667    0.000    5.000    0.000    6.667 
#    0.000    0.833    0.000    0.000    0.000    0.000 
#    0.000    0.000    0.000    0.000    0.000    0.000 
#
# Total GULP energy -594922.292207 kJ/mol
# GULP energy per Si atom -12394.214421 kJ/mol
# Density = 1.941829 g / cm^3
# Si number density = 19.462591 Si / 1000 Ang^3
#
#
#
# Elastic Constant Matrix: (Units=GPa)
#
#
# Indices 1 2 3 4 5 6 
#
# 1 103.7600 56.6048 49.7527 0.0000 0.0000 0.0000
# 2 56.6048 132.4938 50.7610 0.0000 0.0000 0.0000
# 3 49.7527 50.7610 110.0230 0.0000 0.0000 0.0000
# 4 0.0000 0.0000 0.0000 44.3294 0.0000 0.0000
# 5 0.0000 0.0000 0.0000 0.0000 32.7808 0.0000
# 6 0.0000 0.0000 0.0000 0.0000 0.0000 24.8756
#
#
#
# Elastic Compliance Matrix: (Units=1/GPa)
#
#
# Indices 1 2 3 4 5 6 
#
# 1 0.014108 -0.004353 -0.004372 0.000000 0.000000 0.000000
# 2 -0.004353 0.010511 -0.002881 0.000000 0.000000 0.000000
# 3 -0.004372 -0.002881 0.012395 0.000000 0.000000 0.000000
# 4 0.000000 0.000000 0.000000 0.022558 0.000000 0.000000
# 5 0.000000 0.000000 0.000000 0.000000 0.030506 0.000000
# 6 0.000000 0.000000 0.000000 0.000000 0.000000 0.040200
#
#
# Mechanical properties :
#
#
# Convention : Reuss Voigt Hill
#
# Bulk Modulus (GPa) = 72.44496 73.39041 72.91769
# Shear Modulus (GPa) = 31.62747 33.00772 32.31759
#
# Velocity S-wave (km/s) = 4.03555 4.12267 4.07934
# Velocity P-wave (km/s) = 7.68230 7.77510 7.72884
#
# Compressibility (1/GPa) = 0.01380358
#
# Stress axis : x y z
#
# Youngs Moduli (GPa) = 70.88011 95.13963 80.67668
#
# Poissons Ratio (x) = 0.41410 0.35269
# Poissons Ratio (y) = 0.30851 0.23244
# Poissons Ratio (z) = 0.30987 0.27411
#
# Static dielectric constant tensor:
#      x y z
#    x 3.734910 0.000000 0.000000 
#    y 0.000000 4.256070 0.000000 
#    z 0.000000 0.000000 3.476500 
# 
# 
# High freq. dielectric constant tensor:
#      x y z
#    x 1.774890 0.000000 0.000000 
#    y 0.000000 1.787890 0.000000 
#    z 0.000000 0.000000 1.734910 
# 
# From -- ./inp_files/6731.got.cif
#   From: 2010.03.12/outbox.cif.g09.slc.cpg/sg53_4_cif.got.tgz:6731.got - 2010.04.16 14:36:59.
