data_PCOD8219478
_publ_section_title
;
Structure prediction by ZEFSAII (Michael W. Deem and Ramdas Pophale) SiO2 
 PCOD8219478
Probable space group: P M N A
;
_chemical_formula_sum "Si O2"
_cell_formula_units_Z 64
_cell_length_a 8.840914
_cell_length_b 20.840100
_cell_length_c 18.244478
_cell_angle_alpha 90.000000
_cell_angle_beta 90.000000
_cell_angle_gamma 90.000000
_cell_volume 3361.463552
_symmetry_space_group_name_H-M "P M N A"
_symmetry_group_IT_number 53
_symmetry_cell_setting 'orthorhombic'
loop_
_space_group_symop_operation_xyz
x,y,z
1/2-x,-y,1/2+z
x,-y,-z
1/2-x,y,1/2-z
-x,-y,-z
1/2+x,y,1/2-z
-x,y,z
1/2+x,-y,1/2+z
loop_
_atom_site_type_symbol
_atom_site_label
_atom_site_fract_x
_atom_site_fract_y
_atom_site_fract_z
Si Si1 0.320946 0.745722 0.672483
Si Si2 0.679273 0.140835 0.929487
Si Si3 0.679125 0.135096 0.098469
Si Si4 0.670687 0.508268 0.586594
Si Si5 0.679460 0.747200 0.172109
Si Si6 0.677040 0.362856 0.076269
Si Si7 0.823579 0.619683 0.407290
Si Si8 0.821001 0.003278 0.581293
O O1 0.250000 0.726171 0.750000
O O2 0.500000 0.743425 0.678712
O O3 0.268885 0.816960 0.650626
O O4 0.265833 0.695788 0.611690
O O5 0.500000 0.144598 0.928327
O O6 0.747095 0.199942 0.883833
O O7 0.732123 0.073541 0.889456
O O8 0.730805 0.145504 0.014131
O O9 0.500000 0.146995 0.107622
O O10 0.727232 0.062073 0.123848
O O11 0.679850 0.500000 0.500000
O O12 0.500000 0.518114 0.614206
O O13 0.768197 0.569813 0.611378
O O14 0.737709 0.443505 0.621736
O O15 0.750000 0.761507 0.250000
O O16 0.500000 0.751858 0.176845
O O17 0.730375 0.677495 0.144198
O O18 0.500000 0.354216 0.090990
O O19 0.717197 0.361739 0.990456
O O20 0.000000 0.605306 0.400746
O O21 0.000000 0.001818 0.576338
O O22 0.753065 0.000000 0.500000
#
# Coordination Sequence:
#
# PCOD8219478 Si02
#       8
#     8   8   8   8   8   8   8   8
#     4  12  25  39  53  73 104 139 174 212 257 309
#     4   8  14  28  52  79 104 133 171 212 255 307
#     4   9  16  31  56  81 102 129 169 214 258 306
#     4   9  17  30  51  81 111 134 162 206 255 303
#     4  10  20  33  48  69 101 138 175 213 252 296
#     4  10  19  35  59  82 103 130 167 211 258 309
#     4   9  18  33  54  78 103 135 173 212 256 305
#     4   7  11  22  47  80 104 125 162 210 254 300
#
# _framework density 19.039325000000002
#
# number of rings (size 3 to 8) (size 9 to 14) (size 15 to 20)
#    0.000    2.750    0.000    4.125    0.000    4.500 
#    0.000    3.125    0.000    7.125    0.000    0.000 
#    0.000    0.000    0.000    0.000    0.000    0.000 
#
# Total GULP energy -793109.107950 kJ/mol
# GULP energy per Si atom -12392.329812 kJ/mol
# Density = 1.899599 g / cm^3
# Si number density = 19.039325 Si / 1000 Ang^3
#
#
#
# Elastic Constant Matrix: (Units=GPa)
#
#
# Indices 1 2 3 4 5 6 
#
# 1 66.9224 26.9668 15.2878 0.0000 0.0000 0.0000
# 2 26.9668 106.1964 11.8113 0.0000 0.0000 0.0000
# 3 15.2878 11.8113 39.4956 0.0000 0.0000 0.0000
# 4 0.0000 0.0000 0.0000 9.6963 0.0000 0.0000
# 5 0.0000 0.0000 0.0000 0.0000 23.5521 0.0000
# 6 0.0000 0.0000 0.0000 0.0000 0.0000 19.8145
#
#
#
# Elastic Compliance Matrix: (Units=1/GPa)
#
#
# Indices 1 2 3 4 5 6 
#
# 1 0.017819 -0.003887 -0.005735 0.000000 0.000000 0.000000
# 2 -0.003887 0.010588 -0.001662 0.000000 0.000000 0.000000
# 3 -0.005735 -0.001662 0.028036 0.000000 0.000000 0.000000
# 4 0.000000 0.000000 0.000000 0.103132 0.000000 0.000000
# 5 0.000000 0.000000 0.000000 0.000000 0.042459 0.000000
# 6 0.000000 0.000000 0.000000 0.000000 0.000000 0.050468
#
#
# Mechanical properties :
#
#
# Convention : Reuss Voigt Hill
#
# Bulk Modulus (GPa) = 29.51950 35.63845 32.57898
# Shear Modulus (GPa) = 17.46038 21.18249 19.32144
#
# Velocity S-wave (km/s) = 3.03160 3.33913 3.18908
# Velocity P-wave (km/s) = 5.27184 5.79874 5.54155
#
# Compressibility (1/GPa) = 0.03387591
#
# Stress axis : x y z
#
# Youngs Moduli (GPa) = 56.11968 94.44306 35.66828
#
# Poissons Ratio (x) = 0.36710 0.20455
# Poissons Ratio (y) = 0.21814 0.05928
# Poissons Ratio (z) = 0.32184 0.15696
#
# Static dielectric constant tensor:
#      x y z
#    x 3.198800 0.000000 0.000000 
#    y 0.000000 4.055160 0.000000 
#    z 0.000000 0.000000 3.193140 
# 
# 
# High freq. dielectric constant tensor:
#      x y z
#    x 1.711070 0.000000 0.000000 
#    y 0.000000 1.767680 0.000000 
#    z 0.000000 0.000000 1.700810 
# 
# From -- ./inp_files/26765.got.cif
#   From: 2010.03.12/outbox.cif.g09.slc.cpg/sg53_14_cif.got.tgz:26765.got - 2010.04.16 14:36:59.
