data_PCOD8219693
_publ_section_title
;
Structure prediction by ZEFSAII (Michael W. Deem and Ramdas Pophale) SiO2 
 PCOD8219693
Probable space group: P M N A
;
_chemical_formula_sum "Si O2"
_cell_formula_units_Z 28
_cell_length_a 27.860315
_cell_length_b 11.002142
_cell_length_c 5.154245
_cell_angle_alpha 90.000000
_cell_angle_beta 90.000000
_cell_angle_gamma 90.000000
_cell_volume 1579.895371
_symmetry_space_group_name_H-M "P M N A"
_symmetry_group_IT_number 53
_symmetry_cell_setting 'orthorhombic'
loop_
_space_group_symop_operation_xyz
x,y,z
1/2-x,-y,1/2+z
x,-y,-z
1/2-x,y,1/2-z
-x,-y,-z
1/2+x,y,1/2-z
-x,y,z
1/2+x,-y,1/2+z
loop_
_atom_site_type_symbol
_atom_site_label
_atom_site_fract_x
_atom_site_fract_y
_atom_site_fract_z
Si Si1 0.637897 0.762648 0.769276
Si Si2 0.304559 0.226899 0.752071
Si Si3 0.444822 0.421078 0.249350
Si Si4 0.661187 0.000000 0.000000
O O1 0.669881 0.740890 0.516078
O O2 0.586382 0.700838 0.740841
O O3 0.667154 0.705328 0.013299
O O4 0.629018 0.907157 0.825587
O O5 0.250000 0.273160 0.750000
O O6 0.305675 0.081129 0.808144
O O7 0.433014 0.500000 0.500000
O O8 0.500000 0.379047 0.243094
O O9 0.431409 0.500000 0.000000
#
# Coordination Sequence:
#
# PCOD8219693 Si02
#       4
#     8   8   8   4
#     4  10  20  33  53  82 111 134 180 222 265 310
#     4  10  20  31  53  81 112 145 178 209 255 318
#     4  10  21  39  62  80  98 136 186 227 267 317
#     4   8  22  28  55  80 112 142 173 218 260 318
#
# _framework density 17.722691000000001
#
# number of rings (size 3 to 8) (size 9 to 14) (size 15 to 20)
#    1.714    0.571    0.000    3.429    4.000    0.000 
#    0.000    0.714    0.000   18.857    0.000    0.000 
#    0.000    0.000    0.000    0.000    0.000    0.000 
#
# Total GULP energy -346905.043925 kJ/mol
# GULP energy per Si atom -12389.465854 kJ/mol
# Density = 1.768235 g / cm^3
# Si number density = 17.722691 Si / 1000 Ang^3
#
#
#
# Elastic Constant Matrix: (Units=GPa)
#
#
# Indices 1 2 3 4 5 6 
#
# 1 119.3532 52.3532 52.4338 0.0000 0.0000 0.0000
# 2 52.3532 40.3391 26.7720 0.0000 0.0000 0.0000
# 3 52.4338 26.7720 153.4996 0.0000 0.0000 0.0000
# 4 0.0000 0.0000 0.0000 10.4618 0.0000 0.0000
# 5 0.0000 0.0000 0.0000 0.0000 39.1963 0.0000
# 6 0.0000 0.0000 0.0000 0.0000 0.0000 29.7886
#
#
#
# Elastic Compliance Matrix: (Units=1/GPa)
#
#
# Indices 1 2 3 4 5 6 
#
# 1 0.020366 -0.024670 -0.002654 0.000000 0.000000 0.000000
# 2 -0.024670 0.057918 -0.001675 0.000000 0.000000 0.000000
# 3 -0.002654 -0.001675 0.007713 0.000000 0.000000 0.000000
# 4 0.000000 0.000000 0.000000 0.095586 0.000000 0.000000
# 5 0.000000 0.000000 0.000000 0.000000 0.025513 0.000000
# 6 0.000000 0.000000 0.000000 0.000000 0.000000 0.033570
#
#
# Mechanical properties :
#
#
# Convention : Reuss Voigt Hill
#
# Bulk Modulus (GPa) = 35.71365 64.03444 49.87404
# Shear Modulus (GPa) = 16.23399 27.99818 22.11609
#
# Velocity S-wave (km/s) = 3.02983 3.97897 3.53639
# Velocity P-wave (km/s) = 5.69517 7.57096 6.69904
#
# Compressibility (1/GPa) = 0.02800050
#
# Stress axis : x y z
#
# Youngs Moduli (GPa) = 49.10256 17.26572 129.64547
#
# Poissons Ratio (x) = 0.42594 0.34408
# Poissons Ratio (y) = 1.21134 0.21712
# Poissons Ratio (z) = 0.13032 0.02892
#
# Static dielectric constant tensor:
#      x y z
#    x 3.048380 0.000000 0.000000 
#    y 0.000000 2.945640 0.000000 
#    z 0.000000 0.000000 3.449190 
# 
# 
# High freq. dielectric constant tensor:
#      x y z
#    x 1.667840 0.000000 0.000000 
#    y 0.000000 1.653270 0.000000 
#    z 0.000000 0.000000 1.708900 
# 
# From -- ./inp_files/2555.got.cif
#   From: 2010.03.12/outbox.cif.g09.slc.cpg/sg53_2_cif.got.tgz:2555.got - 2010.04.16 14:36:59.
