data_PCOD8219340
_publ_section_title
;
Structure prediction by ZEFSAII (Michael W. Deem and Ramdas Pophale) SiO2 
 PCOD8219340
Probable space group: P M N A
;
_chemical_formula_sum "Si O2"
_cell_formula_units_Z 64
_cell_length_a 8.674586
_cell_length_b 21.565415
_cell_length_c 17.823360
_cell_angle_alpha 90.000000
_cell_angle_beta 90.000000
_cell_angle_gamma 90.000000
_cell_volume 3334.234617
_symmetry_space_group_name_H-M "P M N A"
_symmetry_group_IT_number 53
_symmetry_cell_setting 'orthorhombic'
loop_
_space_group_symop_operation_xyz
x,y,z
1/2-x,-y,1/2+z
x,-y,-z
1/2-x,y,1/2-z
-x,-y,-z
1/2+x,y,1/2-z
-x,y,z
1/2+x,-y,1/2+z
loop_
_atom_site_type_symbol
_atom_site_label
_atom_site_fract_x
_atom_site_fract_y
_atom_site_fract_z
Si Si1 0.822115 0.257892 0.093027
Si Si2 0.682130 0.689571 0.053959
Si Si3 0.675398 0.118967 0.421645
Si Si4 0.680043 0.001050 0.668779
Si Si5 0.817605 0.368782 0.327811
Si Si6 0.320324 0.888951 0.079005
Si Si7 0.181300 0.775905 0.168284
Si Si8 0.682453 0.433900 0.022903
O O1 0.801439 0.186298 0.116012
O O2 0.742487 0.299298 0.157006
O O3 0.000000 0.277124 0.085942
O O4 0.741174 0.267091 0.012988
O O5 0.500000 0.696914 0.058973
O O6 0.756631 0.711996 0.131761
O O7 0.730512 0.618189 0.038001
O O8 0.500000 0.111424 0.451411
O O9 0.790720 0.109697 0.490466
O O10 0.711893 0.069076 0.357434
O O11 0.750000 0.011436 0.750000
O O12 0.500000 0.017340 0.670472
O O13 0.765565 0.045821 0.611283
O O14 0.750000 0.394393 0.250000
O O15 0.758659 0.413723 0.394640
O O16 0.000000 0.367123 0.323511
O O17 0.500000 0.878691 0.094887
O O18 0.226504 0.833534 0.116827
O O19 0.250000 0.785150 0.250000
O O20 0.000000 0.771663 0.174979
O O21 0.500000 0.439699 0.025595
O O22 0.757003 0.500000 0.000000
#
# Coordination Sequence:
#
# PCOD8219340 Si02
#       8
#     8   8   8   8   8   8   8   8
#     4  10  19  34  57  83 113 149 187 229 282 336
#     4  10  19  34  57  86 116 148 187 230 278 336
#     4  10  22  39  60  85 113 150 187 232 285 343
#     4  11  24  42  59  79 112 149 191 237 290 344
#     4  10  20  34  55  83 116 152 194 240 289 340
#     4  12  24  39  61  86 112 145 190 238 287 347
#     4  12  24  39  59  84 115 150 189 237 292 344
#     4   8  16  33  58  85 115 154 195 234 280 336
#
# _framework density 19.194811000000001
#
# number of rings (size 3 to 8) (size 9 to 14) (size 15 to 20)
#    0.000    1.625    1.250    5.250    0.000    3.500 
#    0.000    1.875    0.000   15.000    0.000    0.000 
#    0.000    0.000    0.000    0.000    0.000    0.000 
#
# Total GULP energy -793781.169075 kJ/mol
# GULP energy per Si atom -12402.830767 kJ/mol
# Density = 1.915112 g / cm^3
# Si number density = 19.194811 Si / 1000 Ang^3
#
#
#
# Elastic Constant Matrix: (Units=GPa)
#
#
# Indices 1 2 3 4 5 6 
#
# 1 100.2783 28.4395 24.7709 0.0000 0.0000 0.0000
# 2 28.4395 119.8683 28.0550 0.0000 0.0000 0.0000
# 3 24.7709 28.0550 73.0413 0.0000 0.0000 0.0000
# 4 0.0000 0.0000 0.0000 22.9926 0.0000 0.0000
# 5 0.0000 0.0000 0.0000 0.0000 34.7099 0.0000
# 6 0.0000 0.0000 0.0000 0.0000 0.0000 18.9410
#
#
#
# Elastic Compliance Matrix: (Units=1/GPa)
#
#
# Indices 1 2 3 4 5 6 
#
# 1 0.011287 -0.001958 -0.003076 0.000000 0.000000 0.000000
# 2 -0.001958 0.009506 -0.002987 0.000000 0.000000 0.000000
# 3 -0.003076 -0.002987 0.015881 0.000000 0.000000 0.000000
# 4 0.000000 0.000000 0.000000 0.043492 0.000000 0.000000
# 5 0.000000 0.000000 0.000000 0.000000 0.028810 0.000000
# 6 0.000000 0.000000 0.000000 0.000000 0.000000 0.052796
#
#
# Mechanical properties :
#
#
# Convention : Reuss Voigt Hill
#
# Bulk Modulus (GPa) = 48.46699 50.63541 49.55120
# Shear Modulus (GPa) = 27.07195 29.45685 28.26440
#
# Velocity S-wave (km/s) = 3.75957 3.92168 3.84148
# Velocity P-wave (km/s) = 6.64460 6.85150 6.74885
#
# Compressibility (1/GPa) = 0.02063260
#
# Stress axis : x y z
#
# Youngs Moduli (GPa) = 88.59447 105.19422 62.96668
#
# Poissons Ratio (x) = 0.20598 0.19368
# Poissons Ratio (y) = 0.17348 0.18810
# Poissons Ratio (z) = 0.27250 0.31424
#
# Static dielectric constant tensor:
#      x y z
#    x 3.532120 0.000000 0.000000 
#    y 0.000000 3.754840 0.000000 
#    z 0.000000 0.000000 3.498600 
# 
# 
# High freq. dielectric constant tensor:
#      x y z
#    x 1.749190 0.000000 0.000000 
#    y 0.000000 1.746980 0.000000 
#    z 0.000000 0.000000 1.740430 
# 
# From -- ./inp_files/26927.got.cif
#   From: 2010.03.12/outbox.cif.g09.slc.cpg/sg53_14_cif.got.tgz:26927.got - 2010.04.16 14:36:59.
