data_PCOD8219330
_publ_section_title
;
Structure prediction by ZEFSAII (Michael W. Deem and Ramdas Pophale) SiO2 
 PCOD8219330
Probable space group: P M N A
;
_chemical_formula_sum "Si O2"
_cell_formula_units_Z 48
_cell_length_a 8.842325
_cell_length_b 11.587487
_cell_length_c 25.629958
_cell_angle_alpha 90.000000
_cell_angle_beta 90.000000
_cell_angle_gamma 90.000000
_cell_volume 2626.053852
_symmetry_space_group_name_H-M "P M N A"
_symmetry_group_IT_number 53
_symmetry_cell_setting 'orthorhombic'
loop_
_space_group_symop_operation_xyz
x,y,z
1/2-x,-y,1/2+z
x,-y,-z
1/2-x,y,1/2-z
-x,-y,-z
1/2+x,y,1/2-z
-x,y,z
1/2+x,-y,1/2+z
loop_
_atom_site_type_symbol
_atom_site_label
_atom_site_fract_x
_atom_site_fract_y
_atom_site_fract_z
Si Si1 0.176419 0.012521 0.560668
Si Si2 0.677573 0.758299 0.400662
Si Si3 0.178274 0.627582 0.695865
Si Si4 0.178104 0.237899 0.403663
Si Si5 0.178190 0.636703 0.304284
Si Si6 0.172830 0.364384 0.505498
O O1 0.275670 0.111883 0.585982
O O2 0.000000 0.042467 0.566728
O O3 0.218517 0.000000 0.500000
O O4 0.220176 0.896320 0.591657
O O5 0.500000 0.751434 0.392373
O O6 0.758664 0.720994 0.347922
O O7 0.725603 0.671791 0.446169
O O8 0.250000 0.669773 0.750000
O O9 0.245131 0.707979 0.649574
O O10 0.223426 0.495637 0.683188
O O11 0.000000 0.641384 0.701143
O O12 0.242466 0.305916 0.453764
O O13 0.000000 0.257647 0.403376
O O14 0.250000 0.676420 0.250000
O O15 0.000000 0.651405 0.300943
O O16 0.180241 0.500000 0.500000
O O17 0.000000 0.322591 0.515197
#
# Coordination Sequence:
#
# PCOD8219330 Si02
#       6
#     8   8   8   8   8   8
#     4  10  19  36  59  78 104 148 198 238 276 326
#     4  12  24  36  53  81 117 149 185 229 282 341
#     4   9  18  34  57  84 111 141 177 222 275 333
#     4   9  17  32  55  81 106 139 185 229 274 327
#     4  10  20  37  60  84 112 146 186 228 278 334
#     4  10  19  34  57  82 108 141 184 231 280 338
#
# _framework density 18.278376999999999
#
# number of rings (size 3 to 8) (size 9 to 14) (size 15 to 20)
#    0.000    2.000    1.667    3.000    0.000    4.000 
#    0.000    2.500    0.000    2.000    0.000    0.000 
#    0.000    0.000    0.000    0.000    0.000    0.000 
#
# Total GULP energy -595315.466525 kJ/mol
# GULP energy per Si atom -12402.405553 kJ/mol
# Density = 1.823677 g / cm^3
# Si number density = 18.278377 Si / 1000 Ang^3
#
#
#
# Elastic Constant Matrix: (Units=GPa)
#
#
# Indices 1 2 3 4 5 6 
#
# 1 58.8010 31.8005 43.9338 0.0000 0.0000 0.0000
# 2 31.8005 91.0515 62.1505 0.0000 0.0000 0.0000
# 3 43.9338 62.1505 152.4627 0.0000 0.0000 0.0000
# 4 0.0000 0.0000 0.0000 3.8165 0.0000 0.0000
# 5 0.0000 0.0000 0.0000 0.0000 31.0758 0.0000
# 6 0.0000 0.0000 0.0000 0.0000 0.0000 18.5885
#
#
#
# Elastic Compliance Matrix: (Units=1/GPa)
#
#
# Indices 1 2 3 4 5 6 
#
# 1 0.023146 -0.004893 -0.004675 0.000000 0.000000 0.000000
# 2 -0.004893 0.016251 -0.005215 0.000000 0.000000 0.000000
# 3 -0.004675 -0.005215 0.010032 0.000000 0.000000 0.000000
# 4 0.000000 0.000000 0.000000 0.262018 0.000000 0.000000
# 5 0.000000 0.000000 0.000000 0.000000 0.032179 0.000000
# 6 0.000000 0.000000 0.000000 0.000000 0.000000 0.053797
#
#
# Mechanical properties :
#
#
# Convention : Reuss Voigt Hill
#
# Bulk Modulus (GPa) = 50.34355 64.23165 57.28760
# Shear Modulus (GPa) = 11.53111 21.65818 16.59464
#
# Velocity S-wave (km/s) = 2.51442 3.44598 3.01638
# Velocity P-wave (km/s) = 6.00268 7.14494 6.59857
#
# Compressibility (1/GPa) = 0.01986352
#
# Stress axis : x y z
#
# Youngs Moduli (GPa) = 43.20461 61.53422 99.68100
#
# Poissons Ratio (x) = 0.30106 0.46604
# Poissons Ratio (y) = 0.21138 0.51982
# Poissons Ratio (z) = 0.20199 0.32089
#
# Static dielectric constant tensor:
#      x y z
#    x 3.169060 0.000000 0.000000 
#    y 0.000000 3.404950 0.000000 
#    z 0.000000 0.000000 3.459530 
# 
# 
# High freq. dielectric constant tensor:
#      x y z
#    x 1.686500 0.000000 0.000000 
#    y 0.000000 1.710240 0.000000 
#    z 0.000000 0.000000 1.715980 
# 
# From -- ./inp_files/33850.got.cif
#   From: 2010.03.12/outbox.cif.g09.slc.cpg/sg53_17_cif.got.tgz:33850.got - 2010.04.16 14:36:59.
