data_PCOD8219465
_publ_section_title
;
Structure prediction by ZEFSAII (Michael W. Deem and Ramdas Pophale) SiO2 
 PCOD8219465
Probable space group: P M N A
;
_chemical_formula_sum "Si O2"
_cell_formula_units_Z 48
_cell_length_a 7.768069
_cell_length_b 9.604893
_cell_length_c 33.872753
_cell_angle_alpha 90.000000
_cell_angle_beta 90.000000
_cell_angle_gamma 90.000000
_cell_volume 2527.295947
_symmetry_space_group_name_H-M "P M N A"
_symmetry_group_IT_number 53
_symmetry_cell_setting 'orthorhombic'
loop_
_space_group_symop_operation_xyz
x,y,z
1/2-x,-y,1/2+z
x,-y,-z
1/2-x,y,1/2-z
-x,-y,-z
1/2+x,y,1/2-z
-x,y,z
1/2+x,-y,1/2+z
loop_
_atom_site_type_symbol
_atom_site_label
_atom_site_fract_x
_atom_site_fract_y
_atom_site_fract_z
Si Si1 0.691995 0.346334 0.294462
Si Si2 0.301720 0.119225 0.152311
Si Si3 0.294498 0.462746 0.637094
Si Si4 0.197726 0.689020 0.579365
Si Si5 0.500000 0.796934 0.530737
Si Si6 0.198188 0.835706 0.383844
Si Si7 0.500000 0.112725 0.556806
O O1 0.750000 0.360221 0.250000
O O2 0.500000 0.397693 0.294792
O O3 0.705884 0.187313 0.310143
O O4 0.784274 0.452200 0.325287
O O5 0.500000 0.140465 0.161683
O O6 0.249369 0.197940 0.112278
O O7 0.251821 0.957630 0.147213
O O8 0.500000 0.460252 0.636027
O O9 0.225350 0.535178 0.597149
O O10 0.218624 0.308199 0.639457
O O11 0.327387 0.713784 0.543108
O O12 0.000000 0.707441 0.565117
O O13 0.500000 0.803119 0.483773
O O14 0.500000 0.948697 0.550154
O O15 0.326690 0.841255 0.420750
O O16 0.000000 0.856622 0.398269
#
# Coordination Sequence:
#
# PCOD8219465 Si02
#       7
#     8   8   8   8   4   8   4
#     4  10  21  35  58  87 117 149 186 235 289 342
#     4   9  19  34  57  82 109 147 192 237 277 339
#     4  10  20  36  61  85 113 156 197 240 290 348
#     4  10  19  35  58  84 112 150 201 241 285 349
#     4  11  22  37  59  89 117 157 191 255 307 337
#     4  11  22  38  59  86 115 154 198 239 290 353
#     4  11  24  37  59  87 125 149 195 257 297 347
#
# _framework density 18.992630999999999
#
# number of rings (size 3 to 8) (size 9 to 14) (size 15 to 20)
#    0.000    1.833    3.333    1.000    2.333    2.667 
#    0.000    4.167    0.000    4.000    0.000    0.000 
#    0.000    0.000    0.000    0.000    0.000    0.000 
#
# Total GULP energy -595066.904299 kJ/mol
# GULP energy per Si atom -12397.227173 kJ/mol
# Density = 1.894940 g / cm^3
# Si number density = 18.992631 Si / 1000 Ang^3
#
#
#
# Elastic Constant Matrix: (Units=GPa)
#
#
# Indices 1 2 3 4 5 6 
#
# 1 97.2674 22.8237 42.3233 0.0000 0.0000 0.0000
# 2 22.8237 130.9954 45.8471 0.0000 0.0000 0.0000
# 3 42.3233 45.8471 103.3012 0.0000 0.0000 0.0000
# 4 0.0000 0.0000 0.0000 22.3999 0.0000 0.0000
# 5 0.0000 0.0000 0.0000 0.0000 23.5271 0.0000
# 6 0.0000 0.0000 0.0000 0.0000 0.0000 28.5159
#
#
#
# Elastic Compliance Matrix: (Units=1/GPa)
#
#
# Indices 1 2 3 4 5 6 
#
# 1 0.012535 -0.000458 -0.004932 0.000000 0.000000 0.000000
# 2 -0.000458 0.009054 -0.003831 0.000000 0.000000 0.000000
# 3 -0.004932 -0.003831 0.013402 0.000000 0.000000 0.000000
# 4 0.000000 0.000000 0.000000 0.044643 0.000000 0.000000
# 5 0.000000 0.000000 0.000000 0.000000 0.042504 0.000000
# 6 0.000000 0.000000 0.000000 0.000000 0.000000 0.035068
#
#
# Mechanical properties :
#
#
# Convention : Reuss Voigt Hill
#
# Bulk Modulus (GPa) = 60.42889 61.50583 60.96736
# Shear Modulus (GPa) = 27.59929 29.59324 28.59627
#
# Velocity S-wave (km/s) = 3.81617 3.95161 3.88448
# Velocity P-wave (km/s) = 7.16265 7.29895 7.23112
#
# Compressibility (1/GPa) = 0.01654838
#
# Stress axis : x y z
#
# Youngs Moduli (GPa) = 79.77972 110.44339 74.61821
#
# Poissons Ratio (x) = 0.05054 0.36805
# Poissons Ratio (y) = 0.03651 0.28586
# Poissons Ratio (z) = 0.39350 0.42311
#
# Static dielectric constant tensor:
#      x y z
#    x 3.579760 0.000000 0.000000 
#    y 0.000000 3.623750 0.000000 
#    z 0.000000 0.000000 2.989820 
# 
# 
# High freq. dielectric constant tensor:
#      x y z
#    x 1.750480 0.000000 0.000000 
#    y 0.000000 1.739650 0.000000 
#    z 0.000000 0.000000 1.708030 
# 
# From -- ./inp_files/37812.got.cif
#   From: 2010.03.12/outbox.cif.g09.slc.cpg/sg53_19_cif.got.tgz:37812.got - 2010.04.16 14:36:59.
