data_PCOD8219979
_publ_section_title
;
Structure prediction by ZEFSAII (Michael W. Deem and Ramdas Pophale) SiO2 
 PCOD8219979
Probable space group: P M N A
;
_chemical_formula_sum "Si O2"
_cell_formula_units_Z 64
_cell_length_a 8.851358
_cell_length_b 19.496917
_cell_length_c 20.435061
_cell_angle_alpha 90.000000
_cell_angle_beta 90.000000
_cell_angle_gamma 90.000000
_cell_volume 3526.564146
_symmetry_space_group_name_H-M "P M N A"
_symmetry_group_IT_number 53
_symmetry_cell_setting 'orthorhombic'
loop_
_space_group_symop_operation_xyz
x,y,z
1/2-x,-y,1/2+z
x,-y,-z
1/2-x,y,1/2-z
-x,-y,-z
1/2+x,y,1/2-z
-x,y,z
1/2+x,-y,1/2+z
loop_
_atom_site_type_symbol
_atom_site_label
_atom_site_fract_x
_atom_site_fract_y
_atom_site_fract_z
Si Si1 0.823746 0.672924 0.433477
Si Si2 0.322035 0.079922 0.182545
Si Si3 0.680171 0.427622 0.318435
Si Si4 0.822082 0.169835 0.070613
Si Si5 0.176945 0.673570 0.932719
Si Si6 0.180259 0.426702 0.681480
Si Si7 0.322631 0.076886 0.816862
Si Si8 0.822166 0.170160 0.564364
O O1 0.748813 0.646130 0.500187
O O2 0.766917 0.627531 0.372941
O O3 0.779783 0.751523 0.418799
O O4 0.000000 0.664011 0.443240
O O5 0.250000 0.106517 0.250000
O O6 0.500000 0.088490 0.187585
O O7 0.260750 0.124971 0.124053
O O8 0.274159 0.001355 0.169360
O O9 0.750000 0.402190 0.250000
O O10 0.500000 0.433794 0.312213
O O11 0.731516 0.373159 0.372825
O O12 0.750533 0.500303 0.338580
O O13 0.772679 0.248587 0.081812
O O14 0.000000 0.159368 0.076727
O O15 0.766568 0.145016 0.999657
O O16 0.000000 0.668809 0.942261
O O17 0.250000 0.401564 0.750000
O O18 0.000000 0.432322 0.687626
O O19 0.250000 0.104358 0.750000
O O20 0.500000 0.084258 0.809047
O O21 0.263454 0.123441 0.876235
O O22 0.000000 0.160896 0.551891
#
# Coordination Sequence:
#
# PCOD8219979 Si02
#       8
#     8   8   8   8   8   8   8   8
#     4   9  19  34  53  75 101 132 168 205 245 293
#     4  10  20  35  53  75 102 134 168 207 251 298
#     4  10  20  35  53  74  99 130 165 204 247 295
#     4  10  20  35  53  76 103 132 167 209 251 298
#     4   9  20  36  53  74 101 130 166 207 249 295
#     4  10  20  34  51  75 103 132 166 205 246 294
#     4   9  19  34  53  75 102 133 169 209 250 296
#     4   9  18  35  54  74 101 135 170 206 248 297
#
# _framework density 18.147974999999999
#
# number of rings (size 3 to 8) (size 9 to 14) (size 15 to 20)
#    0.000    2.500    0.000    2.250    0.000    5.500 
#    0.000    6.250    0.000    0.000    0.000    0.000 
#    0.000    0.000    0.000    0.000    0.000    0.000 
#
# Total GULP energy -793741.184539 kJ/mol
# GULP energy per Si atom -12402.206008 kJ/mol
# Density = 1.810667 g / cm^3
# Si number density = 18.147975 Si / 1000 Ang^3
#
#
#
# Elastic Constant Matrix: (Units=GPa)
#
#
# Indices 1 2 3 4 5 6 
#
# 1 56.1453 37.0500 53.7028 0.0000 0.0000 0.0000
# 2 37.0500 92.6085 100.6964 0.0000 0.0000 0.0000
# 3 53.7028 100.6964 180.6313 0.0000 0.0000 0.0000
# 4 0.0000 0.0000 0.0000 35.0250 0.0000 0.0000
# 5 0.0000 0.0000 0.0000 0.0000 36.7636 0.0000
# 6 0.0000 0.0000 0.0000 0.0000 0.0000 34.8640
#
#
#
# Elastic Compliance Matrix: (Units=1/GPa)
#
#
# Indices 1 2 3 4 5 6 
#
# 1 0.025778 -0.005027 -0.004862 0.000000 0.000000 0.000000
# 2 -0.005027 0.028398 -0.014336 0.000000 0.000000 0.000000
# 3 -0.004862 -0.014336 0.014974 0.000000 0.000000 0.000000
# 4 0.000000 0.000000 0.000000 0.028551 0.000000 0.000000
# 5 0.000000 0.000000 0.000000 0.000000 0.027201 0.000000
# 6 0.000000 0.000000 0.000000 0.000000 0.000000 0.028683
#
#
# Mechanical properties :
#
#
# Convention : Reuss Voigt Hill
#
# Bulk Modulus (GPa) = 48.30960 79.14263 63.72611
# Shear Modulus (GPa) = 23.93101 30.52624 27.22863
#
# Velocity S-wave (km/s) = 3.63528 4.10576 3.87766
# Velocity P-wave (km/s) = 6.65567 8.13515 7.43231
#
# Compressibility (1/GPa) = 0.02069982
#
# Stress axis : x y z
#
# Youngs Moduli (GPa) = 38.79216 35.21431 66.78422
#
# Poissons Ratio (x) = 0.17702 0.32469
# Poissons Ratio (y) = 0.19500 0.95744
# Poissons Ratio (z) = 0.18860 0.50484
#
# Static dielectric constant tensor:
#      x y z
#    x 3.327860 0.000000 0.000000 
#    y 0.000000 3.450500 0.000000 
#    z 0.000000 0.000000 3.564310 
# 
# 
# High freq. dielectric constant tensor:
#      x y z
#    x 1.706430 0.000000 0.000000 
#    y 0.000000 1.699490 0.000000 
#    z 0.000000 0.000000 1.712230 
# 
# From -- ./inp_files/31261.got.cif
#   From: 2010.03.12/outbox.cif.g09.slc.cpg/sg53_16_cif.got.tgz:31261.got - 2010.04.16 14:36:59.
