data_PCOD8219127
_publ_section_title
;
Structure prediction by ZEFSAII (Michael W. Deem and Ramdas Pophale) SiO2 
 PCOD8219127
Probable space group: P M N A
;
_chemical_formula_sum "Si O2"
_cell_formula_units_Z 56
_cell_length_a 8.823627
_cell_length_b 21.895557
_cell_length_c 14.252567
_cell_angle_alpha 90.000000
_cell_angle_beta 90.000000
_cell_angle_gamma 90.000000
_cell_volume 2753.570688
_symmetry_space_group_name_H-M "P M N A"
_symmetry_group_IT_number 53
_symmetry_cell_setting 'orthorhombic'
loop_
_space_group_symop_operation_xyz
x,y,z
1/2-x,-y,1/2+z
x,-y,-z
1/2-x,y,1/2-z
-x,-y,-z
1/2+x,y,1/2-z
-x,y,z
1/2+x,-y,1/2+z
loop_
_atom_site_type_symbol
_atom_site_label
_atom_site_fract_x
_atom_site_fract_y
_atom_site_fract_z
Si Si1 0.323755 0.888786 0.653271
Si Si2 0.677336 0.597924 0.658378
Si Si3 0.323556 0.636526 0.455256
Si Si4 0.168384 0.520764 0.393722
Si Si5 0.323281 0.967992 0.346743
Si Si6 0.320100 0.132059 0.963825
Si Si7 0.321866 0.240409 0.650290
O O1 0.250000 0.865639 0.750000
O O2 0.500000 0.872011 0.653873
O O3 0.243082 0.853757 0.567700
O O4 0.295453 0.960529 0.640251
O O5 0.750000 0.630591 0.750000
O O6 0.500000 0.602767 0.668274
O O7 0.733728 0.631220 0.563185
O O8 0.726629 0.526940 0.660971
O O9 0.500000 0.620151 0.450026
O O10 0.238156 0.588608 0.387856
O O11 0.287850 0.704121 0.420060
O O12 0.161351 0.500000 0.500000
O O13 0.000000 0.521503 0.349337
O O14 0.250000 0.944717 0.250000
O O15 0.500000 0.951316 0.347089
O O16 0.240591 0.934179 0.432189
O O17 0.500000 0.132803 0.965317
O O18 0.258123 0.181021 0.890638
O O19 0.250000 0.256586 0.750000
O O20 0.500000 0.228135 0.661343
#
# Coordination Sequence:
#
# PCOD8219127 Si02
#       7
#     8   8   8   8   8   8   8
#     4  10  21  38  60  87 118 151 188 231 281 336
#     4  10  19  33  54  82 114 147 184 225 274 330
#     4   9  20  38  58  79 109 149 187 230 282 334
#     4   9  17  30  51  79 110 144 181 223 270 322
#     4  10  20  35  57  86 119 153 189 232 282 336
#     4  12  24  38  58  84 115 152 192 234 282 334
#     4  11  24  43  63  83 109 143 187 236 286 338
#
# _framework density 20.337230999999999
#
# number of rings (size 3 to 8) (size 9 to 14) (size 15 to 20)
#    0.000    1.857    0.000    4.286    0.000    7.429 
#    0.000    2.143    0.000    1.714    0.000    0.000 
#    0.000    0.000    0.000    0.000    0.000    0.000 
#
# Total GULP energy -694545.915531 kJ/mol
# GULP energy per Si atom -12402.605634 kJ/mol
# Density = 2.029094 g / cm^3
# Si number density = 20.337231 Si / 1000 Ang^3
#
#
#
# Elastic Constant Matrix: (Units=GPa)
#
#
# Indices 1 2 3 4 5 6 
#
# 1 120.4216 29.0193 49.0066 0.0000 0.0000 0.0000
# 2 29.0193 46.6518 21.7231 0.0000 0.0000 0.0000
# 3 49.0066 21.7231 127.0258 0.0000 0.0000 0.0000
# 4 0.0000 0.0000 0.0000 28.9413 0.0000 0.0000
# 5 0.0000 0.0000 0.0000 0.0000 38.6698 0.0000
# 6 0.0000 0.0000 0.0000 0.0000 0.0000 21.0963
#
#
#
# Elastic Compliance Matrix: (Units=1/GPa)
#
#
# Indices 1 2 3 4 5 6 
#
# 1 0.010918 -0.005248 -0.003315 0.000000 0.000000 0.000000
# 2 -0.005248 0.025812 -0.002390 0.000000 0.000000 0.000000
# 3 -0.003315 -0.002390 0.009560 0.000000 0.000000 0.000000
# 4 0.000000 0.000000 0.000000 0.034553 0.000000 0.000000
# 5 0.000000 0.000000 0.000000 0.000000 0.025860 0.000000
# 6 0.000000 0.000000 0.000000 0.000000 0.000000 0.047402
#
#
# Mechanical properties :
#
#
# Convention : Reuss Voigt Hill
#
# Bulk Modulus (GPa) = 41.00739 54.84414 47.92577
# Shear Modulus (GPa) = 27.15368 30.69817 28.92592
#
# Velocity S-wave (km/s) = 3.65796 3.88939 3.77545
# Velocity P-wave (km/s) = 6.16834 6.86991 6.52856
#
# Compressibility (1/GPa) = 0.02438585
#
# Stress axis : x y z
#
# Youngs Moduli (GPa) = 91.59450 38.74097 104.60408
#
# Poissons Ratio (x) = 0.20331 0.34672
# Poissons Ratio (y) = 0.48067 0.24997
# Poissons Ratio (z) = 0.30360 0.09258
#
# Static dielectric constant tensor:
#      x y z
#    x 3.796820 0.000000 0.000000 
#    y 0.000000 3.437720 0.000000 
#    z 0.000000 0.000000 3.921390 
# 
# 
# High freq. dielectric constant tensor:
#      x y z
#    x 1.804380 0.000000 0.000000 
#    y 0.000000 1.767410 0.000000 
#    z 0.000000 0.000000 1.806970 
# 
# From -- ./inp_files/20525.got.cif
#   From: 2010.03.12/outbox.cif.g09.slc.cpg/sg53_11_cif.got.tgz:20525.got - 2010.04.16 14:36:59.
