data_PCOD8219071
_publ_section_title
;
Structure prediction by ZEFSAII (Michael W. Deem and Ramdas Pophale) SiO2 
 PCOD8219071
Probable space group: P M N A
;
_chemical_formula_sum "Si O2"
_cell_formula_units_Z 48
_cell_length_a 8.698948
_cell_length_b 31.266704
_cell_length_c 9.516054
_cell_angle_alpha 90.000000
_cell_angle_beta 90.000000
_cell_angle_gamma 90.000000
_cell_volume 2588.247092
_symmetry_space_group_name_H-M "P M N A"
_symmetry_group_IT_number 53
_symmetry_cell_setting 'orthorhombic'
loop_
_space_group_symop_operation_xyz
x,y,z
1/2-x,-y,1/2+z
x,-y,-z
1/2-x,y,1/2-z
-x,-y,-z
1/2+x,y,1/2-z
-x,y,z
1/2+x,-y,1/2+z
loop_
_atom_site_type_symbol
_atom_site_label
_atom_site_fract_x
_atom_site_fract_y
_atom_site_fract_z
Si Si1 0.818044 0.616653 0.900315
Si Si2 0.818311 0.293044 0.399549
Si Si3 0.818189 0.037490 0.903834
Si Si4 0.321796 0.870458 0.400448
Si Si5 0.818115 0.778028 0.094802
Si Si6 0.181188 0.461150 0.904732
O O1 0.750000 0.602544 0.750000
O O2 0.749827 0.661792 0.950487
O O3 0.000000 0.620404 0.883994
O O4 0.769963 0.582595 0.018444
O O5 0.750000 0.279925 0.250000
O O6 0.772343 0.256953 0.508152
O O7 0.000000 0.297003 0.388051
O O8 0.750000 0.032612 0.750000
O O9 0.772356 0.084270 0.972596
O O10 0.000000 0.032291 0.892793
O O11 0.747344 0.000000 0.000000
O O12 0.250000 0.868718 0.250000
O O13 0.500000 0.872336 0.372532
O O14 0.282880 0.825118 0.476461
O O15 0.750000 0.776472 0.250000
O O16 0.000000 0.768264 0.096598
O O17 0.250000 0.462944 0.750000
O O18 0.000000 0.464873 0.889120
O O19 0.244873 0.500000 0.000000
#
# Coordination Sequence:
#
# PCOD8219071 Si02
#       6
#     8   8   8   8   8   8
#     4  10  20  36  57  80 107 139 177 216 257 307
#     4  11  22  37  56  78 106 140 176 214 262 313
#     4   9  17  30  48  70  97 128 163 203 248 298
#     4   8  15  28  47  69  95 128 164 204 248 297
#     4  10  19  33  53  77 103 132 171 215 259 307
#     4  10  22  38  57  83 112 142 177 216 257 304
#
# _framework density 18.545369999999998
#
# number of rings (size 3 to 8) (size 9 to 14) (size 15 to 20)
#    0.000    2.333    0.000    4.000    0.000    3.333 
#    0.000    2.500    0.000    2.000    0.000    0.000 
#    0.000    0.000    0.000    0.000    0.000    0.000 
#
# Total GULP energy -594725.314126 kJ/mol
# GULP energy per Si atom -12390.110711 kJ/mol
# Density = 1.850316 g / cm^3
# Si number density = 18.545370 Si / 1000 Ang^3
#
#
#
# Elastic Constant Matrix: (Units=GPa)
#
#
# Indices 1 2 3 4 5 6 
#
# 1 63.9264 49.3060 30.8221 0.0000 0.0000 0.0000
# 2 49.3060 173.4417 89.3647 0.0000 0.0000 0.0000
# 3 30.8221 89.3647 99.6186 0.0000 0.0000 0.0000
# 4 0.0000 0.0000 0.0000 34.4104 0.0000 0.0000
# 5 0.0000 0.0000 0.0000 0.0000 29.8523 0.0000
# 6 0.0000 0.0000 0.0000 0.0000 0.0000 -25.8998
#
#
#
# Elastic Compliance Matrix: (Units=1/GPa)
#
#
# Indices 1 2 3 4 5 6 
#
# 1 0.020259 -0.004704 -0.002049 0.000000 0.000000 0.000000
# 2 -0.004704 0.011813 -0.009142 0.000000 0.000000 0.000000
# 3 -0.002049 -0.009142 0.018873 0.000000 0.000000 0.000000
# 4 0.000000 0.000000 0.000000 0.029061 0.000000 0.000000
# 5 0.000000 0.000000 0.000000 0.000000 0.033498 0.000000
# 6 0.000000 0.000000 0.000000 0.000000 0.000000 -0.038610
#
#
# Mechanical properties :
#
#
# Convention : Reuss Voigt Hill
#
# Bulk Modulus (GPa) = 52.20136 75.10805 63.65470
# Shear Modulus (GPa) = 44.22166 18.83885 31.53025
#
# Velocity S-wave (km/s) = 4.88844 3.19066 4.12778
# Velocity P-wave (km/s) = 7.75058 7.35943 7.55754
#
# Compressibility (1/GPa) = 0.01915659
#
# Stress axis : x y z
#
# Youngs Moduli (GPa) = 49.36183 84.65251 52.98597
#
# Poissons Ratio (x) = 0.39817 0.10855
# Poissons Ratio (y) = 0.23218 0.48439
# Poissons Ratio (z) = 0.10112 0.77387
#
# Static dielectric constant tensor:
#      x y z
#    x 3.521950 0.000000 0.000000 
#    y 0.000000 4.170800 0.000000 
#    z 0.000000 0.000000 3.203800 
# 
# 
# High freq. dielectric constant tensor:
#      x y z
#    x 1.724530 0.000000 0.000000 
#    y 0.000000 1.748130 0.000000 
#    z 0.000000 0.000000 1.689500 
# 
# From -- ./inp_files/6588.got.cif
#   From: 2010.03.12/outbox.cif.g09.slc.cpg/sg53_4_cif.got.tgz:6588.got - 2010.04.16 14:36:59.
