data_PCOD8219531
_publ_section_title
;
Structure prediction by ZEFSAII (Michael W. Deem and Ramdas Pophale) SiO2 
 PCOD8219531
Probable space group: P M N A
;
_chemical_formula_sum "Si O2"
_cell_formula_units_Z 48
_cell_length_a 19.246500
_cell_length_b 14.912273
_cell_length_c 9.101240
_cell_angle_alpha 90.000000
_cell_angle_beta 90.000000
_cell_angle_gamma 90.000000
_cell_volume 2612.138358
_symmetry_space_group_name_H-M "P M N A"
_symmetry_group_IT_number 53
_symmetry_cell_setting 'orthorhombic'
loop_
_space_group_symop_operation_xyz
x,y,z
1/2-x,-y,1/2+z
x,-y,-z
1/2-x,y,1/2-z
-x,-y,-z
1/2+x,y,1/2-z
-x,y,z
1/2+x,-y,1/2+z
loop_
_atom_site_type_symbol
_atom_site_label
_atom_site_fract_x
_atom_site_fract_y
_atom_site_fract_z
Si Si1 0.820445 0.912716 0.081997
Si Si2 0.420047 0.769128 0.907104
Si Si3 0.155812 0.914579 0.407081
Si Si4 0.189498 0.562084 0.857921
Si Si5 0.184160 0.232958 0.153844
Si Si6 0.921036 0.566484 0.619455
O O1 0.738116 0.917022 0.095883
O O2 0.863677 0.913596 0.234576
O O3 0.834085 0.822957 0.990520
O O4 0.848968 0.000000 0.000000
O O5 0.500000 0.801845 0.900505
O O6 0.385644 0.777656 0.747775
O O7 0.414736 0.665043 0.951487
O O8 0.376482 0.825010 0.025212
O O9 0.126963 0.000000 0.500000
O O10 0.250000 0.528292 0.750000
O O11 0.201962 0.666310 0.899518
O O12 0.116702 0.554826 0.774412
O O13 0.188112 0.500000 0.000000
O O14 0.250000 0.195665 0.250000
O O15 0.887395 0.500000 0.500000
O O16 0.000000 0.539909 0.652272
#
# Coordination Sequence:
#
# PCOD8219531 Si02
#       6
#     8   8   8   8   8   8
#     4  10  20  33  56  82 105 138 183 226 261 312
#     4  10  20  35  56  79 109 144 178 220 271 321
#     4  10  20  34  54  81 108 139 178 222 269 318
#     4  10  21  35  52  79 110 142 174 222 273 318
#     4  10  19  36  56  77 106 142 181 220 266 318
#     4   9  19  36  57  78 104 144 185 218 261 320
#
# _framework density 18.37575
#
# number of rings (size 3 to 8) (size 9 to 14) (size 15 to 20)
#    0.000    2.167    1.667    1.500    2.333    2.000 
#    3.000    0.833    0.000    2.000    0.000    0.000 
#    0.000    0.000    0.000    0.000    0.000    0.000 
#
# Total GULP energy -595007.879322 kJ/mol
# GULP energy per Si atom -12395.997486 kJ/mol
# Density = 1.833393 g / cm^3
# Si number density = 18.375750 Si / 1000 Ang^3
#
#
#
# Elastic Constant Matrix: (Units=GPa)
#
#
# Indices 1 2 3 4 5 6 
#
# 1 47.2355 25.6633 30.0178 0.0000 0.0000 0.0000
# 2 25.6633 105.6042 81.6152 0.0000 0.0000 0.0000
# 3 30.0178 81.6152 144.3987 0.0000 0.0000 0.0000
# 4 0.0000 0.0000 0.0000 30.6877 0.0000 0.0000
# 5 0.0000 0.0000 0.0000 0.0000 19.1713 0.0000
# 6 0.0000 0.0000 0.0000 0.0000 0.0000 20.2230
#
#
#
# Elastic Compliance Matrix: (Units=1/GPa)
#
#
# Indices 1 2 3 4 5 6 
#
# 1 0.025174 -0.003681 -0.003153 0.000000 0.000000 0.000000
# 2 -0.003681 0.017352 -0.009042 0.000000 0.000000 0.000000
# 3 -0.003153 -0.009042 0.012691 0.000000 0.000000 0.000000
# 4 0.000000 0.000000 0.000000 0.032586 0.000000 0.000000
# 5 0.000000 0.000000 0.000000 0.000000 0.052161 0.000000
# 6 0.000000 0.000000 0.000000 0.000000 0.000000 0.049449
#
#
# Mechanical properties :
#
#
# Convention : Reuss Voigt Hill
#
# Bulk Modulus (GPa) = 42.61596 63.53679 53.07637
# Shear Modulus (GPa) = 21.83521 24.67920 23.25721
#
# Velocity S-wave (km/s) = 3.45086 3.66871 3.56145
# Velocity P-wave (km/s) = 6.25457 7.25241 6.77189
#
# Compressibility (1/GPa) = 0.02346539
#
# Stress axis : x y z
#
# Youngs Moduli (GPa) = 39.72356 57.62958 78.79334
#
# Poissons Ratio (x) = 0.21215 0.24840
# Poissons Ratio (y) = 0.14623 0.71248
# Poissons Ratio (z) = 0.12523 0.52111
#
# Static dielectric constant tensor:
#      x y z
#    x 3.336570 0.000000 0.000000 
#    y 0.000000 3.489890 0.000000 
#    z 0.000000 0.000000 3.464830 
# 
# 
# High freq. dielectric constant tensor:
#      x y z
#    x 1.696910 0.000000 0.000000 
#    y 0.000000 1.719650 0.000000 
#    z 0.000000 0.000000 1.706900 
# 
# From -- ./inp_files/9959.got.cif
#   From: 2010.03.12/outbox.cif.g09.slc.cpg/sg53_5_cif.got.tgz:9959.got - 2010.04.16 14:36:59.
