data_PCOD8219667
_publ_section_title
;
Structure prediction by ZEFSAII (Michael W. Deem and Ramdas Pophale) SiO2 
 PCOD8219667
Probable space group: P M N A
;
_chemical_formula_sum "Si O2"
_cell_formula_units_Z 48
_cell_length_a 16.793659
_cell_length_b 10.089257
_cell_length_c 13.812390
_cell_angle_alpha 90.000000
_cell_angle_beta 90.000000
_cell_angle_gamma 90.000000
_cell_volume 2340.309781
_symmetry_space_group_name_H-M "P M N A"
_symmetry_group_IT_number 53
_symmetry_cell_setting 'orthorhombic'
loop_
_space_group_symop_operation_xyz
x,y,z
1/2-x,-y,1/2+z
x,-y,-z
1/2-x,y,1/2-z
-x,-y,-z
1/2+x,y,1/2-z
-x,y,z
1/2+x,-y,1/2+z
loop_
_atom_site_type_symbol
_atom_site_label
_atom_site_fract_x
_atom_site_fract_y
_atom_site_fract_z
Si Si1 0.158428 0.005925 0.225803
Si Si2 0.595148 0.601144 0.919536
Si Si3 0.906936 0.103563 0.424009
Si Si4 0.594132 0.750487 0.363829
Si Si5 0.405944 0.216535 0.414010
Si Si6 0.094557 0.533038 0.792864
O O1 0.250000 0.022261 0.250000
O O2 0.106368 0.058155 0.314698
O O3 0.137724 0.089855 0.130581
O O4 0.137727 0.853545 0.206200
O O5 0.500000 0.601471 0.918978
O O6 0.628394 0.748947 0.941334
O O7 0.627729 0.554467 0.815325
O O8 0.628432 0.500000 0.000000
O O9 0.000000 0.110146 0.444119
O O10 0.867146 0.000000 0.500000
O O11 0.500000 0.763507 0.348395
O O12 0.618018 0.776200 0.474317
O O13 0.626046 0.605862 0.334092
O O14 0.500000 0.198468 0.400244
O O15 0.374514 0.349179 0.361546
O O16 0.000000 0.533322 0.793303
#
# Coordination Sequence:
#
# PCOD8219667 Si02
#       6
#     8   8   8   8   8   8
#     4  12  25  39  56  82 120 162 196 236 285 348
#     4   9  17  30  53  86 118 147 181 233 293 344
#     4  10  21  37  59  85 114 149 195 243 286 338
#     4  10  21  36  63  94 117 148 192 245 297 349
#     4  10  19  38  65  91 117 149 194 243 295 349
#     4   9  17  32  59  92 121 142 182 247 304 350
#
# _framework density 20.510104999999999
#
# number of rings (size 3 to 8) (size 9 to 14) (size 15 to 20)
#    0.000    2.000    1.667    2.500    2.333    4.667 
#    0.000    0.833    0.000    0.000    0.000    0.000 
#    0.000    0.000    0.000    0.000    0.000    0.000 
#
# Total GULP energy -595309.924474 kJ/mol
# GULP energy per Si atom -12402.290093 kJ/mol
# Density = 2.046342 g / cm^3
# Si number density = 20.510105 Si / 1000 Ang^3
#
#
#
# Elastic Constant Matrix: (Units=GPa)
#
#
# Indices 1 2 3 4 5 6 
#
# 1 21.3101 17.0110 14.6788 0.0000 0.0000 0.0000
# 2 17.0110 150.5422 57.3995 0.0000 0.0000 0.0000
# 3 14.6788 57.3995 117.8141 0.0000 0.0000 0.0000
# 4 0.0000 0.0000 0.0000 50.4975 0.0000 0.0000
# 5 0.0000 0.0000 0.0000 0.0000 4.5512 0.0000
# 6 0.0000 0.0000 0.0000 0.0000 0.0000 4.1758
#
#
#
# Elastic Compliance Matrix: (Units=1/GPa)
#
#
# Indices 1 2 3 4 5 6 
#
# 1 0.053510 -0.004304 -0.004570 0.000000 0.000000 0.000000
# 2 -0.004304 0.008504 -0.003607 0.000000 0.000000 0.000000
# 3 -0.004570 -0.003607 0.010815 0.000000 0.000000 0.000000
# 4 0.000000 0.000000 0.000000 0.019803 0.000000 0.000000
# 5 0.000000 0.000000 0.000000 0.000000 0.219722 0.000000
# 6 0.000000 0.000000 0.000000 0.000000 0.000000 0.239473
#
#
# Mechanical properties :
#
#
# Convention : Reuss Voigt Hill
#
# Bulk Modulus (GPa) = 20.89137 51.98276 36.43706
# Shear Modulus (GPa) = 8.43533 25.21672 16.82603
#
# Velocity S-wave (km/s) = 2.03020 3.51020 2.86733
# Velocity P-wave (km/s) = 3.96278 6.46750 5.36340
#
# Compressibility (1/GPa) = 0.04786666
#
# Stress axis : x y z
#
# Youngs Moduli (GPa) = 18.68815 117.58715 92.46659
#
# Poissons Ratio (x) = 0.50610 0.42257
# Poissons Ratio (y) = 0.08043 0.33354
# Poissons Ratio (z) = 0.08540 0.42415
#
# Static dielectric constant tensor:
#      x y z
#    x 3.110760 0.000000 0.000000 
#    y 0.000000 4.093220 0.000000 
#    z 0.000000 0.000000 3.878850 
# 
# 
# High freq. dielectric constant tensor:
#      x y z
#    x 1.744500 0.000000 0.000000 
#    y 0.000000 1.822600 0.000000 
#    z 0.000000 0.000000 1.813430 
# 
# From -- ./inp_files/23683.got.cif
#   From: 2010.03.12/outbox.cif.g09.slc.cpg/sg53_12_cif.got.tgz:23683.got - 2010.04.16 14:36:59.
