data_PCOD8219344
_publ_section_title
;
Structure prediction by ZEFSAII (Michael W. Deem and Ramdas Pophale) SiO2 
 PCOD8219344
Probable space group: P M N A
;
_chemical_formula_sum "Si O2"
_cell_formula_units_Z 64
_cell_length_a 8.773112
_cell_length_b 20.966412
_cell_length_c 18.587659
_cell_angle_alpha 90.000000
_cell_angle_beta 90.000000
_cell_angle_gamma 90.000000
_cell_volume 3419.026649
_symmetry_space_group_name_H-M "P M N A"
_symmetry_group_IT_number 53
_symmetry_cell_setting 'orthorhombic'
loop_
_space_group_symop_operation_xyz
x,y,z
1/2-x,-y,1/2+z
x,-y,-z
1/2-x,y,1/2-z
-x,-y,-z
1/2+x,y,1/2-z
-x,y,z
1/2+x,-y,1/2+z
loop_
_atom_site_type_symbol
_atom_site_label
_atom_site_fract_x
_atom_site_fract_y
_atom_site_fract_z
Si Si1 0.180582 0.187440 0.532182
Si Si2 0.824565 0.503812 0.915427
Si Si3 0.320892 0.746834 0.176761
Si Si4 0.320675 0.250052 0.112770
Si Si5 0.680615 0.882451 0.824925
Si Si6 0.678686 0.066782 0.464503
Si Si7 0.819800 0.399195 0.676160
Si Si8 0.818486 0.383412 0.327760
O O1 0.238989 0.213375 0.608663
O O2 0.225619 0.238947 0.470594
O O3 0.264372 0.121104 0.518758
O O4 0.000000 0.175526 0.530742
O O5 0.754324 0.437813 0.888326
O O6 0.731397 0.563064 0.883992
O O7 0.000000 0.510288 0.892076
O O8 0.804784 0.500000 0.000000
O O9 0.250000 0.775088 0.250000
O O10 0.500000 0.752417 0.183500
O O11 0.270432 0.673936 0.165502
O O12 0.500000 0.254698 0.119672
O O13 0.261591 0.189714 0.159089
O O14 0.251054 0.315723 0.143521
O O15 0.750000 0.906153 0.750000
O O16 0.500000 0.886175 0.821835
O O17 0.738101 0.929018 0.887686
O O18 0.500000 0.074016 0.451712
O O19 0.722611 0.000000 0.500000
O O20 0.750000 0.426286 0.750000
O O21 0.000000 0.408605 0.676704
O O22 0.750000 0.398683 0.250000
O O23 0.000000 0.383003 0.322389
#
# Coordination Sequence:
#
# PCOD8219344 Si02
#       8
#     8   8   8   8   8   8   8   8
#     4   9  18  35  57  82 111 144 181 223 272 322
#     4  11  25  41  54  74 106 139 179 229 274 321
#     4   9  19  34  56  83 111 140 177 226 274 328
#     4   8  17  32  54  82 110 140 175 220 267 321
#     4  10  19  34  57  84 115 147 184 226 271 322
#     4  10  21  37  56  81 113 149 189 229 268 318
#     4  10  20  36  59  81 104 138 178 221 272 328
#     4  11  22  37  58  80 108 142 178 219 269 327
#
# _framework density 18.718778
#
# number of rings (size 3 to 8) (size 9 to 14) (size 15 to 20)
#    0.000    2.250    0.000    3.375    1.750    3.000 
#    0.000    6.250    0.000    1.500    0.000    0.000 
#    0.000    0.000    0.000    0.000    0.000    0.000 
#
# Total GULP energy -793697.222088 kJ/mol
# GULP energy per Si atom -12401.519095 kJ/mol
# Density = 1.867617 g / cm^3
# Si number density = 18.718778 Si / 1000 Ang^3
#
#
#
# Elastic Constant Matrix: (Units=GPa)
#
#
# Indices 1 2 3 4 5 6 
#
# 1 69.2533 38.2522 50.4506 0.0000 0.0000 0.0000
# 2 38.2522 99.1852 66.4104 0.0000 0.0000 0.0000
# 3 50.4506 66.4104 143.6724 0.0000 0.0000 0.0000
# 4 0.0000 0.0000 0.0000 24.9398 0.0000 0.0000
# 5 0.0000 0.0000 0.0000 0.0000 31.5144 0.0000
# 6 0.0000 0.0000 0.0000 0.0000 0.0000 18.8378
#
#
#
# Elastic Compliance Matrix: (Units=1/GPa)
#
#
# Indices 1 2 3 4 5 6 
#
# 1 0.020712 -0.004516 -0.005186 0.000000 0.000000 0.000000
# 2 -0.004516 0.015586 -0.005619 0.000000 0.000000 0.000000
# 3 -0.005186 -0.005619 0.011378 0.000000 0.000000 0.000000
# 4 0.000000 0.000000 0.000000 0.040097 0.000000 0.000000
# 5 0.000000 0.000000 0.000000 0.000000 0.031732 0.000000
# 6 0.000000 0.000000 0.000000 0.000000 0.000000 0.053085
#
#
# Mechanical properties :
#
#
# Convention : Reuss Voigt Hill
#
# Bulk Modulus (GPa) = 58.69943 69.14860 63.92402
# Shear Modulus (GPa) = 23.93413 25.52491 24.72952
#
# Velocity S-wave (km/s) = 3.57965 3.69670 3.63865
# Velocity P-wave (km/s) = 6.96505 7.43248 7.20256
#
# Compressibility (1/GPa) = 0.01703594
#
# Stress axis : x y z
#
# Youngs Moduli (GPa) = 48.28191 64.16161 87.88657
#
# Poissons Ratio (x) = 0.28973 0.45575
# Poissons Ratio (y) = 0.21803 0.49379
# Poissons Ratio (z) = 0.25037 0.36050
#
# Static dielectric constant tensor:
#      x y z
#    x 3.359680 0.000000 0.000000 
#    y 0.000000 3.462120 0.000000 
#    z 0.000000 0.000000 3.555030 
# 
# 
# High freq. dielectric constant tensor:
#      x y z
#    x 1.722880 0.000000 0.000000 
#    y 0.000000 1.718510 0.000000 
#    z 0.000000 0.000000 1.736680 
# 
# From -- ./inp_files/26933.got.cif
#   From: 2010.03.12/outbox.cif.g09.slc.cpg/sg53_14_cif.got.tgz:26933.got - 2010.04.16 14:36:59.
