data_PCOD8219936
_publ_section_title
;
Structure prediction by ZEFSAII (Michael W. Deem and Ramdas Pophale) SiO2 
 PCOD8219936
Probable space group: P M N A
;
_chemical_formula_sum "Si O2"
_cell_formula_units_Z 48
_cell_length_a 9.972290
_cell_length_b 13.697802
_cell_length_c 19.727081
_cell_angle_alpha 90.000000
_cell_angle_beta 90.000000
_cell_angle_gamma 90.000000
_cell_volume 2694.688765
_symmetry_space_group_name_H-M "P M N A"
_symmetry_group_IT_number 53
_symmetry_cell_setting 'orthorhombic'
loop_
_space_group_symop_operation_xyz
x,y,z
1/2-x,-y,1/2+z
x,-y,-z
1/2-x,y,1/2-z
-x,-y,-z
1/2+x,y,1/2-z
-x,y,z
1/2+x,-y,1/2+z
loop_
_atom_site_type_symbol
_atom_site_label
_atom_site_fract_x
_atom_site_fract_y
_atom_site_fract_z
Si Si1 0.253272 0.645283 0.651596
Si Si2 0.500000 0.586844 0.054666
Si Si3 0.000000 0.603543 0.035420
Si Si4 0.156120 0.099165 0.038134
Si Si5 0.000000 0.506172 0.838248
Si Si6 0.768478 0.702993 0.504912
Si Si7 0.000000 0.465260 0.309169
Si Si8 0.654723 0.856110 0.690689
O O1 0.368903 0.566722 0.641640
O O2 0.186481 0.667611 0.579048
O O3 0.131606 0.602862 0.696105
O O4 0.315305 0.741335 0.684778
O O5 0.626801 0.658817 0.048455
O O6 0.500000 0.539822 0.128778
O O7 0.500000 0.500000 0.000000
O O8 0.124434 0.664344 0.012101
O O9 0.000000 0.591543 0.116790
O O10 0.000000 0.500000 0.000000
O O11 0.184229 0.090446 0.118984
O O12 0.000000 0.127466 0.027235
O O13 0.255015 0.179528 0.004755
O O14 0.192783 0.000000 0.000000
O O15 0.000000 0.472672 0.760103
O O16 0.750000 0.900554 0.750000
O O17 0.500000 0.870849 0.712180
#
# Coordination Sequence:
#
# PCOD8219936 Si02
#       8
#     8   4   4   8   4   8   4   8
#     4  11  20  33  49  75 110 144 182 220 277 334
#     4  12  22  38  53  76 115 156 187 214 271 335
#     4  12  20  32  57  78 105 140 193 228 259 321
#     4   9  19  38  63  88 111 139 189 244 288 325
#     4  12  22  32  48  74 108 142 187 234 263 317
#     4  11  20  36  57  83 105 146 189 230 277 327
#     4  12  24  34  48  72 112 156 185 220 273 319
#     4  10  20  33  54  83 117 146 174 222 286 351
#
# _framework density 17.812818
#
# number of rings (size 3 to 8) (size 9 to 14) (size 15 to 20)
#    0.000    1.167    5.000    3.000    1.167    0.000 
#    1.500    0.417    0.000    2.000    0.000    0.000 
#    0.000    0.000    0.000    0.000    0.000    0.000 
#
# Total GULP energy -595147.880322 kJ/mol
# GULP energy per Si atom -12398.914173 kJ/mol
# Density = 1.777228 g / cm^3
# Si number density = 17.812818 Si / 1000 Ang^3
#
#
#
# Elastic Constant Matrix: (Units=GPa)
#
#
# Indices 1 2 3 4 5 6 
#
# 1 96.2800 31.4282 13.8136 0.0000 0.0000 0.0000
# 2 31.4282 76.9288 46.2272 0.0000 0.0000 0.0000
# 3 13.8136 46.2272 97.8634 0.0000 0.0000 0.0000
# 4 0.0000 0.0000 0.0000 22.2764 0.0000 0.0000
# 5 0.0000 0.0000 0.0000 0.0000 58.0622 0.0000
# 6 0.0000 0.0000 0.0000 0.0000 0.0000 21.4451
#
#
#
# Elastic Compliance Matrix: (Units=1/GPa)
#
#
# Indices 1 2 3 4 5 6 
#
# 1 0.012038 -0.005441 0.000871 0.000000 0.000000 0.000000
# 2 -0.005441 0.020611 -0.008968 0.000000 0.000000 0.000000
# 3 0.000871 -0.008968 0.014331 0.000000 0.000000 0.000000
# 4 0.000000 0.000000 0.000000 0.044891 0.000000 0.000000
# 5 0.000000 0.000000 0.000000 0.000000 0.017223 0.000000
# 6 0.000000 0.000000 0.000000 0.000000 0.000000 0.046631
#
#
# Mechanical properties :
#
#
# Convention : Reuss Voigt Hill
#
# Bulk Modulus (GPa) = 50.24117 50.44557 50.34337
# Shear Modulus (GPa) = 26.39435 32.33027 29.36231
#
# Velocity S-wave (km/s) = 3.85354 4.26490 4.06443
# Velocity P-wave (km/s) = 6.93296 7.25492 7.09577
#
# Compressibility (1/GPa) = 0.01990400
#
# Stress axis : x y z
#
# Youngs Moduli (GPa) = 83.07335 48.51830 69.77675
#
# Poissons Ratio (x) = 0.26400 -0.06078
# Poissons Ratio (y) = 0.45202 0.62574
# Poissons Ratio (z) = -0.07237 0.43510
#
# Static dielectric constant tensor:
#      x y z
#    x 3.391940 0.000000 0.000000 
#    y 0.000000 3.192060 0.000000 
#    z 0.000000 0.000000 3.363540 
# 
# 
# High freq. dielectric constant tensor:
#      x y z
#    x 1.697440 0.000000 0.000000 
#    y 0.000000 1.650400 0.000000 
#    z 0.000000 0.000000 1.693900 
# 
# From -- ./inp_files/26373.got.cif
#   From: 2010.03.12/outbox.cif.g09.slc.cpg/sg53_14_cif.got.tgz:26373.got - 2010.04.16 14:36:59.
