data_PCOD8219074
_publ_section_title
;
Structure prediction by ZEFSAII (Michael W. Deem and Ramdas Pophale) SiO2 
 PCOD8219074
Probable space group: P M N A
;
_chemical_formula_sum "Si O2"
_cell_formula_units_Z 48
_cell_length_a 8.931391
_cell_length_b 30.998021
_cell_length_c 9.502782
_cell_angle_alpha 90.000000
_cell_angle_beta 90.000000
_cell_angle_gamma 90.000000
_cell_volume 2630.896947
_symmetry_space_group_name_H-M "P M N A"
_symmetry_group_IT_number 53
_symmetry_cell_setting 'orthorhombic'
loop_
_space_group_symop_operation_xyz
x,y,z
1/2-x,-y,1/2+z
x,-y,-z
1/2-x,y,1/2-z
-x,-y,-z
1/2+x,y,1/2-z
-x,y,z
1/2+x,-y,1/2+z
loop_
_atom_site_type_symbol
_atom_site_label
_atom_site_fract_x
_atom_site_fract_y
_atom_site_fract_z
Si Si1 0.324447 0.540892 0.401791
Si Si2 0.326052 0.964120 0.396598
Si Si3 0.322440 0.388586 0.095517
Si Si4 0.175703 0.798516 0.598056
Si Si5 0.328891 0.294409 0.104617
Si Si6 0.825223 0.867053 0.100982
O O1 0.294103 0.500000 0.500000
O O2 0.250000 0.533074 0.250000
O O3 0.500000 0.549469 0.380375
O O4 0.249832 0.581194 0.478903
O O5 0.250000 0.971989 0.250000
O O6 0.500000 0.972172 0.374416
O O7 0.294977 0.915782 0.453216
O O8 0.257343 0.000000 0.500000
O O9 0.250000 0.395877 0.250000
O O10 0.500000 0.397504 0.107460
O O11 0.285232 0.340257 0.033945
O O12 0.250000 0.799742 0.750000
O O13 0.203343 0.750981 0.523435
O O14 0.252491 0.834934 0.507846
O O15 0.000000 0.808318 0.611672
O O16 0.250000 0.290322 0.250000
O O17 0.500000 0.297115 0.145009
O O18 0.750000 0.859207 0.250000
O O19 0.000000 0.857302 0.115495
#
# Coordination Sequence:
#
# PCOD8219074 Si02
#       6
#     8   8   8   8   8   8
#     4  11  24  40  58  81 109 141 177 217 262 311
#     4   9  19  35  53  74 100 130 166 208 254 306
#     4  10  19  34  57  83 110 140 176 216 260 309
#     4  10  19  33  53  78 107 138 175 216 258 304
#     4   8  16  30  50  76 105 137 172 212 256 304
#     4  10  20  35  53  74 102 136 173 212 258 310
#
# _framework density 18.244727999999999
#
# number of rings (size 3 to 8) (size 9 to 14) (size 15 to 20)
#    0.000    2.333    0.000    2.500    0.000    5.667 
#    0.000    2.500    0.000    0.000    0.000    0.000 
#    0.000    0.000    0.000    0.000    0.000    0.000 
#
# Total GULP energy -594710.936223 kJ/mol
# GULP energy per Si atom -12389.811171 kJ/mol
# Density = 1.820320 g / cm^3
# Si number density = 18.244728 Si / 1000 Ang^3
#
#
#
# Elastic Constant Matrix: (Units=GPa)
#
#
# Indices 1 2 3 4 5 6 
#
# 1 99.0344 77.6589 63.0776 0.0000 0.0000 0.0000
# 2 77.6589 164.9910 82.3595 0.0000 0.0000 0.0000
# 3 63.0776 82.3595 92.3061 0.0000 0.0000 0.0000
# 4 0.0000 0.0000 0.0000 32.1995 0.0000 0.0000
# 5 0.0000 0.0000 0.0000 0.0000 32.4262 0.0000
# 6 0.0000 0.0000 0.0000 0.0000 0.0000 33.1498
#
#
#
# Elastic Compliance Matrix: (Units=1/GPa)
#
#
# Indices 1 2 3 4 5 6 
#
# 1 0.019633 -0.004587 -0.009324 0.000000 0.000000 0.000000
# 2 -0.004587 0.012000 -0.007572 0.000000 0.000000 0.000000
# 3 -0.009324 -0.007572 0.023961 0.000000 0.000000 0.000000
# 4 0.000000 0.000000 0.000000 0.031056 0.000000 0.000000
# 5 0.000000 0.000000 0.000000 0.000000 0.030839 0.000000
# 6 0.000000 0.000000 0.000000 0.000000 0.000000 0.030166
#
#
# Mechanical properties :
#
#
# Convention : Reuss Voigt Hill
#
# Bulk Modulus (GPa) = 79.18707 89.16928 84.17817
# Shear Modulus (GPa) = 25.66339 28.43747 27.05043
#
# Velocity S-wave (km/s) = 3.75456 3.95228 3.85469
# Velocity P-wave (km/s) = 7.89256 8.35509 8.12712
#
# Compressibility (1/GPa) = 0.01262832
#
# Stress axis : x y z
#
# Youngs Moduli (GPa) = 50.93565 83.33486 41.73414
#
# Poissons Ratio (x) = 0.38223 0.38911
# Poissons Ratio (y) = 0.23363 0.31603
# Poissons Ratio (z) = 0.47490 0.63104
#
# Static dielectric constant tensor:
#      x y z
#    x 3.536500 0.000000 0.000000 
#    y 0.000000 4.106010 0.000000 
#    z 0.000000 0.000000 3.072770 
# 
# 
# High freq. dielectric constant tensor:
#      x y z
#    x 1.722030 0.000000 0.000000 
#    y 0.000000 1.733010 0.000000 
#    z 0.000000 0.000000 1.676980 
# 
# From -- ./inp_files/6701.got.cif
#   From: 2010.03.12/outbox.cif.g09.slc.cpg/sg53_4_cif.got.tgz:6701.got - 2010.04.16 14:36:59.
