data_PCOD8219473
_publ_section_title
;
Structure prediction by ZEFSAII (Michael W. Deem and Ramdas Pophale) SiO2 
 PCOD8219473
Probable space group: P M N A
;
_chemical_formula_sum "Si O2"
_cell_formula_units_Z 48
_cell_length_a 9.118301
_cell_length_b 10.034693
_cell_length_c 27.962005
_cell_angle_alpha 90.000000
_cell_angle_beta 90.000000
_cell_angle_gamma 90.000000
_cell_volume 2558.505316
_symmetry_space_group_name_H-M "P M N A"
_symmetry_group_IT_number 53
_symmetry_cell_setting 'orthorhombic'
loop_
_space_group_symop_operation_xyz
x,y,z
1/2-x,-y,1/2+z
x,-y,-z
1/2-x,y,1/2-z
-x,-y,-z
1/2+x,y,1/2-z
-x,y,z
1/2+x,-y,1/2+z
loop_
_atom_site_type_symbol
_atom_site_label
_atom_site_fract_x
_atom_site_fract_y
_atom_site_fract_z
Si Si1 0.329581 0.284921 0.605516
Si Si2 0.828226 0.784426 0.608252
Si Si3 0.332342 0.985218 0.444386
Si Si4 0.170674 0.153330 0.797252
Si Si5 0.828495 0.482353 0.446340
Si Si6 0.172546 0.155777 0.201517
O O1 0.500000 0.320791 0.606335
O O2 0.275119 0.240467 0.658015
O O3 0.242679 0.414518 0.590055
O O4 0.296477 0.166656 0.568467
O O5 0.777317 0.920246 0.583757
O O6 0.790820 0.664933 0.572083
O O7 0.741411 0.761339 0.657730
O O8 0.000000 0.793049 0.619603
O O9 0.500000 0.020935 0.429761
O O10 0.304467 0.000000 0.500000
O O11 0.250000 0.206839 0.750000
O O12 0.000000 0.170795 0.788519
O O13 0.208559 0.999411 0.807568
O O14 0.764336 0.500000 0.500000
O O15 0.000000 0.511265 0.446510
O O16 0.250000 0.205121 0.250000
O O17 0.000000 0.183924 0.204957
#
# Coordination Sequence:
#
# PCOD8219473 Si02
#       6
#     8   8   8   8   8   8
#     4  10  20  36  56  83 112 143 187 233 280 337
#     4  11  22  36  56  83 114 150 193 234 283 341
#     4  10  20  35  56  82 112 144 185 240 292 339
#     4   9  18  33  54  82 114 142 177 226 276 331
#     4  10  23  41  57  78 113 153 192 235 280 333
#     4  10  19  35  58  85 118 148 184 233 284 337
#
# _framework density 18.760954999999999
#
# number of rings (size 3 to 8) (size 9 to 14) (size 15 to 20)
#    0.000    2.000    1.667    2.000    0.000    4.000 
#    0.000    0.833    0.000    2.000    0.000    0.000 
#    0.000    0.000    0.000    0.000    0.000    0.000 
#
# Total GULP energy -595382.166666 kJ/mol
# GULP energy per Si atom -12403.795139 kJ/mol
# Density = 1.871825 g / cm^3
# Si number density = 18.760955 Si / 1000 Ang^3
#
#
#
# Elastic Constant Matrix: (Units=GPa)
#
#
# Indices 1 2 3 4 5 6 
#
# 1 62.6744 23.5861 45.9425 0.0000 0.0000 0.0000
# 2 23.5861 31.4236 24.8918 0.0000 0.0000 0.0000
# 3 45.9425 24.8918 118.4199 0.0000 0.0000 0.0000
# 4 0.0000 0.0000 0.0000 31.3531 0.0000 0.0000
# 5 0.0000 0.0000 0.0000 0.0000 36.4310 0.0000
# 6 0.0000 0.0000 0.0000 0.0000 0.0000 16.2951
#
#
#
# Elastic Compliance Matrix: (Units=1/GPa)
#
#
# Indices 1 2 3 4 5 6 
#
# 1 0.026707 -0.014203 -0.007376 0.000000 0.000000 0.000000
# 2 -0.014203 0.045734 -0.004103 0.000000 0.000000 0.000000
# 3 -0.007376 -0.004103 0.012169 0.000000 0.000000 0.000000
# 4 0.000000 0.000000 0.000000 0.031895 0.000000 0.000000
# 5 0.000000 0.000000 0.000000 0.000000 0.027449 0.000000
# 6 0.000000 0.000000 0.000000 0.000000 0.000000 0.061368
#
#
# Mechanical properties :
#
#
# Convention : Reuss Voigt Hill
#
# Bulk Modulus (GPa) = 30.07919 44.59538 37.33729
# Shear Modulus (GPa) = 18.67286 24.68901 21.68094
#
# Velocity S-wave (km/s) = 3.15827 3.63158 3.40316
# Velocity P-wave (km/s) = 5.41915 6.43478 5.94868
#
# Compressibility (1/GPa) = 0.03324557
#
# Stress axis : x y z
#
# Youngs Moduli (GPa) = 37.44277 21.86554 82.17918
#
# Poissons Ratio (x) = 0.31057 0.60615
# Poissons Ratio (y) = 0.53182 0.33717
# Poissons Ratio (z) = 0.27618 0.08971
#
# Static dielectric constant tensor:
#      x y z
#    x 3.382740 0.000000 0.000000 
#    y 0.000000 3.214690 0.000000 
#    z 0.000000 0.000000 3.792330 
# 
# 
# High freq. dielectric constant tensor:
#      x y z
#    x 1.726260 0.000000 0.000000 
#    y 0.000000 1.707840 0.000000 
#    z 0.000000 0.000000 1.746920 
# 
# From -- ./inp_files/37714.got.cif
#   From: 2010.03.12/outbox.cif.g09.slc.cpg/sg53_19_cif.got.tgz:37714.got - 2010.04.16 14:36:59.
