data_PCOD8219318
_publ_section_title
;
Structure prediction by ZEFSAII (Michael W. Deem and Ramdas Pophale) SiO2 
 PCOD8219318
Probable space group: P M N A
;
_chemical_formula_sum "Si O2"
_cell_formula_units_Z 64
_cell_length_a 8.753863
_cell_length_b 20.369277
_cell_length_c 19.217183
_cell_angle_alpha 90.000000
_cell_angle_beta 90.000000
_cell_angle_gamma 90.000000
_cell_volume 3426.613215
_symmetry_space_group_name_H-M "P M N A"
_symmetry_group_IT_number 53
_symmetry_cell_setting 'orthorhombic'
loop_
_space_group_symop_operation_xyz
x,y,z
1/2-x,-y,1/2+z
x,-y,-z
1/2-x,y,1/2-z
-x,-y,-z
1/2+x,y,1/2-z
-x,y,z
1/2+x,-y,1/2+z
loop_
_atom_site_type_symbol
_atom_site_label
_atom_site_fract_x
_atom_site_fract_y
_atom_site_fract_z
Si Si1 0.323000 0.433803 0.457701
Si Si2 0.678634 0.637284 0.179238
Si Si3 0.820658 0.687965 0.468160
Si Si4 0.679581 0.989953 0.178296
Si Si5 0.679821 0.061882 0.544854
Si Si6 0.179670 0.811959 0.959531
Si Si7 0.319713 0.860312 0.822564
Si Si8 0.318078 0.487424 0.177556
O O1 0.298020 0.500000 0.500000
O O2 0.500000 0.412499 0.456010
O O3 0.220591 0.378867 0.493429
O O4 0.260371 0.442569 0.380251
O O5 0.750000 0.666737 0.250000
O O6 0.500000 0.637259 0.190206
O O7 0.725824 0.681588 0.113218
O O8 0.734666 0.562796 0.166132
O O9 0.724221 0.746251 0.500937
O O10 0.000000 0.701721 0.476608
O O11 0.750000 0.964251 0.250000
O O12 0.500000 0.985830 0.183892
O O13 0.733885 0.064708 0.163362
O O14 0.737828 0.941219 0.118891
O O15 0.500000 0.061108 0.557330
O O16 0.735824 0.127192 0.506203
O O17 0.734439 0.000000 0.500000
O O18 0.259506 0.814422 0.884440
O O19 0.000000 0.814702 0.947374
O O20 0.250000 0.834801 0.750000
O O21 0.500000 0.854440 0.817937
O O22 0.250000 0.461540 0.250000
O O23 0.500000 0.479394 0.175241
#
# Coordination Sequence:
#
# PCOD8219318 Si02
#       8
#     8   8   8   8   8   8   8   8
#     4  11  22  36  58  87 116 149 191 237 284 337
#     4   9  19  34  56  83 112 147 188 233 281 336
#     4  11  23  40  59  84 118 156 195 237 287 343
#     4  10  20  33  55  85 117 149 190 239 289 342
#     4  10  20  36  58  83 114 149 189 236 288 340
#     4  11  23  39  59  85 117 154 193 238 288 345
#     4  10  20  35  57  85 115 150 190 236 285 342
#     4  10  19  34  56  85 118 150 189 237 289 340
#
# _framework density 18.677333999999998
#
# number of rings (size 3 to 8) (size 9 to 14) (size 15 to 20)
#    0.000    1.750    2.500    2.250    0.000    4.250 
#    0.000    1.250    0.000    1.500    0.000    0.000 
#    0.000    0.000    0.000    0.000    0.000    0.000 
#
# Total GULP energy -793871.414248 kJ/mol
# GULP energy per Si atom -12404.240848 kJ/mol
# Density = 1.863482 g / cm^3
# Si number density = 18.677334 Si / 1000 Ang^3
#
#
#
# Elastic Constant Matrix: (Units=GPa)
#
#
# Indices 1 2 3 4 5 6 
#
# 1 49.7512 18.0330 41.0592 0.0000 0.0000 0.0000
# 2 18.0330 65.3228 43.9082 0.0000 0.0000 0.0000
# 3 41.0592 43.9082 158.7670 0.0000 0.0000 0.0000
# 4 0.0000 0.0000 0.0000 28.0319 0.0000 0.0000
# 5 0.0000 0.0000 0.0000 0.0000 35.2513 0.0000
# 6 0.0000 0.0000 0.0000 0.0000 0.0000 9.1574
#
#
#
# Elastic Compliance Matrix: (Units=1/GPa)
#
#
# Indices 1 2 3 4 5 6 
#
# 1 0.026114 -0.003279 -0.005846 0.000000 0.000000 0.000000
# 2 -0.003279 0.019216 -0.004466 0.000000 0.000000 0.000000
# 3 -0.005846 -0.004466 0.009046 0.000000 0.000000 0.000000
# 4 0.000000 0.000000 0.000000 0.035674 0.000000 0.000000
# 5 0.000000 0.000000 0.000000 0.000000 0.028368 0.000000
# 6 0.000000 0.000000 0.000000 0.000000 0.000000 0.109201
#
#
# Mechanical properties :
#
#
# Convention : Reuss Voigt Hill
#
# Bulk Modulus (GPa) = 36.77615 53.31576 45.04596
# Shear Modulus (GPa) = 18.94906 25.87750 22.41328
#
# Velocity S-wave (km/s) = 3.18865 3.72627 3.46790
# Velocity P-wave (km/s) = 5.76972 6.86448 6.34077
#
# Compressibility (1/GPa) = 0.02719153
#
# Stress axis : x y z
#
# Youngs Moduli (GPa) = 38.29420 52.04010 110.54981
#
# Poissons Ratio (x) = 0.17065 0.64632
# Poissons Ratio (y) = 0.12557 0.49375
# Poissons Ratio (z) = 0.22389 0.23243
#
# Static dielectric constant tensor:
#      x y z
#    x 3.401110 0.000000 0.000000 
#    y 0.000000 3.369560 0.000000 
#    z 0.000000 0.000000 3.641860 
# 
# 
# High freq. dielectric constant tensor:
#      x y z
#    x 1.733600 0.000000 0.000000 
#    y 0.000000 1.694260 0.000000 
#    z 0.000000 0.000000 1.741830 
# 
# From -- ./inp_files/26761.got.cif
#   From: 2010.03.12/outbox.cif.g09.slc.cpg/sg53_14_cif.got.tgz:26761.got - 2010.04.16 14:36:59.
