data_PCOD8219407
_publ_section_title
;
Structure prediction by ZEFSAII (Michael W. Deem and Ramdas Pophale) SiO2 
 PCOD8219407
Probable space group: P M N A
;
_chemical_formula_sum "Si O2"
_cell_formula_units_Z 40
_cell_length_a 7.816653
_cell_length_b 14.287068
_cell_length_c 19.519654
_cell_angle_alpha 90.000000
_cell_angle_beta 90.000000
_cell_angle_gamma 90.000000
_cell_volume 2179.897433
_symmetry_space_group_name_H-M "P M N A"
_symmetry_group_IT_number 53
_symmetry_cell_setting 'orthorhombic'
loop_
_space_group_symop_operation_xyz
x,y,z
1/2-x,-y,1/2+z
x,-y,-z
1/2-x,y,1/2-z
-x,-y,-z
1/2+x,y,1/2-z
-x,y,z
1/2+x,-y,1/2+z
loop_
_atom_site_type_symbol
_atom_site_label
_atom_site_fract_x
_atom_site_fract_y
_atom_site_fract_z
Si Si1 0.698062 0.590658 0.675113
Si Si2 0.303273 0.763422 0.580690
Si Si3 0.310306 0.768804 0.422197
Si Si4 0.307208 0.386161 0.827064
Si Si5 0.500000 0.895803 0.918482
Si Si6 0.000000 0.895665 0.419039
O O1 0.750000 0.628051 0.750000
O O2 0.500000 0.565138 0.674582
O O3 0.745830 0.669012 0.620126
O O4 0.796587 0.495981 0.655629
O O5 0.500000 0.793828 0.595981
O O6 0.273063 0.742613 0.500872
O O7 0.173125 0.843811 0.606433
O O8 0.500000 0.813520 0.415264
O O9 0.307361 0.673213 0.379174
O O10 0.171150 0.842511 0.393853
O O11 0.250000 0.366071 0.750000
O O12 0.500000 0.352051 0.836990
O O13 0.500000 0.000223 0.886795
O O14 0.500000 0.902258 0.999744
#
# Coordination Sequence:
#
# PCOD8219407 Si02
#       6
#     8   8   8   8   4   4
#     4  10  20  34  51  77 106 140 181 212 256 314
#     4   9  20  34  53  80 107 139 176 216 266 312
#     4  10  19  35  54  78 109 138 174 219 264 310
#     4  11  21  34  52  78 106 140 181 212 257 316
#     4   9  18  32  57  75 111 131 175 220 266 312
#     4   9  18  34  51  85 101 137 173 220 266 320
#
# _framework density 18.349487
#
# number of rings (size 3 to 8) (size 9 to 14) (size 15 to 20)
#    0.000    2.200    1.000    3.600    2.800    1.600 
#    0.000    8.000    0.000    1.200    0.000    0.000 
#    0.000    0.000    0.000    0.000    0.000    0.000 
#
# Total GULP energy -495999.203251 kJ/mol
# GULP energy per Si atom -12399.980081 kJ/mol
# Density = 1.830772 g / cm^3
# Si number density = 18.349487 Si / 1000 Ang^3
#
#
#
# Elastic Constant Matrix: (Units=GPa)
#
#
# Indices 1 2 3 4 5 6 
#
# 1 119.9047 59.7252 34.0973 0.0000 0.0000 0.0000
# 2 59.7252 123.4397 55.2461 0.0000 0.0000 0.0000
# 3 34.0973 55.2461 56.3162 0.0000 0.0000 0.0000
# 4 0.0000 0.0000 0.0000 10.0975 0.0000 0.0000
# 5 0.0000 0.0000 0.0000 0.0000 21.8022 0.0000
# 6 0.0000 0.0000 0.0000 0.0000 0.0000 28.3606
#
#
#
# Elastic Compliance Matrix: (Units=1/GPa)
#
#
# Indices 1 2 3 4 5 6 
#
# 1 0.011200 -0.004250 -0.002612 0.000000 0.000000 0.000000
# 2 -0.004250 0.016055 -0.013176 0.000000 0.000000 0.000000
# 3 -0.002612 -0.013176 0.032264 0.000000 0.000000 0.000000
# 4 0.000000 0.000000 0.000000 0.099035 0.000000 0.000000
# 5 0.000000 0.000000 0.000000 0.000000 0.045867 0.000000
# 6 0.000000 0.000000 0.000000 0.000000 0.000000 0.035260
#
#
# Mechanical properties :
#
#
# Convention : Reuss Voigt Hill
#
# Bulk Modulus (GPa) = 51.43430 66.42198 58.92814
# Shear Modulus (GPa) = 17.46806 22.09152 19.77979
#
# Velocity S-wave (km/s) = 3.08874 3.47354 3.28677
# Velocity P-wave (km/s) = 6.38840 7.23631 6.82553
#
# Compressibility (1/GPa) = 0.01944228
#
# Stress axis : x y z
#
# Youngs Moduli (GPa) = 89.28922 62.28770 30.99415
#
# Poissons Ratio (x) = 0.26472 0.08095
# Poissons Ratio (y) = 0.37947 0.40839
# Poissons Ratio (z) = 0.23320 0.82072
#
# Static dielectric constant tensor:
#      x y z
#    x 3.613990 0.000000 0.000000 
#    y 0.000000 3.379240 0.000000 
#    z 0.000000 0.000000 3.142410 
# 
# 
# High freq. dielectric constant tensor:
#      x y z
#    x 1.733480 0.000000 0.000000 
#    y 0.000000 1.698770 0.000000 
#    z 0.000000 0.000000 1.684320 
# 
# From -- ./inp_files/19905.got.cif
#   From: 2010.03.12/outbox.cif.g09.slc.cpg/sg53_10_cif.got.tgz:19905.got - 2010.04.16 14:36:59.
