data_PCOD8219927
_publ_section_title
;
Structure prediction by ZEFSAII (Michael W. Deem and Ramdas Pophale) SiO2 
 PCOD8219927
Probable space group: P M N A
;
_chemical_formula_sum "Si O2"
_cell_formula_units_Z 64
_cell_length_a 8.851027
_cell_length_b 12.649938
_cell_length_c 28.031278
_cell_angle_alpha 90.000000
_cell_angle_beta 90.000000
_cell_angle_gamma 90.000000
_cell_volume 3138.520437
_symmetry_space_group_name_H-M "P M N A"
_symmetry_group_IT_number 53
_symmetry_cell_setting 'orthorhombic'
loop_
_space_group_symop_operation_xyz
x,y,z
1/2-x,-y,1/2+z
x,-y,-z
1/2-x,y,1/2-z
-x,-y,-z
1/2+x,y,1/2-z
-x,y,z
1/2+x,-y,1/2+z
loop_
_atom_site_type_symbol
_atom_site_label
_atom_site_fract_x
_atom_site_fract_y
_atom_site_fract_z
Si Si1 0.179570 0.814643 0.299937
Si Si2 0.665450 0.021827 0.450494
Si Si3 0.324379 0.236738 0.150543
Si Si4 0.333808 0.268034 0.443443
Si Si5 0.318754 0.012581 0.347536
Si Si6 0.821089 0.625918 0.368595
Si Si7 0.821777 0.610666 0.476218
Si Si8 0.175393 0.552377 0.700934
O O1 0.250000 0.775901 0.250000
O O2 0.229710 0.732650 0.341223
O O3 0.000000 0.821361 0.295102
O O4 0.245498 0.930555 0.311152
O O5 0.500000 0.967403 0.455815
O O6 0.758420 0.000000 0.500000
O O7 0.645165 0.144310 0.443170
O O8 0.740072 0.980047 0.401199
O O9 0.500000 0.208229 0.145053
O O10 0.269767 0.294704 0.102043
O O11 0.234589 0.131194 0.165235
O O12 0.294364 0.324070 0.191028
O O13 0.500000 0.321438 0.438904
O O14 0.254087 0.298705 0.492518
O O15 0.500000 0.009448 0.344539
O O16 0.756099 0.621260 0.422522
O O17 0.758155 0.523519 0.340493
O O18 0.000000 0.620912 0.371929
O O19 0.775299 0.500000 0.500000
O O20 0.000000 0.627411 0.477101
O O21 0.250000 0.518667 0.750000
O O22 0.000000 0.528216 0.705791
#
# Coordination Sequence:
#
# PCOD8219927 Si02
#       8
#     8   8   8   8   8   8   8   8
#     4  11  23  40  61  84 116 155 201 251 297 350
#     4   8  16  31  51  76 109 147 180 219 273 333
#     4  10  20  37  60  85 118 158 196 236 289 353
#     4  10  20  33  53  82 115 149 187 235 283 332
#     4  10  21  37  59  86 119 155 195 242 294 346
#     4   9  20  38  59  85 117 152 194 240 289 351
#     4  10  20  36  58  82 114 157 195 231 285 354
#     4  10  21  38  61  86 111 145 187 237 294 350
#
# _framework density 20.391774000000002
#
# number of rings (size 3 to 8) (size 9 to 14) (size 15 to 20)
#    0.000    2.250    0.000    3.375    1.750    3.750 
#    0.000    3.125    0.000    2.250    0.000    0.000 
#    0.000    0.000    0.000    0.000    0.000    0.000 
#
# Total GULP energy -793268.208105 kJ/mol
# GULP energy per Si atom -12394.815752 kJ/mol
# Density = 2.034536 g / cm^3
# Si number density = 20.391774 Si / 1000 Ang^3
#
#
#
# Elastic Constant Matrix: (Units=GPa)
#
#
# Indices 1 2 3 4 5 6 
#
# 1 61.2619 33.1508 35.2649 0.0000 0.0000 0.0000
# 2 33.1508 77.3134 46.2433 0.0000 0.0000 0.0000
# 3 35.2649 46.2433 135.2165 0.0000 0.0000 0.0000
# 4 0.0000 0.0000 0.0000 34.9804 0.0000 0.0000
# 5 0.0000 0.0000 0.0000 0.0000 25.8012 0.0000
# 6 0.0000 0.0000 0.0000 0.0000 0.0000 -133.4510
#
#
#
# Elastic Compliance Matrix: (Units=1/GPa)
#
#
# Indices 1 2 3 4 5 6 
#
# 1 0.022306 -0.007650 -0.003201 0.000000 0.000000 0.000000
# 2 -0.007650 0.018884 -0.004463 0.000000 0.000000 0.000000
# 3 -0.003201 -0.004463 0.009757 0.000000 0.000000 0.000000
# 4 0.000000 0.000000 0.000000 0.028587 0.000000 0.000000
# 5 0.000000 0.000000 0.000000 0.000000 0.038758 0.000000
# 6 0.000000 0.000000 0.000000 0.000000 0.000000 -0.007493
#
#
# Mechanical properties :
#
#
# Convention : Reuss Voigt Hill
#
# Bulk Modulus (GPa) = 49.21656 55.90110 52.55883
# Shear Modulus (GPa) = 33.73845 -3.92502 14.90671
#
# Velocity S-wave (km/s) = 4.07198 -1.38888 2.70666
# Velocity P-wave (km/s) = 6.80411 4.99010 5.96645
#
# Compressibility (1/GPa) = 0.02031837
#
# Stress axis : x y z
#
# Youngs Moduli (GPa) = 44.83194 52.95509 102.49230
#
# Poissons Ratio (x) = 0.40508 0.32810
# Poissons Ratio (y) = 0.34294 0.45744
# Poissons Ratio (z) = 0.14352 0.23635
#
# Static dielectric constant tensor:
#      x y z
#    x 3.554450 0.000000 0.000000 
#    y 0.000000 3.603200 0.000000 
#    z 0.000000 0.000000 4.137100 
# 
# 
# High freq. dielectric constant tensor:
#      x y z
#    x 1.772570 0.000000 0.000000 
#    y 0.000000 1.793410 0.000000 
#    z 0.000000 0.000000 1.810350 
# 
# From -- ./inp_files/38143.got.cif
#   From: 2010.03.12/outbox.cif.g09.slc.cpg/sg53_20_cif.got.tgz:38143.got - 2010.04.16 14:36:59.
