data_PCOD8219143
_publ_section_title
;
Structure prediction by ZEFSAII (Michael W. Deem and Ramdas Pophale) SiO2 
 PCOD8219143
Probable space group: P M N A
;
_chemical_formula_sum "Si O2"
_cell_formula_units_Z 64
_cell_length_a 9.212685
_cell_length_b 23.751751
_cell_length_c 14.834303
_cell_angle_alpha 90.000000
_cell_angle_beta 90.000000
_cell_angle_gamma 90.000000
_cell_volume 3246.003616
_symmetry_space_group_name_H-M "P M N A"
_symmetry_group_IT_number 53
_symmetry_cell_setting 'orthorhombic'
loop_
_space_group_symop_operation_xyz
x,y,z
1/2-x,-y,1/2+z
x,-y,-z
1/2-x,y,1/2-z
-x,-y,-z
1/2+x,y,1/2-z
-x,y,z
1/2+x,-y,1/2+z
loop_
_atom_site_type_symbol
_atom_site_label
_atom_site_fract_x
_atom_site_fract_y
_atom_site_fract_z
Si Si1 0.330431 0.435026 0.481136
Si Si2 0.660203 0.733433 0.332369
Si Si3 0.657779 0.395965 0.670253
Si Si4 0.831555 0.915321 0.339673
Si Si5 0.168291 0.258743 0.482380
Si Si6 0.673066 0.357988 0.153627
Si Si7 0.330483 0.956094 0.840318
Si Si8 0.330740 0.866783 0.979176
O O1 0.299951 0.500000 0.500000
O O2 0.500000 0.422651 0.461337
O O3 0.273278 0.403008 0.570916
O O4 0.235712 0.413161 0.396869
O O5 0.750000 0.762628 0.250000
O O6 0.500000 0.761552 0.339887
O O7 0.639152 0.668813 0.305526
O O8 0.740988 0.735500 0.427073
O O9 0.750000 0.425569 0.750000
O O10 0.500000 0.426186 0.669210
O O11 0.750000 0.897334 0.250000
O O12 0.770153 0.875291 0.419257
O O13 0.000000 0.906100 0.320441
O O14 0.799234 0.979712 0.368773
O O15 0.215069 0.303341 0.406267
O O16 0.199403 0.196194 0.443331
O O17 0.000000 0.266449 0.508037
O O18 0.750000 0.351428 0.250000
O O19 0.500000 0.363735 0.166286
O O20 0.250000 0.940021 0.750000
O O21 0.500000 0.945383 0.825553
O O22 0.262104 0.913525 0.913745
O O23 0.500000 0.880310 0.985238
#
# Coordination Sequence:
#
# PCOD8219143 Si02
#       8
#     8   8   8   8   8   8   8   8
#     4  10  21  39  62  88 118 148 182 228 278 327
#     4  10  19  33  55  80 107 140 176 219 269 326
#     4   9  18  32  53  80 108 139 171 211 261 315
#     4   9  17  31  52  76 104 140 178 220 272 330
#     4  10  21  37  56  80 109 146 189 233 277 325
#     4  11  24  41  62  84 113 153 194 234 278 330
#     4   9  17  31  52  76 102 136 178 224 275 327
#     4   9  18  33  53  76 105 140 182 226 270 326
#
# _framework density 19.716552
#
# number of rings (size 3 to 8) (size 9 to 14) (size 15 to 20)
#    0.000    2.375    1.250    1.125    0.000    4.750 
#    0.000    4.375    0.000    3.000    0.000    0.000 
#    0.000    0.000    0.000    0.000    0.000    0.000 
#
# Total GULP energy -793338.023921 kJ/mol
# GULP energy per Si atom -12395.906624 kJ/mol
# Density = 1.967168 g / cm^3
# Si number density = 19.716552 Si / 1000 Ang^3
#
#
#
# Elastic Constant Matrix: (Units=GPa)
#
#
# Indices 1 2 3 4 5 6 
#
# 1 75.8136 27.0769 58.6074 0.0000 0.0000 0.0000
# 2 27.0769 75.6011 39.4657 0.0000 0.0000 0.0000
# 3 58.6074 39.4657 140.2503 0.0000 0.0000 0.0000
# 4 0.0000 0.0000 0.0000 15.8788 0.0000 0.0000
# 5 0.0000 0.0000 0.0000 0.0000 35.9370 0.0000
# 6 0.0000 0.0000 0.0000 0.0000 0.0000 16.5271
#
#
#
# Elastic Compliance Matrix: (Units=1/GPa)
#
#
# Indices 1 2 3 4 5 6 
#
# 1 0.020167 -0.003310 -0.007496 0.000000 0.000000 0.000000
# 2 -0.003310 0.016048 -0.003133 0.000000 0.000000 0.000000
# 3 -0.007496 -0.003133 0.011144 0.000000 0.000000 0.000000
# 4 0.000000 0.000000 0.000000 0.062977 0.000000 0.000000
# 5 0.000000 0.000000 0.000000 0.000000 0.027827 0.000000
# 6 0.000000 0.000000 0.000000 0.000000 0.000000 0.060507
#
#
# Mechanical properties :
#
#
# Convention : Reuss Voigt Hill
#
# Bulk Modulus (GPa) = 51.32914 60.21834 55.77374
# Shear Modulus (GPa) = 21.45546 24.76956 23.11251
#
# Velocity S-wave (km/s) = 3.30236 3.54825 3.42751
# Velocity P-wave (km/s) = 6.37423 6.88441 6.63423
#
# Compressibility (1/GPa) = 0.01948211
#
# Stress axis : x y z
#
# Youngs Moduli (GPa) = 49.58563 62.31253 89.73380
#
# Poissons Ratio (x) = 0.20624 0.67265
# Poissons Ratio (y) = 0.16412 0.28111
# Poissons Ratio (z) = 0.37169 0.19521
#
# Static dielectric constant tensor:
#      x y z
#    x 3.608760 0.000000 0.000000 
#    y 0.000000 3.565730 0.000000 
#    z 0.000000 0.000000 3.661150 
# 
# 
# High freq. dielectric constant tensor:
#      x y z
#    x 1.751790 0.000000 0.000000 
#    y 0.000000 1.761580 0.000000 
#    z 0.000000 0.000000 1.772790 
# 
# From -- ./inp_files/20826.got.cif
#   From: 2010.03.12/outbox.cif.g09.slc.cpg/sg53_11_cif.got.tgz:20826.got - 2010.04.16 14:36:59.
