data_PCOD8219302
_publ_section_title
;
Structure prediction by ZEFSAII (Michael W. Deem and Ramdas Pophale) SiO2 
 PCOD8219302
Probable space group: P M N A
;
_chemical_formula_sum "Si O2"
_cell_formula_units_Z 40
_cell_length_a 8.698339
_cell_length_b 26.155869
_cell_length_c 9.124516
_cell_angle_alpha 90.000000
_cell_angle_beta 90.000000
_cell_angle_gamma 90.000000
_cell_volume 2075.942499
_symmetry_space_group_name_H-M "P M N A"
_symmetry_group_IT_number 53
_symmetry_cell_setting 'orthorhombic'
loop_
_space_group_symop_operation_xyz
x,y,z
1/2-x,-y,1/2+z
x,-y,-z
1/2-x,y,1/2-z
-x,-y,-z
1/2+x,y,1/2-z
-x,y,z
1/2+x,-y,1/2+z
loop_
_atom_site_type_symbol
_atom_site_label
_atom_site_fract_x
_atom_site_fract_y
_atom_site_fract_z
Si Si1 0.177743 0.050818 0.093093
Si Si2 0.181744 0.858976 0.409339
Si Si3 0.821181 0.656517 0.907069
Si Si4 0.818521 0.547079 0.909817
Si Si5 0.317633 0.232216 0.412679
O O1 0.250000 0.039742 0.250000
O O2 0.000000 0.066680 0.108429
O O3 0.269776 0.096301 0.018109
O O4 0.198059 0.000000 0.000000
O O5 0.250000 0.869791 0.250000
O O6 0.242864 0.805754 0.471858
O O7 0.000000 0.856996 0.396710
O O8 0.750000 0.653924 0.750000
O O9 0.776501 0.602563 0.987063
O O10 0.773612 0.711060 0.978142
O O11 0.000000 0.657815 0.881258
O O12 0.750000 0.544382 0.750000
O O13 0.000000 0.540533 0.897802
O O14 0.746010 0.500000 0.000000
O O15 0.250000 0.223717 0.250000
O O16 0.500000 0.223239 0.405220
#
# Coordination Sequence:
#
# PCOD8219302 Si02
#       5
#     8   8   8   8   8
#     4  11  24  42  65  92 121 153 189 228 271 319
#     4  12  25  41  60  83 114 149 186 227 274 325
#     4   8  15  28  48  72  99 133 172 216 263 314
#     4   9  17  30  48  71 100 133 171 215 263 316
#     4  10  19  34  56  81 108 139 180 226 273 324
#
# _framework density 19.268355
#
# number of rings (size 3 to 8) (size 9 to 14) (size 15 to 20)
#    0.000    2.000    0.000    4.200    0.000    4.400 
#    0.000    1.000    0.000    2.400    0.000    0.000 
#    0.000    0.000    0.000    0.000    0.000    0.000 
#
# Total GULP energy -495576.135726 kJ/mol
# GULP energy per Si atom -12389.403393 kJ/mol
# Density = 1.922450 g / cm^3
# Si number density = 19.268355 Si / 1000 Ang^3
#
#
#
# Elastic Constant Matrix: (Units=GPa)
#
#
# Indices 1 2 3 4 5 6 
#
# 1 91.1016 49.0197 36.6375 0.0000 0.0000 0.0000
# 2 49.0197 145.8078 42.4674 0.0000 0.0000 0.0000
# 3 36.6375 42.4674 87.4121 0.0000 0.0000 0.0000
# 4 0.0000 0.0000 0.0000 23.4091 0.0000 0.0000
# 5 0.0000 0.0000 0.0000 0.0000 27.5635 0.0000
# 6 0.0000 0.0000 0.0000 0.0000 0.0000 64.0057
#
#
#
# Elastic Compliance Matrix: (Units=1/GPa)
#
#
# Indices 1 2 3 4 5 6 
#
# 1 0.014715 -0.003670 -0.004384 0.000000 0.000000 0.000000
# 2 -0.003670 0.008904 -0.002788 0.000000 0.000000 0.000000
# 3 -0.004384 -0.002788 0.014632 0.000000 0.000000 0.000000
# 4 0.000000 0.000000 0.000000 0.042718 0.000000 0.000000
# 5 0.000000 0.000000 0.000000 0.000000 0.036280 0.000000
# 6 0.000000 0.000000 0.000000 0.000000 0.000000 0.015624
#
#
# Mechanical properties :
#
#
# Convention : Reuss Voigt Hill
#
# Bulk Modulus (GPa) = 60.36214 64.50786 62.43500
# Shear Modulus (GPa) = 31.23449 36.07543 33.65496
#
# Velocity S-wave (km/s) = 4.03056 4.33166 4.18382
# Velocity P-wave (km/s) = 7.28393 7.65304 7.47077
#
# Compressibility (1/GPa) = 0.01656668
#
# Stress axis : x y z
#
# Youngs Moduli (GPa) = 67.95890 112.30783 68.34297
#
# Poissons Ratio (x) = 0.41217 0.29965
# Poissons Ratio (y) = 0.24941 0.19052
# Poissons Ratio (z) = 0.29796 0.31307
#
# Static dielectric constant tensor:
#      x y z
#    x 3.755710 0.000000 0.000000 
#    y 0.000000 4.523420 0.000000 
#    z 0.000000 0.000000 3.155180 
# 
# 
# High freq. dielectric constant tensor:
#      x y z
#    x 1.757710 0.000000 0.000000 
#    y 0.000000 1.785020 0.000000 
#    z 0.000000 0.000000 1.717210 
# 
# From -- ./inp_files/6275.got.cif
#   From: 2010.03.12/outbox.cif.g09.slc.cpg/sg53_4_cif.got.tgz:6275.got - 2010.04.16 14:36:59.
