data_PCOD8219784
_publ_section_title
;
Structure prediction by ZEFSAII (Michael W. Deem and Ramdas Pophale) SiO2 
 PCOD8219784
Probable space group: P M N A
;
_chemical_formula_sum "Si O2"
_cell_formula_units_Z 56
_cell_length_a 9.641941
_cell_length_b 17.640268
_cell_length_c 18.938643
_cell_angle_alpha 90.000000
_cell_angle_beta 90.000000
_cell_angle_gamma 90.000000
_cell_volume 3221.206050
_symmetry_space_group_name_H-M "P M N A"
_symmetry_group_IT_number 53
_symmetry_cell_setting 'orthorhombic'
loop_
_space_group_symop_operation_xyz
x,y,z
1/2-x,-y,1/2+z
x,-y,-z
1/2-x,y,1/2-z
-x,-y,-z
1/2+x,y,1/2-z
-x,y,z
1/2+x,-y,1/2+z
loop_
_atom_site_type_symbol
_atom_site_label
_atom_site_fract_x
_atom_site_fract_y
_atom_site_fract_z
Si Si1 0.162613 0.040030 0.068632
Si Si2 0.160988 0.372449 0.583063
Si Si3 0.662079 0.514935 0.821394
Si Si4 0.838595 0.915676 0.181844
Si Si5 0.342954 0.792743 0.562726
Si Si6 0.161212 0.652263 0.577657
Si Si7 0.155896 0.765955 0.101989
O O1 0.220197 0.124875 0.083247
O O2 0.000000 0.049940 0.053777
O O3 0.196264 0.988060 0.134670
O O4 0.230781 0.000000 0.000000
O O5 0.202191 0.448100 0.624630
O O6 0.199448 0.380968 0.500014
O O7 0.245014 0.304305 0.619170
O O8 0.000000 0.353605 0.591956
O O9 0.750000 0.508721 0.750000
O O10 0.500000 0.511808 0.801561
O O11 0.699885 0.591738 0.862491
O O12 0.750000 0.928544 0.250000
O O13 0.790283 0.838269 0.144980
O O14 0.000000 0.912147 0.200525
O O15 0.500000 0.781499 0.590967
O O16 0.247649 0.727498 0.596208
O O17 0.338928 0.788599 0.478950
O O18 0.000000 0.673491 0.580098
O O19 0.000000 0.743446 0.124384
#
# Coordination Sequence:
#
# PCOD8219784 Si02
#       7
#     8   8   8   8   8   8   8
#     4   9  15  29  54  76  95 127 171 210 244 288
#     4   9  18  33  54  76  99 129 167 206 248 298
#     4  10  21  36  53  73  99 134 171 206 248 300
#     4  10  20  33  49  71 102 137 169 203 247 300
#     4   9  16  29  53  80  98 120 165 214 249 288
#     4   9  18  34  54  75 101 131 164 205 254 302
#     4   9  17  30  49  74 100 127 161 204 249 294
#
# _framework density 17.384792999999998
#
# number of rings (size 3 to 8) (size 9 to 14) (size 15 to 20)
#    0.000    2.714    1.429    0.429    0.000    4.000 
#    0.000    4.286    0.000    8.571    0.000    0.000 
#    0.000    0.000    0.000    0.000    0.000    0.000 
#
# Total GULP energy -694301.825686 kJ/mol
# GULP energy per Si atom -12398.246887 kJ/mol
# Density = 1.734522 g / cm^3
# Si number density = 17.384793 Si / 1000 Ang^3
#
#
#
# Elastic Constant Matrix: (Units=GPa)
#
#
# Indices 1 2 3 4 5 6 
#
# 1 50.9948 56.2566 34.1437 0.0000 0.0000 0.0000
# 2 56.2566 149.1073 46.4603 0.0000 0.0000 0.0000
# 3 34.1437 46.4603 52.2818 0.0000 0.0000 0.0000
# 4 0.0000 0.0000 0.0000 24.7170 0.0000 0.0000
# 5 0.0000 0.0000 0.0000 0.0000 24.6989 0.0000
# 6 0.0000 0.0000 0.0000 0.0000 0.0000 27.6536
#
#
#
# Elastic Compliance Matrix: (Units=1/GPa)
#
#
# Indices 1 2 3 4 5 6 
#
# 1 0.044508 -0.010698 -0.019560 0.000000 0.000000 0.000000
# 2 -0.010698 0.011846 -0.003541 0.000000 0.000000 0.000000
# 3 -0.019560 -0.003541 0.035048 0.000000 0.000000 0.000000
# 4 0.000000 0.000000 0.000000 0.040458 0.000000 0.000000
# 5 0.000000 0.000000 0.000000 0.000000 0.040488 0.000000
# 6 0.000000 0.000000 0.000000 0.000000 0.000000 0.036162
#
#
# Mechanical properties :
#
#
# Convention : Reuss Voigt Hill
#
# Bulk Modulus (GPa) = 42.00894 58.45613 50.23254
# Shear Modulus (GPa) = 17.60308 23.11543 20.35926
#
# Velocity S-wave (km/s) = 3.18552 3.65037 3.42584
# Velocity P-wave (km/s) = 6.14383 7.17390 6.67875
#
# Compressibility (1/GPa) = 0.02380446
#
# Stress axis : x y z
#
# Youngs Moduli (GPa) = 22.46786 84.41761 28.53246
#
# Poissons Ratio (x) = 0.90306 0.55811
# Poissons Ratio (y) = 0.24035 0.10102
# Poissons Ratio (z) = 0.43948 0.29889
#
# Static dielectric constant tensor:
#      x y z
#    x 3.136320 0.000000 0.000000 
#    y 0.000000 3.485090 0.000000 
#    z 0.000000 0.000000 2.758620 
# 
# 
# High freq. dielectric constant tensor:
#      x y z
#    x 1.651480 0.000000 0.000000 
#    y 0.000000 1.685760 0.000000 
#    z 0.000000 0.000000 1.655000 
# 
# From -- ./inp_files/21860.got.cif
#   From: 2010.03.12/outbox.cif.g09.slc.cpg/sg53_11_cif.got.tgz:21860.got - 2010.04.16 14:36:59.
