data_PCOD8219008
_publ_section_title
;
Structure prediction by ZEFSAII (Michael W. Deem and Ramdas Pophale) SiO2 
 PCOD8219008
Probable space group: P M N A
;
_chemical_formula_sum "Si O2"
_cell_formula_units_Z 64
_cell_length_a 8.655401
_cell_length_b 12.367581
_cell_length_c 29.398175
_cell_angle_alpha 90.000000
_cell_angle_beta 90.000000
_cell_angle_gamma 90.000000
_cell_volume 3146.968005
_symmetry_space_group_name_H-M "P M N A"
_symmetry_group_IT_number 53
_symmetry_cell_setting 'orthorhombic'
loop_
_space_group_symop_operation_xyz
x,y,z
1/2-x,-y,1/2+z
x,-y,-z
1/2-x,y,1/2-z
-x,-y,-z
1/2+x,y,1/2-z
-x,y,z
1/2+x,-y,1/2+z
loop_
_atom_site_type_symbol
_atom_site_label
_atom_site_fract_x
_atom_site_fract_y
_atom_site_fract_z
Si Si1 0.818303 0.034122 0.893187
Si Si2 0.679039 0.892422 0.295330
Si Si3 0.819421 0.566823 0.703267
Si Si4 0.322762 0.676917 0.181437
Si Si5 0.320423 0.377693 0.390858
Si Si6 0.679255 0.172219 0.066237
Si Si7 0.180152 0.797526 0.463225
Si Si8 0.178700 0.620078 0.089523
O O1 0.783028 0.910464 0.905202
O O2 0.000000 0.058297 0.896784
O O3 0.756277 0.055039 0.841902
O O4 0.729007 0.111386 0.927639
O O5 0.750000 0.947756 0.250000
O O6 0.500000 0.912498 0.292523
O O7 0.716401 0.764738 0.293924
O O8 0.750000 0.614647 0.750000
O O9 0.787399 0.438913 0.703271
O O10 0.729967 0.622034 0.661726
O O11 0.000000 0.593644 0.699256
O O12 0.500000 0.711410 0.187245
O O13 0.282331 0.674386 0.128318
O O14 0.500000 0.347053 0.393669
O O15 0.218324 0.292806 0.418093
O O16 0.286386 0.492907 0.414827
O O17 0.500000 0.147754 0.075309
O O18 0.720369 0.159097 0.013243
O O19 0.273522 0.684874 0.455902
O O20 0.000000 0.772625 0.458548
O O21 0.000000 0.639029 0.101529
#
# Coordination Sequence:
#
# PCOD8219008 Si02
#       8
#     8   8   8   8   8   8   8   8
#     4  11  24  42  64  90 121 157 201 252 301 355
#     4  11  23  37  57  87 121 157 197 241 295 357
#     4  10  20  34  55  85 118 156 201 247 297 355
#     4  10  19  32  54  84 121 160 194 238 295 354
#     4  10  22  40  61  86 120 160 202 250 302 358
#     4  11  25  43  63  88 118 157 205 253 302 362
#     4  11  23  39  63  93 123 157 198 246 306 365
#     4  10  20  35  58  89 124 159 196 242 296 356
#
# _framework density 20.337036000000001
#
# number of rings (size 3 to 8) (size 9 to 14) (size 15 to 20)
#    0.000    1.500    1.250    3.750    0.000    9.500 
#    0.000    3.125    0.000    1.500    0.000    0.000 
#    0.000    0.000    0.000    0.000    0.000    0.000 
#
# Total GULP energy -793842.644465 kJ/mol
# GULP energy per Si atom -12403.791320 kJ/mol
# Density = 2.029075 g / cm^3
# Si number density = 20.337036 Si / 1000 Ang^3
#
#
#
# Elastic Constant Matrix: (Units=GPa)
#
#
# Indices 1 2 3 4 5 6 
#
# 1 45.7985 18.1113 39.4862 0.0000 0.0000 0.0000
# 2 18.1113 80.9753 46.5625 0.0000 0.0000 0.0000
# 3 39.4862 46.5625 130.6509 0.0000 0.0000 0.0000
# 4 0.0000 0.0000 0.0000 13.7265 0.0000 0.0000
# 5 0.0000 0.0000 0.0000 0.0000 33.4120 0.0000
# 6 0.0000 0.0000 0.0000 0.0000 0.0000 29.3477
#
#
#
# Elastic Compliance Matrix: (Units=1/GPa)
#
#
# Indices 1 2 3 4 5 6 
#
# 1 0.029752 -0.001866 -0.008327 0.000000 0.000000 0.000000
# 2 -0.001866 0.015650 -0.005013 0.000000 0.000000 0.000000
# 3 -0.008327 -0.005013 0.011957 0.000000 0.000000 0.000000
# 4 0.000000 0.000000 0.000000 0.072852 0.000000 0.000000
# 5 0.000000 0.000000 0.000000 0.000000 0.029929 0.000000
# 6 0.000000 0.000000 0.000000 0.000000 0.000000 0.034074
#
#
# Mechanical properties :
#
#
# Convention : Reuss Voigt Hill
#
# Bulk Modulus (GPa) = 37.11125 51.74942 44.43033
# Shear Modulus (GPa) = 21.40331 25.51489 23.45910
#
# Velocity S-wave (km/s) = 3.24764 3.54588 3.40003
# Velocity P-wave (km/s) = 5.68776 6.50119 6.10803
#
# Compressibility (1/GPa) = 0.02694601
#
# Stress axis : x y z
#
# Youngs Moduli (GPa) = 33.61132 63.89920 83.63172
#
# Poissons Ratio (x) = 0.11927 0.69637
# Poissons Ratio (y) = 0.06273 0.41927
# Poissons Ratio (z) = 0.27987 0.32034
#
# Static dielectric constant tensor:
#      x y z
#    x 3.679370 0.000000 0.000000 
#    y 0.000000 3.531770 0.000000 
#    z 0.000000 0.000000 3.883380 
# 
# 
# High freq. dielectric constant tensor:
#      x y z
#    x 1.803460 0.000000 0.000000 
#    y 0.000000 1.776090 0.000000 
#    z 0.000000 0.000000 1.801700 
# 
# From -- ./inp_files/38307.got.cif
#   From: 2010.03.12/outbox.cif.g09.slc.cpg/sg53_20_cif.got.tgz:38307.got - 2010.04.16 14:36:59.
