data_PCOD8219590
_publ_section_title
;
Structure prediction by ZEFSAII (Michael W. Deem and Ramdas Pophale) SiO2 
 PCOD8219590
Probable space group: P M N A
;
_chemical_formula_sum "Si O2"
_cell_formula_units_Z 48
_cell_length_a 14.027875
_cell_length_b 9.815860
_cell_length_c 17.898768
_cell_angle_alpha 90.000000
_cell_angle_beta 90.000000
_cell_angle_gamma 90.000000
_cell_volume 2464.582621
_symmetry_space_group_name_H-M "P M N A"
_symmetry_group_IT_number 53
_symmetry_cell_setting 'orthorhombic'
loop_
_space_group_symop_operation_xyz
x,y,z
1/2-x,-y,1/2+z
x,-y,-z
1/2-x,y,1/2-z
-x,-y,-z
1/2+x,y,1/2-z
-x,y,z
1/2+x,-y,1/2+z
loop_
_atom_site_type_symbol
_atom_site_label
_atom_site_fract_x
_atom_site_fract_y
_atom_site_fract_z
Si Si1 0.603847 0.411253 0.573086
Si Si2 0.613608 0.789160 0.924564
Si Si3 0.201959 0.492271 0.411864
Si Si4 0.608843 0.234928 0.901733
Si Si5 0.609109 0.903307 0.432535
Si Si6 0.272071 0.986770 0.166429
O O1 0.589884 0.500000 0.500000
O O2 0.500000 0.412678 0.615612
O O3 0.691360 0.475844 0.621915
O O4 0.631808 0.255683 0.550583
O O5 0.500000 0.790979 0.911382
O O6 0.658559 0.652212 0.889112
O O7 0.664327 0.907889 0.879695
O O8 0.636598 0.804521 0.012754
O O9 0.216114 0.500000 0.500000
O O10 0.126315 0.605700 0.386579
O O11 0.500000 0.199542 0.886623
O O12 0.670950 0.154698 0.840917
O O13 0.500000 0.924318 0.411510
O O14 0.639970 0.000000 0.500000
O O15 0.666845 0.961816 0.363575
O O16 0.250000 0.035106 0.250000
#
# Coordination Sequence:
#
# PCOD8219590 Si02
#       6
#     8   8   8   8   8   8
#     4   9  17  30  53  87 119 146 179 231 293 342
#     4  10  21  38  63  90 117 148 192 243 292 344
#     4   9  17  31  57  92 117 143 180 245 300 343
#     4  10  19  36  63  90 114 145 193 244 295 344
#     4  10  21  37  59  85 113 148 195 242 283 335
#     4  12  25  38  54  82 117 163 193 234 283 344
#
# _framework density 19.475914
#
# number of rings (size 3 to 8) (size 9 to 14) (size 15 to 20)
#    0.000    2.000    1.667    2.500    4.667    4.667 
#    0.000    0.833    0.000    0.000    0.000    0.000 
#    0.000    0.000    0.000    0.000    0.000    0.000 
#
# Total GULP energy -594795.427523 kJ/mol
# GULP energy per Si atom -12391.571407 kJ/mol
# Density = 1.943159 g / cm^3
# Si number density = 19.475914 Si / 1000 Ang^3
#
#
#
# Elastic Constant Matrix: (Units=GPa)
#
#
# Indices 1 2 3 4 5 6 
#
# 1 99.6399 30.8832 30.6582 0.0000 0.0000 0.0000
# 2 30.8832 94.9839 14.2851 0.0000 0.0000 0.0000
# 3 30.6582 14.2851 40.7103 0.0000 0.0000 0.0000
# 4 0.0000 0.0000 0.0000 4.2362 0.0000 0.0000
# 5 0.0000 0.0000 0.0000 0.0000 19.2268 0.0000
# 6 0.0000 0.0000 0.0000 0.0000 0.0000 39.8930
#
#
#
# Elastic Compliance Matrix: (Units=1/GPa)
#
#
# Indices 1 2 3 4 5 6 
#
# 1 0.013879 -0.003105 -0.009363 0.000000 0.000000 0.000000
# 2 -0.003105 0.011809 -0.001806 0.000000 0.000000 0.000000
# 3 -0.009363 -0.001806 0.032248 0.000000 0.000000 0.000000
# 4 0.000000 0.000000 0.000000 0.236059 0.000000 0.000000
# 5 0.000000 0.000000 0.000000 0.000000 0.052011 0.000000
# 6 0.000000 0.000000 0.000000 0.000000 0.000000 0.025067
#
#
# Mechanical properties :
#
#
# Convention : Reuss Voigt Hill
#
# Bulk Modulus (GPa) = 34.02469 42.99857 38.51163
# Shear Modulus (GPa) = 12.21251 23.30505 17.75878
#
# Velocity S-wave (km/s) = 2.50683 3.46296 3.02293
# Velocity P-wave (km/s) = 5.08792 6.17375 5.65695
#
# Compressibility (1/GPa) = 0.02939043
#
# Stress axis : x y z
#
# Youngs Moduli (GPa) = 72.04998 84.68034 31.00929
#
# Poissons Ratio (x) = 0.26290 0.29033
# Poissons Ratio (y) = 0.22369 0.05599
# Poissons Ratio (z) = 0.67459 0.15291
#
# Static dielectric constant tensor:
#      x y z
#    x 4.077540 0.000000 0.000000 
#    y 0.000000 3.799990 0.000000 
#    z 0.000000 0.000000 2.987350 
# 
# 
# High freq. dielectric constant tensor:
#      x y z
#    x 1.791310 0.000000 0.000000 
#    y 0.000000 1.773490 0.000000 
#    z 0.000000 0.000000 1.684300 
# 
# From -- ./inp_files/28245.got.cif
#   From: 2010.03.12/outbox.cif.g09.slc.cpg/sg53_15_cif.got.tgz:28245.got - 2010.04.16 14:36:59.
