data_PCOD8219846
_publ_section_title
;
Structure prediction by ZEFSAII (Michael W. Deem and Ramdas Pophale) SiO2 
 PCOD8219846
Probable space group: P M N A
;
_chemical_formula_sum "Si O2"
_cell_formula_units_Z 64
_cell_length_a 14.216720
_cell_length_b 18.043294
_cell_length_c 12.809906
_cell_angle_alpha 90.000000
_cell_angle_beta 90.000000
_cell_angle_gamma 90.000000
_cell_volume 3285.951723
_symmetry_space_group_name_H-M "P M N A"
_symmetry_group_IT_number 53
_symmetry_cell_setting 'orthorhombic'
loop_
_space_group_symop_operation_xyz
x,y,z
1/2-x,-y,1/2+z
x,-y,-z
1/2-x,y,1/2-z
-x,-y,-z
1/2+x,y,1/2-z
-x,y,z
1/2+x,-y,1/2+z
loop_
_atom_site_type_symbol
_atom_site_label
_atom_site_fract_x
_atom_site_fract_y
_atom_site_fract_z
Si Si1 0.105995 0.822967 0.015900
Si Si2 0.397470 0.552539 0.596884
Si Si3 0.780048 0.947656 0.906696
Si Si4 0.399032 0.303729 0.887562
Si Si5 0.640989 0.840115 0.244132
Si Si6 0.298409 0.330337 0.513192
Si Si7 0.851904 0.583023 0.215369
Si Si8 0.392402 0.993961 0.781808
O O1 0.181053 0.871609 0.952325
O O2 0.143269 0.742395 0.990244
O O3 0.000000 0.833651 0.971965
O O4 0.100462 0.839248 0.139270
O O5 0.379031 0.500000 0.500000
O O6 0.500000 0.591278 0.591871
O O7 0.315948 0.615755 0.587533
O O8 0.397340 0.498117 0.697241
O O9 0.862714 0.985482 0.838841
O O10 0.680193 0.940912 0.845119
O O11 0.753492 0.000000 0.000000
O O12 0.500000 0.306669 0.947796
O O13 0.398103 0.225530 0.827209
O O14 0.403264 0.370932 0.805143
O O15 0.312401 0.313624 0.967960
O O16 0.750000 0.825549 0.250000
O O17 0.617722 0.918896 0.189373
O O18 0.348528 0.365585 0.613567
O O19 0.750000 0.561075 0.250000
O O20 0.500000 0.967951 0.800660
#
# Coordination Sequence:
#
# PCOD8219846 Si02
#       8
#     8   8   8   8   8   8   8   8
#     4  12  22  34  57  84 113 148 187 238 295 344
#     4   9  17  30  51  77 106 140 178 220 266 320
#     4  11  23  39  57  85 118 149 196 251 289 352
#     4  11  20  31  51  82 118 152 178 218 284 353
#     4  12  19  35  54  85 120 146 183 231 292 350
#     4  10  20  33  50  80 112 141 182 234 278 333
#     4   9  17  31  52  80 114 145 176 221 278 336
#     4  11  23  40  61  83 115 159 199 244 299 358
#
# _framework density 19.476853999999999
#
# number of rings (size 3 to 8) (size 9 to 14) (size 15 to 20)
#    0.000    1.375    5.000    2.625    0.000    1.750 
#    0.000    0.625    2.750   10.125    0.000    0.000 
#    0.000    0.000    0.000    0.000    0.000    0.000 
#
# Total GULP energy -792923.764364 kJ/mol
# GULP energy per Si atom -12389.433818 kJ/mol
# Density = 1.943252 g / cm^3
# Si number density = 19.476854 Si / 1000 Ang^3
#
#
#
# Elastic Constant Matrix: (Units=GPa)
#
#
# Indices 1 2 3 4 5 6 
#
# 1 156.7030 48.1608 19.6297 0.0000 0.0000 0.0000
# 2 48.1608 100.9648 30.5845 0.0000 0.0000 0.0000
# 3 19.6297 30.5845 34.7042 0.0000 0.0000 0.0000
# 4 0.0000 0.0000 0.0000 33.6243 0.0000 0.0000
# 5 0.0000 0.0000 0.0000 0.0000 13.7318 0.0000
# 6 0.0000 0.0000 0.0000 0.0000 0.0000 25.5418
#
#
#
# Elastic Compliance Matrix: (Units=1/GPa)
#
#
# Indices 1 2 3 4 5 6 
#
# 1 0.007534 -0.003142 -0.001493 0.000000 0.000000 0.000000
# 2 -0.003142 0.014821 -0.011285 0.000000 0.000000 0.000000
# 3 -0.001493 -0.011285 0.039605 0.000000 0.000000 0.000000
# 4 0.000000 0.000000 0.000000 0.029740 0.000000 0.000000
# 5 0.000000 0.000000 0.000000 0.000000 0.072823 0.000000
# 6 0.000000 0.000000 0.000000 0.000000 0.000000 0.039152
#
#
# Mechanical properties :
#
#
# Convention : Reuss Voigt Hill
#
# Bulk Modulus (GPa) = 33.19908 54.34690 43.77299
# Shear Modulus (GPa) = 20.36205 27.51273 23.93739
#
# Velocity S-wave (km/s) = 3.23685 3.76252 3.50954
# Velocity P-wave (km/s) = 5.57243 6.84392 6.24064
#
# Compressibility (1/GPa) = 0.03012132
#
# Stress axis : x y z
#
# Youngs Moduli (GPa) = 132.73122 67.46969 25.24953
#
# Poissons Ratio (x) = 0.21196 0.03769
# Poissons Ratio (y) = 0.41698 0.28494
# Poissons Ratio (z) = 0.19815 0.76140
#
# Static dielectric constant tensor:
#      x y z
#    x 3.622190 0.000000 0.000000 
#    y 0.000000 3.426040 0.000000 
#    z 0.000000 0.000000 3.197510 
# 
# 
# High freq. dielectric constant tensor:
#      x y z
#    x 1.772830 0.000000 0.000000 
#    y 0.000000 1.756750 0.000000 
#    z 0.000000 0.000000 1.709380 
# 
# From -- ./inp_files/16269.got.cif
#   From: 2010.03.12/outbox.cif.g09.slc.cpg/sg53_9_cif.got.tgz:16269.got - 2010.04.16 14:36:59.
