data_PCOD8219005
_publ_section_title
;
Structure prediction by ZEFSAII (Michael W. Deem and Ramdas Pophale) SiO2 
 PCOD8219005
Probable space group: P M N A
;
_chemical_formula_sum "Si O2"
_cell_formula_units_Z 56
_cell_length_a 20.181281
_cell_length_b 9.520470
_cell_length_c 15.799473
_cell_angle_alpha 90.000000
_cell_angle_beta 90.000000
_cell_angle_gamma 90.000000
_cell_volume 3035.636174
_symmetry_space_group_name_H-M "P M N A"
_symmetry_group_IT_number 53
_symmetry_cell_setting 'orthorhombic'
loop_
_space_group_symop_operation_xyz
x,y,z
1/2-x,-y,1/2+z
x,-y,-z
1/2-x,y,1/2-z
-x,-y,-z
1/2+x,y,1/2-z
-x,y,z
1/2+x,-y,1/2+z
loop_
_atom_site_type_symbol
_atom_site_label
_atom_site_fract_x
_atom_site_fract_y
_atom_site_fract_z
Si Si1 0.785450 0.460602 0.171331
Si Si2 0.248781 0.146481 0.969586
Si Si3 0.185510 0.049985 0.801038
Si Si4 0.138529 0.789844 0.893448
Si Si5 0.375451 0.676871 0.249876
Si Si6 0.500000 0.704035 0.550069
Si Si7 0.500000 0.408476 0.638239
Si Si8 0.330271 0.408501 0.926354
O O1 0.750000 0.381090 0.250000
O O2 0.847024 0.365341 0.142525
O O3 0.811869 0.608804 0.205658
O O4 0.733692 0.496304 0.097476
O O5 0.209752 0.133966 0.882549
O O6 0.307236 0.259270 0.963840
O O7 0.193274 0.188000 0.036162
O O8 0.281898 0.000000 0.000000
O O9 0.250000 0.001307 0.750000
O O10 0.137539 0.155106 0.748381
O O11 0.143588 0.910702 0.822580
O O12 0.064938 0.796200 0.931314
O O13 0.438688 0.634711 0.303926
O O14 0.379512 0.618622 0.153038
O O15 0.500000 0.571889 0.613743
O O16 0.500000 0.672418 0.450606
O O17 0.366949 0.500000 0.000000
#
# Coordination Sequence:
#
# PCOD8219005 Si02
#       8
#     8   8   8   8   8   4   4   8
#     4  10  19  32  54  84 116 145 193 248 292 346
#     4  10  20  33  51  83 117 147 187 242 297 355
#     4  11  20  36  57  83 119 155 190 246 301 353
#     4  11  22  35  55  83 124 156 200 230 290 357
#     4  11  21  38  57  85 115 156 202 242 297 364
#     4  11  24  39  57  87 126 168 201 230 285 361
#     4  11  24  39  62  83 121 166 199 242 289 354
#     4  11  20  34  60  86 114 147 197 259 312 347
#
# _framework density 18.447533
#
# number of rings (size 3 to 8) (size 9 to 14) (size 15 to 20)
#    0.000    1.286    5.714    1.714    0.000    0.571 
#    0.000    4.286    0.000    0.000    0.000    0.500 
#    0.000    0.000    0.000    0.000    0.000    0.000 
#
# Total GULP energy -694226.116482 kJ/mol
# GULP energy per Si atom -12396.894937 kJ/mol
# Density = 1.840555 g / cm^3
# Si number density = 18.447533 Si / 1000 Ang^3
#
#
#
# Elastic Constant Matrix: (Units=GPa)
#
#
# Indices 1 2 3 4 5 6 
#
# 1 77.1764 29.7137 40.7551 0.0000 0.0000 0.0000
# 2 29.7137 102.1427 46.9627 0.0000 0.0000 0.0000
# 3 40.7551 46.9627 103.7560 0.0000 0.0000 0.0000
# 4 0.0000 0.0000 0.0000 38.9484 0.0000 0.0000
# 5 0.0000 0.0000 0.0000 0.0000 32.9356 0.0000
# 6 0.0000 0.0000 0.0000 0.0000 0.0000 21.7017
#
#
#
# Elastic Compliance Matrix: (Units=1/GPa)
#
#
# Indices 1 2 3 4 5 6 
#
# 1 0.016779 -0.002337 -0.005533 0.000000 0.000000 0.000000
# 2 -0.002337 0.012689 -0.004825 0.000000 0.000000 0.000000
# 3 -0.005533 -0.004825 0.013995 0.000000 0.000000 0.000000
# 4 0.000000 0.000000 0.000000 0.025675 0.000000 0.000000
# 5 0.000000 0.000000 0.000000 0.000000 0.030362 0.000000
# 6 0.000000 0.000000 0.000000 0.000000 0.000000 0.046079
#
#
# Mechanical properties :
#
#
# Convention : Reuss Voigt Hill
#
# Bulk Modulus (GPa) = 55.33289 57.54867 56.44078
# Shear Modulus (GPa) = 28.24953 29.76003 29.00478
#
# Velocity S-wave (km/s) = 3.91748 4.02086 3.96951
# Velocity P-wave (km/s) = 7.10789 7.26773 7.18826
#
# Compressibility (1/GPa) = 0.01807243
#
# Stress axis : x y z
#
# Youngs Moduli (GPa) = 59.59851 78.81083 71.45261
#
# Poissons Ratio (x) = 0.18420 0.39534
# Poissons Ratio (y) = 0.13929 0.34477
# Poissons Ratio (z) = 0.32975 0.38027
#
# Static dielectric constant tensor:
#      x y z
#    x 3.128020 0.000000 0.000000 
#    y 0.000000 3.549660 0.000000 
#    z 0.000000 0.000000 2.287680 
# 
# 
# High freq. dielectric constant tensor:
#      x y z
#    x 1.674670 0.000000 0.000000 
#    y 0.000000 1.724090 0.000000 
#    z 0.000000 0.000000 1.724110 
# 
# From -- ./inp_files/24389.got.cif
#   From: 2010.03.12/outbox.cif.g09.slc.cpg/sg53_13_cif.got.tgz:24389.got - 2010.04.16 14:36:59.
