data_PCOD8219428
_publ_section_title
;
Structure prediction by ZEFSAII (Michael W. Deem and Ramdas Pophale) SiO2 
 PCOD8219428
Probable space group: P M N A
;
_chemical_formula_sum "Si O2"
_cell_formula_units_Z 48
_cell_length_a 8.878340
_cell_length_b 14.990842
_cell_length_c 19.272045
_cell_angle_alpha 90.000000
_cell_angle_beta 90.000000
_cell_angle_gamma 90.000000
_cell_volume 2564.989552
_symmetry_space_group_name_H-M "P M N A"
_symmetry_group_IT_number 53
_symmetry_cell_setting 'orthorhombic'
loop_
_space_group_symop_operation_xyz
x,y,z
1/2-x,-y,1/2+z
x,-y,-z
1/2-x,y,1/2-z
-x,-y,-z
1/2+x,y,1/2-z
-x,y,z
1/2+x,-y,1/2+z
loop_
_atom_site_type_symbol
_atom_site_label
_atom_site_fract_x
_atom_site_fract_y
_atom_site_fract_z
Si Si1 0.673971 0.531803 0.422043
Si Si2 0.678093 0.733308 0.438396
Si Si3 0.178686 0.866547 0.177852
Si Si4 0.322176 0.607765 0.824400
Si Si5 0.325127 0.932723 0.679765
Si Si6 0.322728 0.765693 0.592398
O O1 0.699600 0.500000 0.500000
O O2 0.500000 0.518433 0.400400
O O3 0.725096 0.634325 0.415435
O O4 0.779996 0.476033 0.371898
O O5 0.500000 0.742298 0.442181
O O6 0.743672 0.803523 0.382935
O O7 0.742408 0.755387 0.514756
O O8 0.250000 0.834333 0.250000
O O9 0.000000 0.857964 0.183596
O O10 0.230530 0.967693 0.160404
O O11 0.250000 0.592347 0.750000
O O12 0.500000 0.614088 0.816684
O O13 0.261597 0.698709 0.856969
O O14 0.250000 0.897083 0.750000
O O15 0.500000 0.934519 0.695710
O O16 0.287165 0.866467 0.616657
O O17 0.500000 0.743569 0.595641
#
# Coordination Sequence:
#
# PCOD8219428 Si02
#       6
#     8   8   8   8   8   8
#     4  10  19  37  61  81 109 148 182 222 278 334
#     4   9  18  33  57  82 108 142 180 221 274 331
#     4   9  18  34  53  78 108 142 182 225 270 321
#     4  12  25  39  57  83 113 145 185 232 275 327
#     4   9  18  31  52  77 107 143 181 223 269 321
#     4  10  19  35  56  81 110 144 181 223 276 331
#
# _framework density 18.713526999999999
#
# number of rings (size 3 to 8) (size 9 to 14) (size 15 to 20)
#    0.000    2.167    1.667    2.000    0.000    3.667 
#    0.000    6.667    0.000    0.000    0.000    5.833 
#    0.000    0.000    0.000    0.000    0.000    0.000 
#
# Total GULP energy -595261.339678 kJ/mol
# GULP energy per Si atom -12401.277910 kJ/mol
# Density = 1.867093 g / cm^3
# Si number density = 18.713527 Si / 1000 Ang^3
#
#
#
# Elastic Constant Matrix: (Units=GPa)
#
#
# Indices 1 2 3 4 5 6 
#
# 1 55.3425 34.8213 38.4535 0.0000 0.0000 0.0000
# 2 34.8213 121.2080 58.5393 0.0000 0.0000 0.0000
# 3 38.4535 58.5393 94.7600 0.0000 0.0000 0.0000
# 4 0.0000 0.0000 0.0000 32.2843 0.0000 0.0000
# 5 0.0000 0.0000 0.0000 0.0000 27.7928 0.0000
# 6 0.0000 0.0000 0.0000 0.0000 0.0000 26.7750
#
#
#
# Elastic Compliance Matrix: (Units=1/GPa)
#
#
# Indices 1 2 3 4 5 6 
#
# 1 0.026111 -0.003398 -0.008497 0.000000 0.000000 0.000000
# 2 -0.003398 0.012201 -0.006158 0.000000 0.000000 0.000000
# 3 -0.008497 -0.006158 0.017805 0.000000 0.000000 0.000000
# 4 0.000000 0.000000 0.000000 0.030975 0.000000 0.000000
# 5 0.000000 0.000000 0.000000 0.000000 0.035981 0.000000
# 6 0.000000 0.000000 0.000000 0.000000 0.000000 0.037348
#
#
# Mechanical properties :
#
#
# Convention : Reuss Voigt Hill
#
# Bulk Modulus (GPa) = 49.97177 59.43764 54.70471
# Shear Modulus (GPa) = 24.60670 26.67019 25.63844
#
# Velocity S-wave (km/s) = 3.63011 3.77925 3.70543
# Velocity P-wave (km/s) = 6.65821 7.13264 6.89950
#
# Compressibility (1/GPa) = 0.02001130
#
# Stress axis : x y z
#
# Youngs Moduli (GPa) = 38.29817 81.96292 56.16266
#
# Poissons Ratio (x) = 0.27848 0.47721
# Poissons Ratio (y) = 0.13012 0.34587
# Poissons Ratio (z) = 0.32542 0.50476
#
# Static dielectric constant tensor:
#      x y z
#    x 3.185500 0.000000 0.000000 
#    y 0.000000 3.720680 0.000000 
#    z 0.000000 0.000000 3.887720 
# 
# 
# High freq. dielectric constant tensor:
#      x y z
#    x 1.699040 0.000000 0.000000 
#    y 0.000000 1.739300 0.000000 
#    z 0.000000 0.000000 1.731060 
# 
# From -- ./inp_files/26182.got.cif
#   From: 2010.03.12/outbox.cif.g09.slc.cpg/sg53_14_cif.got.tgz:26182.got - 2010.04.16 14:36:59.
