data_PCOD8219899
_publ_section_title
;
Structure prediction by ZEFSAII (Michael W. Deem and Ramdas Pophale) SiO2 
 PCOD8219899
Probable space group: P M N A
;
_chemical_formula_sum "Si O2"
_cell_formula_units_Z 64
_cell_length_a 9.824780
_cell_length_b 16.921087
_cell_length_c 19.657125
_cell_angle_alpha 90.000000
_cell_angle_beta 90.000000
_cell_angle_gamma 90.000000
_cell_volume 3267.917560
_symmetry_space_group_name_H-M "P M N A"
_symmetry_group_IT_number 53
_symmetry_cell_setting 'orthorhombic'
loop_
_space_group_symop_operation_xyz
x,y,z
1/2-x,-y,1/2+z
x,-y,-z
1/2-x,y,1/2-z
-x,-y,-z
1/2+x,y,1/2-z
-x,y,z
1/2+x,-y,1/2+z
loop_
_atom_site_type_symbol
_atom_site_label
_atom_site_fract_x
_atom_site_fract_y
_atom_site_fract_z
Si Si1 0.351106 0.417962 0.153731
Si Si2 0.657414 0.323799 0.939186
Si Si3 0.841064 0.878084 0.583755
Si Si4 0.663616 0.978693 0.179835
Si Si5 0.159194 0.856191 0.433178
Si Si6 0.351161 0.588503 0.195883
Si Si7 0.154827 0.584107 0.965024
Si Si8 0.847607 0.757313 0.692555
O O1 0.500000 0.417454 0.115470
O O2 0.349923 0.493546 0.203244
O O3 0.219287 0.428129 0.108081
O O4 0.336221 0.337105 0.194965
O O5 0.500000 0.330624 0.962673
O O6 0.693153 0.234896 0.917441
O O7 0.691944 0.384069 0.878835
O O8 0.755618 0.348457 0.999885
O O9 0.775865 0.881183 0.507289
O O10 0.807564 0.792957 0.618535
O O11 0.000000 0.889436 0.573270
O O12 0.790054 0.944998 0.636036
O O13 0.750000 0.975494 0.250000
O O14 0.500000 0.977661 0.195206
O O15 0.711910 0.906121 0.131395
O O16 0.000000 0.871025 0.438836
O O17 0.250000 0.627095 0.250000
O O18 0.500000 0.622770 0.212658
O O19 0.000000 0.614252 0.959036
O O20 0.162342 0.500000 0.000000
O O21 0.750000 0.793549 0.750000
O O22 0.000000 0.785341 0.710822
#
# Coordination Sequence:
#
# PCOD8219899 Si02
#       8
#     8   8   8   8   8   8   8   8
#     4  10  20  35  53  74 102 140 183 224 270 327
#     4  10  20  36  56  77 103 139 182 223 268 323
#     4   9  17  32  55  83 111 142 183 228 271 322
#     4  10  20  35  58  86 115 146 181 223 275 329
#     4   9  18  34  58  84 108 141 189 235 268 315
#     4  10  21  34  50  71  97 135 178 220 267 317
#     4  11  22  34  52  79 106 134 172 223 279 326
#     4  10  20  33  52  78 109 145 183 227 278 331
#
# _framework density 19.584337000000001
#
# number of rings (size 3 to 8) (size 9 to 14) (size 15 to 20)
#    0.000    2.125    1.250    2.250    0.000    6.000 
#    0.000    0.625    0.000    3.000    0.000    0.000 
#    0.000    0.000    0.000    0.000    0.000    0.000 
#
# Total GULP energy -793071.668807 kJ/mol
# GULP energy per Si atom -12391.744825 kJ/mol
# Density = 1.953976 g / cm^3
# Si number density = 19.584337 Si / 1000 Ang^3
#
#
#
# Elastic Constant Matrix: (Units=GPa)
#
#
# Indices 1 2 3 4 5 6 
#
# 1 85.7069 19.8090 50.6794 0.0000 0.0000 0.0000
# 2 19.8090 83.6601 28.8386 0.0000 0.0000 0.0000
# 3 50.6794 28.8386 106.9780 0.0000 0.0000 0.0000
# 4 0.0000 0.0000 0.0000 18.4407 0.0000 0.0000
# 5 0.0000 0.0000 0.0000 0.0000 25.9231 0.0000
# 6 0.0000 0.0000 0.0000 0.0000 0.0000 12.1048
#
#
#
# Elastic Compliance Matrix: (Units=1/GPa)
#
#
# Indices 1 2 3 4 5 6 
#
# 1 0.016340 -0.001324 -0.007384 0.000000 0.000000 0.000000
# 2 -0.001324 0.013285 -0.002954 0.000000 0.000000 0.000000
# 3 -0.007384 -0.002954 0.013642 0.000000 0.000000 0.000000
# 4 0.000000 0.000000 0.000000 0.054228 0.000000 0.000000
# 5 0.000000 0.000000 0.000000 0.000000 0.038576 0.000000
# 6 0.000000 0.000000 0.000000 0.000000 0.000000 0.082612
#
#
# Mechanical properties :
#
#
# Convention : Reuss Voigt Hill
#
# Bulk Modulus (GPa) = 50.14224 52.77768 51.45996
# Shear Modulus (GPa) = 20.10830 23.09492 21.60161
#
# Velocity S-wave (km/s) = 3.20778 3.43775 3.32475
# Velocity P-wave (km/s) = 6.27524 6.53949 6.40873
#
# Compressibility (1/GPa) = 0.01994326
#
# Stress axis : x y z
#
# Youngs Moduli (GPa) = 61.20022 75.27345 73.30217
#
# Poissons Ratio (x) = 0.09963 0.54126
# Poissons Ratio (y) = 0.08100 0.21655
# Poissons Ratio (z) = 0.45190 0.22238
#
# Static dielectric constant tensor:
#      x y z
#    x 3.459500 0.000000 0.000000 
#    y 0.000000 3.710880 0.000000 
#    z 0.000000 0.000000 3.553650 
# 
# 
# High freq. dielectric constant tensor:
#      x y z
#    x 1.731340 0.000000 0.000000 
#    y 0.000000 1.766410 0.000000 
#    z 0.000000 0.000000 1.758670 
# 
# From -- ./inp_files/31121.got.cif
#   From: 2010.03.12/outbox.cif.g09.slc.cpg/sg53_16_cif.got.tgz:31121.got - 2010.04.16 14:36:59.
