data_PCOD8219907
_publ_section_title
;
Structure prediction by ZEFSAII (Michael W. Deem and Ramdas Pophale) SiO2 
 PCOD8219907
Probable space group: P M N A
;
_chemical_formula_sum "Si O2"
_cell_formula_units_Z 40
_cell_length_a 18.797197
_cell_length_b 10.673346
_cell_length_c 9.980995
_cell_angle_alpha 90.000000
_cell_angle_beta 90.000000
_cell_angle_gamma 90.000000
_cell_volume 2002.476920
_symmetry_space_group_name_H-M "P M N A"
_symmetry_group_IT_number 53
_symmetry_cell_setting 'orthorhombic'
loop_
_space_group_symop_operation_xyz
x,y,z
1/2-x,-y,1/2+z
x,-y,-z
1/2-x,y,1/2-z
-x,-y,-z
1/2+x,y,1/2-z
-x,y,z
1/2+x,-y,1/2+z
loop_
_atom_site_type_symbol
_atom_site_label
_atom_site_fract_x
_atom_site_fract_y
_atom_site_fract_z
Si Si1 0.176169 0.180298 0.109906
Si Si2 0.721057 0.413502 0.119407
Si Si3 0.580509 0.696811 0.828882
Si Si4 0.321379 0.894906 0.314144
Si Si5 0.079828 0.116650 0.572232
O O1 0.245564 0.271772 0.116635
O O2 0.109514 0.232692 0.195910
O O3 0.192416 0.043174 0.167533
O O4 0.156207 0.169830 0.953474
O O5 0.750000 0.484018 0.250000
O O6 0.635429 0.413487 0.134485
O O7 0.747124 0.500000 0.000000
O O8 0.500000 0.649374 0.798524
O O9 0.580678 0.773265 0.966022
O O10 0.250000 0.837179 0.250000
O O11 0.382532 0.854327 0.211567
O O12 0.000000 0.077864 0.612177
O O13 0.119006 0.000000 0.500000
#
# Coordination Sequence:
#
# PCOD8219907 Si02
#       5
#     8   8   8   8   8
#     4  10  22  36  54  84 113 151 185 228 285 333
#     4  10  22  40  60  80 108 144 192 242 291 334
#     4  10  20  37  59  83 115 149 186 228 278 340
#     4  11  21  32  55  84 119 150 187 226 269 342
#     4  10  20  33  52  81 118 154 182 219 270 331
#
# _framework density 19.975262000000001
#
# number of rings (size 3 to 8) (size 9 to 14) (size 15 to 20)
#    0.000    1.800    2.000    3.000    2.800    3.600 
#    0.000    2.000    0.000    9.600    0.000    0.000 
#    0.000    0.000    0.000    0.000    0.000    0.000 
#
# Total GULP energy -495557.318715 kJ/mol
# GULP energy per Si atom -12388.932968 kJ/mol
# Density = 1.992980 g / cm^3
# Si number density = 19.975262 Si / 1000 Ang^3
#
#
#
# Elastic Constant Matrix: (Units=GPa)
#
#
# Indices 1 2 3 4 5 6 
#
# 1 134.4822 24.4798 61.4501 0.0000 0.0000 0.0000
# 2 24.4798 47.3158 32.4397 0.0000 0.0000 0.0000
# 3 61.4501 32.4397 172.5843 0.0000 0.0000 0.0000
# 4 0.0000 0.0000 0.0000 25.0763 0.0000 0.0000
# 5 0.0000 0.0000 0.0000 0.0000 29.5039 0.0000
# 6 0.0000 0.0000 0.0000 0.0000 0.0000 -15.3211
#
#
#
# Elastic Compliance Matrix: (Units=1/GPa)
#
#
# Indices 1 2 3 4 5 6 
#
# 1 0.009213 -0.002890 -0.002737 0.000000 0.000000 0.000000
# 2 -0.002890 0.025168 -0.003702 0.000000 0.000000 0.000000
# 3 -0.002737 -0.003702 0.007465 0.000000 0.000000 0.000000
# 4 0.000000 0.000000 0.000000 0.039878 0.000000 0.000000
# 5 0.000000 0.000000 0.000000 0.000000 0.033894 0.000000
# 6 0.000000 0.000000 0.000000 0.000000 0.000000 -0.065269
#
#
# Mechanical properties :
#
#
# Convention : Reuss Voigt Hill
#
# Bulk Modulus (GPa) = 43.12628 65.68017 54.40323
# Shear Modulus (GPa) = 65.16017 23.58598 44.37308
#
# Velocity S-wave (km/s) = 5.71763 3.43995 4.71829
# Velocity P-wave (km/s) = 8.07620 6.98067 7.54834
#
# Compressibility (1/GPa) = 0.02318772
#
# Stress axis : x y z
#
# Youngs Moduli (GPa) = 108.54668 39.73369 133.96562
#
# Poissons Ratio (x) = 0.11482 0.36667
# Poissons Ratio (y) = 0.31368 0.49590
# Poissons Ratio (z) = 0.29710 0.14708
#
# Static dielectric constant tensor:
#      x y z
#    x 3.795400 0.000000 0.000000 
#    y 0.000000 3.229720 0.000000 
#    z 0.000000 0.000000 3.813680 
# 
# 
# High freq. dielectric constant tensor:
#      x y z
#    x 1.775780 0.000000 0.000000 
#    y 0.000000 1.740210 0.000000 
#    z 0.000000 0.000000 1.803550 
# 
# From -- ./inp_files/9669.got.cif
#   From: 2010.03.12/outbox.cif.g09.slc.cpg/sg53_5_cif.got.tgz:9669.got - 2010.04.16 14:36:59.
