data_PCOD8219316
_publ_section_title
;
Structure prediction by ZEFSAII (Michael W. Deem and Ramdas Pophale) SiO2 
 PCOD8219316
Probable space group: P M N A
;
_chemical_formula_sum "Si O2"
_cell_formula_units_Z 64
_cell_length_a 8.787012
_cell_length_b 20.502535
_cell_length_c 19.578085
_cell_angle_alpha 90.000000
_cell_angle_beta 90.000000
_cell_angle_gamma 90.000000
_cell_volume 3527.109894
_symmetry_space_group_name_H-M "P M N A"
_symmetry_group_IT_number 53
_symmetry_cell_setting 'orthorhombic'
loop_
_space_group_symop_operation_xyz
x,y,z
1/2-x,-y,1/2+z
x,-y,-z
1/2-x,y,1/2-z
-x,-y,-z
1/2+x,y,1/2-z
-x,y,z
1/2+x,-y,1/2+z
loop_
_atom_site_type_symbol
_atom_site_label
_atom_site_fract_x
_atom_site_fract_y
_atom_site_fract_z
Si Si1 0.680153 0.936035 0.042236
Si Si2 0.180795 0.979928 0.179405
Si Si3 0.322684 0.482239 0.681559
Si Si4 0.319416 0.816555 0.537685
Si Si5 0.319595 0.369547 0.320237
Si Si6 0.177925 0.870653 0.818705
Si Si7 0.320695 0.682399 0.954999
Si Si8 0.322462 0.432603 0.536475
O O1 0.500000 0.927162 0.042978
O O2 0.743345 0.939558 0.118707
O O3 0.757896 0.873784 0.009153
O O4 0.729508 0.000000 0.000000
O O5 0.250000 0.952520 0.250000
O O6 0.000000 0.970916 0.178371
O O7 0.231324 0.055000 0.170327
O O8 0.250000 0.451804 0.750000
O O9 0.500000 0.484555 0.693939
O O10 0.264343 0.555904 0.668687
O O11 0.281446 0.437958 0.616580
O O12 0.500000 0.812544 0.529996
O O13 0.269393 0.829275 0.616035
O O14 0.242987 0.749374 0.513305
O O15 0.250000 0.342068 0.250000
O O16 0.500000 0.362811 0.318750
O O17 0.256286 0.326849 0.381671
O O18 0.250000 0.840608 0.750000
O O19 0.000000 0.867545 0.808794
O O20 0.500000 0.685811 0.946313
O O21 0.278894 0.624618 0.006477
O O22 0.279458 0.500000 0.500000
O O23 0.500000 0.416832 0.524167
#
# Coordination Sequence:
#
# PCOD8219316 Si02
#       8
#     8   8   8   8   8   8   8   8
#     4  11  22  36  58  87 116 148 187 235 286 338
#     4  10  19  34  56  85 116 147 187 232 280 333
#     4   9  18  32  55  83 112 143 181 229 279 330
#     4  11  23  40  58  79 111 154 195 236 284 339
#     4  10  19  35  55  80 112 151 191 230 276 333
#     4   9  19  33  53  79 109 146 188 228 272 327
#     4  12  25  38  54  82 115 151 191 237 286 339
#     4  10  19  37  60  82 110 149 190 231 281 336
#
# _framework density 18.145167000000001
#
# number of rings (size 3 to 8) (size 9 to 14) (size 15 to 20)
#    0.000    1.750    2.500    2.625    0.000    3.750 
#    0.000    1.250    0.000    0.750    0.000    3.500 
#    0.000    0.000    0.000    0.000    0.000    0.000 
#
# Total GULP energy -793811.628360 kJ/mol
# GULP energy per Si atom -12403.306693 kJ/mol
# Density = 1.810387 g / cm^3
# Si number density = 18.145167 Si / 1000 Ang^3
#
#
#
# Elastic Constant Matrix: (Units=GPa)
#
#
# Indices 1 2 3 4 5 6 
#
# 1 77.6442 37.1768 46.6619 0.0000 0.0000 0.0000
# 2 37.1768 91.3510 50.3100 0.0000 0.0000 0.0000
# 3 46.6619 50.3100 119.8354 0.0000 0.0000 0.0000
# 4 0.0000 0.0000 0.0000 25.3323 0.0000 0.0000
# 5 0.0000 0.0000 0.0000 0.0000 36.2278 0.0000
# 6 0.0000 0.0000 0.0000 0.0000 0.0000 23.1362
#
#
#
# Elastic Compliance Matrix: (Units=1/GPa)
#
#
# Indices 1 2 3 4 5 6 
#
# 1 0.018158 -0.004547 -0.005162 0.000000 0.000000 0.000000
# 2 -0.004547 0.015378 -0.004685 0.000000 0.000000 0.000000
# 3 -0.005162 -0.004685 0.012322 0.000000 0.000000 0.000000
# 4 0.000000 0.000000 0.000000 0.039475 0.000000 0.000000
# 5 0.000000 0.000000 0.000000 0.000000 0.027603 0.000000
# 6 0.000000 0.000000 0.000000 0.000000 0.000000 0.043222
#
#
# Mechanical properties :
#
#
# Convention : Reuss Voigt Hill
#
# Bulk Modulus (GPa) = 58.58388 61.90312 60.24350
# Shear Modulus (GPa) = 26.22788 27.25137 26.73963
#
# Velocity S-wave (km/s) = 3.80603 3.87958 3.84298
# Velocity P-wave (km/s) = 7.18824 7.36598 7.27765
#
# Compressibility (1/GPa) = 0.01706954
#
# Stress axis : x y z
#
# Youngs Moduli (GPa) = 55.07067 65.02903 81.15807
#
# Poissons Ratio (x) = 0.29570 0.41890
# Poissons Ratio (y) = 0.25042 0.38025
# Poissons Ratio (z) = 0.28425 0.30468
#
# Static dielectric constant tensor:
#      x y z
#    x 3.329320 0.000000 0.000000 
#    y 0.000000 3.201170 0.000000 
#    z 0.000000 0.000000 1.973350 
# 
# 
# High freq. dielectric constant tensor:
#      x y z
#    x 1.708930 0.000000 0.000000 
#    y 0.000000 1.679220 0.000000 
#    z 0.000000 0.000000 1.708860 
# 
# From -- ./inp_files/31138.got.cif
#   From: 2010.03.12/outbox.cif.g09.slc.cpg/sg53_16_cif.got.tgz:31138.got - 2010.04.16 14:36:59.
