data_PCOD8219863
_publ_section_title
;
Structure prediction by ZEFSAII (Michael W. Deem and Ramdas Pophale) SiO2 
 PCOD8219863
Probable space group: P M N A
;
_chemical_formula_sum "Si O2"
_cell_formula_units_Z 64
_cell_length_a 9.511356
_cell_length_b 9.206008
_cell_length_c 40.686214
_cell_angle_alpha 90.000000
_cell_angle_beta 90.000000
_cell_angle_gamma 90.000000
_cell_volume 3562.550786
_symmetry_space_group_name_H-M "P M N A"
_symmetry_group_IT_number 53
_symmetry_cell_setting 'orthorhombic'
loop_
_space_group_symop_operation_xyz
x,y,z
1/2-x,-y,1/2+z
x,-y,-z
1/2-x,y,1/2-z
-x,-y,-z
1/2+x,y,1/2-z
-x,y,z
1/2+x,-y,1/2+z
loop_
_atom_site_type_symbol
_atom_site_label
_atom_site_fract_x
_atom_site_fract_y
_atom_site_fract_z
Si Si1 0.837811 0.834266 0.961923
Si Si2 0.662945 0.331020 0.218440
Si Si3 0.664288 0.668749 0.090603
Si Si4 0.667193 0.836008 0.154517
Si Si5 0.835712 0.331251 0.409397
Si Si6 0.662945 0.331021 0.781560
Si Si7 0.332807 0.836008 0.845483
Si Si8 0.837811 0.834266 0.038077
O O1 0.742712 0.724715 0.941544
O O2 0.000000 0.805982 0.953339
O O3 0.796960 1.000000 0.953395
O O4 0.808941 0.802329 0.000000
O O5 0.750000 0.279279 0.250000
O O6 0.500000 0.296566 0.225144
O O7 0.686928 0.500000 0.210964
O O8 0.722392 0.242975 0.187281
O O9 0.500000 0.699162 0.085643
O O10 0.723963 0.752308 0.122506
O O11 0.695890 0.500000 0.095684
O O12 0.742712 0.724715 0.058456
O O13 0.500000 0.832003 0.154454
O O14 0.722392 0.757025 0.187281
O O15 0.725170 1.000000 0.153871
O O16 0.776037 0.247692 0.377494
O O17 0.000000 0.300838 0.414357
O O18 0.750000 0.279280 0.750000
O O19 0.500000 0.296567 0.774856
O O20 0.500000 0.832003 0.845546
O O21 0.000000 0.805982 0.046661
#
# Coordination Sequence:
#
# PCOD8219863 Si02
#       8
#     8   8   8   8   8   8   8   8
#     4   9  19  36  55  74  99 132 167 202 244 295
#     4   9  17  30  48  69  94 124 157 194 238 288
#     4  10  20  33  51  76 103 130 164 206 248 292
#     4   9  17  30  49  71  95 126 163 201 242 288
#     4  10  20  33  51  76 103 130 164 206 248 292
#     4   9  17  30  48  69  94 124 157 194 238 288
#     4   9  17  30  49  71  95 126 163 201 242 288
#     4   9  19  36  55  74  99 132 167 202 244 295
#
# _framework density 17.964656999999999
#
# number of rings (size 3 to 8) (size 9 to 14) (size 15 to 20)
#    0.000    2.750    0.000    2.250    0.000    6.500 
#    0.000    5.000    0.000    4.500    0.000    0.000 
#    0.000    0.000    0.000    0.000    0.000    0.000 
#
# Total GULP energy -793702.966179 kJ/mol
# GULP energy per Si atom -12401.608847 kJ/mol
# Density = 1.792377 g / cm^3
# Si number density = 17.964657 Si / 1000 Ang^3
#
#
#
# Elastic Constant Matrix: (Units=GPa)
#
#
# Indices 1 2 3 4 5 6 
#
# 1 43.6463 43.5946 50.6126 0.0000 0.0000 0.0000
# 2 43.5946 116.4131 81.3719 0.0000 0.0000 0.0000
# 3 50.6126 81.3719 138.3112 0.0000 0.0000 0.0000
# 4 0.0000 0.0000 0.0000 41.6366 0.0000 0.0000
# 5 0.0000 0.0000 0.0000 0.0000 30.2772 0.0000
# 6 0.0000 0.0000 0.0000 0.0000 0.0000 23.3506
#
#
#
# Elastic Compliance Matrix: (Units=1/GPa)
#
#
# Indices 1 2 3 4 5 6 
#
# 1 0.044763 -0.009024 -0.011071 0.000000 0.000000 0.000000
# 2 -0.009024 0.016409 -0.006352 0.000000 0.000000 0.000000
# 3 -0.011071 -0.006352 0.015018 0.000000 0.000000 0.000000
# 4 0.000000 0.000000 0.000000 0.024017 0.000000 0.000000
# 5 0.000000 0.000000 0.000000 0.000000 0.033028 0.000000
# 6 0.000000 0.000000 0.000000 0.000000 0.000000 0.042825
#
#
# Mechanical properties :
#
#
# Convention : Reuss Voigt Hill
#
# Bulk Modulus (GPa) = 42.92503 72.16985 57.54744
# Shear Modulus (GPa) = 21.12188 27.23900 24.18044
#
# Velocity S-wave (km/s) = 3.43264 3.89814 3.67277
# Velocity P-wave (km/s) = 6.29735 7.77953 7.07735
#
# Compressibility (1/GPa) = 0.02329643
#
# Stress axis : x y z
#
# Youngs Moduli (GPa) = 22.33979 60.94083 66.58596
#
# Poissons Ratio (x) = 0.54996 0.73717
# Poissons Ratio (y) = 0.20160 0.42293
# Poissons Ratio (z) = 0.24732 0.38708
#
# Static dielectric constant tensor:
#      x y z
#    x 2.996860 0.000000 0.000000 
#    y 0.000000 3.375520 0.000000 
#    z 0.000000 0.000000 3.417290 
# 
# 
# High freq. dielectric constant tensor:
#      x y z
#    x 1.661230 0.000000 0.000000 
#    y 0.000000 1.701100 0.000000 
#    z 0.000000 0.000000 1.706990 
# 
# From -- ./inp_files/38718.got.cif
#   From: 2010.03.12/outbox.cif.g09.slc.cpg/sg53_20_cif.got.tgz:38718.got - 2010.04.16 14:36:59.
