data_PCOD8219914
_publ_section_title
;
Structure prediction by ZEFSAII (Michael W. Deem and Ramdas Pophale) SiO2 
 PCOD8219914
Probable space group: P M N A
;
_chemical_formula_sum "Si O2"
_cell_formula_units_Z 64
_cell_length_a 9.700491
_cell_length_b 14.781968
_cell_length_c 22.241729
_cell_angle_alpha 90.000000
_cell_angle_beta 90.000000
_cell_angle_gamma 90.000000
_cell_volume 3189.293735
_symmetry_space_group_name_H-M "P M N A"
_symmetry_group_IT_number 53
_symmetry_cell_setting 'orthorhombic'
loop_
_space_group_symop_operation_xyz
x,y,z
1/2-x,-y,1/2+z
x,-y,-z
1/2-x,y,1/2-z
-x,-y,-z
1/2+x,y,1/2-z
-x,y,z
1/2+x,-y,1/2+z
loop_
_atom_site_type_symbol
_atom_site_label
_atom_site_fract_x
_atom_site_fract_y
_atom_site_fract_z
Si Si1 0.844392 0.239116 0.929794
Si Si2 0.661959 0.560419 0.443841
Si Si3 0.653794 0.298265 0.301470
Si Si4 0.657461 0.005748 0.302978
Si Si5 0.161857 0.508360 0.190690
Si Si6 0.151986 0.800294 0.200467
Si Si7 0.843574 0.152675 0.101190
Si Si8 0.163051 0.894116 0.494786
O O1 0.805261 0.334550 0.960987
O O2 0.841780 0.260750 0.858635
O O3 0.737021 0.156721 0.939443
O O4 0.000000 0.208574 0.948337
O O5 0.723309 0.500000 0.500000
O O6 0.500000 0.541898 0.440673
O O7 0.718102 0.541386 0.375432
O O8 0.750000 0.257968 0.250000
O O9 0.500000 0.282170 0.277985
O O10 0.683952 0.401769 0.314750
O O11 0.680033 0.243355 0.361878
O O12 0.750000 0.046331 0.250000
O O13 0.500000 0.017480 0.282934
O O14 0.688306 0.061630 0.362554
O O15 0.698042 0.902270 0.316097
O O16 0.250000 0.543034 0.250000
O O17 0.000000 0.534333 0.200655
O O18 0.250000 0.755699 0.250000
O O19 0.000000 0.801118 0.228621
O O20 0.000000 0.149515 0.075498
O O21 0.730033 0.159121 0.049964
O O22 0.000000 0.878890 0.491494
O O23 0.200326 0.000000 0.500000
#
# Coordination Sequence:
#
# PCOD8219914 Si02
#       8
#     8   8   8   8   8   8   8   8
#     4  10  21  38  61  85 110 145 192 237 279 335
#     4   9  19  35  60  89 116 150 196 247 292 340
#     4   9  18  31  51  80 113 148 187 232 282 338
#     4   9  17  29  46  71 104 138 177 224 273 326
#     4   9  18  34  56  84 118 154 194 238 290 348
#     4   9  18  32  51  77 106 138 175 219 271 327
#     4  10  20  33  53  78 104 143 192 237 279 332
#     4  11  25  41  56  79 112 149 188 234 291 348
#
# _framework density 20.067139999999998
#
# number of rings (size 3 to 8) (size 9 to 14) (size 15 to 20)
#    0.000    2.500    0.000    1.500    1.750    4.000 
#    0.000    3.125    0.000    0.750    0.000    0.000 
#    0.000    0.000    0.000    0.000    0.000    0.000 
#
# Total GULP energy -793030.039166 kJ/mol
# GULP energy per Si atom -12391.094362 kJ/mol
# Density = 2.002147 g / cm^3
# Si number density = 20.067140 Si / 1000 Ang^3
#
#
#
# Elastic Constant Matrix: (Units=GPa)
#
#
# Indices 1 2 3 4 5 6 
#
# 1 78.2335 33.8430 45.8762 0.0000 0.0000 0.0000
# 2 33.8430 72.4207 24.6372 0.0000 0.0000 0.0000
# 3 45.8762 24.6372 107.3578 0.0000 0.0000 0.0000
# 4 0.0000 0.0000 0.0000 -14.5327 0.0000 0.0000
# 5 0.0000 0.0000 0.0000 0.0000 35.3940 0.0000
# 6 0.0000 0.0000 0.0000 0.0000 0.0000 17.9485
#
#
#
# Elastic Compliance Matrix: (Units=1/GPa)
#
#
# Indices 1 2 3 4 5 6 
#
# 1 0.019807 -0.006916 -0.006877 0.000000 0.000000 0.000000
# 2 -0.006916 0.017393 -0.001036 0.000000 0.000000 0.000000
# 3 -0.006877 -0.001036 0.012491 0.000000 0.000000 0.000000
# 4 0.000000 0.000000 0.000000 -0.068810 0.000000 0.000000
# 5 0.000000 0.000000 0.000000 0.000000 0.028253 0.000000
# 6 0.000000 0.000000 0.000000 0.000000 0.000000 0.055715
#
#
# Mechanical properties :
#
#
# Convention : Reuss Voigt Hill
#
# Bulk Modulus (GPa) = 49.91892 51.85830 50.88861
# Shear Modulus (GPa) = 49.41509 18.00566 33.71037
#
# Velocity S-wave (km/s) = 4.96773 2.99870 4.10308
# Velocity P-wave (km/s) = 7.60489 6.15533 6.91818
#
# Compressibility (1/GPa) = 0.02003249
#
# Stress axis : x y z
#
# Youngs Moduli (GPa) = 50.48801 57.49524 80.05852
#
# Poissons Ratio (x) = 0.39767 0.55053
# Poissons Ratio (y) = 0.34920 0.08293
# Poissons Ratio (z) = 0.34718 0.05956
#
# Static dielectric constant tensor:
#      x y z
#    x 3.698970 0.000000 0.000000 
#    y 0.000000 3.690000 0.000000 
#    z 0.000000 0.000000 3.738080 
# 
# 
# High freq. dielectric constant tensor:
#      x y z
#    x 1.755530 0.000000 0.000000 
#    y 0.000000 1.789830 0.000000 
#    z 0.000000 0.000000 1.783150 
# 
# From -- ./inp_files/34333.got.cif
#   From: 2010.03.12/outbox.cif.g09.slc.cpg/sg53_18_cif.got.tgz:34333.got - 2010.04.16 14:36:59.
