data_PCOD8219320
_publ_section_title
;
Structure prediction by ZEFSAII (Michael W. Deem and Ramdas Pophale) SiO2 
 PCOD8219320
Probable space group: P M N A
;
_chemical_formula_sum "Si O2"
_cell_formula_units_Z 48
_cell_length_a 17.623586
_cell_length_b 9.808831
_cell_length_c 13.877148
_cell_angle_alpha 90.000000
_cell_angle_beta 90.000000
_cell_angle_gamma 90.000000
_cell_volume 2398.897844
_symmetry_space_group_name_H-M "P M N A"
_symmetry_group_IT_number 53
_symmetry_cell_setting 'orthorhombic'
loop_
_space_group_symop_operation_xyz
x,y,z
1/2-x,-y,1/2+z
x,-y,-z
1/2-x,y,1/2-z
-x,-y,-z
1/2+x,y,1/2-z
-x,y,z
1/2+x,-y,1/2+z
loop_
_atom_site_type_symbol
_atom_site_label
_atom_site_fract_x
_atom_site_fract_y
_atom_site_fract_z
Si Si1 0.411534 0.685432 0.200901
Si Si2 0.855376 0.375667 0.105948
Si Si3 0.164389 0.801771 0.720125
Si Si4 0.911305 0.966489 0.393775
Si Si5 0.184963 0.455878 0.393124
Si Si6 0.083932 0.658120 0.088310
O O1 0.500000 0.641168 0.189981
O O2 0.392535 0.810028 0.130065
O O3 0.355420 0.560782 0.178819
O O4 0.394500 0.732285 0.311220
O O5 0.875506 0.262672 0.185476
O O6 0.775156 0.451848 0.123999
O O7 0.917547 0.495018 0.108876
O O8 0.858047 0.305565 0.999062
O O9 0.250000 0.833522 0.750000
O O10 0.155726 0.696023 0.631198
O O11 0.126194 0.941393 0.688567
O O12 0.000000 0.996980 0.390381
O O13 0.878456 0.000000 0.500000
O O14 0.161716 0.500000 0.500000
O O15 0.000000 0.703742 0.056303
#
# Coordination Sequence:
#
# PCOD8219320 Si02
#       6
#     8   8   8   8   8   8
#     4  10  22  38  57  86 116 151 198 241 287 343
#     4  10  19  34  56  86 118 149 189 230 292 343
#     4  10  22  38  55  88 120 149 194 241 288 348
#     4  10  22  43  63  81 115 159 198 240 291 344
#     4  11  20  34  59  85 118 148 187 247 286 340
#     4  10  19  35  57  86 121 150 187 235 286 345
#
# _framework density 20.009188999999999
#
# number of rings (size 3 to 8) (size 9 to 14) (size 15 to 20)
#    0.000    1.833    3.333    2.000    0.000    2.333 
#    3.000    0.833    0.000    3.000    0.000    0.000 
#    0.000    0.000    0.000    0.000    0.000    0.000 
#
# Total GULP energy -595009.004965 kJ/mol
# GULP energy per Si atom -12396.020937 kJ/mol
# Density = 1.996365 g / cm^3
# Si number density = 20.009189 Si / 1000 Ang^3
#
#
#
# Elastic Constant Matrix: (Units=GPa)
#
#
# Indices 1 2 3 4 5 6 
#
# 1 67.2042 33.6026 35.4556 0.0000 0.0000 0.0000
# 2 33.6026 61.2088 19.3817 0.0000 0.0000 0.0000
# 3 35.4556 19.3817 111.0484 0.0000 0.0000 0.0000
# 4 0.0000 0.0000 0.0000 38.2339 0.0000 0.0000
# 5 0.0000 0.0000 0.0000 0.0000 30.5346 0.0000
# 6 0.0000 0.0000 0.0000 0.0000 0.0000 25.3168
#
#
#
# Elastic Compliance Matrix: (Units=1/GPa)
#
#
# Indices 1 2 3 4 5 6 
#
# 1 0.023317 -0.011054 -0.005515 0.000000 0.000000 0.000000
# 2 -0.011054 0.022534 -0.000404 0.000000 0.000000 0.000000
# 3 -0.005515 -0.000404 0.010836 0.000000 0.000000 0.000000
# 4 0.000000 0.000000 0.000000 0.026155 0.000000 0.000000
# 5 0.000000 0.000000 0.000000 0.000000 0.032750 0.000000
# 6 0.000000 0.000000 0.000000 0.000000 0.000000 0.039499
#
#
# Mechanical properties :
#
#
# Convention : Reuss Voigt Hill
#
# Bulk Modulus (GPa) = 43.97310 46.26012 45.11661
# Shear Modulus (GPa) = 25.43004 28.88517 27.15760
#
# Velocity S-wave (km/s) = 3.56886 3.80359 3.68809
# Velocity P-wave (km/s) = 6.24552 6.51608 6.38224
#
# Compressibility (1/GPa) = 0.02274117
#
# Stress axis : x y z
#
# Youngs Moduli (GPa) = 42.88714 44.37765 92.28111
#
# Poissons Ratio (x) = 0.49056 0.50896
# Poissons Ratio (y) = 0.47408 0.03724
# Poissons Ratio (z) = 0.23654 0.01791
#
# Static dielectric constant tensor:
#      x y z
#    x 3.453740 0.000000 0.000000 
#    y 0.000000 3.310060 0.000000 
#    z 0.000000 0.000000 4.056760 
# 
# 
# High freq. dielectric constant tensor:
#      x y z
#    x 1.768070 0.000000 0.000000 
#    y 0.000000 1.746110 0.000000 
#    z 0.000000 0.000000 1.803170 
# 
# From -- ./inp_files/23690.got.cif
#   From: 2010.03.12/outbox.cif.g09.slc.cpg/sg53_12_cif.got.tgz:23690.got - 2010.04.16 14:36:59.
