data_PCOD8219559
_publ_section_title
;
Structure prediction by ZEFSAII (Michael W. Deem and Ramdas Pophale) SiO2 
 PCOD8219559
Probable space group: P M N A
;
_chemical_formula_sum "Si O2"
_cell_formula_units_Z 64
_cell_length_a 8.886610
_cell_length_b 12.445890
_cell_length_c 30.385006
_cell_angle_alpha 90.000000
_cell_angle_beta 90.000000
_cell_angle_gamma 90.000000
_cell_volume 3360.635461
_symmetry_space_group_name_H-M "P M N A"
_symmetry_group_IT_number 53
_symmetry_cell_setting 'orthorhombic'
loop_
_space_group_symop_operation_xyz
x,y,z
1/2-x,-y,1/2+z
x,-y,-z
1/2-x,y,1/2-z
-x,-y,-z
1/2+x,y,1/2-z
-x,y,z
1/2+x,-y,1/2+z
loop_
_atom_site_type_symbol
_atom_site_label
_atom_site_fract_x
_atom_site_fract_y
_atom_site_fract_z
Si Si1 0.178773 0.173029 0.381934
Si Si2 0.176857 0.387277 0.591825
Si Si3 0.834258 0.868005 0.791528
Si Si4 0.677750 0.821382 0.383074
Si Si5 0.176249 0.383221 0.090103
Si Si6 0.661420 0.886933 0.289852
Si Si7 0.662963 0.374636 0.004380
Si Si8 0.678270 0.993280 0.551530
O O1 0.235276 0.128435 0.335524
O O2 0.236429 0.295936 0.381139
O O3 0.244440 0.107301 0.423727
O O4 0.000000 0.168384 0.384112
O O5 0.240916 0.293428 0.621937
O O6 0.261208 0.498855 0.601298
O O7 0.213909 0.336792 0.543687
O O8 0.000000 0.406776 0.598779
O O9 0.750000 0.810120 0.750000
O O10 0.000000 0.814468 0.799271
O O11 0.860629 0.989767 0.777284
O O12 0.500000 0.803947 0.386028
O O13 0.733918 0.878505 0.338296
O O14 0.729022 0.896648 0.424002
O O15 0.000000 0.379495 0.099625
O O16 0.207440 0.349618 0.039370
O O17 0.750000 0.829168 0.250000
O O18 0.500000 0.828458 0.291618
O O19 0.500000 0.323682 0.018531
O O20 0.636331 0.500000 0.000000
O O21 0.500000 0.975671 0.555563
O O22 0.727729 0.000000 0.500000
#
# Coordination Sequence:
#
# PCOD8219559 Si02
#       8
#     8   8   8   8   8   8   8   8
#     4  12  24  38  58  84 117 154 192 236 288 345
#     4  10  21  36  54  79 111 145 186 236 284 334
#     4  10  19  36  59  86 116 147 186 235 286 338
#     4  10  20  36  56  82 115 150 189 233 279 335
#     4  11  22  36  56  79 106 146 193 238 284 334
#     4   9  18  33  55  81 112 142 179 230 278 328
#     4   8  16  32  50  72 103 136 177 232 280 320
#     4  10  22  40  58  81 116 158 198 237 283 339
#
# _framework density 19.044018000000001
#
# number of rings (size 3 to 8) (size 9 to 14) (size 15 to 20)
#    0.000    2.000    1.250    3.750    1.750    4.500 
#    0.000    0.000    0.000    0.750    0.000    3.500 
#    0.000    0.000    0.000    0.000    0.000    0.000 
#
# Total GULP energy -792985.058565 kJ/mol
# GULP energy per Si atom -12390.391540 kJ/mol
# Density = 1.900067 g / cm^3
# Si number density = 19.044018 Si / 1000 Ang^3
#
#
#
# Elastic Constant Matrix: (Units=GPa)
#
#
# Indices 1 2 3 4 5 6 
#
# 1 108.6902 40.0952 48.4859 0.0000 0.0000 0.0000
# 2 40.0952 80.0446 29.0485 0.0000 0.0000 0.0000
# 3 48.4859 29.0485 124.6245 0.0000 0.0000 0.0000
# 4 0.0000 0.0000 0.0000 15.3349 0.0000 0.0000
# 5 0.0000 0.0000 0.0000 0.0000 28.5282 0.0000
# 6 0.0000 0.0000 0.0000 0.0000 0.0000 25.3455
#
#
#
# Elastic Compliance Matrix: (Units=1/GPa)
#
#
# Indices 1 2 3 4 5 6 
#
# 1 0.012737 -0.005005 -0.003789 0.000000 0.000000 0.000000
# 2 -0.005005 0.015614 -0.001692 0.000000 0.000000 0.000000
# 3 -0.003789 -0.001692 0.009893 0.000000 0.000000 0.000000
# 4 0.000000 0.000000 0.000000 0.065211 0.000000 0.000000
# 5 0.000000 0.000000 0.000000 0.000000 0.035053 0.000000
# 6 0.000000 0.000000 0.000000 0.000000 0.000000 0.039455
#
#
# Mechanical properties :
#
#
# Convention : Reuss Voigt Hill
#
# Bulk Modulus (GPa) = 57.89854 60.95762 59.42808
# Shear Modulus (GPa) = 24.42701 26.89040 25.65870
#
# Velocity S-wave (km/s) = 3.58531 3.76175 3.67459
# Velocity P-wave (km/s) = 6.89984 7.13765 7.01975
#
# Compressibility (1/GPa) = 0.01727159
#
# Stress axis : x y z
#
# Youngs Moduli (GPa) = 78.51167 64.04401 101.08585
#
# Poissons Ratio (x) = 0.32055 0.38299
# Poissons Ratio (y) = 0.39296 0.17106
# Poissons Ratio (z) = 0.29746 0.10838
#
# Static dielectric constant tensor:
#      x y z
#    x 3.644160 0.000000 0.000000 
#    y 0.000000 3.259640 0.000000 
#    z 0.000000 0.000000 3.908540 
# 
# 
# High freq. dielectric constant tensor:
#      x y z
#    x 1.744210 0.000000 0.000000 
#    y 0.000000 1.714150 0.000000 
#    z 0.000000 0.000000 1.734180 
# 
# From -- ./inp_files/38259.got.cif
#   From: 2010.03.12/outbox.cif.g09.slc.cpg/sg53_20_cif.got.tgz:38259.got - 2010.04.16 14:36:59.
