data_PCOD8219706
_publ_section_title
;
Structure prediction by ZEFSAII (Michael W. Deem and Ramdas Pophale) SiO2 
 PCOD8219706
Probable space group: P M N A
;
_chemical_formula_sum "Si O2"
_cell_formula_units_Z 56
_cell_length_a 9.072101
_cell_length_b 20.402542
_cell_length_c 16.669929
_cell_angle_alpha 90.000000
_cell_angle_beta 90.000000
_cell_angle_gamma 90.000000
_cell_volume 3085.502533
_symmetry_space_group_name_H-M "P M N A"
_symmetry_group_IT_number 53
_symmetry_cell_setting 'orthorhombic'
loop_
_space_group_symop_operation_xyz
x,y,z
1/2-x,-y,1/2+z
x,-y,-z
1/2-x,y,1/2-z
-x,-y,-z
1/2+x,y,1/2-z
-x,y,z
1/2+x,-y,1/2+z
loop_
_atom_site_type_symbol
_atom_site_label
_atom_site_fract_x
_atom_site_fract_y
_atom_site_fract_z
Si Si1 0.828157 0.939804 0.170050
Si Si2 0.835136 0.404368 0.942401
Si Si3 0.172973 0.714569 0.500689
Si Si4 0.833654 0.954224 0.577026
Si Si5 0.664783 0.461125 0.380767
Si Si6 0.171759 0.849587 0.017859
Si Si7 0.328161 0.658972 0.827011
O O1 0.750000 0.912835 0.250000
O O2 0.800491 0.886502 0.101332
O O3 0.000000 0.951298 0.185717
O O4 0.755494 0.009518 0.147273
O O5 0.721568 0.343806 0.940571
O O6 0.786237 0.462017 0.880291
O O7 0.000000 0.379420 0.920930
O O8 0.835942 0.435746 0.029308
O O9 0.260324 0.778174 0.473119
O O10 0.216677 0.697686 0.592429
O O11 0.000000 0.726215 0.491093
O O12 0.752088 0.886648 0.555387
O O13 0.000000 0.938895 0.605933
O O14 0.835249 0.000000 0.500000
O O15 0.500000 0.454010 0.344541
O O16 0.777738 0.417116 0.330296
O O17 0.000000 0.845407 0.997144
O O18 0.250000 0.692680 0.750000
O O19 0.500000 0.661304 0.812771
#
# Coordination Sequence:
#
# PCOD8219706 Si02
#       7
#     8   8   8   8   8   8   8
#     4  10  20  34  54  80 106 132 165 205 250 298
#     4   8  14  26  45  68  92 119 152 191 238 289
#     4  10  20  32  48  72 100 132 171 211 251 299
#     4   9  17  31  52  76 102 131 163 202 245 289
#     4   8  14  26  45  67  90 117 151 193 239 288
#     4  10  20  34  53  76 103 136 172 208 248 298
#     4  10  20  32  47  68  95 128 166 209 256 304
#
# _framework density 18.149393
#
# number of rings (size 3 to 8) (size 9 to 14) (size 15 to 20)
#    0.000    2.714    0.000    3.000    0.000    5.714 
#    0.000    3.571    0.000    2.571    0.000    4.000 
#    0.000    0.000    0.000    0.000    0.000    0.000 
#
# Total GULP energy -694190.334349 kJ/mol
# GULP energy per Si atom -12396.255971 kJ/mol
# Density = 1.810808 g / cm^3
# Si number density = 18.149393 Si / 1000 Ang^3
#
#
#
# Elastic Constant Matrix: (Units=GPa)
#
#
# Indices 1 2 3 4 5 6 
#
# 1 119.4266 55.3160 38.5500 0.0000 0.0000 0.0000
# 2 55.3160 104.1066 20.6165 0.0000 0.0000 0.0000
# 3 38.5500 20.6165 50.1277 0.0000 0.0000 0.0000
# 4 0.0000 0.0000 0.0000 13.8184 0.0000 0.0000
# 5 0.0000 0.0000 0.0000 0.0000 27.6864 0.0000
# 6 0.0000 0.0000 0.0000 0.0000 0.0000 32.8931
#
#
#
# Elastic Compliance Matrix: (Units=1/GPa)
#
#
# Indices 1 2 3 4 5 6 
#
# 1 0.013606 -0.005615 -0.008154 0.000000 0.000000 0.000000
# 2 -0.005615 0.012774 -0.000936 0.000000 0.000000 0.000000
# 3 -0.008154 -0.000936 0.026605 0.000000 0.000000 0.000000
# 4 0.000000 0.000000 0.000000 0.072367 0.000000 0.000000
# 5 0.000000 0.000000 0.000000 0.000000 0.036119 0.000000
# 6 0.000000 0.000000 0.000000 0.000000 0.000000 0.030402
#
#
# Mechanical properties :
#
#
# Convention : Reuss Voigt Hill
#
# Bulk Modulus (GPa) = 42.41711 55.84731 49.13221
# Shear Modulus (GPa) = 21.82060 25.49147 23.65604
#
# Velocity S-wave (km/s) = 3.47115 3.75178 3.61419
# Velocity P-wave (km/s) = 6.28387 7.04312 6.67430
#
# Compressibility (1/GPa) = 0.02357539
#
# Stress axis : x y z
#
# Youngs Moduli (GPa) = 73.49651 78.28311 37.58695
#
# Poissons Ratio (x) = 0.43953 0.30650
# Poissons Ratio (y) = 0.41265 0.03518
# Poissons Ratio (z) = 0.59932 0.07327
#
# Static dielectric constant tensor:
#      x y z
#    x 3.471850 0.000000 0.000000 
#    y 0.000000 3.394880 0.000000 
#    z 0.000000 0.000000 3.213260 
# 
# 
# High freq. dielectric constant tensor:
#      x y z
#    x 1.713540 0.000000 0.000000 
#    y 0.000000 1.691960 0.000000 
#    z 0.000000 0.000000 1.672300 
# 
# From -- ./inp_files/26698.got.cif
#   From: 2010.03.12/outbox.cif.g09.slc.cpg/sg53_14_cif.got.tgz:26698.got - 2010.04.16 14:36:59.
