data_PCOD8219628
_publ_section_title
;
Structure prediction by ZEFSAII (Michael W. Deem and Ramdas Pophale) SiO2 
 PCOD8219628
Probable space group: P M N A
;
_chemical_formula_sum "Si O2"
_cell_formula_units_Z 64
_cell_length_a 15.607159
_cell_length_b 11.355227
_cell_length_c 18.399149
_cell_angle_alpha 90.000000
_cell_angle_beta 90.000000
_cell_angle_gamma 90.000000
_cell_volume 3260.749316
_symmetry_space_group_name_H-M "P M N A"
_symmetry_group_IT_number 53
_symmetry_cell_setting 'orthorhombic'
loop_
_space_group_symop_operation_xyz
x,y,z
1/2-x,-y,1/2+z
x,-y,-z
1/2-x,y,1/2-z
-x,-y,-z
1/2+x,y,1/2-z
-x,y,z
1/2+x,-y,1/2+z
loop_
_atom_site_type_symbol
_atom_site_label
_atom_site_fract_x
_atom_site_fract_y
_atom_site_fract_z
Si Si1 0.096912 0.548269 0.923486
Si Si2 0.898052 0.985911 0.148967
Si Si3 0.759312 0.441662 0.834050
Si Si4 0.405458 0.884567 0.789126
Si Si5 0.668920 0.204823 0.429720
Si Si6 0.796647 0.321452 0.323351
Si Si7 0.763395 0.804666 0.090884
Si Si8 0.403590 0.050958 0.921488
O O1 0.148144 0.497468 0.854398
O O2 0.100617 0.689848 0.926481
O O3 0.000000 0.505881 0.913296
O O4 0.134450 0.500000 0.000000
O O5 0.839868 0.870311 0.134551
O O6 0.000000 0.951702 0.149540
O O7 0.860662 0.039692 0.225017
O O8 0.879830 0.083006 0.086978
O O9 0.750000 0.404046 0.750000
O O10 0.691036 0.546842 0.857970
O O11 0.748275 0.327096 0.882369
O O12 0.500000 0.877961 0.758395
O O13 0.380108 0.748305 0.798229
O O14 0.397628 0.942696 0.867043
O O15 0.743995 0.229972 0.372260
O O16 0.712902 0.193640 0.507133
O O17 0.750000 0.358421 0.250000
O O18 0.669365 0.858988 0.102212
O O19 0.500000 0.107299 0.918699
O O20 0.382802 0.000000 0.000000
#
# Coordination Sequence:
#
# PCOD8219628 Si02
#       8
#     8   8   8   8   8   8   8   8
#     4  10  20  39  65  91 123 166 211 263 320 376
#     4  11  24  37  57  92 129 163 202 249 308 386
#     4  10  24  41  57  89 121 162 209 248 304 385
#     4  10  21  38  60  89 116 151 202 258 313 364
#     4  11  21  37  60  91 120 161 208 255 311 372
#     4  10  19  37  62  82 111 152 198 252 305 358
#     4  12  24  38  60  87 126 169 202 250 316 372
#     4  10  22  40  61  86 115 155 209 256 301 364
#
# _framework density 19.627389999999998
#
# number of rings (size 3 to 8) (size 9 to 14) (size 15 to 20)
#    0.000    1.500    2.500    3.000    1.750    2.000 
#    0.000    1.250    0.000    0.000    0.000    5.250 
#    0.000    0.000    0.000    0.000    0.000    0.000 
#
# Total GULP energy -793026.376191 kJ/mol
# GULP energy per Si atom -12391.037128 kJ/mol
# Density = 1.958272 g / cm^3
# Si number density = 19.627390 Si / 1000 Ang^3
#
#
#
# Elastic Constant Matrix: (Units=GPa)
#
#
# Indices 1 2 3 4 5 6 
#
# 1 83.4402 51.6157 27.6905 0.0000 0.0000 0.0000
# 2 51.6157 119.0093 21.9159 0.0000 0.0000 0.0000
# 3 27.6905 21.9159 92.5430 0.0000 0.0000 0.0000
# 4 0.0000 0.0000 0.0000 37.6730 0.0000 0.0000
# 5 0.0000 0.0000 0.0000 0.0000 27.8547 0.0000
# 6 0.0000 0.0000 0.0000 0.0000 0.0000 20.7882
#
#
#
# Elastic Compliance Matrix: (Units=1/GPa)
#
#
# Indices 1 2 3 4 5 6 
#
# 1 0.017447 -0.006907 -0.003585 0.000000 0.000000 0.000000
# 2 -0.006907 0.011520 -0.000662 0.000000 0.000000 0.000000
# 3 -0.003585 -0.000662 0.012035 0.000000 0.000000 0.000000
# 4 0.000000 0.000000 0.000000 0.026544 0.000000 0.000000
# 5 0.000000 0.000000 0.000000 0.000000 0.035901 0.000000
# 6 0.000000 0.000000 0.000000 0.000000 0.000000 0.048104
#
#
# Mechanical properties :
#
#
# Convention : Reuss Voigt Hill
#
# Bulk Modulus (GPa) = 53.48779 55.27076 54.37928
# Shear Modulus (GPa) = 27.76409 30.18122 28.97265
#
# Velocity S-wave (km/s) = 3.76514 3.92562 3.84622
# Velocity P-wave (km/s) = 6.79798 6.98344 6.89133
#
# Compressibility (1/GPa) = 0.01869585
#
# Stress axis : x y z
#
# Youngs Moduli (GPa) = 57.31734 86.80519 83.09053
#
# Poissons Ratio (x) = 0.59954 0.29786
# Poissons Ratio (y) = 0.39587 0.05497
# Poissons Ratio (z) = 0.20547 0.05743
#
# Static dielectric constant tensor:
#      x y z
#    x 3.584790 0.000000 0.000000 
#    y 0.000000 3.698580 0.000000 
#    z 0.000000 0.000000 5.228980 
# 
# 
# High freq. dielectric constant tensor:
#      x y z
#    x 1.749060 0.000000 0.000000 
#    y 0.000000 1.766870 0.000000 
#    z 0.000000 0.000000 1.777610 
# 
# From -- ./inp_files/28581.got.cif
#   From: 2010.03.12/outbox.cif.g09.slc.cpg/sg53_15_cif.got.tgz:28581.got - 2010.04.16 14:36:59.
