data_PCOD8219911
_publ_section_title
;
Structure prediction by ZEFSAII (Michael W. Deem and Ramdas Pophale) SiO2 
 PCOD8219911
Probable space group: P M N A
;
_chemical_formula_sum "Si O2"
_cell_formula_units_Z 64
_cell_length_a 26.205920
_cell_length_b 11.224785
_cell_length_c 11.724838
_cell_angle_alpha 90.000000
_cell_angle_beta 90.000000
_cell_angle_gamma 90.000000
_cell_volume 3448.929310
_symmetry_space_group_name_H-M "P M N A"
_symmetry_group_IT_number 53
_symmetry_cell_setting 'orthorhombic'
loop_
_space_group_symop_operation_xyz
x,y,z
1/2-x,-y,1/2+z
x,-y,-z
1/2-x,y,1/2-z
-x,-y,-z
1/2+x,y,1/2-z
-x,y,z
1/2+x,-y,1/2+z
loop_
_atom_site_type_symbol
_atom_site_label
_atom_site_fract_x
_atom_site_fract_y
_atom_site_fract_z
Si Si1 0.557802 0.861836 0.977800
Si Si2 0.559077 0.751423 0.207677
Si Si3 0.366917 0.878834 0.353222
Si Si4 0.837582 0.850678 0.900302
Si Si5 0.627207 0.728273 0.811308
Si Si6 0.058208 0.489539 0.364654
Si Si7 0.294993 0.908474 0.162997
Si Si8 0.218911 0.161724 0.417313
O O1 0.500000 0.817504 0.954689
O O2 0.591808 0.827906 0.869701
O O3 0.582338 0.800336 0.088990
O O4 0.559901 0.000000 0.000000
O O5 0.500000 0.782082 0.206071
O O6 0.578491 0.821068 0.321564
O O7 0.569268 0.610008 0.206071
O O8 0.346280 0.816070 0.467731
O O9 0.338010 0.842486 0.236636
O O10 0.362032 0.020405 0.372208
O O11 0.867308 0.756405 0.822724
O O12 0.777161 0.843547 0.871765
O O13 0.600620 0.601040 0.819507
O O14 0.684408 0.730463 0.867581
O O15 0.065598 0.500000 0.500000
O O16 0.000000 0.446927 0.340121
O O17 0.250000 0.924924 0.250000
O O18 0.310296 0.041090 0.121178
O O19 0.279642 0.828377 0.054656
#
# Coordination Sequence:
#
# PCOD8219911 Si02
#       8
#     8   8   8   8   8   8   8   8
#     4  10  20  33  52  87 123 144 177 241 311 362
#     4  10  21  39  61  84 114 151 195 251 300 351
#     4  11  20  37  58  86 122 161 195 230 302 364
#     4  11  22  36  55  86 126 162 189 239 291 355
#     4  12  21  33  58  86 112 155 205 241 293 357
#     4  10  21  41  63  85 113 149 200 258 308 348
#     4  11  17  31  53  81 119 155 198 227 280 360
#     4  11  21  32  53  87 120 157 196 242 286 340
#
# _framework density 18.556483
#
# number of rings (size 3 to 8) (size 9 to 14) (size 15 to 20)
#    0.000    1.250    5.000    3.000    1.750    0.000 
#    0.000    3.750    0.000    6.000    0.000    0.000 
#    0.000    0.000    0.000    0.000    0.000    0.000 
#
# Total GULP energy -793094.338550 kJ/mol
# GULP energy per Si atom -12392.099040 kJ/mol
# Density = 1.851425 g / cm^3
# Si number density = 18.556483 Si / 1000 Ang^3
#
#
#
# Elastic Constant Matrix: (Units=GPa)
#
#
# Indices 1 2 3 4 5 6 
#
# 1 84.5342 48.4565 53.4723 0.0000 0.0000 0.0000
# 2 48.4565 78.7630 38.6169 0.0000 0.0000 0.0000
# 3 53.4723 38.6169 118.7821 0.0000 0.0000 0.0000
# 4 0.0000 0.0000 0.0000 22.0971 0.0000 0.0000
# 5 0.0000 0.0000 0.0000 0.0000 34.4003 0.0000
# 6 0.0000 0.0000 0.0000 0.0000 0.0000 25.5467
#
#
#
# Elastic Compliance Matrix: (Units=1/GPa)
#
#
# Indices 1 2 3 4 5 6 
#
# 1 0.021796 -0.010229 -0.006486 0.000000 0.000000 0.000000
# 2 -0.010229 0.019904 -0.001866 0.000000 0.000000 0.000000
# 3 -0.006486 -0.001866 0.011945 0.000000 0.000000 0.000000
# 4 0.000000 0.000000 0.000000 0.045255 0.000000 0.000000
# 5 0.000000 0.000000 0.000000 0.000000 0.029069 0.000000
# 6 0.000000 0.000000 0.000000 0.000000 0.000000 0.039144
#
#
# Mechanical properties :
#
#
# Convention : Reuss Voigt Hill
#
# Bulk Modulus (GPa) = 60.67036 62.57455 61.62246
# Shear Modulus (GPa) = 23.83542 25.84440 24.83991
#
# Velocity S-wave (km/s) = 3.58785 3.73599 3.66267
# Velocity P-wave (km/s) = 7.06608 7.23910 7.15311
#
# Compressibility (1/GPa) = 0.01648251
#
# Stress axis : x y z
#
# Youngs Moduli (GPa) = 45.87992 50.24002 83.71355
#
# Poissons Ratio (x) = 0.51391 0.54300
# Poissons Ratio (y) = 0.46931 0.15623
# Poissons Ratio (z) = 0.29760 0.09376
#
# Static dielectric constant tensor:
#      x y z
#    x 4.911000 0.000000 0.000000 
#    y 0.000000 3.113030 0.000000 
#    z 0.000000 0.000000 3.809900 
# 
# 
# High freq. dielectric constant tensor:
#      x y z
#    x 1.723640 0.000000 0.000000 
#    y 0.000000 1.678070 0.000000 
#    z 0.000000 0.000000 1.726710 
# 
# From -- ./inp_files/18487.got.cif
#   From: 2010.03.12/outbox.cif.g09.slc.cpg/sg53_10_cif.got.tgz:18487.got - 2010.04.16 14:36:59.
