data_PCOD8219607
_publ_section_title
;
Structure prediction by ZEFSAII (Michael W. Deem and Ramdas Pophale) SiO2 
 PCOD8219607
Probable space group: P M N A
;
_chemical_formula_sum "Si O2"
_cell_formula_units_Z 44
_cell_length_a 19.723590
_cell_length_b 8.507494
_cell_length_c 14.160961
_cell_angle_alpha 90.000000
_cell_angle_beta 90.000000
_cell_angle_gamma 90.000000
_cell_volume 2376.185516
_symmetry_space_group_name_H-M "P M N A"
_symmetry_group_IT_number 53
_symmetry_cell_setting 'orthorhombic'
loop_
_space_group_symop_operation_xyz
x,y,z
1/2-x,-y,1/2+z
x,-y,-z
1/2-x,y,1/2-z
-x,-y,-z
1/2+x,y,1/2-z
-x,y,z
1/2+x,-y,1/2+z
loop_
_atom_site_type_symbol
_atom_site_label
_atom_site_fract_x
_atom_site_fract_y
_atom_site_fract_z
Si Si1 0.075477 0.011427 0.827504
Si Si2 0.761731 0.000000 0.500000
Si Si3 0.076269 0.351272 0.124992
Si Si4 0.320432 0.432852 0.720348
Si Si5 0.155440 0.238797 0.959768
Si Si6 0.317566 0.882521 0.190749
O O1 0.073742 0.830280 0.852299
O O2 0.000000 0.074916 0.807975
O O3 0.105532 0.109989 0.914414
O O4 0.119123 0.025056 0.733248
O O5 0.713210 0.849546 0.521527
O O6 0.809582 0.952511 0.413491
O O7 0.117891 0.445910 0.205765
O O8 0.000000 0.421716 0.119309
O O9 0.113938 0.362400 0.023812
O O10 0.250000 0.520440 0.750000
O O11 0.308050 0.335219 0.623605
O O12 0.335619 0.304431 0.802901
O O13 0.250000 0.919590 0.250000
#
# Coordination Sequence:
#
# PCOD8219607 Si02
#       6
#     8   4   8   8   8   8
#     4  10  20  35  55  80 113 149 189 242 289 338
#     4  12  18  34  66  86 108 148 194 252 292 336
#     4  11  22  34  54  85 118 155 189 230 298 361
#     4  10  21  36  50  77 122 151 182 231 286 355
#     4  11  19  35  58  85 112 143 194 246 292 349
#     4  10  19  37  58  83 112 146 196 243 294 341
#
# _framework density 18.517071999999999
#
# number of rings (size 3 to 8) (size 9 to 14) (size 15 to 20)
#    0.000    1.455    7.273    1.091    0.000    8.000 
#    0.000    0.455    0.000    0.000    0.000    2.545 
#    0.000    0.000    0.000    0.000    0.000    0.000 
#
# Total GULP energy -545297.127990 kJ/mol
# GULP energy per Si atom -12393.116545 kJ/mol
# Density = 1.847493 g / cm^3
# Si number density = 18.517072 Si / 1000 Ang^3
#
#
#
# Elastic Constant Matrix: (Units=GPa)
#
#
# Indices 1 2 3 4 5 6 
#
# 1 125.1877 40.3707 63.3814 0.0000 0.0000 0.0000
# 2 40.3707 60.2796 30.7046 0.0000 0.0000 0.0000
# 3 63.3814 30.7046 98.8243 0.0000 0.0000 0.0000
# 4 0.0000 0.0000 0.0000 34.5758 0.0000 0.0000
# 5 0.0000 0.0000 0.0000 0.0000 29.3316 0.0000
# 6 0.0000 0.0000 0.0000 0.0000 0.0000 29.3017
#
#
#
# Elastic Compliance Matrix: (Units=1/GPa)
#
#
# Indices 1 2 3 4 5 6 
#
# 1 0.013139 -0.005355 -0.006763 0.000000 0.000000 0.000000
# 2 -0.005355 0.021891 -0.003367 0.000000 0.000000 0.000000
# 3 -0.006763 -0.003367 0.015503 0.000000 0.000000 0.000000
# 4 0.000000 0.000000 0.000000 0.028922 0.000000 0.000000
# 5 0.000000 0.000000 0.000000 0.000000 0.034093 0.000000
# 6 0.000000 0.000000 0.000000 0.000000 0.000000 0.034128
#
#
# Mechanical properties :
#
#
# Convention : Reuss Voigt Hill
#
# Bulk Modulus (GPa) = 51.11809 61.46722 56.29266
# Shear Modulus (GPa) = 27.00297 28.63081 27.81689
#
# Velocity S-wave (km/s) = 3.82288 3.93642 3.88007
# Velocity P-wave (km/s) = 6.86671 7.34353 7.10912
#
# Compressibility (1/GPa) = 0.01956255
#
# Stress axis : x y z
#
# Youngs Moduli (GPa) = 76.11064 45.68173 64.50521
#
# Poissons Ratio (x) = 0.24460 0.43625
# Poissons Ratio (y) = 0.40754 0.21720
# Poissons Ratio (z) = 0.51473 0.15382
#
# Static dielectric constant tensor:
#      x y z
#    x 3.694160 0.000000 0.000000 
#    y 0.000000 3.514350 0.000000 
#    z 0.000000 0.000000 3.361310 
# 
# 
# High freq. dielectric constant tensor:
#      x y z
#    x 1.716490 0.000000 0.000000 
#    y 0.000000 1.722290 0.000000 
#    z 0.000000 0.000000 1.689170 
# 
# From -- ./inp_files/23506.got.cif
#   From: 2010.03.12/outbox.cif.g09.slc.cpg/sg53_12_cif.got.tgz:23506.got - 2010.04.16 14:36:59.
