data_PCOD8219205
_publ_section_title
;
Structure prediction by ZEFSAII (Michael W. Deem and Ramdas Pophale) SiO2 
 PCOD8219205
Probable space group: P M N A
;
_chemical_formula_sum "Si O2"
_cell_formula_units_Z 48
_cell_length_a 16.270896
_cell_length_b 16.072157
_cell_length_c 8.759523
_cell_angle_alpha 90.000000
_cell_angle_beta 90.000000
_cell_angle_gamma 90.000000
_cell_volume 2290.688801
_symmetry_space_group_name_H-M "P M N A"
_symmetry_group_IT_number 53
_symmetry_cell_setting 'orthorhombic'
loop_
_space_group_symop_operation_xyz
x,y,z
1/2-x,-y,1/2+z
x,-y,-z
1/2-x,y,1/2-z
-x,-y,-z
1/2+x,y,1/2-z
-x,y,z
1/2+x,-y,1/2+z
loop_
_atom_site_type_symbol
_atom_site_label
_atom_site_fract_x
_atom_site_fract_y
_atom_site_fract_z
Si Si1 0.159003 0.912882 0.685469
Si Si2 0.339586 0.406076 0.319717
Si Si3 0.661122 0.588408 0.324431
Si Si4 0.405573 0.919010 0.148002
Si Si5 0.841831 0.749780 0.315505
Si Si6 0.593209 0.744143 0.856781
O O1 0.250000 0.910217 0.750000
O O2 0.153068 0.915981 0.500975
O O3 0.113616 0.828115 0.740307
O O4 0.116302 0.998426 0.746933
O O5 0.250000 0.397089 0.250000
O O6 0.330885 0.392391 0.498329
O O7 0.379540 0.498028 0.290119
O O8 0.398406 0.336490 0.249190
O O9 0.750000 0.584775 0.250000
O O10 0.612658 0.666804 0.250607
O O11 0.500000 0.922412 0.095701
O O12 0.387891 0.833931 0.241245
O O13 0.750000 0.753413 0.250000
O O14 0.844983 0.740853 0.499192
O O15 0.500000 0.749072 0.917268
#
# Coordination Sequence:
#
# PCOD8219205 Si02
#       6
#     8   8   8   8   8   8
#     4  10  19  33  57  84 108 145 194 235 273 335
#     4  10  19  36  60  84 112 152 196 239 287 346
#     4   9  19  34  57  86 114 146 193 245 288 333
#     4  10  20  37  57  83 117 151 183 232 293 344
#     4  10  19  34  58  86 113 149 197 240 281 341
#     4  11  23  39  57  85 119 154 191 239 296 347
#
# _framework density 20.954397
#
# number of rings (size 3 to 8) (size 9 to 14) (size 15 to 20)
#    0.000    2.000    0.000    6.500    0.000    4.667 
#    0.000    5.833    0.000    0.000    0.000   23.333 
#    0.000    0.000    0.000    0.000    0.000    0.000 
#
# Total GULP energy -594635.102691 kJ/mol
# GULP energy per Si atom -12388.231306 kJ/mol
# Density = 2.090670 g / cm^3
# Si number density = 20.954397 Si / 1000 Ang^3
#
#
#
# Elastic Constant Matrix: (Units=GPa)
#
#
# Indices 1 2 3 4 5 6 
#
# 1 103.5153 45.5466 39.5300 0.0000 0.0000 0.0000
# 2 45.5466 250.9027 61.2103 0.0000 0.0000 0.0000
# 3 39.5300 61.2103 72.8103 0.0000 0.0000 0.0000
# 4 0.0000 0.0000 0.0000 26.2798 0.0000 0.0000
# 5 0.0000 0.0000 0.0000 0.0000 18.7226 0.0000
# 6 0.0000 0.0000 0.0000 0.0000 0.0000 45.2324
#
#
#
# Elastic Compliance Matrix: (Units=1/GPa)
#
#
# Indices 1 2 3 4 5 6 
#
# 1 0.012301 -0.000760 -0.006040 0.000000 0.000000 0.000000
# 2 -0.000760 0.005061 -0.003842 0.000000 0.000000 0.000000
# 3 -0.006040 -0.003842 0.020244 0.000000 0.000000 0.000000
# 4 0.000000 0.000000 0.000000 0.038052 0.000000 0.000000
# 5 0.000000 0.000000 0.000000 0.000000 0.053411 0.000000
# 6 0.000000 0.000000 0.000000 0.000000 0.000000 0.022108
#
#
# Mechanical properties :
#
#
# Convention : Reuss Voigt Hill
#
# Bulk Modulus (GPa) = 61.26642 79.97802 70.62222
# Shear Modulus (GPa) = 28.10549 36.77638 32.44093
#
# Velocity S-wave (km/s) = 3.66631 4.19390 3.93895
# Velocity P-wave (km/s) = 6.87196 7.85508 7.37991
#
# Compressibility (1/GPa) = 0.01632216
#
# Stress axis : x y z
#
# Youngs Moduli (GPa) = 81.29339 197.59616 49.39830
#
# Poissons Ratio (x) = 0.15008 0.29837
# Poissons Ratio (y) = 0.06174 0.18980
# Poissons Ratio (z) = 0.49101 0.75920
#
# Static dielectric constant tensor:
#      x y z
#    x 3.042280 0.000000 0.000000 
#    y 0.000000 5.330300 0.000000 
#    z 0.000000 0.000000 3.450090 
# 
# 
# High freq. dielectric constant tensor:
#      x y z
#    x 1.785470 0.000000 0.000000 
#    y 0.000000 1.871080 0.000000 
#    z 0.000000 0.000000 1.783100 
# 
# From -- ./inp_files/8643.got.cif
#   From: 2010.03.12/outbox.cif.g09.slc.cpg/sg53_5_cif.got.tgz:8643.got - 2010.04.16 14:36:59.
