data_PCOD8219766
_publ_section_title
;
Structure prediction by ZEFSAII (Michael W. Deem and Ramdas Pophale) SiO2 
 PCOD8219766
Probable space group: P M N A
;
_chemical_formula_sum "Si O2"
_cell_formula_units_Z 48
_cell_length_a 18.212361
_cell_length_b 17.171931
_cell_length_c 7.299612
_cell_angle_alpha 90.000000
_cell_angle_beta 90.000000
_cell_angle_gamma 90.000000
_cell_volume 2282.890923
_symmetry_space_group_name_H-M "P M N A"
_symmetry_group_IT_number 53
_symmetry_cell_setting 'orthorhombic'
loop_
_space_group_symop_operation_xyz
x,y,z
1/2-x,-y,1/2+z
x,-y,-z
1/2-x,y,1/2-z
-x,-y,-z
1/2+x,y,1/2-z
-x,y,z
1/2+x,-y,1/2+z
loop_
_atom_site_type_symbol
_atom_site_label
_atom_site_fract_x
_atom_site_fract_y
_atom_site_fract_z
Si Si1 0.585246 0.811842 0.377617
Si Si2 0.334464 0.337238 0.694861
Si Si3 0.084219 0.913249 0.459668
Si Si4 0.331935 0.367435 0.271756
Si Si5 0.916773 0.487139 0.783345
Si Si6 0.164679 0.804842 0.737899
O O1 0.500000 0.792562 0.416407
O O2 0.621126 0.741451 0.259106
O O3 0.593321 0.889982 0.254447
O O4 0.626437 0.824642 0.569126
O O5 0.250000 0.328146 0.750000
O O6 0.346266 0.348978 0.481403
O O7 0.370015 0.413327 0.790392
O O8 0.131199 0.855792 0.580230
O O9 0.000000 0.905676 0.521382
O O10 0.113127 0.000000 0.500000
O O11 0.250000 0.399951 0.250000
O O12 0.385799 0.433693 0.191093
O O13 0.344626 0.285143 0.169645
O O14 0.000000 0.474708 0.720446
O O15 0.909699 0.500000 0.000000
O O16 0.250000 0.825079 0.750000
#
# Coordination Sequence:
#
# PCOD8219766 Si02
#       6
#     8   8   8   8   8   8
#     4  10  22  39  64  91 122 164 206 252 307 369
#     4  10  20  32  56  82 114 156 194 248 297 355
#     4  10  23  43  65  91 125 162 201 250 311 375
#     4   9  19  33  53  79 109 152 195 238 301 352
#     4   9  17  31  51  78 111 148 198 245 289 350
#     4  10  22  39  62  93 124 161 207 255 309 366
#
# _framework density 21.025971999999999
#
# number of rings (size 3 to 8) (size 9 to 14) (size 15 to 20)
#    0.000    2.333    0.000    1.500    7.000    5.333 
#    3.000    2.500    0.000    1.000    0.000    0.000 
#    0.000    0.000    0.000    0.000    0.000    0.000 
#
# Total GULP energy -595084.831848 kJ/mol
# GULP energy per Si atom -12397.600664 kJ/mol
# Density = 2.097812 g / cm^3
# Si number density = 21.025972 Si / 1000 Ang^3
#
#
#
# Elastic Constant Matrix: (Units=GPa)
#
#
# Indices 1 2 3 4 5 6 
#
# 1 151.2698 64.7925 28.5253 0.0000 0.0000 0.0000
# 2 64.7925 103.2736 14.3979 0.0000 0.0000 0.0000
# 3 28.5253 14.3979 38.7758 0.0000 0.0000 0.0000
# 4 0.0000 0.0000 0.0000 15.8718 0.0000 0.0000
# 5 0.0000 0.0000 0.0000 0.0000 33.7464 0.0000
# 6 0.0000 0.0000 0.0000 0.0000 0.0000 23.5019
#
#
#
# Elastic Compliance Matrix: (Units=1/GPa)
#
#
# Indices 1 2 3 4 5 6 
#
# 1 0.009971 -0.005519 -0.005286 0.000000 0.000000 0.000000
# 2 -0.005519 0.013266 -0.000866 0.000000 0.000000 0.000000
# 3 -0.005286 -0.000866 0.030000 0.000000 0.000000 0.000000
# 4 0.000000 0.000000 0.000000 0.063005 0.000000 0.000000
# 5 0.000000 0.000000 0.000000 0.000000 0.029633 0.000000
# 6 0.000000 0.000000 0.000000 0.000000 0.000000 0.042550
#
#
# Mechanical properties :
#
#
# Convention : Reuss Voigt Hill
#
# Bulk Modulus (GPa) = 33.45025 56.52785 44.98905
# Shear Modulus (GPa) = 22.54976 26.99759 24.77367
#
# Velocity S-wave (km/s) = 3.27841 3.58720 3.43628
# Velocity P-wave (km/s) = 5.50220 6.64082 6.09814
#
# Compressibility (1/GPa) = 0.02989515
#
# Stress axis : x y z
#
# Youngs Moduli (GPa) = 100.28629 75.37914 33.33380
#
# Poissons Ratio (x) = 0.41602 0.17621
# Poissons Ratio (y) = 0.55348 0.02886
# Poissons Ratio (z) = 0.53013 0.06527
#
# Static dielectric constant tensor:
#      x y z
#    x 3.798250 0.000000 0.000000 
#    y 0.000000 4.197610 0.000000 
#    z 0.000000 0.000000 3.596330 
# 
# 
# High freq. dielectric constant tensor:
#      x y z
#    x 1.828660 0.000000 0.000000 
#    y 0.000000 1.825480 0.000000 
#    z 0.000000 0.000000 1.813360 
# 
# From -- ./inp_files/8620.got.cif
#   From: 2010.03.12/outbox.cif.g09.slc.cpg/sg53_5_cif.got.tgz:8620.got - 2010.04.16 14:36:59.
