data_PCOD8219277
_publ_section_title
;
Structure prediction by ZEFSAII (Michael W. Deem and Ramdas Pophale) SiO2 
 PCOD8219277
Probable space group: P M N A
;
_chemical_formula_sum "Si O2"
_cell_formula_units_Z 56
_cell_length_a 8.876157
_cell_length_b 21.624215
_cell_length_c 14.382535
_cell_angle_alpha 90.000000
_cell_angle_beta 90.000000
_cell_angle_gamma 90.000000
_cell_volume 2760.582723
_symmetry_space_group_name_H-M "P M N A"
_symmetry_group_IT_number 53
_symmetry_cell_setting 'orthorhombic'
loop_
_space_group_symop_operation_xyz
x,y,z
1/2-x,-y,1/2+z
x,-y,-z
1/2-x,y,1/2-z
-x,-y,-z
1/2+x,y,1/2-z
-x,y,z
1/2+x,-y,1/2+z
loop_
_atom_site_type_symbol
_atom_site_label
_atom_site_fract_x
_atom_site_fract_y
_atom_site_fract_z
Si Si1 0.668854 0.226727 0.660094
Si Si2 0.322185 0.218064 0.033700
Si Si3 0.164183 0.371603 0.835740
Si Si4 0.177552 0.906896 0.962208
Si Si5 0.823694 0.972675 0.149810
Si Si6 0.179099 0.431704 0.016387
Si Si7 0.820880 0.672046 0.850016
O O1 0.750000 0.196357 0.750000
O O2 0.500000 0.198274 0.646226
O O3 0.775493 0.215202 0.573424
O O4 0.652283 0.299069 0.676858
O O5 0.500000 0.226921 0.044918
O O6 0.269098 0.152402 0.075320
O O7 0.237075 0.273667 0.083892
O O8 0.250000 0.402589 0.750000
O O9 0.000000 0.402420 0.834863
O O10 0.242913 0.389620 0.932373
O O11 0.228565 0.961999 0.893818
O O12 0.000000 0.894858 0.953199
O O13 0.217371 0.921225 0.071185
O O14 0.750000 0.958818 0.250000
O O15 0.000000 0.973541 0.167114
O O16 0.229877 0.395392 0.109702
O O17 0.000000 0.435160 0.016928
O O18 0.248797 0.500000 0.000000
O O19 0.750000 0.680485 0.750000
O O20 0.000000 0.677590 0.844460
#
# Coordination Sequence:
#
# PCOD8219277 Si02
#       7
#     8   8   8   8   8   8   8
#     4  10  19  34  55  82 113 149 188 235 292 352
#     4  12  24  38  59  88 120 159 203 248 298 354
#     4   9  17  31  52  79 106 140 178 221 279 338
#     4   9  20  39  59  84 119 159 197 239 294 354
#     4   9  19  37  62  87 116 155 196 240 294 348
#     4   9  18  35  59  84 113 151 192 236 294 357
#     4  11  23  42  63  86 118 157 200 248 301 357
#
# _framework density 20.285572999999999
#
# number of rings (size 3 to 8) (size 9 to 14) (size 15 to 20)
#    0.000    2.143    1.429    3.000    0.000    3.429 
#    0.000    4.286    0.000    3.000    0.000    0.000 
#    0.000    0.000    0.000    0.000    0.000    0.000 
#
# Total GULP energy -694006.812390 kJ/mol
# GULP energy per Si atom -12392.978793 kJ/mol
# Density = 2.023940 g / cm^3
# Si number density = 20.285573 Si / 1000 Ang^3
#
#
#
# Elastic Constant Matrix: (Units=GPa)
#
#
# Indices 1 2 3 4 5 6 
#
# 1 78.1089 30.0835 23.2360 0.0000 0.0000 0.0000
# 2 30.0835 95.4193 24.3831 0.0000 0.0000 0.0000
# 3 23.2360 24.3831 89.7760 0.0000 0.0000 0.0000
# 4 0.0000 0.0000 0.0000 13.9287 0.0000 0.0000
# 5 0.0000 0.0000 0.0000 0.0000 35.8169 0.0000
# 6 0.0000 0.0000 0.0000 0.0000 0.0000 12.0706
#
#
#
# Elastic Compliance Matrix: (Units=1/GPa)
#
#
# Indices 1 2 3 4 5 6 
#
# 1 0.015214 -0.004073 -0.002831 0.000000 0.000000 0.000000
# 2 -0.004073 0.012352 -0.002301 0.000000 0.000000 0.000000
# 3 -0.002831 -0.002301 0.012497 0.000000 0.000000 0.000000
# 4 0.000000 0.000000 0.000000 0.071794 0.000000 0.000000
# 5 0.000000 0.000000 0.000000 0.000000 0.027920 0.000000
# 6 0.000000 0.000000 0.000000 0.000000 0.000000 0.082846
#
#
# Mechanical properties :
#
#
# Convention : Reuss Voigt Hill
#
# Bulk Modulus (GPa) = 46.18474 46.52327 46.35401
# Shear Modulus (GPa) = 20.14105 24.73669 22.43887
#
# Velocity S-wave (km/s) = 3.15441 3.49581 3.32949
# Velocity P-wave (km/s) = 6.00698 6.26723 6.13849
#
# Compressibility (1/GPa) = 0.02165217
#
# Stress axis : x y z
#
# Youngs Moduli (GPa) = 65.73057 80.95804 80.02234
#
# Poissons Ratio (x) = 0.32974 0.22658
# Poissons Ratio (y) = 0.26772 0.18410
# Poissons Ratio (z) = 0.18611 0.18626
#
# Static dielectric constant tensor:
#      x y z
#    x 3.620970 0.000000 0.000000 
#    y 0.000000 3.826890 0.000000 
#    z 0.000000 0.000000 3.807780 
# 
# 
# High freq. dielectric constant tensor:
#      x y z
#    x 1.771910 0.000000 0.000000 
#    y 0.000000 1.792700 0.000000 
#    z 0.000000 0.000000 1.796220 
# 
# From -- ./inp_files/20604.got.cif
#   From: 2010.03.12/outbox.cif.g09.slc.cpg/sg53_11_cif.got.tgz:20604.got - 2010.04.16 14:36:59.
