data_PCOD8219196
_publ_section_title
;
Structure prediction by ZEFSAII (Michael W. Deem and Ramdas Pophale) SiO2 
 PCOD8219196
Probable space group: P M N A
;
_chemical_formula_sum "Si O2"
_cell_formula_units_Z 32
_cell_length_a 16.411400
_cell_length_b 17.409059
_cell_length_c 4.951471
_cell_angle_alpha 90.000000
_cell_angle_beta 90.000000
_cell_angle_gamma 90.000000
_cell_volume 1414.670078
_symmetry_space_group_name_H-M "P M N A"
_symmetry_group_IT_number 53
_symmetry_cell_setting 'orthorhombic'
loop_
_space_group_symop_operation_xyz
x,y,z
1/2-x,-y,1/2+z
x,-y,-z
1/2-x,y,1/2-z
-x,-y,-z
1/2+x,y,1/2-z
-x,y,z
1/2+x,-y,1/2+z
loop_
_atom_site_type_symbol
_atom_site_label
_atom_site_fract_x
_atom_site_fract_y
_atom_site_fract_z
Si Si1 0.406683 0.920089 0.875873
Si Si2 0.839612 0.841235 0.137513
Si Si3 0.094004 0.415773 0.522903
Si Si4 0.405652 0.682243 0.538069
O O1 0.500000 0.926879 0.781831
O O2 0.354446 0.899077 0.611803
O O3 0.400360 0.856273 0.111784
O O4 0.373964 0.000000 0.000000
O O5 0.750000 0.854837 0.250000
O O6 0.851161 0.754986 0.034502
O O7 0.135810 0.500000 0.500000
O O8 0.130535 0.353347 0.314366
O O9 0.000000 0.424476 0.438025
O O10 0.105682 0.385244 0.822551
O O11 0.500000 0.708828 0.561494
#
# Coordination Sequence:
#
# PCOD8219196 Si02
#       4
#     8   8   8   8
#     4  11  24  44  69  94 124 165 214 264 314 376
#     4  12  25  41  63  95 132 168 208 260 320 381
#     4   9  17  30  52  84 117 152 203 262 308 351
#     4  10  19  33  56  84 119 162 205 251 304 367
#
# _framework density 22.620117
#
# number of rings (size 3 to 8) (size 9 to 14) (size 15 to 20)
#    0.000    1.500    0.000    6.000    0.000    9.000 
#    0.000    0.000    0.000    3.000    0.000    0.000 
#    0.000    0.000    0.000    0.000    0.000    0.250 
#
# Total GULP energy -396904.540475 kJ/mol
# GULP energy per Si atom -12403.266890 kJ/mol
# Density = 2.256863 g / cm^3
# Si number density = 22.620117 Si / 1000 Ang^3
#
#
#
# Elastic Constant Matrix: (Units=GPa)
#
#
# Indices 1 2 3 4 5 6 
#
# 1 63.5486 46.3867 36.2463 0.0000 0.0000 0.0000
# 2 46.3867 112.6039 28.8665 0.0000 0.0000 0.0000
# 3 36.2463 28.8665 124.9002 0.0000 0.0000 0.0000
# 4 0.0000 0.0000 0.0000 48.9131 0.0000 0.0000
# 5 0.0000 0.0000 0.0000 0.0000 27.3494 0.0000
# 6 0.0000 0.0000 0.0000 0.0000 0.0000 10.4770
#
#
#
# Elastic Compliance Matrix: (Units=1/GPa)
#
#
# Indices 1 2 3 4 5 6 
#
# 1 0.025386 -0.009109 -0.005262 0.000000 0.000000 0.000000
# 2 -0.009109 0.012708 -0.000294 0.000000 0.000000 0.000000
# 3 -0.005262 -0.000294 0.009601 0.000000 0.000000 0.000000
# 4 0.000000 0.000000 0.000000 0.020444 0.000000 0.000000
# 5 0.000000 0.000000 0.000000 0.000000 0.036564 0.000000
# 6 0.000000 0.000000 0.000000 0.000000 0.000000 0.095447
#
#
# Mechanical properties :
#
#
# Convention : Reuss Voigt Hill
#
# Bulk Modulus (GPa) = 54.44581 58.22797 56.33689
# Shear Modulus (GPa) = 21.22222 29.98480 25.60351
#
# Velocity S-wave (km/s) = 3.06633 3.64480 3.36801
# Velocity P-wave (km/s) = 6.05462 6.59624 6.33122
#
# Compressibility (1/GPa) = 0.01836689
#
# Stress axis : x y z
#
# Youngs Moduli (GPa) = 39.39167 78.68870 104.15269
#
# Poissons Ratio (x) = 0.71676 0.54804
# Poissons Ratio (y) = 0.35881 0.03059
# Poissons Ratio (z) = 0.20727 0.02311
#
# Static dielectric constant tensor:
#      x y z
#    x 3.572350 0.000000 0.000000 
#    y 0.000000 4.123680 0.000000 
#    z 0.000000 0.000000 4.260540 
# 
# 
# High freq. dielectric constant tensor:
#      x y z
#    x 1.845650 0.000000 0.000000 
#    y 0.000000 1.904430 0.000000 
#    z 0.000000 0.000000 1.913030 
# 
# From -- ./inp_files/1191.got.cif
#   From: 2010.03.12/outbox.cif.g09.slc.cpg/sg53_1_cif.got.tgz:1191.got - 2010.04.16 14:36:59.
