data_PCOD8219175
_publ_section_title
;
Structure prediction by ZEFSAII (Michael W. Deem and Ramdas Pophale) SiO2 
 PCOD8219175
Probable space group: P M N A
;
_chemical_formula_sum "Si O2"
_cell_formula_units_Z 64
_cell_length_a 17.449869
_cell_length_b 20.672262
_cell_length_c 9.104676
_cell_angle_alpha 90.000000
_cell_angle_beta 90.000000
_cell_angle_gamma 90.000000
_cell_volume 3284.313966
_symmetry_space_group_name_H-M "P M N A"
_symmetry_group_IT_number 53
_symmetry_cell_setting 'orthorhombic'
loop_
_space_group_symop_operation_xyz
x,y,z
1/2-x,-y,1/2+z
x,-y,-z
1/2-x,y,1/2-z
-x,-y,-z
1/2+x,y,1/2-z
-x,y,z
1/2+x,-y,1/2+z
loop_
_atom_site_type_symbol
_atom_site_label
_atom_site_fract_x
_atom_site_fract_y
_atom_site_fract_z
Si Si1 0.910455 0.748649 0.820562
Si Si2 0.909426 0.635409 0.609148
Si Si3 0.910653 0.746249 0.145597
Si Si4 0.831552 0.862869 0.670710
Si Si5 0.824234 0.512375 0.666461
Si Si6 0.163428 0.631276 0.297064
Si Si7 0.331880 0.857484 0.174323
Si Si8 0.328252 0.003160 0.832303
O O1 0.880303 0.687247 0.728513
O O2 0.892742 0.813926 0.735019
O O3 0.000000 0.740468 0.837391
O O4 0.873217 0.752316 0.983192
O O5 0.893215 0.564029 0.675302
O O6 0.856000 0.646490 0.466892
O O7 0.000000 0.641664 0.571232
O O8 0.893224 0.674264 0.200669
O O9 0.881571 0.800509 0.257815
O O10 0.000000 0.756690 0.136330
O O11 0.750000 0.854699 0.750000
O O12 0.821714 0.847153 0.499117
O O13 0.868930 0.934441 0.703780
O O14 0.798304 0.500000 0.500000
O O15 0.750000 0.539915 0.750000
O O16 0.852174 0.444442 0.737501
O O17 0.250000 0.650114 0.250000
O O18 0.250000 0.855448 0.250000
O O19 0.372354 0.928817 0.202040
O O20 0.250000 0.006139 0.750000
O O21 0.304192 0.000000 0.000000
#
# Coordination Sequence:
#
# PCOD8219175 Si02
#       8
#     8   8   8   8   8   8   8   8
#     4  10  23  39  52  74 108 144 182 224 269 319
#     4  10  21  38  60  84 112 149 190 230 278 337
#     4  11  23  38  55  77 109 146 186 229 272 323
#     4  10  19  33  56  82 106 139 178 218 269 324
#     4   9  20  36  57  84 113 143 179 227 278 331
#     4  10  21  37  57  84 112 141 180 225 277 332
#     4  10  19  34  56  81 109 138 175 223 272 325
#     4   8  16  30  50  78 107 134 170 217 267 321
#
# _framework density 19.486566
#
# number of rings (size 3 to 8) (size 9 to 14) (size 15 to 20)
#    0.000    2.250    0.000    2.250    0.000    9.750 
#    0.000    0.625    0.000    6.375    0.000    0.000 
#    0.000    0.000    0.000    0.000    0.000    0.000 
#
# Total GULP energy -793009.317622 kJ/mol
# GULP energy per Si atom -12390.770588 kJ/mol
# Density = 1.944221 g / cm^3
# Si number density = 19.486566 Si / 1000 Ang^3
#
#
#
# Elastic Constant Matrix: (Units=GPa)
#
#
# Indices 1 2 3 4 5 6 
#
# 1 46.7935 34.1420 33.0232 0.0000 0.0000 0.0000
# 2 34.1420 143.5170 69.2665 0.0000 0.0000 0.0000
# 3 33.0232 69.2665 113.4883 0.0000 0.0000 0.0000
# 4 0.0000 0.0000 0.0000 34.0885 0.0000 0.0000
# 5 0.0000 0.0000 0.0000 0.0000 29.7684 0.0000
# 6 0.0000 0.0000 0.0000 0.0000 0.0000 15.9261
#
#
#
# Elastic Compliance Matrix: (Units=1/GPa)
#
#
# Indices 1 2 3 4 5 6 
#
# 1 0.028367 -0.003919 -0.005862 0.000000 0.000000 0.000000
# 2 -0.003919 0.010419 -0.005219 0.000000 0.000000 0.000000
# 3 -0.005862 -0.005219 0.013703 0.000000 0.000000 0.000000
# 4 0.000000 0.000000 0.000000 0.029335 0.000000 0.000000
# 5 0.000000 0.000000 0.000000 0.000000 0.033593 0.000000
# 6 0.000000 0.000000 0.000000 0.000000 0.000000 0.062790
#
#
# Mechanical properties :
#
#
# Convention : Reuss Voigt Hill
#
# Bulk Modulus (GPa) = 44.46758 64.07358 54.27058
# Shear Modulus (GPa) = 23.18002 27.11441 25.14722
#
# Velocity S-wave (km/s) = 3.45271 3.73425 3.59624
# Velocity P-wave (km/s) = 6.22608 7.17949 6.71972
#
# Compressibility (1/GPa) = 0.02248829
#
# Stress axis : x y z
#
# Youngs Moduli (GPa) = 35.25204 95.97986 72.97918
#
# Poissons Ratio (x) = 0.37614 0.42784
# Poissons Ratio (y) = 0.13815 0.38086
# Poissons Ratio (z) = 0.20666 0.50089
#
# Static dielectric constant tensor:
#      x y z
#    x 3.162970 0.000000 0.000000 
#    y 0.000000 4.170560 0.000000 
#    z 0.000000 0.000000 3.813270 
# 
# 
# High freq. dielectric constant tensor:
#      x y z
#    x 1.721810 0.000000 0.000000 
#    y 0.000000 1.783380 0.000000 
#    z 0.000000 0.000000 1.769270 
# 
# From -- ./inp_files/8980.got.cif
#   From: 2010.03.12/outbox.cif.g09.slc.cpg/sg53_5_cif.got.tgz:8980.got - 2010.04.16 14:36:59.
