data_PCOD8219562
_publ_section_title
;
Structure prediction by ZEFSAII (Michael W. Deem and Ramdas Pophale) SiO2 
 PCOD8219562
Probable space group: P M N A
;
_chemical_formula_sum "Si O2"
_cell_formula_units_Z 64
_cell_length_a 19.384544
_cell_length_b 9.086786
_cell_length_c 19.873596
_cell_angle_alpha 90.000000
_cell_angle_beta 90.000000
_cell_angle_gamma 90.000000
_cell_volume 3500.598855
_symmetry_space_group_name_H-M "P M N A"
_symmetry_group_IT_number 53
_symmetry_cell_setting 'orthorhombic'
loop_
_space_group_symop_operation_xyz
x,y,z
1/2-x,-y,1/2+z
x,-y,-z
1/2-x,y,1/2-z
-x,-y,-z
1/2+x,y,1/2-z
-x,y,z
1/2+x,-y,1/2+z
loop_
_atom_site_type_symbol
_atom_site_label
_atom_site_fract_x
_atom_site_fract_y
_atom_site_fract_z
Si Si1 0.923209 0.381229 0.790820
Si Si2 0.761859 0.567502 0.566253
Si Si3 0.106162 0.529702 0.923957
Si Si4 0.578043 0.947162 0.262591
Si Si5 0.577559 0.864771 0.605128
Si Si6 0.226137 0.903560 0.939199
Si Si7 0.183386 0.572805 0.708647
Si Si8 0.196574 0.083482 0.304829
O O1 0.925235 0.417148 0.870339
O O2 0.897128 0.213188 0.787386
O O3 0.880208 0.492881 0.744188
O O4 0.000000 0.393475 0.761696
O O5 0.797917 0.500000 0.500000
O O6 0.687302 0.496153 0.578637
O O7 0.748256 0.736911 0.550520
O O8 0.809751 0.529415 0.630029
O O9 0.084886 0.688989 0.895712
O O10 0.077699 0.500000 0.000000
O O11 0.500000 0.942473 0.236240
O O12 0.586161 0.070857 0.320239
O O13 0.625955 0.991745 0.199916
O O14 0.500000 0.907671 0.577628
O O15 0.642686 0.926264 0.563070
O O16 0.266106 0.957080 0.873695
O O17 0.254826 0.000000 0.000000
O O18 0.250000 0.522013 0.750000
O O19 0.176497 0.748033 0.709776
O O20 0.250000 0.025834 0.250000
#
# Coordination Sequence:
#
# PCOD8219562 Si02
#       8
#     8   8   8   8   8   8   8   8
#     4  11  23  36  53  82 113 140 182 231 275 325
#     4   9  19  35  55  80 109 139 178 227 272 318
#     4  10  20  36  54  76 107 150 194 228 264 315
#     4  10  22  37  54  81 112 143 182 229 278 326
#     4  10  20  35  53  73 107 154 190 220 267 319
#     4  10  21  35  53  80 109 142 183 224 266 323
#     4  10  19  36  60  81 106 142 185 227 271 323
#     4  10  19  37  59  78 107 144 185 225 269 325
#
# _framework density 18.282586999999999
#
# number of rings (size 3 to 8) (size 9 to 14) (size 15 to 20)
#    0.000    2.000    2.500    1.125    0.000    7.250 
#    0.000    1.250    0.000    0.750    0.000    0.000 
#    0.000    0.000    0.000    0.000    0.000    0.000 
#
# Total GULP energy -793117.595523 kJ/mol
# GULP energy per Si atom -12392.462430 kJ/mol
# Density = 1.824097 g / cm^3
# Si number density = 18.282587 Si / 1000 Ang^3
#
#
#
# Elastic Constant Matrix: (Units=GPa)
#
#
# Indices 1 2 3 4 5 6 
#
# 1 81.0902 48.0396 61.4843 0.0000 0.0000 0.0000
# 2 48.0396 67.5463 57.9365 0.0000 0.0000 0.0000
# 3 61.4843 57.9365 135.1866 0.0000 0.0000 0.0000
# 4 0.0000 0.0000 0.0000 33.5828 0.0000 0.0000
# 5 0.0000 0.0000 0.0000 0.0000 15.9276 0.0000
# 6 0.0000 0.0000 0.0000 0.0000 0.0000 21.0437
#
#
#
# Elastic Compliance Matrix: (Units=1/GPa)
#
#
# Indices 1 2 3 4 5 6 
#
# 1 0.023745 -0.012057 -0.005633 0.000000 0.000000 0.000000
# 2 -0.012057 0.029532 -0.007173 0.000000 0.000000 0.000000
# 3 -0.005633 -0.007173 0.013033 0.000000 0.000000 0.000000
# 4 0.000000 0.000000 0.000000 0.029777 0.000000 0.000000
# 5 0.000000 0.000000 0.000000 0.000000 0.062784 0.000000
# 6 0.000000 0.000000 0.000000 0.000000 0.000000 0.047520
#
#
# Mechanical properties :
#
#
# Convention : Reuss Voigt Hill
#
# Bulk Modulus (GPa) = 60.29192 68.74933 64.52062
# Shear Modulus (GPa) = 19.10992 21.86834 20.48913
#
# Velocity S-wave (km/s) = 3.23654 3.46226 3.35130
# Velocity P-wave (km/s) = 6.85685 7.32587 7.09523
#
# Compressibility (1/GPa) = 0.01658597
#
# Stress axis : x y z
#
# Youngs Moduli (GPa) = 42.11368 33.86174 76.72852
#
# Poissons Ratio (x) = 0.40826 0.43217
# Poissons Ratio (y) = 0.50775 0.55036
# Poissons Ratio (z) = 0.23721 0.24289
#
# Static dielectric constant tensor:
#      x y z
#    x 3.436130 0.000000 0.000000 
#    y 0.000000 3.315770 0.000000 
#    z 0.000000 0.000000 4.265190 
# 
# 
# High freq. dielectric constant tensor:
#      x y z
#    x 1.697450 0.000000 0.000000 
#    y 0.000000 1.708100 0.000000 
#    z 0.000000 0.000000 1.696870 
# 
# From -- ./inp_files/32856.got.cif
#   From: 2010.03.12/outbox.cif.g09.slc.cpg/sg53_17_cif.got.tgz:32856.got - 2010.04.16 14:36:59.
