data_PCOD8219255
_publ_section_title
;
Structure prediction by ZEFSAII (Michael W. Deem and Ramdas Pophale) SiO2 
 PCOD8219255
Probable space group: P M N A
;
_chemical_formula_sum "Si O2"
_cell_formula_units_Z 44
_cell_length_a 17.446965
_cell_length_b 5.191318
_cell_length_c 24.696643
_cell_angle_alpha 90.000000
_cell_angle_beta 90.000000
_cell_angle_gamma 90.000000
_cell_volume 2236.842711
_symmetry_space_group_name_H-M "P M N A"
_symmetry_group_IT_number 53
_symmetry_cell_setting 'orthorhombic'
loop_
_space_group_symop_operation_xyz
x,y,z
1/2-x,-y,1/2+z
x,-y,-z
1/2-x,y,1/2-z
-x,-y,-z
1/2+x,y,1/2-z
-x,y,z
1/2+x,-y,1/2+z
loop_
_atom_site_type_symbol
_atom_site_label
_atom_site_fract_x
_atom_site_fract_y
_atom_site_fract_z
Si Si1 0.231718 0.924073 0.111303
Si Si2 0.680295 0.436044 0.145577
Si Si3 0.417436 0.674772 0.948902
Si Si4 0.710991 0.000000 0.000000
Si Si5 0.412603 0.625234 0.746878
Si Si6 0.413094 0.126946 0.676937
O O1 0.273865 0.702429 0.145054
O O2 0.237084 0.862260 0.045952
O O3 0.141948 0.915281 0.125574
O O4 0.264872 0.200699 0.128696
O O5 0.607545 0.475507 0.105168
O O6 0.647656 0.391441 0.204887
O O7 0.500000 0.817049 0.938365
O O8 0.430887 0.500000 0.000000
O O9 0.345027 0.847427 0.960877
O O10 0.500000 0.598598 0.768099
O O11 0.394368 0.400131 0.704366
O O12 0.399308 0.902022 0.720196
O O13 0.500000 0.120019 0.654919
#
# Coordination Sequence:
#
# PCOD8219255 Si02
#       6
#     8   8   8   4   8   8
#     4  11  23  37  59  81 113 146 185 236 277 330
#     4  11  22  36  56  88 113 148 186 224 273 325
#     4  10  19  34  54  78 113 152 186 217 261 325
#     4  10  21  38  53  82 114 148 188 236 279 318
#     4  10  21  38  58  83 117 148 182 226 272 330
#     4  10  22  40  59  81 109 146 185 230 288 337
#
# _framework density 19.670584999999999
#
# number of rings (size 3 to 8) (size 9 to 14) (size 15 to 20)
#    0.000    1.636    1.818    3.000    0.000    4.364 
#    0.000    2.273    0.000    0.000    0.000    7.636 
#    0.000    0.000    0.000    0.000    0.000    0.000 
#
# Total GULP energy -545213.863956 kJ/mol
# GULP energy per Si atom -12391.224181 kJ/mol
# Density = 1.962581 g / cm^3
# Si number density = 19.670585 Si / 1000 Ang^3
#
#
#
# Elastic Constant Matrix: (Units=GPa)
#
#
# Indices 1 2 3 4 5 6 
#
# 1 115.6050 6.2955 67.3018 0.0000 0.0000 0.0000
# 2 6.2955 67.9814 -2.2009 0.0000 0.0000 0.0000
# 3 67.3018 -2.2009 71.4540 0.0000 0.0000 0.0000
# 4 0.0000 0.0000 0.0000 19.2890 0.0000 0.0000
# 5 0.0000 0.0000 0.0000 0.0000 -319.1476 0.0000
# 6 0.0000 0.0000 0.0000 0.0000 0.0000 34.1065
#
#
#
# Elastic Compliance Matrix: (Units=1/GPa)
#
#
# Indices 1 2 3 4 5 6 
#
# 1 0.019538 -0.002408 -0.018477 0.000000 0.000000 0.000000
# 2 -0.002408 0.015021 0.002730 0.000000 0.000000 0.000000
# 3 -0.018477 0.002730 0.031482 0.000000 0.000000 0.000000
# 4 0.000000 0.000000 0.000000 0.051843 0.000000 0.000000
# 5 0.000000 0.000000 0.000000 0.000000 -0.003133 0.000000
# 6 0.000000 0.000000 0.000000 0.000000 0.000000 0.029320
#
#
# Mechanical properties :
#
#
# Convention : Reuss Voigt Hill
#
# Bulk Modulus (GPa) = 33.63218 44.20370 38.91794
# Shear Modulus (GPa) = 26.27579 -40.90747 -7.31584
#
# Velocity S-wave (km/s) = 3.65881 -4.56524 -1.93061
# Velocity P-wave (km/s) = 5.91473 2.29516 3.85462
#
# Compressibility (1/GPa) = 0.02973343
#
# Stress axis : x y z
#
# Youngs Moduli (GPa) = 51.18291 66.57235 31.76416
#
# Poissons Ratio (x) = 0.16027 0.58689
# Poissons Ratio (y) = 0.12322 -0.08673
# Poissons Ratio (z) = 0.94569 -0.18176
#
# Static dielectric constant tensor:
#      x y z
#    x 4.191170 0.000000 0.000000 
#    y 0.000000 3.512920 0.000000 
#    z 0.000000 0.000000 3.716670 
# 
# 
# High freq. dielectric constant tensor:
#      x y z
#    x 1.770440 0.000000 0.000000 
#    y 0.000000 1.764760 0.000000 
#    z 0.000000 0.000000 1.760440 
# 
# From -- ./inp_files/35457.got.cif
#   From: 2010.03.12/outbox.cif.g09.slc.cpg/sg53_18_cif.got.tgz:35457.got - 2010.04.16 14:36:59.
