data_PCOD8219421
_publ_section_title
;
Structure prediction by ZEFSAII (Michael W. Deem and Ramdas Pophale) SiO2 
 PCOD8219421
Probable space group: P M N A
;
_chemical_formula_sum "Si O2"
_cell_formula_units_Z 40
_cell_length_a 9.103284
_cell_length_b 12.555633
_cell_length_c 20.155259
_cell_angle_alpha 90.000000
_cell_angle_beta 90.000000
_cell_angle_gamma 90.000000
_cell_volume 2303.695574
_symmetry_space_group_name_H-M "P M N A"
_symmetry_group_IT_number 53
_symmetry_cell_setting 'orthorhombic'
loop_
_space_group_symop_operation_xyz
x,y,z
1/2-x,-y,1/2+z
x,-y,-z
1/2-x,y,1/2-z
-x,-y,-z
1/2+x,y,1/2-z
-x,y,z
1/2+x,-y,1/2+z
loop_
_atom_site_type_symbol
_atom_site_label
_atom_site_fract_x
_atom_site_fract_y
_atom_site_fract_z
Si Si1 0.171919 0.054408 0.430860
Si Si2 0.826133 0.734426 0.956353
Si Si3 0.827589 0.695117 0.405723
Si Si4 0.329014 0.888479 0.181843
Si Si5 0.837689 0.534700 0.576026
O O1 0.264536 0.161465 0.419905
O O2 0.000000 0.082337 0.429819
O O3 0.216036 0.000000 0.500000
O O4 0.218067 0.975614 0.372110
O O5 0.776211 0.630894 0.913564
O O6 0.000000 0.737488 0.958577
O O7 0.763663 0.730595 0.030412
O O8 0.784183 0.771487 0.344930
O O9 0.791053 0.572938 0.384246
O O10 0.000000 0.707594 0.424136
O O11 0.250000 0.913920 0.250000
O O12 0.500000 0.894205 0.195989
O O13 0.841341 0.500000 0.500000
O O14 0.000000 0.572998 0.598385
#
# Coordination Sequence:
#
# PCOD8219421 Si02
#       5
#     8   8   8   8   8
#     4  10  19  35  56  73  99 140 182 214 250 313
#     4  11  20  28  46  78 110 132 163 218 269 300
#     4   9  17  33  52  71  99 138 176 205 247 313
#     4  10  21  36  55  77 103 136 172 216 263 313
#     4   8  15  28  48  70  97 133 171 203 240 304
#
# _framework density 17.363406000000001
#
# number of rings (size 3 to 8) (size 9 to 14) (size 15 to 20)
#    0.000    2.400    2.000    3.000    0.000    5.600 
#    0.000    0.000    0.000    1.200    0.000    2.800 
#    0.000    0.000    0.000    0.000    0.000    0.000 
#
# Total GULP energy -495891.756987 kJ/mol
# GULP energy per Si atom -12397.293925 kJ/mol
# Density = 1.732389 g / cm^3
# Si number density = 17.363406 Si / 1000 Ang^3
#
#
#
# Elastic Constant Matrix: (Units=GPa)
#
#
# Indices 1 2 3 4 5 6 
#
# 1 83.8401 67.8757 38.8459 0.0000 0.0000 0.0000
# 2 67.8757 153.1246 59.5639 0.0000 0.0000 0.0000
# 3 38.8459 59.5639 90.6379 0.0000 0.0000 0.0000
# 4 0.0000 0.0000 0.0000 18.6207 0.0000 0.0000
# 5 0.0000 0.0000 0.0000 0.0000 20.9669 0.0000
# 6 0.0000 0.0000 0.0000 0.0000 0.0000 13.8951
#
#
#
# Elastic Compliance Matrix: (Units=1/GPa)
#
#
# Indices 1 2 3 4 5 6 
#
# 1 0.019433 -0.007220 -0.003584 0.000000 0.000000 0.000000
# 2 -0.007220 0.011456 -0.004434 0.000000 0.000000 0.000000
# 3 -0.003584 -0.004434 0.015483 0.000000 0.000000 0.000000
# 4 0.000000 0.000000 0.000000 0.053704 0.000000 0.000000
# 5 0.000000 0.000000 0.000000 0.000000 0.047694 0.000000
# 6 0.000000 0.000000 0.000000 0.000000 0.000000 0.071968
#
#
# Mechanical properties :
#
#
# Convention : Reuss Voigt Hill
#
# Bulk Modulus (GPa) = 62.90952 73.35262 68.13107
# Shear Modulus (GPa) = 19.56854 21.45104 20.50979
#
# Velocity S-wave (km/s) = 3.36072 3.51866 3.44060
# Velocity P-wave (km/s) = 7.16722 7.67106 7.42342
#
# Compressibility (1/GPa) = 0.01589584
#
# Stress axis : x y z
#
# Youngs Moduli (GPa) = 51.45800 87.29177 64.58782
#
# Poissons Ratio (x) = 0.63025 0.23148
# Poissons Ratio (y) = 0.37153 0.28638
# Poissons Ratio (z) = 0.18443 0.38705
#
# Static dielectric constant tensor:
#      x y z
#    x 3.091310 0.000000 0.000000 
#    y 0.000000 3.746920 0.000000 
#    z 0.000000 0.000000 2.844750 
# 
# 
# High freq. dielectric constant tensor:
#      x y z
#    x 1.660970 0.000000 0.000000 
#    y 0.000000 1.691910 0.000000 
#    z 0.000000 0.000000 1.618350 
# 
# From -- ./inp_files/30357.got.cif
#   From: 2010.03.12/outbox.cif.g09.slc.cpg/sg53_16_cif.got.tgz:30357.got - 2010.04.16 14:36:59.
