data_PCOD8219505
_publ_section_title
;
Structure prediction by ZEFSAII (Michael W. Deem and Ramdas Pophale) SiO2 
 PCOD8219505
Probable space group: P M N A
;
_chemical_formula_sum "Si O2"
_cell_formula_units_Z 48
_cell_length_a 28.379054
_cell_length_b 8.979861
_cell_length_c 9.947877
_cell_angle_alpha 90.000000
_cell_angle_beta 90.000000
_cell_angle_gamma 90.000000
_cell_volume 2535.116579
_symmetry_space_group_name_H-M "P M N A"
_symmetry_group_IT_number 53
_symmetry_cell_setting 'orthorhombic'
loop_
_space_group_symop_operation_xyz
x,y,z
1/2-x,-y,1/2+z
x,-y,-z
1/2-x,y,1/2-z
-x,-y,-z
1/2+x,y,1/2-z
-x,y,z
1/2+x,-y,1/2+z
loop_
_atom_site_type_symbol
_atom_site_label
_atom_site_fract_x
_atom_site_fract_y
_atom_site_fract_z
Si Si1 0.297797 0.142316 0.408566
Si Si2 0.945965 0.831395 0.737024
Si Si3 0.805669 0.142325 0.403139
Si Si4 0.556014 0.176246 0.765173
Si Si5 0.605728 0.675096 0.991840
Si Si6 0.893628 0.822264 0.996751
O O1 0.313605 0.099515 0.254874
O O2 0.246291 0.219906 0.412142
O O3 0.339565 0.238547 0.480482
O O4 0.289858 0.000000 0.500000
O O5 0.933557 0.727570 0.612877
O O6 0.920366 0.765349 0.866107
O O7 0.000000 0.818707 0.770413
O O8 0.932984 0.003063 0.706775
O O9 0.843378 0.262507 0.451125
O O10 0.811226 0.000000 0.500000
O O11 0.500000 0.209411 0.773180
O O12 0.576952 0.233671 0.623780
O O13 0.587061 0.269146 0.866796
O O14 0.610036 0.500000 0.000000
O O15 0.891157 0.000000 0.000000
#
# Coordination Sequence:
#
# PCOD8219505 Si02
#       6
#     8   8   8   8   8   8
#     4   9  18  33  61  94 115 137 180 235 290 332
#     4  10  19  35  60  86 111 143 187 236 287 334
#     4  10  20  36  62  88 116 144 186 235 283 335
#     4  10  21  37  60  87 113 143 187 242 289 335
#     4  12  25  38  54  79 116 159 193 228 279 334
#     4   9  17  32  58  90 115 138 177 233 291 339
#
# _framework density 18.934042000000002
#
# number of rings (size 3 to 8) (size 9 to 14) (size 15 to 20)
#    0.000    2.000    1.667    2.500    4.667    4.667 
#    0.000    0.833    7.333    2.000    0.000    0.000 
#    0.000    0.000    0.000    0.000    0.000    0.000 
#
# Total GULP energy -594730.251861 kJ/mol
# GULP energy per Si atom -12390.213580 kJ/mol
# Density = 1.889095 g / cm^3
# Si number density = 18.934042 Si / 1000 Ang^3
#
#
#
# Elastic Constant Matrix: (Units=GPa)
#
#
# Indices 1 2 3 4 5 6 
#
# 1 116.9744 32.3352 36.1442 0.0000 0.0000 0.0000
# 2 32.3352 57.7435 23.0698 0.0000 0.0000 0.0000
# 3 36.1442 23.0698 86.5752 0.0000 0.0000 0.0000
# 4 0.0000 0.0000 0.0000 -15.1389 0.0000 0.0000
# 5 0.0000 0.0000 0.0000 0.0000 32.7864 0.0000
# 6 0.0000 0.0000 0.0000 0.0000 0.0000 2.3034
#
#
#
# Elastic Compliance Matrix: (Units=1/GPa)
#
#
# Indices 1 2 3 4 5 6 
#
# 1 0.010882 -0.004788 -0.003267 0.000000 0.000000 0.000000
# 2 -0.004788 0.021488 -0.003727 0.000000 0.000000 0.000000
# 3 -0.003267 -0.003727 0.013908 0.000000 0.000000 0.000000
# 4 0.000000 0.000000 0.000000 -0.066055 0.000000 0.000000
# 5 0.000000 0.000000 0.000000 0.000000 0.030500 0.000000
# 6 0.000000 0.000000 0.000000 0.000000 0.000000 0.434136
#
#
# Mechanical properties :
#
#
# Convention : Reuss Voigt Hill
#
# Bulk Modulus (GPa) = 44.02726 49.37683 46.70205
# Shear Modulus (GPa) = 10.50431 15.30644 12.90537
#
# Velocity S-wave (km/s) = 2.35794 2.84634 2.61357
# Velocity P-wave (km/s) = 5.54226 6.07759 5.81609
#
# Compressibility (1/GPa) = 0.02271320
#
# Stress axis : x y z
#
# Youngs Moduli (GPa) = 91.89420 46.53676 71.90221
#
# Poissons Ratio (x) = 0.22284 0.23492
# Poissons Ratio (y) = 0.44003 0.26797
# Poissons Ratio (z) = 0.30023 0.17344
#
# Static dielectric constant tensor:
#      x y z
#    x 4.031960 0.000000 0.000000 
#    y 0.000000 3.050950 0.000000 
#    z 0.000000 0.000000 3.887670 
# 
# 
# High freq. dielectric constant tensor:
#      x y z
#    x 1.767940 0.000000 0.000000 
#    y 0.000000 1.664640 0.000000 
#    z 0.000000 0.000000 1.756680 
# 
# From -- ./inp_files/12977.got.cif
#   From: 2010.03.12/outbox.cif.g09.slc.cpg/sg53_7_cif.got.tgz:12977.got - 2010.04.16 14:36:59.
