data_PCOD8219804
_publ_section_title
;
Structure prediction by ZEFSAII (Michael W. Deem and Ramdas Pophale) SiO2 
 PCOD8219804
Probable space group: P M N A
;
_chemical_formula_sum "Si O2"
_cell_formula_units_Z 64
_cell_length_a 8.746075
_cell_length_b 22.878528
_cell_length_c 17.038712
_cell_angle_alpha 90.000000
_cell_angle_beta 90.000000
_cell_angle_gamma 90.000000
_cell_volume 3409.400638
_symmetry_space_group_name_H-M "P M N A"
_symmetry_group_IT_number 53
_symmetry_cell_setting 'orthorhombic'
loop_
_space_group_symop_operation_xyz
x,y,z
1/2-x,-y,1/2+z
x,-y,-z
1/2-x,y,1/2-z
-x,-y,-z
1/2+x,y,1/2-z
-x,y,z
1/2+x,-y,1/2+z
loop_
_atom_site_type_symbol
_atom_site_label
_atom_site_fract_x
_atom_site_fract_y
_atom_site_fract_z
Si Si1 0.177425 0.365506 0.437707
Si Si2 0.680691 0.458006 0.333762
Si Si3 0.678250 0.133568 0.978434
Si Si4 0.323056 0.431574 0.901947
Si Si5 0.818756 0.931970 0.166306
Si Si6 0.667924 0.040745 0.425259
Si Si7 0.178280 0.743142 0.013214
Si Si8 0.821280 0.322342 0.828372
O O1 0.249951 0.396331 0.361967
O O2 0.203076 0.408525 0.510652
O O3 0.264563 0.304692 0.451064
O O4 0.000000 0.352282 0.423235
O O5 0.750000 0.474247 0.250000
O O6 0.500000 0.452736 0.328845
O O7 0.727910 0.509045 0.393826
O O8 0.500000 0.130480 0.962269
O O9 0.762323 0.113473 0.899239
O O10 0.728033 0.198297 0.001488
O O11 0.717686 0.093328 0.054151
O O12 0.500000 0.444657 0.884577
O O13 0.262564 0.383949 0.840599
O O14 0.750000 0.914516 0.250000
O O15 0.000000 0.926880 0.169658
O O16 0.769006 0.998780 0.144492
O O17 0.500000 0.066307 0.403590
O O18 0.649696 0.000000 0.500000
O O19 0.213673 0.721810 0.101179
O O20 0.000000 0.754811 0.999990
O O21 0.750000 0.293624 0.750000
O O22 0.000000 0.334013 0.818956
#
# Coordination Sequence:
#
# PCOD8219804 Si02
#       8
#     8   8   8   8   8   8   8   8
#     4  10  21  38  58  80 106 136 174 219 268 319
#     4  12  24  37  55  79 107 137 172 215 265 320
#     4  11  21  33  53  79 106 139 180 221 259 305
#     4  10  20  35  55  78 106 137 170 212 261 317
#     4  10  20  34  53  79 112 145 175 213 261 311
#     4   8  16  32  52  74 103 138 173 210 254 301
#     4  10  21  37  55  75 102 139 181 220 261 309
#     4  10  20  33  50  72 101 137 174 213 258 311
#
# _framework density 18.771628
#
# number of rings (size 3 to 8) (size 9 to 14) (size 15 to 20)
#    0.000    1.875    0.000    5.625    0.000    7.750 
#    0.000    1.250    0.000    0.750    0.000    3.500 
#    0.000    0.000    0.000    0.000    0.000    0.000 
#
# Total GULP energy -793736.177801 kJ/mol
# GULP energy per Si atom -12402.127778 kJ/mol
# Density = 1.872890 g / cm^3
# Si number density = 18.771628 Si / 1000 Ang^3
#
#
#
# Elastic Constant Matrix: (Units=GPa)
#
#
# Indices 1 2 3 4 5 6 
#
# 1 92.1666 32.0077 19.1065 0.0000 0.0000 0.0000
# 2 32.0077 96.0031 20.3519 0.0000 0.0000 0.0000
# 3 19.1065 20.3519 30.4537 0.0000 0.0000 0.0000
# 4 0.0000 0.0000 0.0000 14.6579 0.0000 0.0000
# 5 0.0000 0.0000 0.0000 0.0000 27.5330 0.0000
# 6 0.0000 0.0000 0.0000 0.0000 0.0000 31.9401
#
#
#
# Elastic Compliance Matrix: (Units=1/GPa)
#
#
# Indices 1 2 3 4 5 6 
#
# 1 0.013212 -0.003085 -0.006228 0.000000 0.000000 0.000000
# 2 -0.003085 0.012856 -0.006656 0.000000 0.000000 0.000000
# 3 -0.006228 -0.006656 0.041192 0.000000 0.000000 0.000000
# 4 0.000000 0.000000 0.000000 0.068223 0.000000 0.000000
# 5 0.000000 0.000000 0.000000 0.000000 0.036320 0.000000
# 6 0.000000 0.000000 0.000000 0.000000 0.000000 0.031309
#
#
# Mechanical properties :
#
#
# Convention : Reuss Voigt Hill
#
# Bulk Modulus (GPa) = 28.31014 40.17287 34.24151
# Shear Modulus (GPa) = 20.25740 24.63667 22.44703
#
# Velocity S-wave (km/s) = 3.28861 3.62669 3.46178
# Velocity P-wave (km/s) = 5.43452 6.24376 5.85314
#
# Compressibility (1/GPa) = 0.03532303
#
# Stress axis : x y z
#
# Youngs Moduli (GPa) = 75.68740 77.78563 24.27644
#
# Poissons Ratio (x) = 0.23995 0.15119
# Poissons Ratio (y) = 0.23348 0.16159
# Poissons Ratio (z) = 0.47136 0.51775
#
# Static dielectric constant tensor:
#      x y z
#    x 3.511410 0.000000 0.000000 
#    y 0.000000 3.425950 0.000000 
#    z 0.000000 0.000000 3.637710 
# 
# 
# High freq. dielectric constant tensor:
#      x y z
#    x 1.742680 0.000000 0.000000 
#    y 0.000000 1.720410 0.000000 
#    z 0.000000 0.000000 1.708320 
# 
# From -- ./inp_files/26902.got.cif
#   From: 2010.03.12/outbox.cif.g09.slc.cpg/sg53_14_cif.got.tgz:26902.got - 2010.04.16 14:36:59.
