data_PCOD8219708
_publ_section_title
;
Structure prediction by ZEFSAII (Michael W. Deem and Ramdas Pophale) SiO2 
 PCOD8219708
Probable space group: P M N A
;
_chemical_formula_sum "Si O2"
_cell_formula_units_Z 64
_cell_length_a 8.926444
_cell_length_b 22.795386
_cell_length_c 17.538641
_cell_angle_alpha 90.000000
_cell_angle_beta 90.000000
_cell_angle_gamma 90.000000
_cell_volume 3568.793128
_symmetry_space_group_name_H-M "P M N A"
_symmetry_group_IT_number 53
_symmetry_cell_setting 'orthorhombic'
loop_
_space_group_symop_operation_xyz
x,y,z
1/2-x,-y,1/2+z
x,-y,-z
1/2-x,y,1/2-z
-x,-y,-z
1/2+x,y,1/2-z
-x,y,z
1/2+x,-y,1/2+z
loop_
_atom_site_type_symbol
_atom_site_label
_atom_site_fract_x
_atom_site_fract_y
_atom_site_fract_z
Si Si1 0.673812 0.862291 0.456819
Si Si2 0.826080 0.922059 0.886064
Si Si3 0.673705 0.812835 0.823272
Si Si4 0.324831 0.752783 0.980473
Si Si5 0.678257 0.435652 0.167716
Si Si6 0.823518 0.952275 0.169186
Si Si7 0.163593 0.457609 0.570671
Si Si8 0.676312 0.630547 0.527701
O O1 0.500000 0.844060 0.454979
O O2 0.706095 0.906448 0.526354
O O3 0.772517 0.803446 0.461497
O O4 0.724510 0.896851 0.381693
O O5 0.735757 0.878453 0.831794
O O6 0.000000 0.915257 0.866053
O O7 0.767611 0.987687 0.870339
O O8 0.750000 0.782574 0.750000
O O9 0.500000 0.817033 0.808481
O O10 0.713567 0.773148 0.895261
O O11 0.500000 0.740273 0.992390
O O12 0.229413 0.694984 0.995334
O O13 0.750000 0.422933 0.250000
O O14 0.500000 0.426358 0.171712
O O15 0.718369 0.502596 0.142252
O O16 0.742624 0.390360 0.105196
O O17 0.750000 0.943024 0.250000
O O18 0.000000 0.954561 0.178698
O O19 0.141919 0.500000 0.500000
O O20 0.283648 0.408552 0.546893
O O21 0.000000 0.429148 0.588835
O O22 0.500000 0.628339 0.541452
#
# Coordination Sequence:
#
# PCOD8219708 Si02
#       8
#     8   8   8   8   8   8   8   8
#     4   9  18  34  53  72  96 128 168 209 250 299
#     4   9  17  31  51  72  96 127 162 201 246 299
#     4  10  20  32  47  68  96 130 164 201 245 295
#     4  10  21  36  52  71  97 130 170 212 253 295
#     4  10  20  34  53  79 112 144 171 205 250 296
#     4  10  20  32  49  74 101 128 159 200 252 308
#     4   8  16  32  52  74 103 137 169 203 244 287
#     4  11  21  33  53  78 103 135 175 213 249 295
#
# _framework density 17.933233999999999
#
# number of rings (size 3 to 8) (size 9 to 14) (size 15 to 20)
#    0.000    2.375    0.000    3.750    0.000    8.250 
#    0.000    1.250    0.000    4.500    0.000    5.250 
#    0.000    0.000    0.000    0.000    0.000    0.000 
#
# Total GULP energy -793513.767858 kJ/mol
# GULP energy per Si atom -12398.652623 kJ/mol
# Density = 1.789242 g / cm^3
# Si number density = 17.933234 Si / 1000 Ang^3
#
#
#
# Elastic Constant Matrix: (Units=GPa)
#
#
# Indices 1 2 3 4 5 6 
#
# 1 72.0283 47.1979 23.2480 0.0000 0.0000 0.0000
# 2 47.1979 106.4688 38.7750 0.0000 0.0000 0.0000
# 3 23.2480 38.7750 62.4874 0.0000 0.0000 0.0000
# 4 0.0000 0.0000 0.0000 13.7757 0.0000 0.0000
# 5 0.0000 0.0000 0.0000 0.0000 24.2812 0.0000
# 6 0.0000 0.0000 0.0000 0.0000 0.0000 27.7561
#
#
#
# Elastic Compliance Matrix: (Units=1/GPa)
#
#
# Indices 1 2 3 4 5 6 
#
# 1 0.019862 -0.007899 -0.002488 0.000000 0.000000 0.000000
# 2 -0.007899 0.015276 -0.006540 0.000000 0.000000 0.000000
# 3 -0.002488 -0.006540 0.020987 0.000000 0.000000 0.000000
# 4 0.000000 0.000000 0.000000 0.072592 0.000000 0.000000
# 5 0.000000 0.000000 0.000000 0.000000 0.041184 0.000000
# 6 0.000000 0.000000 0.000000 0.000000 0.000000 0.036028
#
#
# Mechanical properties :
#
#
# Convention : Reuss Voigt Hill
#
# Bulk Modulus (GPa) = 44.90181 51.04739 47.97460
# Shear Modulus (GPa) = 20.22584 21.94683 21.08633
#
# Velocity S-wave (km/s) = 3.36198 3.50209 3.43275
# Velocity P-wave (km/s) = 6.33745 6.69925 6.52086
#
# Compressibility (1/GPa) = 0.02227082
#
# Stress axis : x y z
#
# Youngs Moduli (GPa) = 50.34627 65.46227 47.64758
#
# Poissons Ratio (x) = 0.51708 0.11856
# Poissons Ratio (y) = 0.39768 0.31163
# Poissons Ratio (z) = 0.12527 0.42815
#
# Static dielectric constant tensor:
#      x y z
#    x 3.319430 0.000000 0.000000 
#    y 0.000000 3.323690 0.000000 
#    z 0.000000 0.000000 3.369640 
# 
# 
# High freq. dielectric constant tensor:
#      x y z
#    x 1.696780 0.000000 0.000000 
#    y 0.000000 1.685950 0.000000 
#    z 0.000000 0.000000 1.677670 
# 
# From -- ./inp_files/26901.got.cif
#   From: 2010.03.12/outbox.cif.g09.slc.cpg/sg53_14_cif.got.tgz:26901.got - 2010.04.16 14:36:59.
