data_PCOD8219106
_publ_section_title
;
Structure prediction by ZEFSAII (Michael W. Deem and Ramdas Pophale) SiO2 
 PCOD8219106
Probable space group: P M N A
;
_chemical_formula_sum "Si O2"
_cell_formula_units_Z 64
_cell_length_a 9.026831
_cell_length_b 12.023981
_cell_length_c 31.205702
_cell_angle_alpha 90.000000
_cell_angle_beta 90.000000
_cell_angle_gamma 90.000000
_cell_volume 3387.018353
_symmetry_space_group_name_H-M "P M N A"
_symmetry_group_IT_number 53
_symmetry_cell_setting 'orthorhombic'
loop_
_space_group_symop_operation_xyz
x,y,z
1/2-x,-y,1/2+z
x,-y,-z
1/2-x,y,1/2-z
-x,-y,-z
1/2+x,y,1/2-z
-x,y,z
1/2+x,-y,1/2+z
loop_
_atom_site_type_symbol
_atom_site_label
_atom_site_fract_x
_atom_site_fract_y
_atom_site_fract_z
Si Si1 0.668990 0.874077 0.613773
Si Si2 0.327883 0.746344 0.054166
Si Si3 0.326054 0.232828 0.706574
Si Si4 0.174243 0.488528 0.793607
Si Si5 0.824234 0.478495 0.951482
Si Si6 0.675726 0.628044 0.626036
Si Si7 0.172646 0.903079 0.367046
Si Si8 0.668314 0.880045 0.513094
O O1 0.500000 0.898778 0.628228
O O2 0.727420 0.755671 0.631514
O O3 0.677689 0.864344 0.563152
O O4 0.775883 0.969390 0.631262
O O5 0.500000 0.719574 0.050949
O O6 0.244003 0.634434 0.067481
O O7 0.293022 0.843373 0.088073
O O8 0.268616 0.785665 0.008168
O O9 0.250000 0.191343 0.750000
O O10 0.500000 0.215473 0.710959
O O11 0.284226 0.360648 0.697307
O O12 0.265843 0.158546 0.668634
O O13 0.250000 0.531153 0.750000
O O14 0.238223 0.558967 0.833526
O O15 0.000000 0.504936 0.788197
O O16 0.769923 0.576129 0.919331
O O17 0.000000 0.466126 0.951244
O O18 0.766760 0.500000 0.000000
O O19 0.500000 0.622510 0.625968
O O20 0.000000 0.898681 0.355497
O O21 0.500000 0.866436 0.496267
O O22 0.731846 0.000000 0.500000
#
# Coordination Sequence:
#
# PCOD8219106 Si02
#       8
#     8   8   8   8   8   8   8   8
#     4  10  20  36  57  79 106 144 189 234 278 326
#     4  11  23  35  52  79 113 147 181 228 281 333
#     4  10  20  36  60  86 112 141 174 220 276 331
#     4   9  18  34  57  84 110 137 173 219 270 327
#     4  10  20  36  58  81 108 142 184 232 279 335
#     4   9  18  34  56  81 108 141 182 228 278 329
#     4  11  23  37  53  79 113 146 183 223 269 326
#     4  10  19  33  54  78 104 141 192 238 275 326
#
# _framework density 18.895676000000002
#
# number of rings (size 3 to 8) (size 9 to 14) (size 15 to 20)
#    0.000    2.000    1.250    2.625    0.000    6.000 
#    0.000    2.500    0.000    1.500    0.000    0.000 
#    0.000    0.000    0.000    0.000    0.000    0.000 
#
# Total GULP energy -793740.860301 kJ/mol
# GULP energy per Si atom -12402.200942 kJ/mol
# Density = 1.885267 g / cm^3
# Si number density = 18.895676 Si / 1000 Ang^3
#
#
#
# Elastic Constant Matrix: (Units=GPa)
#
#
# Indices 1 2 3 4 5 6 
#
# 1 52.2494 34.1004 32.2195 0.0000 0.0000 0.0000
# 2 34.1004 115.9231 47.2085 0.0000 0.0000 0.0000
# 3 32.2195 47.2085 101.0789 0.0000 0.0000 0.0000
# 4 0.0000 0.0000 0.0000 30.3993 0.0000 0.0000
# 5 0.0000 0.0000 0.0000 0.0000 17.9570 0.0000
# 6 0.0000 0.0000 0.0000 0.0000 0.0000 17.0229
#
#
#
# Elastic Compliance Matrix: (Units=1/GPa)
#
#
# Indices 1 2 3 4 5 6 
#
# 1 0.026238 -0.005325 -0.005876 0.000000 0.000000 0.000000
# 2 -0.005325 0.011733 -0.003783 0.000000 0.000000 0.000000
# 3 -0.005876 -0.003783 0.013533 0.000000 0.000000 0.000000
# 4 0.000000 0.000000 0.000000 0.032895 0.000000 0.000000
# 5 0.000000 0.000000 0.000000 0.000000 0.055689 0.000000
# 6 0.000000 0.000000 0.000000 0.000000 0.000000 0.058744
#
#
# Mechanical properties :
#
#
# Convention : Reuss Voigt Hill
#
# Bulk Modulus (GPa) = 46.43371 55.14537 50.78954
# Shear Modulus (GPa) = 21.18825 23.45738 22.32281
#
# Velocity S-wave (km/s) = 3.35226 3.52720 3.44084
# Velocity P-wave (km/s) = 6.29369 6.77020 6.53629
#
# Compressibility (1/GPa) = 0.02153608
#
# Stress axis : x y z
#
# Youngs Moduli (GPa) = 38.11247 85.22753 73.89329
#
# Poissons Ratio (x) = 0.45385 0.43423
# Poissons Ratio (y) = 0.20296 0.27951
# Poissons Ratio (z) = 0.22397 0.32238
#
# Static dielectric constant tensor:
#      x y z
#    x 3.311980 0.000000 0.000000 
#    y 0.000000 4.289710 0.000000 
#    z 0.000000 0.000000 3.654820 
# 
# 
# High freq. dielectric constant tensor:
#      x y z
#    x 1.716790 0.000000 0.000000 
#    y 0.000000 1.739290 0.000000 
#    z 0.000000 0.000000 1.731290 
# 
# From -- ./inp_files/38116.got.cif
#   From: 2010.03.12/outbox.cif.g09.slc.cpg/sg53_20_cif.got.tgz:38116.got - 2010.04.16 14:36:59.
