data_PCOD8219104
_publ_section_title
;
Structure prediction by ZEFSAII (Michael W. Deem and Ramdas Pophale) SiO2 
 PCOD8219104
Probable space group: P M N A
;
_chemical_formula_sum "Si O2"
_cell_formula_units_Z 40
_cell_length_a 8.531807
_cell_length_b 12.982309
_cell_length_c 19.715245
_cell_angle_alpha 90.000000
_cell_angle_beta 90.000000
_cell_angle_gamma 90.000000
_cell_volume 2183.710905
_symmetry_space_group_name_H-M "P M N A"
_symmetry_group_IT_number 53
_symmetry_cell_setting 'orthorhombic'
loop_
_space_group_symop_operation_xyz
x,y,z
1/2-x,-y,1/2+z
x,-y,-z
1/2-x,y,1/2-z
-x,-y,-z
1/2+x,y,1/2-z
-x,y,z
1/2+x,-y,1/2+z
loop_
_atom_site_type_symbol
_atom_site_label
_atom_site_fract_x
_atom_site_fract_y
_atom_site_fract_z
Si Si1 0.817077 0.110649 0.070409
Si Si2 0.814614 0.271172 0.325911
Si Si3 0.814125 0.283371 0.674868
Si Si4 0.815214 0.891114 0.426064
Si Si5 0.182720 0.494111 0.323414
O O1 0.774959 0.188279 0.129788
O O2 0.000000 0.114950 0.054154
O O3 0.771441 0.996178 0.094250
O O4 0.722527 0.141551 0.002945
O O5 0.750000 0.262547 0.250000
O O6 0.776638 0.384888 0.359586
O O7 0.000000 0.249588 0.325914
O O8 0.750000 0.263205 0.750000
O O9 0.749263 0.197230 0.623771
O O10 0.757893 0.396482 0.645448
O O11 0.000000 0.276534 0.677883
O O12 0.000000 0.907298 0.418321
O O13 0.250000 0.482933 0.250000
O O14 0.000000 0.503970 0.315465
#
# Coordination Sequence:
#
# PCOD8219104 Si02
#       5
#     8   8   8   8   8
#     4  11  22  36  53  73 100 134 172 211 255 303
#     4  10  19  33  54  78 104 133 167 207 249 296
#     4   9  18  32  53  79 104 131 164 204 248 297
#     4  10  20  36  55  74 100 134 171 209 254 304
#     4   8  15  29  49  74 102 131 162 198 245 296
#
# _framework density 18.317442
#
# number of rings (size 3 to 8) (size 9 to 14) (size 15 to 20)
#    0.000    2.400    0.000    4.200    0.000    3.200 
#    0.000    3.000    0.000    6.000    0.000    0.000 
#    0.000    0.000    0.000    0.000    0.000    0.000 
#
# Total GULP energy -495538.432271 kJ/mol
# GULP energy per Si atom -12388.460807 kJ/mol
# Density = 1.827575 g / cm^3
# Si number density = 18.317442 Si / 1000 Ang^3
#
#
#
# Elastic Constant Matrix: (Units=GPa)
#
#
# Indices 1 2 3 4 5 6 
#
# 1 37.8487 24.2920 9.0478 0.0000 0.0000 0.0000
# 2 24.2920 149.3480 73.6240 0.0000 0.0000 0.0000
# 3 9.0478 73.6240 71.0338 0.0000 0.0000 0.0000
# 4 0.0000 0.0000 0.0000 1.2123 0.0000 0.0000
# 5 0.0000 0.0000 0.0000 0.0000 25.9195 0.0000
# 6 0.0000 0.0000 0.0000 0.0000 0.0000 19.9267
#
#
#
# Elastic Compliance Matrix: (Units=1/GPa)
#
#
# Indices 1 2 3 4 5 6 
#
# 1 0.029717 -0.006068 0.002504 0.000000 0.000000 0.000000
# 2 -0.006068 0.014930 -0.014702 0.000000 0.000000 0.000000
# 3 0.002504 -0.014702 0.028997 0.000000 0.000000 0.000000
# 4 0.000000 0.000000 0.000000 0.824898 0.000000 0.000000
# 5 0.000000 0.000000 0.000000 0.000000 0.038581 0.000000
# 6 0.000000 0.000000 0.000000 0.000000 0.000000 0.050184
#
#
# Mechanical properties :
#
#
# Convention : Reuss Voigt Hill
#
# Bulk Modulus (GPa) = 26.94499 52.46201 39.70350
# Shear Modulus (GPa) = 4.82528 19.49614 12.16071
#
# Velocity S-wave (km/s) = 1.62480 3.26597 2.57940
# Velocity P-wave (km/s) = 4.27340 6.55170 5.53112
#
# Compressibility (1/GPa) = 0.03711265
#
# Stress axis : x y z
#
# Youngs Moduli (GPa) = 33.65081 66.97781 34.48661
#
# Poissons Ratio (x) = 0.40643 -0.08636
# Poissons Ratio (y) = 0.20420 0.50702
# Poissons Ratio (z) = -0.08427 0.98470
#
# Static dielectric constant tensor:
#      x y z
#    x 3.458480 0.000000 0.000000 
#    y 0.000000 4.123620 0.000000 
#    z 0.000000 0.000000 3.170640 
# 
# 
# High freq. dielectric constant tensor:
#      x y z
#    x 1.714720 0.000000 0.000000 
#    y 0.000000 1.735160 0.000000 
#    z 0.000000 0.000000 1.676480 
# 
# From -- ./inp_files/30341.got.cif
#   From: 2010.03.12/outbox.cif.g09.slc.cpg/sg53_16_cif.got.tgz:30341.got - 2010.04.16 14:36:59.
