data_PCOD8219668
_publ_section_title
;
Structure prediction by ZEFSAII (Michael W. Deem and Ramdas Pophale) SiO2 
 PCOD8219668
Probable space group: P M N A
;
_chemical_formula_sum "Si O2"
_cell_formula_units_Z 32
_cell_length_a 8.853046
_cell_length_b 7.610656
_cell_length_c 23.328735
_cell_angle_alpha 90.000000
_cell_angle_beta 90.000000
_cell_angle_gamma 90.000000
_cell_volume 1571.831555
_symmetry_space_group_name_H-M "P M N A"
_symmetry_group_IT_number 53
_symmetry_cell_setting 'orthorhombic'
loop_
_space_group_symop_operation_xyz
x,y,z
1/2-x,-y,1/2+z
x,-y,-z
1/2-x,y,1/2-z
-x,-y,-z
1/2+x,y,1/2-z
-x,y,z
1/2+x,-y,1/2+z
loop_
_atom_site_type_symbol
_atom_site_label
_atom_site_fract_x
_atom_site_fract_y
_atom_site_fract_z
Si Si1 0.823179 0.678547 0.876319
Si Si2 0.822004 0.991209 0.689707
Si Si3 0.173722 0.801398 0.510349
Si Si4 0.173246 0.323451 0.615393
O O1 0.776122 0.480032 0.860473
O O2 0.000000 0.701768 0.868396
O O3 0.740971 0.806907 0.832279
O O4 0.777613 0.716585 0.941550
O O5 0.750000 0.042330 0.750000
O O6 0.776101 0.141773 0.644534
O O7 0.000000 0.974578 0.696509
O O8 0.194787 0.690133 0.452798
O O9 0.000000 0.798261 0.531675
O O10 0.226476 0.000000 0.500000
O O11 0.000000 0.365816 0.630416
#
# Coordination Sequence:
#
# PCOD8219668 Si02
#       4
#     8   8   8   8
#     4  12  25  39  61  95 132 166 202 253 309 368
#     4  11  24  45  68  91 120 161 211 260 310 364
#     4  10  19  38  65  92 123 166 209 250 309 371
#     4  10  22  41  66  91 123 166 209 255 307 370
#
# _framework density 20.358415000000001
#
# number of rings (size 3 to 8) (size 9 to 14) (size 15 to 20)
#    0.000    1.250    2.500    3.750    0.000    7.500 
#    0.000    2.500    0.000    0.000    0.000    0.000 
#    0.000    0.000    0.000    0.000    0.000    0.000 
#
# Total GULP energy -397021.374513 kJ/mol
# GULP energy per Si atom -12406.917954 kJ/mol
# Density = 2.031208 g / cm^3
# Si number density = 20.358415 Si / 1000 Ang^3
#
#
#
# Elastic Constant Matrix: (Units=GPa)
#
#
# Indices 1 2 3 4 5 6 
#
# 1 107.0359 48.0261 35.8122 0.0000 0.0000 0.0000
# 2 48.0261 102.5706 6.3657 0.0000 0.0000 0.0000
# 3 35.8122 6.3657 75.6209 0.0000 0.0000 0.0000
# 4 0.0000 0.0000 0.0000 17.7461 0.0000 0.0000
# 5 0.0000 0.0000 0.0000 0.0000 32.1134 0.0000
# 6 0.0000 0.0000 0.0000 0.0000 0.0000 24.8977
#
#
#
# Elastic Compliance Matrix: (Units=1/GPa)
#
#
# Indices 1 2 3 4 5 6 
#
# 1 0.014241 -0.006282 -0.006215 0.000000 0.000000 0.000000
# 2 -0.006282 0.012572 0.001917 0.000000 0.000000 0.000000
# 3 -0.006215 0.001917 0.016006 0.000000 0.000000 0.000000
# 4 0.000000 0.000000 0.000000 0.056351 0.000000 0.000000
# 5 0.000000 0.000000 0.000000 0.000000 0.031140 0.000000
# 6 0.000000 0.000000 0.000000 0.000000 0.000000 0.040164
#
#
# Mechanical properties :
#
#
# Convention : Reuss Voigt Hill
#
# Bulk Modulus (GPa) = 46.17377 51.73726 48.95552
# Shear Modulus (GPa) = 25.14405 27.95297 26.54851
#
# Velocity S-wave (km/s) = 3.51817 3.70948 3.61509
# Velocity P-wave (km/s) = 6.26363 6.61932 6.44393
#
# Compressibility (1/GPa) = 0.02165732
#
# Stress axis : x y z
#
# Youngs Moduli (GPa) = 70.21979 79.54226 62.47676
#
# Poissons Ratio (x) = 0.49970 0.38832
# Poissons Ratio (y) = 0.44114 -0.11976
# Poissons Ratio (z) = 0.43644 -0.15247
#
# Static dielectric constant tensor:
#      x y z
#    x 3.591200 0.000000 0.000000 
#    y 0.000000 3.818520 0.000000 
#    z 0.000000 0.000000 3.727700 
# 
# 
# High freq. dielectric constant tensor:
#      x y z
#    x 1.786230 0.000000 0.000000 
#    y 0.000000 1.811760 0.000000 
#    z 0.000000 0.000000 1.792340 
# 
# From -- ./inp_files/30012.got.cif
#   From: 2010.03.12/outbox.cif.g09.slc.cpg/sg53_16_cif.got.tgz:30012.got - 2010.04.16 14:36:59.
