data_PCOD8219284
_publ_section_title
;
Structure prediction by ZEFSAII (Michael W. Deem and Ramdas Pophale) SiO2 
 PCOD8219284
Probable space group: P M N A
;
_chemical_formula_sum "Si O2"
_cell_formula_units_Z 64
_cell_length_a 8.892891
_cell_length_b 21.572443
_cell_length_c 17.941019
_cell_angle_alpha 90.000000
_cell_angle_beta 90.000000
_cell_angle_gamma 90.000000
_cell_volume 3441.829919
_symmetry_space_group_name_H-M "P M N A"
_symmetry_group_IT_number 53
_symmetry_cell_setting 'orthorhombic'
loop_
_space_group_symop_operation_xyz
x,y,z
1/2-x,-y,1/2+z
x,-y,-z
1/2-x,y,1/2-z
-x,-y,-z
1/2+x,y,1/2-z
-x,y,z
1/2+x,-y,1/2+z
loop_
_atom_site_type_symbol
_atom_site_label
_atom_site_fract_x
_atom_site_fract_y
_atom_site_fract_z
Si Si1 0.322070 0.870885 0.418139
Si Si2 0.677625 0.993308 0.330205
Si Si3 0.324050 0.629067 0.324919
Si Si4 0.825201 0.569527 0.020599
Si Si5 0.174592 0.682455 0.550256
Si Si6 0.678494 0.114449 0.414150
Si Si7 0.178022 0.236392 0.170061
Si Si8 0.324562 0.744645 0.105127
O O1 0.500000 0.859916 0.417461
O O2 0.273960 0.930884 0.371725
O O3 0.260018 0.879940 0.501906
O O4 0.242012 0.812476 0.379870
O O5 0.750000 0.994803 0.250000
O O6 0.500000 0.997844 0.321545
O O7 0.740327 0.051350 0.377616
O O8 0.250000 0.601307 0.250000
O O9 0.500000 0.635988 0.312433
O O10 0.286412 0.582449 0.392791
O O11 0.256708 0.696895 0.340093
O O12 0.000000 0.583100 0.005004
O O13 0.780256 0.500000 0.000000
O O14 0.726467 0.612936 0.967587
O O15 0.270151 0.706330 0.619730
O O16 0.209097 0.726494 0.480139
O O17 0.000000 0.682191 0.571298
O O18 0.500000 0.113222 0.416424
O O19 0.737328 0.172370 0.365920
O O20 0.250000 0.244507 0.250000
O O21 0.000000 0.237015 0.177241
O O22 0.500000 0.743684 0.123638
#
# Coordination Sequence:
#
# PCOD8219284 Si02
#       8
#     8   8   8   8   8   8   8   8
#     4  10  19  34  56  78 102 138 184 226 273 331
#     4  10  21  36  53  74 103 138 177 226 277 334
#     4  10  20  35  57  84 115 148 185 227 273 323
#     4   9  19  37  61  86 113 151 192 227 270 325
#     4  10  20  35  55  81 112 144 181 225 271 322
#     4   9  18  34  56  78 100 136 183 227 273 330
#     4  11  21  34  55  81 110 142 181 228 281 334
#     4  10  20  34  54  80 110 141 179 225 273 324
#
# _framework density 18.594760000000001
#
# number of rings (size 3 to 8) (size 9 to 14) (size 15 to 20)
#    0.000    2.125    1.250    2.250    0.000    4.250 
#    0.000    3.125    0.000    3.000    0.000    0.000 
#    0.000    0.000    0.000    0.000    0.000    0.000 
#
# Total GULP energy -793846.999690 kJ/mol
# GULP energy per Si atom -12403.859370 kJ/mol
# Density = 1.855244 g / cm^3
# Si number density = 18.594760 Si / 1000 Ang^3
#
#
#
# Elastic Constant Matrix: (Units=GPa)
#
#
# Indices 1 2 3 4 5 6 
#
# 1 47.4701 37.2246 11.9212 0.0000 0.0000 0.0000
# 2 37.2246 134.0201 48.2013 0.0000 0.0000 0.0000
# 3 11.9212 48.2013 62.9397 0.0000 0.0000 0.0000
# 4 0.0000 0.0000 0.0000 21.4742 0.0000 0.0000
# 5 0.0000 0.0000 0.0000 0.0000 32.0965 0.0000
# 6 0.0000 0.0000 0.0000 0.0000 0.0000 21.2140
#
#
#
# Elastic Compliance Matrix: (Units=1/GPa)
#
#
# Indices 1 2 3 4 5 6 
#
# 1 0.026966 -0.007802 0.000867 0.000000 0.000000 0.000000
# 2 -0.007802 0.012555 -0.008138 0.000000 0.000000 0.000000
# 3 0.000867 -0.008138 0.021956 0.000000 0.000000 0.000000
# 4 0.000000 0.000000 0.000000 0.046567 0.000000 0.000000
# 5 0.000000 0.000000 0.000000 0.000000 0.031156 0.000000
# 6 0.000000 0.000000 0.000000 0.000000 0.000000 0.047139
#
#
# Mechanical properties :
#
#
# Convention : Reuss Voigt Hill
#
# Bulk Modulus (GPa) = 31.91502 48.79157 40.35329
# Shear Modulus (GPa) = 22.03343 24.76246 23.39795
#
# Velocity S-wave (km/s) = 3.44601 3.65319 3.55111
# Velocity P-wave (km/s) = 5.74752 6.64009 6.20986
#
# Compressibility (1/GPa) = 0.03133321
#
# Stress axis : x y z
#
# Youngs Moduli (GPa) = 37.08364 79.64773 45.54587
#
# Poissons Ratio (x) = 0.62140 -0.03951
# Poissons Ratio (y) = 0.28932 0.37063
# Poissons Ratio (z) = -0.03217 0.64813
#
# Static dielectric constant tensor:
#      x y z
#    x 3.269640 0.000000 0.000000 
#    y 0.000000 3.428540 0.000000 
#    z 0.000000 0.000000 3.472050 
# 
# 
# High freq. dielectric constant tensor:
#      x y z
#    x 1.712730 0.000000 0.000000 
#    y 0.000000 1.720270 0.000000 
#    z 0.000000 0.000000 1.723840 
# 
# From -- ./inp_files/26923.got.cif
#   From: 2010.03.12/outbox.cif.g09.slc.cpg/sg53_14_cif.got.tgz:26923.got - 2010.04.16 14:36:59.
