data_PCOD8219051
_publ_section_title
;
Structure prediction by ZEFSAII (Michael W. Deem and Ramdas Pophale) SiO2 
 PCOD8219051
Probable space group: P M N A
;
_chemical_formula_sum "Si O2"
_cell_formula_units_Z 64
_cell_length_a 13.958690
_cell_length_b 14.726769
_cell_length_c 17.816553
_cell_angle_alpha 90.000000
_cell_angle_beta 90.000000
_cell_angle_gamma 90.000000
_cell_volume 3662.484717
_symmetry_space_group_name_H-M "P M N A"
_symmetry_group_IT_number 53
_symmetry_cell_setting 'orthorhombic'
loop_
_space_group_symop_operation_xyz
x,y,z
1/2-x,-y,1/2+z
x,-y,-z
1/2-x,y,1/2-z
-x,-y,-z
1/2+x,y,1/2-z
-x,y,z
1/2+x,-y,1/2+z
loop_
_atom_site_type_symbol
_atom_site_label
_atom_site_fract_x
_atom_site_fract_y
_atom_site_fract_z
Si Si1 0.609263 0.637182 0.371120
Si Si2 0.895969 0.163919 0.655850
Si Si3 0.605121 0.242367 0.006388
Si Si4 0.267408 0.978970 0.331662
Si Si5 0.109018 0.846067 0.091297
Si Si6 0.292979 0.585469 0.052218
Si Si7 0.386951 0.355384 0.797908
Si Si8 0.256504 0.093598 0.035055
O O1 0.500000 0.607204 0.387959
O O2 0.621223 0.744603 0.379951
O O3 0.678862 0.589690 0.431449
O O4 0.638835 0.608367 0.285673
O O5 0.912406 0.198218 0.572861
O O6 0.827395 0.078446 0.649877
O O7 0.850609 0.250447 0.699797
O O8 0.000000 0.135903 0.690070
O O9 0.500000 0.264019 0.042482
O O10 0.669445 0.331922 0.998346
O O11 0.662311 0.167417 0.054598
O O12 0.250000 0.019343 0.250000
O O13 0.358043 0.910846 0.339656
O O14 0.286511 0.065335 0.384615
O O15 0.000000 0.868122 0.069278
O O16 0.174829 0.864673 0.018630
O O17 0.342255 0.583674 0.135052
O O18 0.316630 0.500000 0.000000
O O19 0.500000 0.356051 0.811262
O O20 0.298644 0.000000 0.000000
#
# Coordination Sequence:
#
# PCOD8219051 Si02
#       8
#     8   8   8   8   8   8   8   8
#     4  10  19  33  55  80 106 137 172 219 275 320
#     4   9  16  28  47  73 103 133 165 209 265 317
#     4  10  19  33  52  75 101 132 171 214 255 307
#     4  11  21  30  45  72 107 142 179 223 258 312
#     4  10  19  34  55  77 105 141 179 222 273 322
#     4  11  21  34  53  79 112 143 173 205 259 320
#     4   9  18  31  51  80 111 137 167 214 271 324
#     4  10  19  34  50  75 105 140 182 216 264 312
#
# _framework density 17.474475000000002
#
# number of rings (size 3 to 8) (size 9 to 14) (size 15 to 20)
#    0.000    2.000    3.750    3.000    0.000    5.750 
#    0.000    0.000    0.000    1.500    0.000    0.000 
#    0.000    0.000    0.000    0.000    0.000    0.000 
#
# Total GULP energy -792915.986958 kJ/mol
# GULP energy per Si atom -12389.312296 kJ/mol
# Density = 1.743470 g / cm^3
# Si number density = 17.474475 Si / 1000 Ang^3
#
#
#
# Elastic Constant Matrix: (Units=GPa)
#
#
# Indices 1 2 3 4 5 6 
#
# 1 94.4688 34.8272 27.4615 0.0000 0.0000 0.0000
# 2 34.8272 68.0473 36.6377 0.0000 0.0000 0.0000
# 3 27.4615 36.6377 70.8727 0.0000 0.0000 0.0000
# 4 0.0000 0.0000 0.0000 9.9609 0.0000 0.0000
# 5 0.0000 0.0000 0.0000 0.0000 16.3248 0.0000
# 6 0.0000 0.0000 0.0000 0.0000 0.0000 12.4060
#
#
#
# Elastic Compliance Matrix: (Units=1/GPa)
#
#
# Indices 1 2 3 4 5 6 
#
# 1 0.013305 -0.005590 -0.002266 0.000000 0.000000 0.000000
# 2 -0.005590 0.022712 -0.009575 0.000000 0.000000 0.000000
# 3 -0.002266 -0.009575 0.019938 0.000000 0.000000 0.000000
# 4 0.000000 0.000000 0.000000 0.100393 0.000000 0.000000
# 5 0.000000 0.000000 0.000000 0.000000 0.061256 0.000000
# 6 0.000000 0.000000 0.000000 0.000000 0.000000 0.080606
#
#
# Mechanical properties :
#
#
# Convention : Reuss Voigt Hill
#
# Bulk Modulus (GPa) = 47.40822 47.91572 47.66197
# Shear Modulus (GPa) = 14.70151 16.70251 15.70201
#
# Velocity S-wave (km/s) = 2.90369 3.09499 3.00087
# Velocity P-wave (km/s) = 6.19925 6.34444 6.27227
#
# Compressibility (1/GPa) = 0.02109339
#
# Stress axis : x y z
#
# Youngs Moduli (GPa) = 75.16062 44.02994 50.15658
#
# Poissons Ratio (x) = 0.24611 0.11364
# Poissons Ratio (y) = 0.42012 0.48025
# Poissons Ratio (z) = 0.17030 0.42159
#
# Static dielectric constant tensor:
#      x y z
#    x 3.352690 0.000000 0.000000 
#    y 0.000000 3.089960 0.000000 
#    z 0.000000 0.000000 3.155570 
# 
# 
# High freq. dielectric constant tensor:
#      x y z
#    x 1.689260 0.000000 0.000000 
#    y 0.000000 1.634540 0.000000 
#    z 0.000000 0.000000 1.654830 
# 
# From -- ./inp_files/28640.got.cif
#   From: 2010.03.12/outbox.cif.g09.slc.cpg/sg53_15_cif.got.tgz:28640.got - 2010.04.16 14:36:59.
