data_PCOD8219027
_publ_section_title
;
Structure prediction by ZEFSAII (Michael W. Deem and Ramdas Pophale) SiO2 
 PCOD8219027
Probable space group: P M N A
;
_chemical_formula_sum "Si O2"
_cell_formula_units_Z 48
_cell_length_a 8.690319
_cell_length_b 16.394078
_cell_length_c 18.696606
_cell_angle_alpha 90.000000
_cell_angle_beta 90.000000
_cell_angle_gamma 90.000000
_cell_volume 2663.701110
_symmetry_space_group_name_H-M "P M N A"
_symmetry_group_IT_number 53
_symmetry_cell_setting 'orthorhombic'
loop_
_space_group_symop_operation_xyz
x,y,z
1/2-x,-y,1/2+z
x,-y,-z
1/2-x,y,1/2-z
-x,-y,-z
1/2+x,y,1/2-z
-x,y,z
1/2+x,-y,1/2+z
loop_
_atom_site_type_symbol
_atom_site_label
_atom_site_fract_x
_atom_site_fract_y
_atom_site_fract_z
Si Si1 0.180814 0.980728 0.174740
Si Si2 0.318915 0.253993 0.041435
Si Si3 0.816075 0.414850 0.529511
Si Si4 0.183216 0.153738 0.326254
Si Si5 0.680952 0.664195 0.174184
Si Si6 0.179850 0.831416 0.397384
O O1 0.250000 0.951948 0.250000
O O2 0.218636 0.910590 0.118234
O O3 0.000000 0.994003 0.182089
O O4 0.257458 0.065084 0.150058
O O5 0.500000 0.262318 0.047236
O O6 0.253878 0.219271 0.116075
O O7 0.251965 0.343594 0.022924
O O8 0.277935 0.191445 0.978349
O O9 0.748437 0.500000 0.500000
O O10 0.760516 0.396571 0.610951
O O11 0.000000 0.415288 0.528358
O O12 0.250000 0.180306 0.250000
O O13 0.000000 0.151438 0.322712
O O14 0.750000 0.637284 0.250000
O O15 0.500000 0.657297 0.180213
O O16 0.727787 0.756900 0.154712
O O17 0.000000 0.851803 0.388326
#
# Coordination Sequence:
#
# PCOD8219027 Si02
#       6
#     8   8   8   8   8   8
#     4  11  21  32  46  67  94 125 161 196 234 275
#     4   8  16  30  49  70  91 121 158 192 231 281
#     4   8  14  28  50  73  95 121 156 194 228 269
#     4  10  19  33  50  67  91 124 161 198 235 273
#     4   9  17  28  46  71  97 124 153 188 229 276
#     4   9  17  31  48  68  94 123 157 193 232 278
#
# _framework density 18.020040000000002
#
# number of rings (size 3 to 8) (size 9 to 14) (size 15 to 20)
#    0.000    2.833    0.000    5.500    0.000    2.667 
#    0.000    5.833    0.000    2.500    0.000    0.000 
#    0.000    0.000    0.000    0.000    0.000    0.000 
#
# Total GULP energy -594976.566190 kJ/mol
# GULP energy per Si atom -12395.345129 kJ/mol
# Density = 1.797903 g / cm^3
# Si number density = 18.020040 Si / 1000 Ang^3
#
#
#
# Elastic Constant Matrix: (Units=GPa)
#
#
# Indices 1 2 3 4 5 6 
#
# 1 49.3979 24.4276 27.4516 0.0000 0.0000 0.0000
# 2 24.4276 124.7801 94.2433 0.0000 0.0000 0.0000
# 3 27.4516 94.2433 144.6795 0.0000 0.0000 0.0000
# 4 0.0000 0.0000 0.0000 27.4403 0.0000 0.0000
# 5 0.0000 0.0000 0.0000 0.0000 25.7585 0.0000
# 6 0.0000 0.0000 0.0000 0.0000 0.0000 -0.8865
#
#
#
# Elastic Compliance Matrix: (Units=1/GPa)
#
#
# Indices 1 2 3 4 5 6 
#
# 1 0.022981 -0.002373 -0.002815 0.000000 0.000000 0.000000
# 2 -0.002373 0.016020 -0.009985 0.000000 0.000000 0.000000
# 3 -0.002815 -0.009985 0.013950 0.000000 0.000000 0.000000
# 4 0.000000 0.000000 0.000000 0.036443 0.000000 0.000000
# 5 0.000000 0.000000 0.000000 0.000000 0.038822 0.000000
# 6 0.000000 0.000000 0.000000 0.000000 0.000000 -1.128074
#
#
# Mechanical properties :
#
#
# Convention : Reuss Voigt Hill
#
# Bulk Modulus (GPa) = 44.23626 67.90028 56.06827
# Shear Modulus (GPa) = -5.19764 21.97814 8.39025
#
# Velocity S-wave (km/s) = -1.70018 3.49614 2.16013
# Velocity P-wave (km/s) = 4.55494 7.35252 6.11584
#
# Compressibility (1/GPa) = 0.02260589
#
# Stress axis : x y z
#
# Youngs Moduli (GPa) = 43.51333 62.42104 71.68363
#
# Poissons Ratio (x) = 0.14813 0.20177
# Poissons Ratio (y) = 0.10326 0.71578
# Poissons Ratio (z) = 0.12248 0.62329
#
# Static dielectric constant tensor:
#      x y z
#    x 2.974400 0.000000 0.000000 
#    y 0.000000 3.554630 0.000000 
#    z 0.000000 0.000000 3.902990 
# 
# 
# High freq. dielectric constant tensor:
#      x y z
#    x 1.666620 0.000000 0.000000 
#    y 0.000000 1.689410 0.000000 
#    z 0.000000 0.000000 1.700000 
# 
# From -- ./inp_files/26421.got.cif
#   From: 2010.03.12/outbox.cif.g09.slc.cpg/sg53_14_cif.got.tgz:26421.got - 2010.04.16 14:36:59.
