data_PCOD8219789
_publ_section_title
;
Structure prediction by ZEFSAII (Michael W. Deem and Ramdas Pophale) SiO2 
 PCOD8219789
Probable space group: P M N A
;
_chemical_formula_sum "Si O2"
_cell_formula_units_Z 64
_cell_length_a 8.838318
_cell_length_b 27.276304
_cell_length_c 14.734632
_cell_angle_alpha 90.000000
_cell_angle_beta 90.000000
_cell_angle_gamma 90.000000
_cell_volume 3552.175701
_symmetry_space_group_name_H-M "P M N A"
_symmetry_group_IT_number 53
_symmetry_cell_setting 'orthorhombic'
loop_
_space_group_symop_operation_xyz
x,y,z
1/2-x,-y,1/2+z
x,-y,-z
1/2-x,y,1/2-z
-x,-y,-z
1/2+x,y,1/2-z
-x,y,z
1/2+x,-y,1/2+z
loop_
_atom_site_type_symbol
_atom_site_label
_atom_site_fract_x
_atom_site_fract_y
_atom_site_fract_z
Si Si1 0.674958 0.609092 0.533593
Si Si2 0.823581 0.918277 0.343398
Si Si3 0.177510 0.697269 0.843310
Si Si4 0.176074 0.426211 0.840733
Si Si5 0.677952 0.807258 0.656571
Si Si6 0.678914 0.107565 0.475721
Si Si7 0.820899 0.530870 0.656766
Si Si8 0.676438 0.032717 0.156470
O O1 0.500000 0.597619 0.556290
O O2 0.724940 0.661526 0.574439
O O3 0.701032 0.610642 0.425071
O O4 0.777496 0.566521 0.575059
O O5 0.750000 0.900014 0.250000
O O6 0.745212 0.888017 0.423615
O O7 0.000000 0.906424 0.341433
O O8 0.791426 0.975593 0.358331
O O9 0.250000 0.677960 0.750000
O O10 0.234891 0.752190 0.866707
O O11 0.000000 0.697079 0.828256
O O12 0.250000 0.402840 0.750000
O O13 0.255062 0.477456 0.864421
O O14 0.000000 0.436097 0.822470
O O15 0.750000 0.826180 0.750000
O O16 0.500000 0.808773 0.669596
O O17 0.729459 0.843150 0.576232
O O18 0.500000 0.101484 0.479701
O O19 0.748291 0.060175 0.427370
O O20 0.750000 0.551742 0.750000
O O21 0.000000 0.527758 0.665970
O O22 0.750000 0.051371 0.250000
O O23 0.500000 0.044833 0.159577
#
# Coordination Sequence:
#
# PCOD8219789 Si02
#       8
#     8   8   8   8   8   8   8   8
#     4  10  20  33  51  73  97 128 164 202 244 289
#     4  10  21  36  52  71  98 132 169 208 248 290
#     4   9  18  34  53  74 100 128 158 194 241 291
#     4  10  20  34  50  69  96 129 165 203 241 283
#     4   9  19  34  52  75 102 130 160 197 241 291
#     4  11  21  32  50  75 101 132 168 204 245 294
#     4  11  21  32  48  71 101 133 163 198 239 286
#     4  10  20  33  49  72 102 134 167 204 246 293
#
# _framework density 18.017126999999999
#
# number of rings (size 3 to 8) (size 9 to 14) (size 15 to 20)
#    0.000    2.000    0.000    4.875    0.000    9.000 
#    0.000    0.000    0.000    0.750    0.000    1.750 
#    0.000    0.000    0.000    0.000    0.000    0.000 
#
# Total GULP energy -793772.321074 kJ/mol
# GULP energy per Si atom -12402.692517 kJ/mol
# Density = 1.797612 g / cm^3
# Si number density = 18.017127 Si / 1000 Ang^3
#
#
#
# Elastic Constant Matrix: (Units=GPa)
#
#
# Indices 1 2 3 4 5 6 
#
# 1 89.9330 39.7598 58.4725 0.0000 0.0000 0.0000
# 2 39.7598 72.7503 67.5629 0.0000 0.0000 0.0000
# 3 58.4725 67.5629 159.0105 0.0000 0.0000 0.0000
# 4 0.0000 0.0000 0.0000 27.6619 0.0000 0.0000
# 5 0.0000 0.0000 0.0000 0.0000 34.1290 0.0000
# 6 0.0000 0.0000 0.0000 0.0000 0.0000 15.7319
#
#
#
# Elastic Compliance Matrix: (Units=1/GPa)
#
#
# Indices 1 2 3 4 5 6 
#
# 1 0.015778 -0.005343 -0.003532 0.000000 0.000000 0.000000
# 2 -0.005343 0.024514 -0.008451 0.000000 0.000000 0.000000
# 3 -0.003532 -0.008451 0.011178 0.000000 0.000000 0.000000
# 4 0.000000 0.000000 0.000000 0.036151 0.000000 0.000000
# 5 0.000000 0.000000 0.000000 0.000000 0.029301 0.000000
# 6 0.000000 0.000000 0.000000 0.000000 0.000000 0.063565
#
#
# Mechanical properties :
#
#
# Convention : Reuss Voigt Hill
#
# Bulk Modulus (GPa) = 59.45779 72.58712 66.02246
# Shear Modulus (GPa) = 22.65053 25.89781 24.27417
#
# Velocity S-wave (km/s) = 3.54950 3.79542 3.67452
# Velocity P-wave (km/s) = 7.06194 7.71895 7.39774
#
# Compressibility (1/GPa) = 0.01681865
#
# Stress axis : x y z
#
# Youngs Moduli (GPa) = 63.38014 40.79226 89.45745
#
# Poissons Ratio (x) = 0.21796 0.31593
# Poissons Ratio (y) = 0.33865 0.75603
# Poissons Ratio (z) = 0.22384 0.34475
#
# Static dielectric constant tensor:
#      x y z
#    x 3.374090 0.000000 0.000000 
#    y 0.000000 3.296480 0.000000 
#    z 0.000000 0.000000 3.468530 
# 
# 
# High freq. dielectric constant tensor:
#      x y z
#    x 1.706480 0.000000 0.000000 
#    y 0.000000 1.671240 0.000000 
#    z 0.000000 0.000000 1.701310 
# 
# From -- ./inp_files/21064.got.cif
#   From: 2010.03.12/outbox.cif.g09.slc.cpg/sg53_11_cif.got.tgz:21064.got - 2010.04.16 14:36:59.
